80
-1 1
O         2.396164    0.421773    3.454935
C         1.612940    0.835306    2.607049
N         0.354591    1.216923    2.962154
C        -0.707129    1.700549    2.140278
C        -0.817689    3.069594    1.849931
C         0.250652    4.034493    2.284253
C        -1.948372    3.496642    1.140282
C        -2.914603    2.598689    0.692024
C        -2.730413    1.239758    0.926844
N        -3.609295    0.233095    0.392050
C        -4.845259    0.104008    1.075149
O        -5.277080    1.022595    1.743179
C        -5.492293   -1.196222    0.958810
C        -4.938666   -2.194592    0.239768
C        -3.114829   -0.733843   -0.475385
C        -3.746413   -1.977016   -0.525349
C        -3.179483   -3.011264   -1.319393
N        -2.131302   -2.880404   -2.072861
C        -1.548537   -1.647747   -2.123968
C        -2.000783   -0.524188   -1.373827
C        -1.358369    0.715472   -1.604273
C        -0.287507    0.854975   -2.469731
C         0.350761    2.172689   -2.553464
C         1.432354    2.511762   -3.274361
C         2.076716    3.834676   -3.277661
C         2.989543    4.154318   -4.295499
C         3.615288    5.397888   -4.342318
C         3.347494    6.353803   -3.364062
C         2.453371    6.047586   -2.336626
C         1.829957    4.805014   -2.290405
C         0.178792   -0.287616   -3.166775
C        -0.441286   -1.495503   -2.996983
C        -1.656390    0.793039    1.684470
C         2.021020    0.914118    1.176037
C         1.407761    0.243359    0.198848
S        -1.076389   -2.597236    1.659932
C         0.482420   -2.832380    2.575791
C         1.748910   -2.950057    1.689180
H         1.961549   -1.981888    1.218540
N         1.562702   -3.891559    0.618232
C         1.562845   -3.538018   -0.688324
C         0.965271   -4.570031   -1.623749
O         1.993505   -2.473018   -1.106587
C         2.936902   -3.358746    2.563434
N         3.506864   -2.330581    3.245257
C         4.546615   -2.538244    4.215444
O         3.297753   -4.519948    2.673883
H         0.113823    0.952792    3.913191
H         1.187400    3.847142    1.734166
H         0.483210    3.918813    3.353325
H        -0.051434    5.075065    2.100142
H        -2.072099    4.562903    0.932856
H        -3.784703    2.942548    0.131968
H        -6.407555   -1.319548    1.537904
H        -5.400325   -3.185189    0.211151
H        -3.656871   -3.998921   -1.286563
H        -1.691568    1.604045   -1.079846
H        -0.117894    2.934424   -1.921088
H         1.897012    1.766273   -3.927681
H         3.206233    3.409610   -5.066125
H         4.319197    5.620152   -5.147974
H         3.839317    7.328696   -3.394854
H         2.247705    6.782397   -1.554516
H         1.155799    4.576120   -1.462215
H         1.047399   -0.219909   -3.823900
H        -0.095454   -2.388034   -3.517652
H        -1.515845   -0.290900    1.864244
H         2.987391    1.400260    1.008304
H         1.841115    0.182908   -0.799865
H         0.496888   -0.344824    0.367311
H         0.422691   -3.748993    3.189657
H         0.662784   -2.004074    3.282443
H         1.101802   -4.755312    0.871029
H        -0.095927   -4.313175   -1.777505
H         1.024568   -5.593418   -1.225793
H         1.483150   -4.518763   -2.590535
H         3.130687   -1.387088    3.151298
H         5.460182   -1.976575    3.957654
H         4.783668   -3.610145    4.231921
H         4.227870   -2.226835    5.224470
