80
-1 1
O         4.295186    7.102269    3.342797
C         3.381285    7.176497    2.505104
N         2.509913    8.264731    2.703318
C         1.184559    8.558995    2.390467
C         0.793123    9.919833    2.416392
C         1.815284   10.993615    2.675103
C        -0.550865   10.242958    2.210016
C        -1.500586    9.271984    1.910464
C        -1.080832    7.949657    1.816909
N        -1.984276    6.924639    1.365070
C        -2.907819    6.481123    2.346593
O        -3.048267    7.099049    3.382182
C        -3.626104    5.255858    2.026056
C        -3.410074    4.599427    0.868782
C        -1.809437    6.303711    0.139759
C        -2.500811    5.113514   -0.110600
C        -2.244913    4.394558   -1.307701
N        -1.406747    4.755777   -2.230782
C        -0.767756    5.947466   -2.053616
C        -0.961893    6.800788   -0.927687
C        -0.317817    8.063582   -0.958684
C         0.548907    8.446306   -1.966779
C         1.202024    9.752902   -1.833847
C         2.052020   10.335870   -2.694785
C         2.713926   11.634936   -2.494718
C         3.369227   12.246730   -3.574980
C         4.001259   13.480131   -3.433881
C         3.997937   14.131191   -2.201807
C         3.360756   13.531537   -1.113824
C         2.730463   12.300123   -1.255932
C         0.787246    7.547229   -3.037974
C         0.131375    6.345934   -3.079254
C         0.225640    7.578958    2.108375
C         3.335868    6.271655    1.387972
C         2.407545    6.056569    0.394962
S         0.790014    4.249982    1.095504
C         1.544456    4.113517    2.728505
C         2.837189    3.273611    2.796279
H         3.568931    3.686600    2.091621
N         2.628526    1.905291    2.412130
C         3.200532    1.335361    1.323626
C         2.731624   -0.082073    1.039792
O         3.999130    1.898887    0.597682
C         3.382159    3.324078    4.227309
N         4.052034    4.451048    4.552563
C         4.486006    4.708270    5.900640
O         3.156939    2.425928    5.028032
H         2.912097    8.845129    3.431605
H         2.697677   10.860016    2.028980
H         2.179022   10.976199    3.717733
H         1.394231   11.992796    2.494823
H        -0.853292   11.292623    2.258521
H        -2.539801    9.533921    1.711959
H        -4.310389    4.896656    2.794762
H        -3.924753    3.658559    0.655402
H        -2.777326    3.445712   -1.455591
H        -0.490427    8.781341   -0.165992
H         0.952964   10.276758   -0.904596
H         2.290269    9.833693   -3.638168
H         3.378076   11.741897   -4.544836
H         4.502027   13.933820   -4.292533
H         4.496162   15.096301   -2.085551
H         3.363746   14.024476   -0.138722
H         2.259523   11.840005   -0.384882
H         1.489534    7.807887   -3.832384
H         0.275449    5.640920   -3.899100
H         0.481090    6.517161    2.047372
H         4.200819    5.604538    1.413132
H         2.691362    5.415187   -0.437792
H         1.603463    6.758094    0.183337
H         0.815664    3.700590    3.445949
H         1.803564    5.121613    3.101757
H         2.068690    1.344964    3.040557
H         1.866497   -0.028464    0.361553
H         2.428028   -0.623669    1.947751
H         3.536481   -0.627899    0.531976
H         4.198267    5.204449    3.876726
H         5.444040    4.211529    6.134708
H         3.738752    4.337985    6.618168
H         4.612886    5.791971    6.025211
