82
-1 1
O         1.164947   -0.927413   -2.538079
C         1.791959   -0.161218   -1.783139
N         1.011988    0.485996   -0.762022
C         1.394635    1.665879    0.019326
C         0.064802    2.312078    0.424329
C        -0.894484    1.155812    0.330256
C        -0.291705    0.152482   -0.463422
C        -1.035651   -0.972288   -0.841164
C        -2.350234   -1.066727   -0.388719
N        -3.147908   -2.198546   -0.804827
C        -3.694470   -2.037442   -2.112794
O        -3.412128   -1.073455   -2.786866
C        -4.619690   -3.078434   -2.545697
C        -4.982109   -4.077976   -1.719965
C        -3.460918   -3.254400    0.027003
C        -4.421104   -4.184251   -0.404173
C        -4.852558   -5.213918    0.474138
N        -4.422140   -5.391128    1.684755
C        -3.430220   -4.555615    2.115695
C        -2.873769   -3.494546    1.336940
C        -1.765677   -2.796881    1.884599
C        -1.267663   -3.064833    3.146409
C        -0.106900   -2.301398    3.664496
C         0.883644   -2.941242    4.469526
N         1.942130   -2.354432    4.961076
C         0.076282   -0.963593    3.388385
C         1.208869   -0.287734    3.905378
C         2.127979   -1.033342    4.694484
C         3.277609   -0.381148    5.215756
C         3.496706    0.950648    4.961169
C         2.575823    1.695839    4.182149
C         1.454519    1.091246    3.670080
C        -1.880928   -4.074671    3.928287
C        -2.925003   -4.800764    3.416943
C        -2.946841   -0.100523    0.414653
C        -2.198694    1.028589    0.773119
C         3.173971    0.091744   -1.903162
C         4.088758    0.875342   -1.095249
S         4.358678    2.790415   -1.606982
C         3.733418    2.782262   -3.304541
C         2.600432    3.779665   -3.581468
H         2.496448    3.883987   -4.673560
N         2.921740    5.091056   -3.084385
C         2.509445    6.220157   -3.724646
C         2.566891    7.475328   -2.874913
O         2.124370    6.233803   -4.878522
C         1.190565    3.373590   -3.082918
N         0.735560    2.187040   -3.535405
C        -0.607518    1.702375   -3.302286
O         0.521606    4.137584   -2.402909
H         2.023678    2.345002   -0.567922
H         1.964067    1.360803    0.916739
H        -0.212728    3.092039   -0.306688
H         0.105684    2.789407    1.414769
H        -0.592956   -1.719406   -1.494746
H        -5.018496   -2.962759   -3.553587
H        -5.707521   -4.832659   -2.037252
H        -5.625700   -5.903594    0.108504
H        -1.251628   -2.053637    1.285283
H         0.777218   -4.012030    4.684406
H        -0.643998   -0.409806    2.778222
H         3.970039   -0.978218    5.811678
H         4.387338    1.443597    5.357557
H         2.764720    2.753064    3.984324
H         0.739717    1.653770    3.067080
H        -1.522890   -4.274223    4.940839
H        -3.403297   -5.599956    3.985007
H        -3.981900   -0.221265    0.738159
H        -2.654848    1.819207    1.374551
H         3.602670   -0.455342   -2.746949
H         5.115919    0.498470   -1.161798
H         3.831998    0.997446   -0.037757
H         3.391265    1.743609   -3.476014
H         4.561188    2.992286   -3.996239
H         3.060743    5.135239   -2.080332
H         2.566902    8.354140   -3.530471
H         3.450994    7.491987   -2.221106
H         1.668096    7.502663   -2.239704
H         1.394873    1.529219   -3.932168
H        -1.279763    1.967193   -4.135429
H        -1.011917    2.149294   -2.386060
H        -0.577125    0.611730   -3.188207
