82
-1 1
O         1.492968   -1.343499   -2.351266
C         2.000361   -0.446314   -1.689730
N         1.260011    0.252731   -0.758570
C         1.683843    1.454607   -0.012857
C         0.373746    2.161741    0.347945
C        -0.645922    1.064291    0.236140
C        -0.088626   -0.006857   -0.486882
C        -0.867631   -1.102744   -0.852916
C        -2.206537   -1.105838   -0.458602
N        -3.052068   -2.205559   -0.855816
C        -3.478603   -2.117381   -2.214821
O        -3.029583   -1.266510   -2.948289
C        -4.496509   -3.079097   -2.621792
C        -5.027639   -3.949256   -1.742198
C        -3.528818   -3.150394    0.033502
C        -4.561026   -4.002581   -0.386347
C        -5.153621   -4.901578    0.541399
N        -4.808044   -5.022762    1.785573
C        -3.748259   -4.272011    2.210234
C        -3.037482   -3.345195    1.387688
C        -1.879197   -2.738237    1.939598
C        -1.470454   -2.963106    3.241028
C        -0.246932   -2.304585    3.758636
C         0.645343   -3.006547    4.624268
N         1.755374   -2.517211    5.108321
C         0.092330   -1.012546    3.419491
C         1.285156   -0.441371    3.926899
C         2.099280   -1.243812    4.774149
C         3.310985   -0.701863    5.280637
C         3.690105    0.577440    4.954200
C         2.874129    1.380617    4.117824
C         1.693925    0.884255    3.622152
C        -2.232317   -3.832187    4.061003
C        -3.332910   -4.470473    3.550743
C        -2.771202   -0.064134    0.267690
C        -1.976664    1.032519    0.619548
C         3.429097   -0.108646   -1.915311
C         4.324529    0.415217   -1.069434
S         4.267322    3.587565   -1.352240
C         3.780899    3.248678   -3.074598
C         2.510166    3.993977   -3.547934
H         2.467337    3.971876   -4.651164
N         2.570453    5.363549   -3.138088
C         1.848250    6.337398   -3.732037
C         1.841852    7.661711   -2.988399
O         1.235287    6.182989   -4.776890
C         1.192634    3.349186   -3.073441
N         0.960391    2.107386   -3.581077
C        -0.301940    1.418137   -3.449240
O         0.404781    3.913428   -2.334365
H         2.362933    2.094926   -0.600267
H         2.220444    1.141249    0.899272
H         0.152534    2.950199   -0.392688
H         0.410661    2.639914    1.337323
H        -0.447998   -1.909512   -1.446689
H        -4.817419   -3.011272   -3.661314
H        -5.819754   -4.639540   -2.045929
H        -5.981241   -5.529694    0.184731
H        -1.255218   -2.105234    1.318476
H         0.410188   -4.043541    4.895778
H        -0.550102   -0.415564    2.764740
H         3.920300   -1.339995    5.922910
H         4.628609    0.984099    5.337501
H         3.190468    2.393698    3.861241
H         1.057926    1.494477    2.978775
H        -1.942121   -3.992529    5.101808
H        -3.925873   -5.162940    4.149895
H        -3.825570   -0.106803    0.546383
H        -2.411438    1.872338    1.166163
H         3.750881   -0.437965   -2.907400
H         5.361931    0.545652   -1.380087
H         4.096339    0.710588   -0.047597
H         3.618244    2.164589   -3.216259
H         4.596255    3.538464   -3.757111
H         3.009991    5.484213   -2.222522
H         1.695312    8.476411   -3.708729
H         2.763952    7.825826   -2.412833
H         0.993261    7.658991   -2.287203
H         1.646254    1.724303   -4.217286
H        -0.957455    1.588930   -4.320277
H        -0.820904    1.797654   -2.561203
H        -0.143888    0.337662   -3.333412
