82
-1 1
O         6.826511   -6.866299    5.807024
C         7.414202   -6.073224    6.551142
N         6.642267   -5.428650    7.552079
C         7.028870   -4.246277    8.334160
C         5.699582   -3.591209    8.724973
C         4.728742   -4.735455    8.617381
C         5.325705   -5.750540    7.838569
C         4.578686   -6.868822    7.456822
C         3.254906   -6.946046    7.887783
N         2.449590   -8.068687    7.464875
C         1.947695   -7.920476    6.137495
O         2.282331   -6.982051    5.451216
C         1.000161   -8.939576    5.701103
C         0.583234   -9.909319    6.536739
C         2.083956   -9.099959    8.307232
C         1.106825  -10.007577    7.868641
C         0.622372  -11.006690    8.755054
N         1.018626  -11.173636    9.978690
C         2.026728  -10.362288   10.417990
C         2.633988   -9.333978    9.633567
C         3.753210   -8.663438   10.192347
C         4.215322   -8.924316   11.469124
C         5.390245   -8.190474   11.997922
C         6.347713   -8.850588   12.826170
N         7.417034   -8.290710   13.325441
C         5.618962   -6.862459   11.708787
C         6.764751   -6.215530   12.233479
C         7.648901   -6.979857   13.044552
C         8.812151   -6.358022   13.572578
C         9.077771   -5.037741   13.302780
C         8.191792   -4.273636   12.501902
C         7.057719   -4.848358   11.983716
C         3.552229   -9.898988   12.255159
C         2.495693  -10.599802   11.734160
C         2.659692   -5.965087    8.673122
C         3.415412   -4.844356    9.039668
C         8.818960   -5.808451    6.423067
C         9.699276   -5.079288    7.234913
S         9.933278   -2.887342    6.679093
C         9.267534   -3.011290    5.004904
C         8.097604   -2.062676    4.687515
H         7.974294   -2.014322    3.593057
N         8.383632   -0.727764    5.131950
C         7.823572    0.362513    4.548987
C         7.949374    1.640896    5.357218
O         7.259807    0.331618    3.469693
C         6.719692   -2.512643    5.227810
N         6.282362   -3.696989    4.742635
C         4.963933   -4.235185    4.987771
O         6.060123   -1.809340    5.976624
H         7.672554   -3.576113    7.750321
H         7.585048   -4.559396    9.236349
H         5.438552   -2.807480    7.992287
H         5.733158   -3.118538    9.717738
H         5.018852   -7.627657    6.815687
H         0.631622   -8.831968    4.680889
H        -0.158493  -10.646018    6.215090
H        -0.163279  -11.678910    8.383805
H         4.304533   -7.948022    9.592322
H         6.204067   -9.914466   13.053477
H         4.924577   -6.294344   11.082006
H         9.477130   -6.968770   14.185613
H         9.979019   -4.568499   13.703793
H         8.417951   -3.226209   12.291750
H         6.369222   -4.270419   11.364898
H         3.882264  -10.091460   13.278516
H         1.979615  -11.372564   12.305680
H         1.617583   -6.069486    8.979489
H         2.959400   -4.045333    9.629536
H         9.230401   -6.316327    5.547197
H        10.759575   -5.300113    7.099807
H         9.449024   -4.866418    8.273812
H         8.938088   -4.063586    4.882075
H        10.067040   -2.824897    4.272813
H         8.724837   -0.671197    6.087500
H         7.859961    2.501723    4.683602
H         8.897258    1.692230    5.912218
H         7.122505    1.671784    6.083332
H         6.927736   -4.270821    4.216345
H         4.272502   -4.005021    4.159793
H         4.554127   -3.792607    5.903310
H         5.027189   -5.323390    5.112290
