73
-1 1
O         2.705386   -1.536349   -0.400753
C         2.300796   -0.428812   -0.827253
N         0.987376   -0.489288   -1.508058
C        -0.195508   -0.235137   -0.834375
C        -1.385625   -0.902621   -1.233523
C        -1.335883   -1.922940   -2.336863
C        -2.576038   -0.597382   -0.579467
C        -2.633133    0.324907    0.465407
C        -1.454537    0.943982    0.857027
N        -1.476415    1.801900    2.015363
C        -1.551207    3.184892    1.707991
O        -1.464977    3.570438    0.561038
C        -1.771651    4.072241    2.842582
C        -1.930100    3.584005    4.088929
C        -1.550388    1.290378    3.300614
C        -1.827725    2.177957    4.350551
C        -2.020422    1.674179    5.667172
N        -1.948965    0.424365    6.003116
C        -1.600201   -0.464913    5.023469
C        -1.350955   -0.105883    3.662413
C        -0.891879   -1.130862    2.796623
C        -0.713372   -2.439153    3.206192
C        -0.198656   -3.438388    2.244093
C         0.723571   -3.149829    1.263836
S         1.066949   -4.513078    0.286935
C        -0.019950   -5.507752    1.180011
C        -0.617201   -4.809377    2.192920
C        -1.030548   -2.783892    4.542188
C        -1.455670   -1.817897    5.420047
C        -0.253450    0.705315    0.203847
C         2.915832    0.803424   -0.742423
C         2.512548    2.053976   -1.423401
S         3.490141    2.424814   -3.006971
C         2.313783    2.387918   -4.410046
C         1.267007    1.268576   -4.558334
H         0.864689    1.395556   -5.577860
N         0.147867    1.436084   -3.659706
C        -0.821513    2.364697   -3.867186
C        -1.869707    2.436769   -2.777394
O        -0.827924    3.091001   -4.849350
C         1.695219   -0.211904   -4.495366
N         2.954691   -0.475314   -4.095255
C         3.404369   -1.823448   -3.829535
O         0.887690   -1.076818   -4.806563
H         0.951286   -1.363122   -2.025143
H        -0.897996   -1.512043   -3.262350
H        -2.341367   -2.301462   -2.566033
H        -0.714540   -2.786779   -2.041752
H        -3.490021   -1.110301   -0.890173
H        -3.566471    0.531460    0.990947
H        -1.832570    5.134675    2.606401
H        -2.130232    4.254210    4.929997
H        -2.265201    2.396697    6.458020
H        -0.647539   -0.907902    1.767630
H         1.277256   -2.235058    1.031149
H        -0.173593   -6.550570    0.907388
H        -1.357049   -5.242467    2.868228
H        -0.899845   -3.814071    4.881992
H        -1.671416   -2.046171    6.465005
H         0.666316    1.189538    0.534515
H         3.871264    0.804404   -0.210367
H         2.710525    2.943632   -0.808490
H         1.455950    2.091805   -1.711176
H         2.979595    2.372713   -5.287277
H         1.754939    3.332714   -4.450907
H         0.156392    0.860484   -2.823249
H        -1.447013    2.842898   -1.844151
H        -2.265013    1.438734   -2.538513
H        -2.682826    3.090088   -3.114650
H         3.473300    0.289500   -3.655788
H         2.724351   -2.522290   -4.332303
H         3.401678   -2.031667   -2.745524
H         4.423823   -1.969792   -4.217402
