55
-1 1
O        -4.476097   -5.077348    0.591922
C        -3.447362   -4.440264    0.448524
N        -2.427506   -4.589660    1.366248
C        -1.279565   -3.816860    1.650210
C        -1.269212   -2.421900    1.541283
C        -0.121784   -1.684148    1.849876
C        -0.113057   -0.219706    1.655024
C        -0.411190    0.407739    0.461084
N        -0.260039    1.758649    0.575472
H        -0.401550    2.449581   -0.180419
C         0.240691    0.830742    2.573704
C         0.138998    2.060605    1.842982
N         0.374407    3.284088    2.303263
C         0.729968    3.355480    3.577385
C         0.842877    2.244716    4.428714
C         0.585286    0.977212    3.921744
Cl         0.670593   -0.394615    5.005676
C         1.017200   -2.362343    2.309249
C         0.999558   -3.744821    2.452009
C        -0.137208   -4.476523    2.113948
C        -3.260215   -3.558492   -0.737350
C        -2.118215   -3.366355   -1.400146
S        -0.676052   -0.618613   -3.048069
C        -0.500350    1.153635   -3.463785
C         0.844186    1.785525   -3.036531
H         1.039163    1.493473   -1.990288
N         0.837748    3.230794   -3.146217
C         0.171535    4.062283   -2.336600
C         0.332230    5.541572   -2.625864
O        -0.543926    3.694026   -1.406989
C         2.035303    1.325318   -3.896339
N         2.222309   -0.000876   -3.932861
C         3.219726   -0.610880   -4.769932
O         2.737610    2.145913   -4.485807
H        -2.633631   -5.334047    2.023864
H        -2.163695   -1.894750    1.209245
H        -0.670398   -0.042902   -0.507462
H         0.934969    4.355374    3.976023
H         1.117804    2.374288    5.475701
H         1.919538   -1.795098    2.544125
H         1.890159   -4.266897    2.809808
H        -0.143575   -5.566097    2.198736
H        -4.199273   -3.143826   -1.114253
H        -2.078544   -2.741068   -2.297119
H        -1.171633   -3.792931   -1.057173
H        -1.285944    1.728068   -2.951460
H        -0.628673    1.323724   -4.546933
H         1.511283    3.575280   -3.829051
H        -0.662765    5.967535   -2.816949
H         0.989411    5.752629   -3.480167
H         0.730040    6.029407   -1.724906
H         1.431249   -0.568624   -3.562303
H         2.785655   -1.003959   -5.705457
H         3.705513   -1.445010   -4.240945
H         3.976551    0.140705   -5.030262
