-1 1
 OpenBabel05192410563D

 82 86  0  0  1  0  0  0  0  0999 V2000
   -0.7989   -0.5103    2.5268 O   0  0  0  0  0  0  0  0  0  0  0  0
    0.0743    0.2567    3.0140 C   0  0  0  0  0  0  0  0  0  0  0  0
    1.2914    0.4417    2.2846 N   0  0  0  0  0  0  0  0  0  0  0  0
    1.7474   -0.3068    1.2121 C   0  0  0  0  0  0  0  0  0  0  0  0
    1.3074   -1.6174    0.9759 C   0  0  0  0  0  0  0  0  0  0  0  0
    1.7431   -2.3371   -0.1367 C   0  0  0  0  0  0  0  0  0  0  0  0
    1.2105   -3.7034   -0.3206 C   0  0  0  0  0  0  0  0  0  0  0  0
    1.9444   -4.8617   -0.2856 C   0  0  0  0  0  0  0  0  0  0  0  0
    1.1160   -5.9577   -0.3508 N   0  0  0  0  0  0  0  0  0  0  0  0
    1.3899   -6.9285   -0.3320 H   0  0  0  0  0  0  0  0  0  0  0  0
   -0.1733   -4.1079   -0.4238 C   0  0  0  0  0  0  0  0  0  0  0  0
   -0.1828   -5.5305   -0.4267 C   0  0  0  0  0  0  0  0  0  0  0  0
   -1.2354   -6.3334   -0.5236 N   0  0  0  0  0  0  0  0  0  0  0  0
   -2.3978   -5.7012   -0.6299 C   0  0  0  0  0  0  0  0  0  0  0  0
   -2.5304   -4.3059   -0.6853 C   0  0  0  0  0  0  0  0  0  0  0  0
   -1.4160   -3.4652   -0.6092 C   0  0  0  0  0  0  0  0  0  0  0  0
   -1.6169   -2.0239   -0.8876 C   0  0  0  0  0  0  0  0  0  0  0  0
   -2.0404   -1.4384   -2.0752 C   0  0  0  0  0  0  0  0  0  0  0  0
   -2.2412   -2.0455   -3.4026 C   0  0  0  0  0  0  0  0  0  0  0  0
   -3.0734   -1.3953   -4.3273 C   0  0  0  0  0  0  0  0  0  0  0  0
   -3.2982   -1.9231   -5.5951 C   0  0  0  0  0  0  0  0  0  0  0  0
   -2.6806   -3.1168   -5.9460 C   0  0  0  0  0  0  0  0  0  0  0  0
   -2.8964   -3.6352   -7.1655 F   0  0  0  0  0  0  0  0  0  0  0  0
   -1.8373   -3.7794   -5.0651 C   0  0  0  0  0  0  0  0  0  0  0  0
   -1.6158   -3.2370   -3.8010 C   0  0  0  0  0  0  0  0  0  0  0  0
   -2.2879   -0.1078   -1.8719 N   0  0  0  0  0  0  0  0  0  0  0  0
   -2.0180    0.1146   -0.6033 C   0  0  0  0  0  0  0  0  0  0  0  0
   -2.1429    1.4346    0.0952 C   0  0  0  0  0  0  0  0  0  0  0  0
   -1.3490    2.5481   -0.5885 C   0  0  0  0  0  0  0  0  0  0  0  0
    0.1400    2.2673   -0.5783 C   0  0  0  0  0  0  0  0  0  0  0  0
    0.8417    3.3584   -1.1447 O   0  0  0  0  0  0  0  0  0  0  0  0
   -1.6053   -1.0079    0.0316 N   0  0  0  0  0  0  0  0  0  0  0  0
   -1.2691   -0.9835    1.0269 H   0  0  0  0  0  0  0  0  0  0  0  0
    2.6791   -1.7786   -1.0138 C   0  0  0  0  0  0  0  0  0  0  0  0
    3.1561   -0.4932   -0.7599 C   0  0  0  0  0  0  0  0  0  0  0  0
    2.6957    0.2422    0.3270 C   0  0  0  0  0  0  0  0  0  0  0  0
   -0.0671    0.9452    4.2160 C   0  0  0  0  0  3  0  0  0  0  0  0
    0.9739    1.6887    4.9225 C   0  0  0  0  0  0  0  0  0  0  0  0
    0.8473    3.6174    4.9050 S   0  0  0  0  0  0  0  0  0  0  0  0
    0.3186    3.9605    3.2057 C   0  0  0  0  0  0  0  0  0  0  0  0
    1.3439    4.6667    2.2845 C   0  0  2  0  0  0  0  0  0  0  0  0
    1.7192    5.5489    2.8304 H   0  0  0  0  0  0  0  0  0  0  0  0
    0.6987    5.1440    1.0911 N   0  0  0  0  0  0  0  0  0  0  0  0
    0.0712    6.3445    1.0537 C   0  0  0  0  0  0  0  0  0  0  0  0
   -0.5878    6.6654   -0.2744 C   0  0  0  0  0  0  0  0  0  0  0  0
    0.0227    7.1051    2.0068 O   0  0  0  0  0  0  0  0  0  0  0  0
    2.5536    3.8069    1.8976 C   0  0  0  0  0  0  0  0  0  0  0  0
    3.2644    3.3279    2.9380 N   0  0  0  0  0  0  0  0  0  0  0  0
    4.4341    2.4972    2.7771 C   0  0  0  0  0  0  0  0  0  0  0  0
    2.8629    3.5763    0.7317 O   0  0  0  0  0  0  0  0  0  0  0  0
    1.8126    1.2848    2.4816 H   0  0  0  0  0  0  0  0  0  0  0  0
    0.6011   -2.0704    1.6681 H   0  0  0  0  0  0  0  0  0  0  0  0
    3.0212   -4.9745   -0.1784 H   0  0  0  0  0  0  0  0  0  0  0  0
   -3.2916   -6.3307   -0.7006 H   0  0  0  0  0  0  0  0  0  0  0  0
   -3.5174   -3.8651   -0.8333 H   0  0  0  0  0  0  0  0  0  0  0  0
   -3.5355   -0.4539   -4.0254 H   0  0  0  0  0  0  0  0  0  0  0  0
   -3.9464   -1.4210   -6.3159 H   0  0  0  0  0  0  0  0  0  0  0  0
   -1.3523   -4.7059   -5.3775 H   0  0  0  0  0  0  0  0  0  0  0  0
   -0.9298   -3.7451   -3.1222 H   0  0  0  0  0  0  0  0  0  0  0  0
   -1.8184    1.3054    1.1394 H   0  0  0  0  0  0  0  0  0  0  0  0
   -3.2080    1.7156    0.1220 H   0  0  0  0  0  0  0  0  0  0  0  0
   -1.5337    3.5028   -0.0680 H   0  0  0  0  0  0  0  0  0  0  0  0
   -1.6917    2.6632   -1.6290 H   0  0  0  0  0  0  0  0  0  0  0  0
    0.3565    1.3368   -1.1330 H   0  0  0  0  0  0  0  0  0  0  0  0
    0.4664    2.0954    0.4643 H   0  0  0  0  0  0  0  0  0  0  0  0
    1.7492    3.3275   -0.8013 H   0  0  0  0  0  0  0  0  0  0  0  0
    3.0082   -2.3383   -1.8919 H   0  0  0  0  0  0  0  0  0  0  0  0
    3.8805   -0.0371   -1.4396 H   0  0  0  0  0  0  0  0  0  0  0  0
    3.0379    1.2698    0.4719 H   0  0  0  0  0  0  0  0  0  0  0  0
   -1.0443    0.8378    4.6904 H   0  0  0  0  0  0  0  0  0  0  0  0
    1.9888    1.4482    4.5714 H   0  0  0  0  0  0  0  0  0  0  0  0
    0.9551    1.5308    6.0115 H   0  0  0  0  0  0  0  0  0  0  0  0
   -0.5489    4.6302    3.2642 H   0  0  0  0  0  0  0  0  0  0  0  0
   -0.0334    3.0026    2.7790 H   0  0  0  0  0  0  0  0  0  0  0  0
    0.7217    4.5661    0.2456 H   0  0  0  0  0  0  0  0  0  0  0  0
   -0.2733    7.6693   -0.5915 H   0  0  0  0  0  0  0  0  0  0  0  0
   -1.6771    6.6934   -0.1242 H   0  0  0  0  0  0  0  0  0  0  0  0
   -0.3518    5.9307   -1.0564 H   0  0  0  0  0  0  0  0  0  0  0  0
    2.8927    3.5183    3.8727 H   0  0  0  0  0  0  0  0  0  0  0  0
    4.1906    1.4220    2.8207 H   0  0  0  0  0  0  0  0  0  0  0  0
    5.1613    2.7234    3.5693 H   0  0  0  0  0  0  0  0  0  0  0  0
    4.8888    2.7031    1.7996 H   0  0  0  0  0  0  0  0  0  0  0  0
  1  2  2  0  0  0  0
  2 37  1  0  0  0  0
  3 51  1  0  0  0  0
  3  2  1  0  0  0  0
  4  3  1  0  0  0  0
  5  4  1  0  0  0  0
  5 52  1  0  0  0  0
  6  5  2  0  0  0  0
  7  8  2  0  0  0  0
  7  6  1  0  0  0  0
  8 53  1  0  0  0  0
  9 10  1  0  0  0  0
  9  8  1  0  0  0  0
 11  7  1  0  0  0  0
 12 11  1  0  0  0  0
 12  9  1  0  0  0  0
 13 12  2  0  0  0  0
 14 13  1  0  0  0  0
 15 14  2  0  0  0  0
 15 16  1  0  0  0  0
 16 11  2  0  0  0  0
 17 16  1  0  0  0  0
 17 32  1  0  0  0  0
 18 26  1  0  0  0  0
 18 17  2  0  0  0  0
 19 18  1  0  0  0  0
 20 56  1  0  0  0  0
 20 19  2  0  0  0  0
 21 20  1  0  0  0  0
 22 21  2  0  0  0  0
 22 24  1  0  0  0  0
 23 22  1  0  0  0  0
 24 25  2  0  0  0  0
 25 19  1  0  0  0  0
 25 59  1  0  0  0  0
 26 27  2  0  0  0  0
 27 32  1  0  0  0  0
 27 28  1  0  0  0  0
 28 61  1  0  0  0  0
 28 60  1  0  0  0  0
 29 30  1  0  0  0  0
 29 62  1  0  0  0  0
 29 28  1  0  0  0  0
 30 65  1  0  0  0  0
 31 66  1  0  0  0  0
 31 30  1  0  0  0  0
 32 33  1  0  0  0  0
 34 35  2  0  0  0  0
 34  6  1  0  0  0  0
 35 36  1  0  0  0  0
 36 69  1  0  0  0  0
 36  4  2  0  0  0  0
 37 70  1  0  0  0  0
 37 38  1  0  0  0  0
 38 72  1  0  0  0  0
 39 38  1  0  0  0  0
 40 73  1  0  0  0  0
 40 39  1  0  0  0  0
 41 42  1  1  0  0  0
 41 40  1  0  0  0  0
 43 41  1  0  0  0  0
 44 43  1  0  0  0  0
 44 46  2  0  0  0  0
 45 77  1  0  0  0  0
 45 44  1  0  0  0  0
 47 41  1  0  0  0  0
 47 48  1  0  0  0  0
 48 79  1  0  0  0  0
 49 80  1  0  0  0  0
 49 48  1  0  0  0  0
 49 81  1  0  0  0  0
 50 47  2  0  0  0  0
 54 14  1  0  0  0  0
 55 15  1  0  0  0  0
 57 21  1  0  0  0  0
 58 24  1  0  0  0  0
 63 29  1  0  0  0  0
 64 30  1  0  0  0  0
 67 34  1  0  0  0  0
 68 35  1  0  0  0  0
 71 38  1  0  0  0  0
 74 40  1  0  0  0  0
 75 43  1  0  0  0  0
 76 45  1  0  0  0  0
 78 45  1  0  0  0  0
 82 49  1  0  0  0  0
M  END
