-1 1
 OpenBabel05232414493D

 82 87  0  0  1  0  0  0  0  0999 V2000
    7.6620    1.4082   10.0346 O   0  0  0  0  0  0  0  0  0  0  0  0
    6.9933    1.0790   11.0122 C   0  0  0  0  0  0  0  0  0  0  0  0
    5.6544    1.5708   11.0537 N   0  0  0  0  0  0  0  0  0  0  0  0
    4.4626    0.9072   11.3395 C   0  0  0  0  0  0  0  0  0  0  0  0
    4.3839   -0.4873   11.4351 C   0  0  0  0  0  0  0  0  0  0  0  0
    3.1732   -1.1339   11.7003 C   0  0  0  0  0  0  0  0  0  0  0  0
    3.1816   -2.5972   11.9119 C   0  0  0  0  0  0  0  0  0  0  0  0
    3.7583   -3.5385   11.0964 C   0  0  0  0  0  0  0  0  0  0  0  0
    3.6665   -4.7969   11.6420 N   0  0  0  0  0  0  0  0  0  0  0  0
    4.3268   -5.5456   11.4311 H   0  0  0  0  0  0  0  0  0  0  0  0
    2.7382   -3.3222   13.0795 C   0  0  0  0  0  0  0  0  0  0  0  0
    3.0686   -4.6885   12.8681 C   0  0  0  0  0  0  0  0  0  0  0  0
    2.8604   -5.6919   13.7143 N   0  0  0  0  0  0  0  0  0  0  0  0
    2.2804   -5.3523   14.8606 C   0  0  0  0  0  0  0  0  0  0  0  0
    1.9352   -4.0388   15.2098 C   0  0  0  0  0  0  0  0  0  0  0  0
    2.1841   -2.9868   14.3269 C   0  0  0  0  0  0  0  0  0  0  0  0
    1.9539   -1.5844   14.7129 C   0  0  0  0  0  0  0  0  0  0  0  0
    0.8204   -0.8404   15.0042 C   0  0  0  0  0  0  0  0  0  0  0  0
   -0.5954   -1.2451   15.0186 C   0  0  0  0  0  0  0  0  0  0  0  0
   -1.5325   -0.4228   15.6629 C   0  0  0  0  0  0  0  0  0  0  0  0
   -2.8832   -0.7548   15.6940 C   0  0  0  0  0  0  0  0  0  0  0  0
   -3.3038   -1.9226   15.0700 C   0  0  0  0  0  0  0  0  0  0  0  0
   -4.6039   -2.2503   15.0987 F   0  0  0  0  0  0  0  0  0  0  0  0
   -2.4076   -2.7531   14.4114 C   0  0  0  0  0  0  0  0  0  0  0  0
   -1.0582   -2.4077   14.3843 C   0  0  0  0  0  0  0  0  0  0  0  0
    1.1805    0.4526   15.2655 N   0  0  0  0  0  0  0  0  0  0  0  0
    2.4898    0.5040   15.1354 C   0  0  0  0  0  0  0  0  0  0  0  0
    3.3050    1.7131   15.3112 C   0  0  0  0  0  0  0  0  0  0  0  0
    2.7120    2.9682   15.1203 C   0  0  0  0  0  0  0  0  0  0  0  0
    3.4629    4.1293   15.2676 C   0  0  0  0  0  0  0  0  0  0  0  0
    4.8153    4.0542   15.6069 C   0  0  0  0  0  0  0  0  0  0  0  0
    5.4070    2.8092   15.8091 C   0  0  0  0  0  0  0  0  0  0  0  0
    4.6557    1.6439   15.6693 C   0  0  0  0  0  0  0  0  0  0  0  0
    3.0006   -0.7103   14.8077 N   0  0  0  0  0  0  0  0  0  0  0  0
    3.9774   -0.9444   14.5537 H   0  0  0  0  0  0  0  0  0  0  0  0
    2.0013   -0.3785   11.8263 C   0  0  0  0  0  0  0  0  0  0  0  0
    2.0693    1.0096   11.7355 C   0  0  0  0  0  0  0  0  0  0  0  0
    3.2831    1.6522   11.5104 C   0  0  0  0  0  0  0  0  0  0  0  0
    7.5300    0.3796   12.1482 C   0  0  0  0  0  3  0  0  0  0  0  0
    6.9819    0.3788   13.4506 C   0  0  0  0  0  0  0  0  0  0  0  0
    6.1961   -1.5240   14.2372 S   0  0  0  0  0  0  0  0  0  0  0  0
    6.6319   -2.5867   12.8537 C   0  0  0  0  0  0  0  0  0  0  0  0
    7.6707   -3.6830   13.1358 C   0  0  2  0  0  0  0  0  0  0  0  0
    8.0399   -4.0350   12.1558 H   0  0  0  0  0  0  0  0  0  0  0  0
    7.1364   -4.8251   13.8349 N   0  0  0  0  0  0  0  0  0  0  0  0
    6.4874   -5.8288   13.2135 C   0  0  0  0  0  0  0  0  0  0  0  0
    6.0164   -6.9650   14.0920 C   0  0  0  0  0  0  0  0  0  0  0  0
    6.2592   -5.8223   12.0057 O   0  0  0  0  0  0  0  0  0  0  0  0
    8.8708   -3.1731   13.9421 C   0  0  0  0  0  0  0  0  0  0  0  0
    9.4698   -2.0765   13.4261 N   0  0  0  0  0  0  0  0  0  0  0  0
   10.4770   -1.3594   14.1670 C   0  0  0  0  0  0  0  0  0  0  0  0
    9.2557   -3.7434   14.9501 O   0  0  0  0  0  0  0  0  0  0  0  0
    5.5585    2.3252   10.3831 H   0  0  0  0  0  0  0  0  0  0  0  0
    5.2939   -1.0710   11.3196 H   0  0  0  0  0  0  0  0  0  0  0  0
    4.2572   -3.3857   10.1415 H   0  0  0  0  0  0  0  0  0  0  0  0
    2.0960   -6.1646   15.5720 H   0  0  0  0  0  0  0  0  0  0  0  0
    1.5019   -3.8313   16.1896 H   0  0  0  0  0  0  0  0  0  0  0  0
   -1.1733    0.4925   16.1361 H   0  0  0  0  0  0  0  0  0  0  0  0
   -3.6157   -0.1202   16.1961 H   0  0  0  0  0  0  0  0  0  0  0  0
   -2.7719   -3.6558   13.9181 H   0  0  0  0  0  0  0  0  0  0  0  0
   -0.3590   -3.0527   13.8503 H   0  0  0  0  0  0  0  0  0  0  0  0
    1.6560    3.0059   14.8473 H   0  0  0  0  0  0  0  0  0  0  0  0
    2.9929    5.1028   15.1072 H   0  0  0  0  0  0  0  0  0  0  0  0
    5.4076    4.9663   15.7110 H   0  0  0  0  0  0  0  0  0  0  0  0
    6.4642    2.7383   16.0734 H   0  0  0  0  0  0  0  0  0  0  0  0
    5.1273    0.6736   15.8419 H   0  0  0  0  0  0  0  0  0  0  0  0
    1.0502   -0.8740   12.0285 H   0  0  0  0  0  0  0  0  0  0  0  0
    1.1619    1.6036   11.8672 H   0  0  0  0  0  0  0  0  0  0  0  0
    3.3342    2.7433   11.4780 H   0  0  0  0  0  0  0  0  0  0  0  0
    8.5980    0.1811   12.0105 H   0  0  0  0  0  0  0  0  0  0  0  0
    6.0714    0.9684   13.5866 H   0  0  0  0  0  0  0  0  0  0  0  0
    7.6848    0.4938   14.2802 H   0  0  0  0  0  0  0  0  0  0  0  0
    7.0247   -1.9026   12.0665 H   0  0  0  0  0  0  0  0  0  0  0  0
    5.7427   -3.0697   12.4334 H   0  0  0  0  0  0  0  0  0  0  0  0
    7.4429   -4.9155   14.7986 H   0  0  0  0  0  0  0  0  0  0  0  0
    6.3385   -7.9143   13.6426 H   0  0  0  0  0  0  0  0  0  0  0  0
    4.9152   -6.9440   14.0924 H   0  0  0  0  0  0  0  0  0  0  0  0
    6.3829   -6.8987   15.1253 H   0  0  0  0  0  0  0  0  0  0  0  0
    8.9589   -1.5569   12.7178 H   0  0  0  0  0  0  0  0  0  0  0  0
   11.1246   -2.0783   14.6852 H   0  0  0  0  0  0  0  0  0  0  0  0
   10.0321   -0.6928   14.9258 H   0  0  0  0  0  0  0  0  0  0  0  0
   11.0830   -0.7555   13.4778 H   0  0  0  0  0  0  0  0  0  0  0  0
  1  2  2  0  0  0  0
  2  3  1  0  0  0  0
  2 39  1  0  0  0  0
  3  4  1  0  0  0  0
  4  5  2  0  0  0  0
  4 38  1  0  0  0  0
  5  6  1  0  0  0  0
  6 36  2  0  0  0  0
  6  7  1  0  0  0  0
  7 11  1  0  0  0  0
  8  9  1  0  0  0  0
  8  7  2  0  0  0  0
  9 12  1  0  0  0  0
 10  9  1  0  0  0  0
 11 16  1  0  0  0  0
 12 11  2  0  0  0  0
 12 13  1  0  0  0  0
 13 14  2  0  0  0  0
 14 15  1  0  0  0  0
 14 56  1  0  0  0  0
 15 57  1  0  0  0  0
 16 17  1  0  0  0  0
 16 15  2  0  0  0  0
 17 34  1  0  0  0  0
 17 18  2  0  0  0  0
 18 19  1  0  0  0  0
 18 26  1  0  0  0  0
 19 20  1  0  0  0  0
 20 21  2  0  0  0  0
 20 58  1  0  0  0  0
 21 59  1  0  0  0  0
 22 23  1  0  0  0  0
 22 21  1  0  0  0  0
 24 22  2  0  0  0  0
 25 24  1  0  0  0  0
 25 19  2  0  0  0  0
 27 26  2  0  0  0  0
 27 28  1  0  0  0  0
 28 33  1  0  0  0  0
 29 30  1  0  0  0  0
 29 28  2  0  0  0  0
 30 31  2  0  0  0  0
 31 64  1  0  0  0  0
 31 32  1  0  0  0  0
 32 65  1  0  0  0  0
 33 32  2  0  0  0  0
 33 66  1  0  0  0  0
 34 27  1  0  0  0  0
 35 34  1  0  0  0  0
 36 67  1  0  0  0  0
 37 36  1  0  0  0  0
 37 68  1  0  0  0  0
 38 37  2  0  0  0  0
 39 40  1  0  0  0  0
 40 71  1  0  0  0  0
 40 41  1  0  0  0  0
 40 72  1  0  0  0  0
 42 43  1  0  0  0  0
 42 41  1  0  0  0  0
 43 44  1  6  0  0  0
 43 45  1  0  0  0  0
 43 49  1  0  0  0  0
 45 75  1  0  0  0  0
 46 45  1  0  0  0  0
 46 47  1  0  0  0  0
 47 77  1  0  0  0  0
 47 78  1  0  0  0  0
 48 46  2  0  0  0  0
 49 52  2  0  0  0  0
 50 49  1  0  0  0  0
 50 51  1  0  0  0  0
 51 80  1  0  0  0  0
 51 81  1  0  0  0  0
 53  3  1  0  0  0  0
 54  5  1  0  0  0  0
 55  8  1  0  0  0  0
 60 24  1  0  0  0  0
 61 25  1  0  0  0  0
 62 29  1  0  0  0  0
 63 30  1  0  0  0  0
 69 38  1  0  0  0  0
 70 39  1  0  0  0  0
 73 42  1  0  0  0  0
 74 42  1  0  0  0  0
 76 47  1  0  0  0  0
 79 50  1  0  0  0  0
 82 51  1  0  0  0  0
M  END
