-1 1
 OpenBabel05232413483D

 82 86  0  0  1  0  0  0  0  0999 V2000
    3.1249    3.8305   -3.9282 O   0  0  0  0  0  0  0  0  0  0  0  0
    2.4005    3.2333   -3.1533 C   0  0  0  0  0  0  0  0  0  0  0  0
    1.0460    3.1634   -3.3976 N   0  0  0  0  0  0  0  0  0  0  0  0
    0.0294    2.3465   -2.8501 C   0  0  0  0  0  0  0  0  0  0  0  0
    0.2355    0.9904   -2.5767 C   0  0  0  0  0  0  0  0  0  0  0  0
   -0.7952    0.2010   -2.0540 C   0  0  0  0  0  0  0  0  0  0  0  0
   -0.5538   -1.2135   -1.7110 C   0  0  0  0  0  0  0  0  0  0  0  0
    0.0996   -2.1452   -2.4834 C   0  0  0  0  0  0  0  0  0  0  0  0
    0.1601   -3.3576   -1.8485 N   0  0  0  0  0  0  0  0  0  0  0  0
    0.8460   -4.0921   -2.0446 H   0  0  0  0  0  0  0  0  0  0  0  0
   -0.8768   -1.8909   -0.4764 C   0  0  0  0  0  0  0  0  0  0  0  0
   -0.4252   -3.2300   -0.6178 C   0  0  0  0  0  0  0  0  0  0  0  0
   -0.5142   -4.1944    0.2911 N   0  0  0  0  0  0  0  0  0  0  0  0
   -1.0546   -3.8336    1.4474 C   0  0  0  0  0  0  0  0  0  0  0  0
   -1.4663   -2.5267    1.7474 C   0  0  0  0  0  0  0  0  0  0  0  0
   -1.3560   -1.5172    0.7926 C   0  0  0  0  0  0  0  0  0  0  0  0
   -1.6013   -0.1047    1.1498 C   0  0  0  0  0  0  0  0  0  0  0  0
   -2.7341    0.6867    1.2672 C   0  0  0  0  0  0  0  0  0  0  0  0
   -4.1489    0.3499    1.0426 C   0  0  0  0  0  0  0  0  0  0  0  0
   -5.1272    1.3287    1.2801 C   0  0  0  0  0  0  0  0  0  0  0  0
   -6.4767    1.0690    1.0649 C   0  0  0  0  0  0  0  0  0  0  0  0
   -6.8569   -0.1848    0.6026 C   0  0  0  0  0  0  0  0  0  0  0  0
   -8.1563   -0.4412    0.3926 F   0  0  0  0  0  0  0  0  0  0  0  0
   -5.9181   -1.1754    0.3511 C   0  0  0  0  0  0  0  0  0  0  0  0
   -4.5693   -0.9035    0.5707 C   0  0  0  0  0  0  0  0  0  0  0  0
   -2.3618    1.9618    1.5881 N   0  0  0  0  0  0  0  0  0  0  0  0
   -1.0470    1.9549    1.6734 C   0  0  0  0  0  0  0  0  0  0  0  0
   -0.2272    3.1256    2.0205 C   0  0  0  0  0  0  0  0  0  0  0  0
   -0.8256    4.3937    2.0223 C   0  0  0  0  0  0  0  0  0  0  0  0
   -0.0804    5.5238    2.3423 C   0  0  0  0  0  0  0  0  0  0  0  0
    1.2724    5.4049    2.6667 C   0  0  0  0  0  0  0  0  0  0  0  0
    1.8702    4.1457    2.6705 C   0  0  0  0  0  0  0  0  0  0  0  0
    1.1287    3.0092    2.3534 C   0  0  0  0  0  0  0  0  0  0  0  0
   -0.5436    0.7196    1.4104 N   0  0  0  0  0  0  0  0  0  0  0  0
    0.4545    0.3986    1.4456 H   0  0  0  0  0  0  0  0  0  0  0  0
   -2.0564    0.7782   -1.8527 C   0  0  0  0  0  0  0  0  0  0  0  0
   -2.2637    2.1259   -2.1204 C   0  0  0  0  0  0  0  0  0  0  0  0
   -1.2244    2.9149   -2.6069 C   0  0  0  0  0  0  0  0  0  0  0  0
    2.9544    2.6270   -1.9084 C   0  0  0  0  0  0  0  0  0  0  0  0
    2.3513    2.6123   -0.7191 C   0  0  0  0  0  0  0  0  0  0  0  0
    2.4992   -0.4597    1.5629 S   0  0  0  0  0  1  0  0  0  0  0  0
    2.5891   -0.8761   -0.2225 C   0  0  0  0  0  0  0  0  0  0  0  0
    3.4213   -2.1138   -0.5867 C   0  0  2  0  0  0  0  0  0  0  0  0
    3.2089   -2.4112   -1.6231 H   0  0  0  0  0  0  0  0  0  0  0  0
    3.0739   -3.2468    0.2475 N   0  0  0  0  0  0  0  0  0  0  0  0
    2.7185   -4.4618   -0.2168 C   0  0  0  0  0  0  0  0  0  0  0  0
    2.4309   -5.5074    0.8385 C   0  0  0  0  0  0  0  0  0  0  0  0
    2.6100   -4.7304   -1.4112 O   0  0  0  0  0  0  0  0  0  0  0  0
    4.9486   -1.9027   -0.5504 C   0  0  0  0  0  0  0  0  0  0  0  0
    5.3967   -1.1183    0.4599 N   0  0  0  0  0  0  0  0  0  0  0  0
    6.7939   -0.8486    0.6624 C   0  0  0  0  0  0  0  0  0  0  0  0
    5.6780   -2.4295   -1.3742 O   0  0  0  0  0  0  0  0  0  0  0  0
    0.7767    3.7509   -4.1795 H   0  0  0  0  0  0  0  0  0  0  0  0
    1.2202    0.5493   -2.7379 H   0  0  0  0  0  0  0  0  0  0  0  0
    0.5368   -2.0155   -3.4714 H   0  0  0  0  0  0  0  0  0  0  0  0
   -1.1395   -4.6149    2.2106 H   0  0  0  0  0  0  0  0  0  0  0  0
   -1.8308   -2.2858    2.7471 H   0  0  0  0  0  0  0  0  0  0  0  0
   -4.7976    2.3049    1.6383 H   0  0  0  0  0  0  0  0  0  0  0  0
   -7.2399    1.8272    1.2501 H   0  0  0  0  0  0  0  0  0  0  0  0
   -6.2469   -2.1487   -0.0169 H   0  0  0  0  0  0  0  0  0  0  0  0
   -3.8367   -1.6857    0.3671 H   0  0  0  0  0  0  0  0  0  0  0  0
   -1.8835    4.4666    1.7642 H   0  0  0  0  0  0  0  0  0  0  0  0
   -0.5571    6.5072    2.3346 H   0  0  0  0  0  0  0  0  0  0  0  0
    1.8592    6.2932    2.9130 H   0  0  0  0  0  0  0  0  0  0  0  0
    2.9288    4.0396    2.9185 H   0  0  0  0  0  0  0  0  0  0  0  0
    1.6213    2.0313    2.3417 H   0  0  0  0  0  0  0  0  0  0  0  0
   -2.8770    0.1645   -1.4803 H   0  0  0  0  0  0  0  0  0  0  0  0
   -3.2429    2.5698   -1.9302 H   0  0  0  0  0  0  0  0  0  0  0  0
   -1.3735    3.9812   -2.7917 H   0  0  0  0  0  0  0  0  0  0  0  0
    3.9852    2.2779   -2.0179 H   0  0  0  0  0  0  0  0  0  0  0  0
    1.3326    2.9831   -0.5745 H   0  0  0  0  0  0  0  0  0  0  0  0
    2.8463    2.1973    0.1640 H   0  0  0  0  0  0  0  0  0  0  0  0
    2.9887   -0.0262   -0.7963 H   0  0  0  0  0  0  0  0  0  0  0  0
    1.5714   -1.0517   -0.5864 H   0  0  0  0  0  0  0  0  0  0  0  0
    2.9782   -3.0241    1.2368 H   0  0  0  0  0  0  0  0  0  0  0  0
    3.0442   -6.3935    0.6228 H   0  0  0  0  0  0  0  0  0  0  0  0
    1.3708   -5.7810    0.7455 H   0  0  0  0  0  0  0  0  0  0  0  0
    2.6305   -5.1609    1.8616 H   0  0  0  0  0  0  0  0  0  0  0  0
    4.6974   -0.7286    1.1046 H   0  0  0  0  0  0  0  0  0  0  0  0
    7.3465   -1.2293   -0.2067 H   0  0  0  0  0  0  0  0  0  0  0  0
    7.1831   -1.3463    1.5676 H   0  0  0  0  0  0  0  0  0  0  0  0
    6.9776    0.2332    0.7605 H   0  0  0  0  0  0  0  0  0  0  0  0
  1  2  2  0  0  0  0
  2 39  1  0  0  0  0
  3  2  1  0  0  0  0
  3  4  1  0  0  0  0
  4 38  2  0  0  0  0
  4  5  1  0  0  0  0
  5  6  2  0  0  0  0
  6 36  1  0  0  0  0
  6  7  1  0  0  0  0
  7 11  1  0  0  0  0
  8  9  1  0  0  0  0
  8  7  2  0  0  0  0
  9 12  1  0  0  0  0
 10  9  1  0  0  0  0
 11 16  1  0  0  0  0
 12 11  2  0  0  0  0
 12 13  1  0  0  0  0
 13 14  2  0  0  0  0
 14 15  1  0  0  0  0
 14 56  1  0  0  0  0
 15 57  1  0  0  0  0
 16 17  1  0  0  0  0
 16 15  2  0  0  0  0
 17 18  2  0  0  0  0
 17 34  1  0  0  0  0
 18 26  1  0  0  0  0
 19 18  1  0  0  0  0
 19 20  1  0  0  0  0
 20 58  1  0  0  0  0
 21 59  1  0  0  0  0
 21 20  2  0  0  0  0
 22 21  1  0  0  0  0
 23 22  1  0  0  0  0
 24 25  1  0  0  0  0
 24 22  2  0  0  0  0
 25 19  2  0  0  0  0
 26 27  2  0  0  0  0
 27 28  1  0  0  0  0
 28 29  2  0  0  0  0
 28 33  1  0  0  0  0
 29 30  1  0  0  0  0
 30 31  2  0  0  0  0
 31 32  1  0  0  0  0
 31 64  1  0  0  0  0
 32 65  1  0  0  0  0
 33 32  2  0  0  0  0
 34 35  1  0  0  0  0
 34 27  1  0  0  0  0
 36 67  1  0  0  0  0
 37 68  1  0  0  0  0
 37 36  2  0  0  0  0
 38 37  1  0  0  0  0
 39 40  2  0  0  0  0
 40 71  1  0  0  0  0
 40 72  1  0  0  0  0
 42 41  1  0  0  0  0
 43 44  1  6  0  0  0
 43 49  1  0  0  0  0
 43 42  1  0  0  0  0
 43 45  1  0  0  0  0
 45 75  1  0  0  0  0
 46 45  1  0  0  0  0
 46 47  1  0  0  0  0
 47 78  1  0  0  0  0
 48 46  2  0  0  0  0
 49 50  1  0  0  0  0
 50 51  1  0  0  0  0
 50 79  1  0  0  0  0
 51 82  1  0  0  0  0
 51 81  1  0  0  0  0
 52 49  2  0  0  0  0
 53  3  1  0  0  0  0
 54  5  1  0  0  0  0
 55  8  1  0  0  0  0
 60 24  1  0  0  0  0
 61 25  1  0  0  0  0
 62 29  1  0  0  0  0
 63 30  1  0  0  0  0
 66 33  1  0  0  0  0
 69 38  1  0  0  0  0
 70 39  1  0  0  0  0
 73 42  1  0  0  0  0
 74 42  1  0  0  0  0
 76 47  1  0  0  0  0
 77 47  1  0  0  0  0
 80 51  1  0  0  0  0
M  END
