82
-1 1
O         7.661980    1.408203   10.034618
C         6.993253    1.079040   11.012208
N         5.654368    1.570755   11.053723
C         4.462554    0.907207   11.339465
C         4.383877   -0.487307   11.435130
C         3.173226   -1.133898   11.700282
C         3.181597   -2.597164   11.911881
C         3.758326   -3.538519   11.096382
N         3.666487   -4.796866   11.642042
H         4.326771   -5.545557   11.431065
C         2.738248   -3.322173   13.079499
C         3.068632   -4.688455   12.868096
N         2.860416   -5.691871   13.714309
C         2.280359   -5.352252   14.860632
C         1.935166   -4.038821   15.209764
C         2.184130   -2.986822   14.326904
C         1.953901   -1.584418   14.712884
C         0.820361   -0.840401   15.004176
C        -0.595401   -1.245061   15.018606
C        -1.532462   -0.422760   15.662923
C        -2.883171   -0.754828   15.694046
C        -3.303834   -1.922630   15.069960
F        -4.603872   -2.250271   15.098687
C        -2.407612   -2.753110   14.411351
C        -1.058177   -2.407712   14.384323
N         1.180495    0.452591   15.265544
C         2.489797    0.504037   15.135361
C         3.304994    1.713085   15.311153
C         2.711981    2.968177   15.120349
C         3.462859    4.129348   15.267555
C         4.815342    4.054176   15.606871
C         5.406983    2.809209   15.809101
C         4.655651    1.643942   15.669285
N         3.000641   -0.710319   14.807722
H         3.977438   -0.944419   14.553700
C         2.001344   -0.378544   11.826263
C         2.069330    1.009623   11.735487
C         3.283143    1.652152   11.510380
C         7.529981    0.379562   12.148249
C         6.981891    0.378757   13.450625
S         6.196114   -1.523982   14.237151
C         6.631896   -2.586721   12.853734
C         7.670660   -3.682960   13.135772
H         8.039873   -4.034975   12.155815
N         7.136413   -4.825135   13.834943
C         6.487391   -5.828824   13.213514
C         6.016430   -6.964971   14.092018
O         6.259213   -5.822299   12.005711
C         8.870814   -3.173119   13.942084
N         9.469776   -2.076510   13.426148
C        10.476997   -1.359350   14.167030
O         9.255745   -3.743390   14.950096
H         5.558545    2.325165   10.383122
H         5.293937   -1.070970   11.319559
H         4.257217   -3.385723   10.141534
H         2.096044   -6.164638   15.571980
H         1.501903   -3.831260   16.189618
H        -1.173305    0.492489   16.136066
H        -3.615700   -0.120160   16.196055
H        -2.771850   -3.655802   13.918069
H        -0.358958   -3.052720   13.850325
H         1.656014    3.005924   14.847307
H         2.992922    5.102775   15.107222
H         5.407598    4.966282   15.710958
H         6.464224    2.738306   16.073374
H         5.127335    0.673556   15.841947
H         1.050231   -0.874030   12.028475
H         1.161876    1.603630   11.867172
H         3.334232    2.743271   11.478027
H         8.597979    0.181135   12.010489
H         6.071434    0.968384   13.586603
H         7.684808    0.493818   14.280249
H         7.024704   -1.902581   12.066484
H         5.742688   -3.069685   12.433408
H         7.442875   -4.915478   14.798558
H         6.338530   -7.914329   13.642644
H         4.915209   -6.944045   14.092439
H         6.382875   -6.898715   15.125304
H         8.958933   -1.556873   12.717805
H        11.124619   -2.078305   14.685209
H        10.032107   -0.692795   14.925812
H        11.083010   -0.755519   13.477787
