82
-1 1
O         3.124912    3.830544   -3.928154
C         2.400547    3.233310   -3.153348
N         1.046036    3.163429   -3.397575
C         0.029384    2.346472   -2.850114
C         0.235540    0.990432   -2.576659
C        -0.795154    0.200985   -2.053979
C        -0.553831   -1.213470   -1.711034
C         0.099557   -2.145162   -2.483388
N         0.160057   -3.357603   -1.848498
H         0.846037   -4.092118   -2.044552
C        -0.876813   -1.890865   -0.476357
C        -0.425188   -3.230035   -0.617750
N        -0.514152   -4.194442    0.291053
C        -1.054581   -3.833602    1.447450
C        -1.466265   -2.526655    1.747380
C        -1.356021   -1.517250    0.792650
C        -1.601346   -0.104695    1.149794
C        -2.734118    0.686688    1.267185
C        -4.148927    0.349879    1.042623
C        -5.127175    1.328653    1.280115
C        -6.476711    1.069038    1.064915
C        -6.856916   -0.184803    0.602599
F        -8.156255   -0.441231    0.392623
C        -5.918148   -1.175404    0.351071
C        -4.569278   -0.903510    0.570724
N        -2.361848    1.961802    1.588098
C        -1.046971    1.954854    1.673387
C        -0.227245    3.125580    2.020493
C        -0.825589    4.393699    2.022269
C        -0.080368    5.523762    2.342330
C         1.272413    5.404888    2.666699
C         1.870226    4.145721    2.670485
C         1.128740    3.009224    2.353407
N        -0.543556    0.719646    1.410383
H         0.454496    0.398620    1.445585
C        -2.056367    0.778232   -1.852663
C        -2.263655    2.125935   -2.120381
C        -1.224367    2.914879   -2.606920
C         2.954393    2.627024   -1.908419
C         2.351275    2.612253   -0.719141
S         2.499197   -0.459707    1.562859
C         2.589063   -0.876060   -0.222473
C         3.421313   -2.113797   -0.586651
H         3.208918   -2.411242   -1.623121
N         3.073924   -3.246799    0.247507
C         2.718534   -4.461818   -0.216775
C         2.430937   -5.507446    0.838485
O         2.610031   -4.730390   -1.411162
C         4.948604   -1.902662   -0.550373
N         5.396744   -1.118256    0.459920
C         6.793864   -0.848560    0.662374
O         5.678002   -2.429530   -1.374201
H         0.776668    3.750897   -4.179522
H         1.220169    0.549319   -2.737904
H         0.536848   -2.015472   -3.471443
H        -1.139497   -4.614885    2.210603
H        -1.830793   -2.285842    2.747104
H        -4.797617    2.304940    1.638301
H        -7.239862    1.827205    1.250078
H        -6.246871   -2.148725   -0.016865
H        -3.836659   -1.685711    0.367130
H        -1.883460    4.466583    1.764158
H        -0.557083    6.507154    2.334557
H         1.859154    6.293195    2.912978
H         2.928813    4.039613    2.918482
H         1.621311    2.031274    2.341693
H        -2.876952    0.164503   -1.480343
H        -3.242924    2.569843   -1.930217
H        -1.373495    3.981229   -2.791691
H         3.985198    2.277922   -2.017871
H         1.332572    2.983109   -0.574492
H         2.846344    2.197323    0.163966
H         2.988663   -0.026181   -0.796278
H         1.571359   -1.051678   -0.586387
H         2.978168   -3.024146    1.236817
H         3.044164   -6.393476    0.622780
H         1.370811   -5.781049    0.745543
H         2.630538   -5.160947    1.861616
H         4.697408   -0.728569    1.104640
H         7.346507   -1.229297   -0.206740
H         7.183105   -1.346309    1.567584
H         6.977636    0.233192    0.760493
