82
-1 1
O         4.015865   -0.977318   -1.725296
C         4.189369   -0.396337   -2.814277
N         3.112362    0.379000   -3.369962
C         1.870095    0.596236   -2.828837
C         1.584438    0.386023   -1.465664
C         0.300970    0.594050   -0.958934
C         0.032743    0.312590    0.458421
C        -0.993010    0.759210    1.269419
N         0.859231   -0.504488    1.194444
H         1.673932   -0.988405    0.835421
C         0.394974   -0.604018    2.476868
C        -0.788908    0.182282    2.564043
C        -1.443991    0.211068    3.810063
C        -2.717188    0.920800    3.975182
C        -3.320440    1.637540    5.002104
C        -2.786030    2.033211    6.318474
C        -3.672114    2.226075    7.387532
C        -3.211221    2.613790    8.641997
C        -1.848678    2.814352    8.824642
F        -1.398586    3.183672   10.028919
C        -0.944792    2.648169    7.783190
C        -1.420054    2.264666    6.532116
N        -4.584234    2.005450    4.628773
C        -4.765656    1.554570    3.407234
C        -5.985742    1.728942    2.608291
C        -7.115091    2.296873    3.214553
C        -8.287744    2.476198    2.489174
C        -8.353416    2.092984    1.148435
C        -7.233447    1.532551    0.537055
C        -6.056257    1.353514    1.260244
N        -3.656152    0.899735    2.971426
H        -3.535777    0.403586    2.097600
C        -0.856422   -0.524572    4.844357
C         0.324484   -1.246005    4.619355
N         0.956286   -1.304618    3.450448
C        -0.728731    1.048590   -1.796635
C        -0.446440    1.282647   -3.139597
C         0.824775    1.057760   -3.656202
C         5.321037   -0.467367   -3.640964
C         5.584933    0.459892   -4.761050
S         4.671547    0.168084   -6.405844
C         5.114912   -1.560644   -6.736195
C         3.984366   -2.568996   -6.560582
H         3.135019   -2.302520   -7.214120
N         3.499496   -2.573937   -5.191459
C         2.248102   -2.969664   -4.875334
C         1.801104   -2.758048   -3.450639
O         1.496055   -3.488352   -5.704613
C         4.470396   -3.970488   -7.002134
N         3.476764   -4.887513   -7.075716
C         3.725901   -6.269720   -7.381919
O         5.636761   -4.202867   -7.273885
H         3.172561    0.523283   -4.374384
H         2.409126    0.033994   -0.849392
H        -1.753696    1.476472    0.970953
H        -4.738599    2.071713    7.216093
H        -3.893240    2.762307    9.480820
H         0.116869    2.830590    7.956408
H        -0.714658    2.153104    5.706957
H        -7.044501    2.593198    4.262381
H        -9.160380    2.919841    2.973904
H        -9.275263    2.234380    0.580060
H        -7.271377    1.236002   -0.513284
H        -5.187577    0.927016    0.752308
H        -1.326148   -0.554694    5.828774
H         0.767780   -1.818408    5.441005
H        -1.739581    1.188858   -1.409508
H        -1.238676    1.630111   -3.807514
H         1.021518    1.223278   -4.718861
H         6.142716   -1.078927   -3.263688
H         6.649979    0.464745   -5.030438
H         5.293245    1.507648   -4.565901
H         5.947912   -1.833374   -6.071266
H         5.494750   -1.634604   -7.762706
H         4.082468   -2.074456   -4.502129
H         2.589399   -2.395277   -2.776164
H         1.385229   -3.705578   -3.080234
H         0.981521   -2.023589   -3.457558
H         2.553412   -4.579532   -6.753291
H         4.783810   -6.374198   -7.656030
H         3.104580   -6.611780   -8.225743
H         3.520633   -6.923482   -6.517343
