82
-1 1
O         4.781751   -0.769137   -1.093135
C         4.866246   -0.404664   -2.260460
N         3.825140    0.131777   -2.968796
C         2.518694    0.319978   -2.497368
C         2.161717    0.204950   -1.147356
C         0.824695    0.329854   -0.749501
C         0.467202    0.158841    0.665336
C        -0.646218    0.600102    1.353216
N         1.287472   -0.521807    1.536351
H         2.155484   -0.980189    1.289512
C         0.730587   -0.537718    2.785914
C        -0.506104    0.161627    2.709803
C        -1.257110    0.258016    3.897186
C        -2.582021    0.886797    3.903864
C        -3.303044    1.650872    4.813678
C        -2.892029    2.203603    6.117717
C        -3.863413    2.426206    7.103558
C        -3.520738    2.958952    8.342535
C        -2.191441    3.275888    8.593008
F        -1.854462    3.784684    9.782988
C        -1.206227    3.084146    7.632801
C        -1.563789    2.554664    6.395903
N        -4.557225    1.892067    4.323397
C        -4.620182    1.318133    3.142261
C        -5.787906    1.328844    2.251198
C        -6.995955    1.857940    2.726428
C        -8.121748    1.883084    1.910628
C        -8.060967    1.382157    0.609110
C        -6.862194    0.859532    0.127409
C        -5.731906    0.834846    0.941315
N        -3.441976    0.706633    2.846127
H        -3.230436    0.138031    2.036236
C        -0.703426   -0.333531    5.037172
C         0.537131   -0.983209    4.969139
N         1.261411   -1.102091    3.859903
C        -0.165236    0.595948   -1.702221
C         0.197676    0.747013   -3.038743
C         1.519833    0.611828   -3.443187
C         6.172992   -0.578179   -2.966712
C         6.508973   -0.169805   -4.192755
S         3.746080    0.685132   -6.185722
C         4.134984   -0.982938   -6.812870
C         3.074166   -2.045759   -6.537117
H         2.099399   -1.697725   -6.918608
N         2.923703   -2.272714   -5.102535
C         1.813197   -2.778058   -4.527518
C         1.801743   -2.833846   -3.015291
O         0.857111   -3.199717   -5.175235
C         3.417543   -3.374923   -7.250833
N         2.380275   -4.252375   -7.288544
C         2.518834   -5.580962   -7.818802
O         4.509400   -3.602027   -7.742272
H         3.942311    0.352055   -3.989923
H         2.950093    0.003571   -0.427742
H        -1.427716    1.228711    0.933330
H        -4.902006    2.178457    6.878661
H        -4.269425    3.131883    9.117345
H        -0.174736    3.360693    7.856255
H        -0.795807    2.421811    5.631974
H        -7.024187    2.247935    3.745178
H        -9.057025    2.297990    2.293141
H        -8.946025    1.402789   -0.030422
H        -6.801466    0.472547   -0.891915
H        -4.799870    0.435718    0.533187
H        -1.245327   -0.306798    5.983804
H         0.951716   -1.442757    5.872495
H        -1.213292    0.662447   -1.403337
H        -0.567313    0.950625   -3.791138
H         1.806399    0.695135   -4.497974
H         6.893151   -1.096270   -2.326288
H         7.517253   -0.368236   -4.567664
H         5.811489    0.354850   -4.866537
H         5.094049   -1.354336   -6.407577
H         4.276486   -0.948229   -7.902130
H         3.628200   -1.853492   -4.507082
H         2.748327   -2.530973   -2.548830
H         1.554020   -3.861027   -2.713442
H         1.001698   -2.174473   -2.648922
H         1.557068   -4.002099   -6.735675
H         3.497019   -5.649099   -8.312749
H         1.730786   -5.802243   -8.557101
H         2.472286   -6.348910   -7.027178
