75
-1 1
O       -12.046738    1.864337    8.162971
C       -10.978747    2.165726    7.603001
N        -9.847152    2.396736    8.456255
C        -9.293992    3.736512    8.552141
H        -8.931416    4.064385    7.568216
C        -8.202543    3.786663    9.610337
O        -8.868639    3.942005   10.859011
C       -10.172840    4.444850   10.656116
C       -10.271475    4.780403    9.167092
H        -9.850253    5.779364    8.984949
N       -11.624559    4.772409    8.671555
C       -11.872915    5.263922    7.417844
N       -10.979318    6.103793    6.873838
C       -11.135726    6.402230    5.597634
C       -12.186139    5.889739    4.837931
O       -12.198107    6.134503    3.495949
C       -12.975601    5.272343    2.699363
C       -12.541756    5.393998    1.264640
C       -12.761645    6.568816    0.550627
F       -13.378803    7.587947    1.157053
C       -12.356457    6.716956   -0.777143
O       -12.576914    7.870916   -1.462325
C       -11.816650    8.979236   -1.032569
C       -11.728794    5.642816   -1.403099
C       -11.510257    4.436281   -0.737683
O       -10.972193    3.402208   -1.421165
C        -9.779662    2.823926   -0.913819
C       -11.909188    4.343162    0.601808
F       -11.701319    3.198964    1.257826
C       -13.147685    5.166201    5.543112
N       -13.004192    4.866949    6.824436
C       -10.790656    2.273589    6.201849
C        -9.537757    2.290489    5.546310
S        -8.734647    4.207843    4.923377
C        -7.604804    3.585345    3.647060
C        -8.197081    3.535870    2.221807
H        -9.171918    3.024074    2.282953
N        -7.342384    2.805501    1.316003
C        -7.403170    1.459918    1.178538
C        -6.527961    0.880599    0.080307
O        -8.112084    0.749101    1.868634
C        -8.408241    4.921108    1.592481
N        -9.297747    5.711210    2.209654
C        -9.564118    7.052180    1.756389
O        -7.808165    5.251111    0.570466
H       -10.120287    2.056951    9.376350
H        -7.519805    4.639041    9.432834
H        -7.610719    2.859928    9.632236
H       -10.342551    5.325316   11.298042
H       -10.925930    3.679926   10.928711
H       -12.134833    3.897759    8.824000
H       -10.395108    7.061322    5.131200
H       -14.045779    5.536539    2.780013
H       -12.853625    4.230043    3.034824
H       -12.074331    9.819067   -1.690767
H       -10.734887    8.775063   -1.117027
H       -12.047561    9.257010    0.008509
H       -11.409493    5.739101   -2.440877
H        -9.398143    2.163373   -1.703258
H        -9.963209    2.224628   -0.008852
H        -9.031558    3.601667   -0.696378
H       -14.062196    4.805947    5.058443
H       -11.707781    2.222728    5.610202
H        -9.506220    1.863775    4.537526
H        -8.676683    1.993750    6.155540
H        -7.326860    2.551019    3.907041
H        -6.678117    4.180768    3.636117
H        -6.862727    3.388133    0.635854
H        -5.904665    0.085515    0.511891
H        -5.884048    1.624499   -0.408714
H        -7.178653    0.413282   -0.673070
H        -9.637290    5.399458    3.126299
H        -9.668219    7.057619    0.661360
H        -8.751532    7.749632    2.022595
H       -10.501290    7.393296    2.213185
