-1 1
 OpenBabel05232414493D

 75 77  0  0  1  0  0  0  0  0999 V2000
  -12.0467    1.8643    8.1630 O   0  0  0  0  0  0  0  0  0  0  0  0
  -10.9787    2.1657    7.6030 C   0  0  0  0  0  0  0  0  0  0  0  0
   -9.8472    2.3967    8.4563 N   0  0  0  0  0  0  0  0  0  0  0  0
   -9.2940    3.7365    8.5521 C   0  0  2  0  0  0  0  0  0  0  0  0
   -8.9314    4.0644    7.5682 H   0  0  0  0  0  0  0  0  0  0  0  0
   -8.2025    3.7867    9.6103 C   0  0  0  0  0  0  0  0  0  0  0  0
   -8.8686    3.9420   10.8590 O   0  0  0  0  0  0  0  0  0  0  0  0
  -10.1728    4.4448   10.6561 C   0  0  0  0  0  0  0  0  0  0  0  0
  -10.2715    4.7804    9.1671 C   0  0  2  0  0  0  0  0  0  0  0  0
   -9.8503    5.7794    8.9849 H   0  0  0  0  0  0  0  0  0  0  0  0
  -11.6246    4.7724    8.6716 N   0  0  0  0  0  0  0  0  0  0  0  0
  -11.8729    5.2639    7.4178 C   0  0  0  0  0  0  0  0  0  0  0  0
  -10.9793    6.1038    6.8738 N   0  0  0  0  0  0  0  0  0  0  0  0
  -11.1357    6.4022    5.5976 C   0  0  0  0  0  0  0  0  0  0  0  0
  -12.1861    5.8897    4.8379 C   0  0  0  0  0  0  0  0  0  0  0  0
  -12.1981    6.1345    3.4959 O   0  0  0  0  0  0  0  0  0  0  0  0
  -12.9756    5.2723    2.6994 C   0  0  0  0  0  0  0  0  0  0  0  0
  -12.5418    5.3940    1.2646 C   0  0  0  0  0  0  0  0  0  0  0  0
  -12.7616    6.5688    0.5506 C   0  0  0  0  0  0  0  0  0  0  0  0
  -13.3788    7.5879    1.1571 F   0  0  0  0  0  0  0  0  0  0  0  0
  -12.3565    6.7170   -0.7771 C   0  0  0  0  0  0  0  0  0  0  0  0
  -12.5769    7.8709   -1.4623 O   0  0  0  0  0  0  0  0  0  0  0  0
  -11.8166    8.9792   -1.0326 C   0  0  0  0  0  0  0  0  0  0  0  0
  -11.7288    5.6428   -1.4031 C   0  0  0  0  0  0  0  0  0  0  0  0
  -11.5103    4.4363   -0.7377 C   0  0  0  0  0  0  0  0  0  0  0  0
  -10.9722    3.4022   -1.4212 O   0  0  0  0  0  0  0  0  0  0  0  0
   -9.7797    2.8239   -0.9138 C   0  0  0  0  0  0  0  0  0  0  0  0
  -11.9092    4.3432    0.6018 C   0  0  0  0  0  0  0  0  0  0  0  0
  -11.7013    3.1990    1.2578 F   0  0  0  0  0  0  0  0  0  0  0  0
  -13.1477    5.1662    5.5431 C   0  0  0  0  0  0  0  0  0  0  0  0
  -13.0042    4.8669    6.8244 N   0  0  0  0  0  0  0  0  0  0  0  0
  -10.7907    2.2736    6.2018 C   0  0  0  0  0  3  0  0  0  0  0  0
   -9.5378    2.2905    5.5463 C   0  0  0  0  0  0  0  0  0  0  0  0
   -8.7346    4.2078    4.9234 S   0  0  0  0  0  0  0  0  0  0  0  0
   -7.6048    3.5853    3.6471 C   0  0  0  0  0  0  0  0  0  0  0  0
   -8.1971    3.5359    2.2218 C   0  0  2  0  0  0  0  0  0  0  0  0
   -9.1719    3.0241    2.2830 H   0  0  0  0  0  0  0  0  0  0  0  0
   -7.3424    2.8055    1.3160 N   0  0  0  0  0  0  0  0  0  0  0  0
   -7.4032    1.4599    1.1785 C   0  0  0  0  0  0  0  0  0  0  0  0
   -6.5280    0.8806    0.0803 C   0  0  0  0  0  0  0  0  0  0  0  0
   -8.1121    0.7491    1.8686 O   0  0  0  0  0  0  0  0  0  0  0  0
   -8.4082    4.9211    1.5925 C   0  0  0  0  0  0  0  0  0  0  0  0
   -9.2977    5.7112    2.2097 N   0  0  0  0  0  0  0  0  0  0  0  0
   -9.5641    7.0522    1.7564 C   0  0  0  0  0  0  0  0  0  0  0  0
   -7.8082    5.2511    0.5705 O   0  0  0  0  0  0  0  0  0  0  0  0
  -10.1203    2.0570    9.3764 H   0  0  0  0  0  0  0  0  0  0  0  0
   -7.5198    4.6390    9.4328 H   0  0  0  0  0  0  0  0  0  0  0  0
   -7.6107    2.8599    9.6322 H   0  0  0  0  0  0  0  0  0  0  0  0
  -10.3426    5.3253   11.2980 H   0  0  0  0  0  0  0  0  0  0  0  0
  -10.9259    3.6799   10.9287 H   0  0  0  0  0  0  0  0  0  0  0  0
  -12.1348    3.8978    8.8240 H   0  0  0  0  0  0  0  0  0  0  0  0
  -10.3951    7.0613    5.1312 H   0  0  0  0  0  0  0  0  0  0  0  0
  -14.0458    5.5365    2.7800 H   0  0  0  0  0  0  0  0  0  0  0  0
  -12.8536    4.2300    3.0348 H   0  0  0  0  0  0  0  0  0  0  0  0
  -12.0743    9.8191   -1.6908 H   0  0  0  0  0  0  0  0  0  0  0  0
  -10.7349    8.7751   -1.1170 H   0  0  0  0  0  0  0  0  0  0  0  0
  -12.0476    9.2570    0.0085 H   0  0  0  0  0  0  0  0  0  0  0  0
  -11.4095    5.7391   -2.4409 H   0  0  0  0  0  0  0  0  0  0  0  0
   -9.3981    2.1634   -1.7033 H   0  0  0  0  0  0  0  0  0  0  0  0
   -9.9632    2.2246   -0.0089 H   0  0  0  0  0  0  0  0  0  0  0  0
   -9.0316    3.6017   -0.6964 H   0  0  0  0  0  0  0  0  0  0  0  0
  -14.0622    4.8059    5.0584 H   0  0  0  0  0  0  0  0  0  0  0  0
  -11.7078    2.2227    5.6102 H   0  0  0  0  0  0  0  0  0  0  0  0
   -9.5062    1.8638    4.5375 H   0  0  0  0  0  0  0  0  0  0  0  0
   -8.6767    1.9937    6.1555 H   0  0  0  0  0  0  0  0  0  0  0  0
   -7.3269    2.5510    3.9070 H   0  0  0  0  0  0  0  0  0  0  0  0
   -6.6781    4.1808    3.6361 H   0  0  0  0  0  0  0  0  0  0  0  0
   -6.8627    3.3881    0.6359 H   0  0  0  0  0  0  0  0  0  0  0  0
   -5.9047    0.0855    0.5119 H   0  0  0  0  0  0  0  0  0  0  0  0
   -5.8840    1.6245   -0.4087 H   0  0  0  0  0  0  0  0  0  0  0  0
   -7.1787    0.4133   -0.6731 H   0  0  0  0  0  0  0  0  0  0  0  0
   -9.6373    5.3995    3.1263 H   0  0  0  0  0  0  0  0  0  0  0  0
   -9.6682    7.0576    0.6614 H   0  0  0  0  0  0  0  0  0  0  0  0
   -8.7515    7.7496    2.0226 H   0  0  0  0  0  0  0  0  0  0  0  0
  -10.5013    7.3933    2.2132 H   0  0  0  0  0  0  0  0  0  0  0  0
  2  1  2  0  0  0  0
  2  3  1  0  0  0  0
  3  4  1  0  0  0  0
  3 46  1  0  0  0  0
  4  5  1  6  0  0  0
  4  9  1  0  0  0  0
  4  6  1  0  0  0  0
  6 48  1  0  0  0  0
  6  7  1  0  0  0  0
  8  7  1  0  0  0  0
  8 50  1  0  0  0  0
  8 49  1  0  0  0  0
  9 10  1  6  0  0  0
  9  8  1  0  0  0  0
 11 51  1  0  0  0  0
 11  9  1  0  0  0  0
 12 11  1  0  0  0  0
 13 12  2  0  0  0  0
 14 13  1  0  0  0  0
 15 30  1  0  0  0  0
 15 14  2  0  0  0  0
 16 15  1  0  0  0  0
 17 53  1  0  0  0  0
 17 54  1  0  0  0  0
 17 16  1  0  0  0  0
 18 17  1  0  0  0  0
 19 20  1  0  0  0  0
 19 18  2  0  0  0  0
 21 19  1  0  0  0  0
 22 23  1  0  0  0  0
 22 21  1  0  0  0  0
 23 57  1  0  0  0  0
 24 21  2  0  0  0  0
 24 25  1  0  0  0  0
 25 28  2  0  0  0  0
 26 27  1  0  0  0  0
 26 25  1  0  0  0  0
 27 61  1  0  0  0  0
 27 60  1  0  0  0  0
 28 29  1  0  0  0  0
 28 18  1  0  0  0  0
 30 31  2  0  0  0  0
 31 12  1  0  0  0  0
 32  2  1  0  0  0  0
 33 65  1  0  0  0  0
 33 32  1  0  0  0  0
 34 33  1  0  0  0  0
 35 66  1  0  0  0  0
 35 34  1  0  0  0  0
 36 37  1  1  0  0  0
 36 35  1  0  0  0  0
 38 36  1  0  0  0  0
 39 38  1  0  0  0  0
 39 41  2  0  0  0  0
 40 69  1  0  0  0  0
 40 39  1  0  0  0  0
 42 43  1  0  0  0  0
 42 36  1  0  0  0  0
 43 72  1  0  0  0  0
 44 74  1  0  0  0  0
 44 43  1  0  0  0  0
 44 75  1  0  0  0  0
 45 42  2  0  0  0  0
 47  6  1  0  0  0  0
 52 14  1  0  0  0  0
 55 23  1  0  0  0  0
 56 23  1  0  0  0  0
 58 24  1  0  0  0  0
 59 27  1  0  0  0  0
 62 30  1  0  0  0  0
 63 32  1  0  0  0  0
 64 33  1  0  0  0  0
 67 35  1  0  0  0  0
 68 38  1  0  0  0  0
 70 40  1  0  0  0  0
 71 40  1  0  0  0  0
 73 44  1  0  0  0  0
M  END
