-1 1
 OpenBabel05192410563D

 75 77  0  0  1  0  0  0  0  0999 V2000
   -1.6428   -2.3776    4.4933 O   0  0  0  0  0  0  0  0  0  0  0  0
   -0.5669   -2.1888    3.8754 C   0  0  0  0  0  0  0  0  0  0  0  0
    0.6211   -2.0482    4.7008 N   0  0  0  0  0  0  0  0  0  0  0  0
    1.1660   -0.7109    4.8694 C   0  0  2  0  0  0  0  0  0  0  0  0
    1.5424   -0.3414    3.9059 H   0  0  0  0  0  0  0  0  0  0  0  0
    2.2467   -0.7087    5.9413 C   0  0  0  0  0  0  0  0  0  0  0  0
    1.5722   -0.5879    7.1883 O   0  0  0  0  0  0  0  0  0  0  0  0
    0.2691   -0.0786    6.9881 C   0  0  0  0  0  0  0  0  0  0  0  0
    0.1931    0.3219    5.5147 C   0  0  2  0  0  0  0  0  0  0  0  0
    0.6361    1.3201    5.3807 H   0  0  0  0  0  0  0  0  0  0  0  0
   -1.1577    0.3587    5.0134 N   0  0  0  0  0  0  0  0  0  0  0  0
   -1.3853    0.8765    3.7712 C   0  0  0  0  0  0  0  0  0  0  0  0
   -0.4535    1.6716    3.2182 N   0  0  0  0  0  0  0  0  0  0  0  0
   -0.5945    1.9568    1.9371 C   0  0  0  0  0  0  0  0  0  0  0  0
   -1.6614    1.4765    1.1813 C   0  0  0  0  0  0  0  0  0  0  0  0
   -1.6492    1.6802   -0.1713 O   0  0  0  0  0  0  0  0  0  0  0  0
   -2.4990    0.8638   -0.9417 C   0  0  0  0  0  0  0  0  0  0  0  0
   -2.0952    0.9580   -2.3875 C   0  0  0  0  0  0  0  0  0  0  0  0
   -2.3252    2.1239   -3.1133 C   0  0  0  0  0  0  0  0  0  0  0  0
   -2.9278    3.1526   -2.5091 F   0  0  0  0  0  0  0  0  0  0  0  0
   -1.9469    2.2523   -4.4512 C   0  0  0  0  0  0  0  0  0  0  0  0
   -2.1807    3.3948   -5.1501 O   0  0  0  0  0  0  0  0  0  0  0  0
   -1.4158    4.5119   -4.7526 C   0  0  0  0  0  0  0  0  0  0  0  0
   -1.3318    1.1684   -5.0729 C   0  0  0  0  0  0  0  0  0  0  0  0
   -1.1007   -0.0289   -4.3945 C   0  0  0  0  0  0  0  0  0  0  0  0
   -0.5760   -1.0707   -5.0767 O   0  0  0  0  0  0  0  0  0  0  0  0
    0.6147   -1.6605   -4.5812 C   0  0  0  0  0  0  0  0  0  0  0  0
   -1.4753   -0.1029   -3.0467 C   0  0  0  0  0  0  0  0  0  0  0  0
   -1.2536   -1.2365   -2.3769 F   0  0  0  0  0  0  0  0  0  0  0  0
   -2.6684    0.8301    1.8995 C   0  0  0  0  0  0  0  0  0  0  0  0
   -2.5468    0.5522    3.1852 N   0  0  0  0  0  0  0  0  0  0  0  0
   -0.4063   -2.0902    2.4929 C   0  0  0  0  0  3  0  0  0  0  0  0
    0.8735   -2.1620    1.7903 C   0  0  0  0  0  0  0  0  0  0  0  0
    1.5796   -0.4659    1.1845 S   0  0  0  0  0  0  0  0  0  0  0  0
    2.7766   -1.0250   -0.0621 C   0  0  0  0  0  0  0  0  0  0  0  0
    2.2324   -1.0365   -1.5053 C   0  0  2  0  0  0  0  0  0  0  0  0
    1.2498   -1.5360   -1.4865 H   0  0  0  0  0  0  0  0  0  0  0  0
    3.1069   -1.7530   -2.4016 N   0  0  0  0  0  0  0  0  0  0  0  0
    3.0454   -3.0972   -2.5606 C   0  0  0  0  0  0  0  0  0  0  0  0
    3.9485   -3.6642   -3.6418 C   0  0  0  0  0  0  0  0  0  0  0  0
    2.3147   -3.8123   -1.8991 O   0  0  0  0  0  0  0  0  0  0  0  0
    2.0682    0.3703   -2.1005 C   0  0  0  0  0  0  0  0  0  0  0  0
    1.1601    1.1622   -1.5128 N   0  0  0  0  0  0  0  0  0  0  0  0
    0.9276    2.5088   -1.9722 C   0  0  0  0  0  0  0  0  0  0  0  0
    2.7306    0.7245   -3.0735 O   0  0  0  0  0  0  0  0  0  0  0  0
    0.3540   -2.4247    5.6089 H   0  0  0  0  0  0  0  0  0  0  0  0
    2.9429    0.1407    5.8016 H   0  0  0  0  0  0  0  0  0  0  0  0
    2.8271   -1.6433    5.9346 H   0  0  0  0  0  0  0  0  0  0  0  0
    0.0895    0.7717    7.6670 H   0  0  0  0  0  0  0  0  0  0  0  0
   -0.4872   -0.8560    7.2097 H   0  0  0  0  0  0  0  0  0  0  0  0
   -1.6650   -0.5340    5.1186 H   0  0  0  0  0  0  0  0  0  0  0  0
    0.1757    2.5759    1.4620 H   0  0  0  0  0  0  0  0  0  0  0  0
   -3.5483    1.1935   -0.8368 H   0  0  0  0  0  0  0  0  0  0  0  0
   -2.4329   -0.1826   -0.6021 H   0  0  0  0  0  0  0  0  0  0  0  0
   -1.6853    5.3391   -5.4220 H   0  0  0  0  0  0  0  0  0  0  0  0
   -0.3351    4.3079   -4.8510 H   0  0  0  0  0  0  0  0  0  0  0  0
   -1.6306    4.8088   -3.7135 H   0  0  0  0  0  0  0  0  0  0  0  0
   -1.0338    1.2488   -6.1183 H   0  0  0  0  0  0  0  0  0  0  0  0
    0.9824   -2.3243   -5.3744 H   0  0  0  0  0  0  0  0  0  0  0  0
    0.4351   -2.2592   -3.6754 H   0  0  0  0  0  0  0  0  0  0  0  0
    1.3752   -0.8919   -4.3731 H   0  0  0  0  0  0  0  0  0  0  0  0
   -3.6048    0.5211    1.4206 H   0  0  0  0  0  0  0  0  0  0  0  0
   -1.3286   -2.1138    1.9065 H   0  0  0  0  0  0  0  0  0  0  0  0
    0.8321   -2.7374    0.8523 H   0  0  0  0  0  0  0  0  0  0  0  0
    1.6756   -2.5547    2.4314 H   0  0  0  0  0  0  0  0  0  0  0  0
    3.0658   -2.0568    0.1887 H   0  0  0  0  0  0  0  0  0  0  0  0
    3.6828   -0.4020   -0.0098 H   0  0  0  0  0  0  0  0  0  0  0  0
    3.6136   -1.1594   -3.0522 H   0  0  0  0  0  0  0  0  0  0  0  0
    4.5553   -4.4689   -3.2047 H   0  0  0  0  0  0  0  0  0  0  0  0
    4.6096   -2.9162   -4.1007 H   0  0  0  0  0  0  0  0  0  0  0  0
    3.3176   -4.1167   -4.4206 H   0  0  0  0  0  0  0  0  0  0  0  0
    0.6981    0.8243   -0.6659 H   0  0  0  0  0  0  0  0  0  0  0  0
    0.7515    2.5117   -3.0590 H   0  0  0  0  0  0  0  0  0  0  0  0
    1.7897    3.1650   -1.7687 H   0  0  0  0  0  0  0  0  0  0  0  0
    0.0397    2.8974   -1.4601 H   0  0  0  0  0  0  0  0  0  0  0  0
  2  1  2  0  0  0  0
  2  3  1  0  0  0  0
  3  4  1  0  0  0  0
  3 46  1  0  0  0  0
  4  5  1  6  0  0  0
  4  9  1  0  0  0  0
  4  6  1  0  0  0  0
  6  7  1  0  0  0  0
  8  7  1  0  0  0  0
  8 50  1  0  0  0  0
  8 49  1  0  0  0  0
  9 10  1  6  0  0  0
  9  8  1  0  0  0  0
 11 51  1  0  0  0  0
 11  9  1  0  0  0  0
 12 11  1  0  0  0  0
 13 12  2  0  0  0  0
 14 13  1  0  0  0  0
 15 30  1  0  0  0  0
 15 14  2  0  0  0  0
 16 15  1  0  0  0  0
 17 53  1  0  0  0  0
 17 54  1  0  0  0  0
 17 16  1  0  0  0  0
 18 17  1  0  0  0  0
 19 20  1  0  0  0  0
 19 18  2  0  0  0  0
 21 19  1  0  0  0  0
 22 23  1  0  0  0  0
 22 21  1  0  0  0  0
 23 57  1  0  0  0  0
 24 21  2  0  0  0  0
 24 25  1  0  0  0  0
 25 28  2  0  0  0  0
 26 27  1  0  0  0  0
 26 25  1  0  0  0  0
 27 61  1  0  0  0  0
 27 60  1  0  0  0  0
 28 18  1  0  0  0  0
 28 29  1  0  0  0  0
 30 31  2  0  0  0  0
 31 12  1  0  0  0  0
 32  2  1  0  0  0  0
 33 65  1  0  0  0  0
 33 32  1  0  0  0  0
 34 33  1  0  0  0  0
 35 67  1  0  0  0  0
 35 66  1  0  0  0  0
 35 34  1  0  0  0  0
 36 37  1  1  0  0  0
 36 35  1  0  0  0  0
 38 36  1  0  0  0  0
 39 38  1  0  0  0  0
 39 41  2  0  0  0  0
 40 69  1  0  0  0  0
 40 39  1  0  0  0  0
 42 43  1  0  0  0  0
 42 36  1  0  0  0  0
 43 72  1  0  0  0  0
 44 74  1  0  0  0  0
 44 43  1  0  0  0  0
 44 75  1  0  0  0  0
 45 42  2  0  0  0  0
 47  6  1  0  0  0  0
 48  6  1  0  0  0  0
 52 14  1  0  0  0  0
 55 23  1  0  0  0  0
 56 23  1  0  0  0  0
 58 24  1  0  0  0  0
 59 27  1  0  0  0  0
 62 30  1  0  0  0  0
 63 32  1  0  0  0  0
 64 33  1  0  0  0  0
 68 38  1  0  0  0  0
 70 40  1  0  0  0  0
 71 40  1  0  0  0  0
 73 44  1  0  0  0  0
M  END
