-1 1
 OpenBabel05232414493D

100103  0  0  1  0  0  0  0  0999 V2000
  -10.4930   -2.8622    5.3358 C   0  0  0  0  0  0  0  0  0  0  0  0
   -9.6109   -4.0530    5.0762 C   0  0  2  0  0  3  0  0  0  0  0  0
   -8.2084   -3.8866    5.0040 C   0  0  0  0  0  0  0  0  0  0  0  0
   -7.0442   -3.6361    6.8372 S   0  0  0  0  0  0  0  0  0  0  0  0
   -5.5090   -3.3235    5.9378 C   0  0  0  0  0  0  0  0  0  0  0  0
   -4.3302   -4.2573    6.2743 C   0  0  1  0  0  0  0  0  0  0  0  0
   -3.9297   -4.0070    7.2714 H   0  0  0  0  0  0  0  0  0  0  0  0
   -4.7058   -5.6421    6.2783 N   0  0  0  0  0  0  0  0  0  0  0  0
   -3.9048   -6.5740    6.8339 C   0  0  0  0  0  0  0  0  0  0  0  0
   -4.4244   -7.9879    6.7922 C   0  0  0  0  0  0  0  0  0  0  0  0
   -2.8174   -6.2902    7.3362 O   0  0  0  0  0  0  0  0  0  0  0  0
   -3.2598   -3.9899    5.2106 C   0  0  0  0  0  0  0  0  0  0  0  0
   -2.3587   -3.0304    5.5307 N   0  0  0  0  0  0  0  0  0  0  0  0
   -1.4044   -2.5100    4.5790 C   0  0  0  0  0  0  0  0  0  0  0  0
   -3.2951   -4.5189    4.1116 O   0  0  0  0  0  0  0  0  0  0  0  0
  -10.2321   -5.2966    4.7678 C   0  0  0  0  0  0  0  0  0  0  0  0
   -9.3589   -6.4505    4.6923 N   0  0  0  0  0  0  0  0  0  0  0  0
   -8.8301   -7.0957    5.7849 C   0  0  0  0  0  0  0  0  0  0  0  0
   -8.2025   -8.3464    5.6052 C   0  0  0  0  0  0  0  0  0  0  0  0
   -8.0116   -8.8264    4.2801 N   0  0  0  0  0  0  0  0  0  0  0  0
   -6.8888   -8.5003    3.5561 C   0  0  0  0  0  0  0  0  0  0  0  0
   -6.1385   -7.4733    3.9561 N   0  0  0  0  0  0  0  0  0  0  0  0
   -5.0199   -7.2141    3.2753 C   0  0  0  0  0  0  0  0  0  0  0  0
   -4.6409   -7.9918    2.1828 C   0  0  0  0  0  0  0  0  0  0  0  0
   -3.4989   -7.8751    1.4585 O   0  0  0  0  0  0  0  0  0  0  0  0
   -2.5281   -6.9416    1.8411 C   0  0  0  0  0  0  0  0  0  0  0  0
   -1.7827   -7.2301    3.1328 C   0  0  0  0  0  0  0  0  0  0  0  0
   -1.9063   -8.3738    3.9169 C   0  0  0  0  0  0  0  0  0  0  0  0
   -2.6619   -9.4038    3.5312 F   0  0  0  0  0  0  0  0  0  0  0  0
   -1.2971   -8.4675    5.1762 C   0  0  0  0  0  0  0  0  0  0  0  0
   -1.5504   -9.5890    5.8862 O   0  0  0  0  0  0  0  0  0  0  0  0
   -1.2866   -9.5564    7.2664 C   0  0  0  0  0  0  0  0  0  0  0  0
   -0.5227   -7.4100    5.6386 C   0  0  0  0  0  0  0  0  0  0  0  0
   -0.3593   -6.2609    4.8653 C   0  0  0  0  0  0  0  0  0  0  0  0
    0.3307   -5.1753    5.2907 O   0  0  0  0  0  0  0  0  0  0  0  0
    0.2933   -4.9088    6.6752 C   0  0  0  0  0  0  0  0  0  0  0  0
   -0.9587   -6.2091    3.6118 C   0  0  0  0  0  0  0  0  0  0  0  0
   -0.7839   -5.1248    2.8501 F   0  0  0  0  0  0  0  0  0  0  0  0
   -5.5216   -9.0149    1.8213 C   0  0  0  0  0  0  0  0  0  0  0  0
   -6.6330   -9.2720    2.4867 N   0  0  0  0  0  0  0  0  0  0  0  0
   -7.6974   -9.0585    6.7020 C   0  0  0  0  0  0  0  0  0  0  0  0
   -7.0562  -10.4046    6.4840 C   0  0  0  0  0  0  0  0  0  0  0  0
   -7.7537   -8.4914    7.9713 C   0  0  0  0  0  0  0  0  0  0  0  0
   -8.2756   -7.1979    8.1537 C   0  0  0  0  0  0  0  0  0  0  0  0
   -8.1721   -6.5948    9.4286 N   0  0  0  0  0  0  0  0  0  0  0  0
   -8.9757   -5.4005    9.6467 C   0  0  0  0  0  0  0  0  0  0  0  0
   -8.8839   -4.9605   11.1065 C   0  0  0  0  0  0  0  0  0  0  0  0
   -7.5191   -4.7241   11.5550 N   0  0  0  0  0  0  0  0  0  0  0  0
   -6.7436   -5.9304   11.3197 C   0  0  0  0  0  0  0  0  0  0  0  0
   -6.7874   -6.4142    9.8718 C   0  0  0  0  0  0  0  0  0  0  0  0
   -6.8900   -3.5197   11.0223 C   0  0  0  0  0  0  0  0  0  0  0  0
   -7.5530   -2.2392   11.5107 C   0  0  0  0  0  0  0  0  0  0  0  0
   -8.8535   -6.5369    7.0732 C   0  0  0  0  0  0  0  0  0  0  0  0
  -11.4180   -5.4766    4.4884 O   0  0  0  0  0  0  0  0  0  0  0  0
  -10.4696   -2.5470    6.3973 H   0  0  0  0  0  0  0  0  0  0  0  0
  -11.5336   -3.1037    5.0771 H   0  0  0  0  0  0  0  0  0  0  0  0
  -10.1845   -1.9810    4.7434 H   0  0  0  0  0  0  0  0  0  0  0  0
   -7.8695   -2.9133    4.6288 H   0  0  0  0  0  0  0  0  0  0  0  0
   -7.6465   -4.7327    4.5951 H   0  0  0  0  0  0  0  0  0  0  0  0
   -5.1593   -2.2904    6.0881 H   0  0  0  0  0  0  0  0  0  0  0  0
   -5.7214   -3.4298    4.8588 H   0  0  0  0  0  0  0  0  0  0  0  0
   -5.6250   -5.9082    5.9283 H   0  0  0  0  0  0  0  0  0  0  0  0
   -4.3325   -8.4290    7.7945 H   0  0  0  0  0  0  0  0  0  0  0  0
   -3.8080   -8.5801    6.1008 H   0  0  0  0  0  0  0  0  0  0  0  0
   -5.4681   -8.0341    6.4669 H   0  0  0  0  0  0  0  0  0  0  0  0
   -2.3438   -2.6965    6.4840 H   0  0  0  0  0  0  0  0  0  0  0  0
   -1.8440   -2.5720    3.5750 H   0  0  0  0  0  0  0  0  0  0  0  0
   -0.4731   -3.0957    4.5659 H   0  0  0  0  0  0  0  0  0  0  0  0
   -1.1846   -1.4587    4.8131 H   0  0  0  0  0  0  0  0  0  0  0  0
   -9.6285   -7.0875    3.9503 H   0  0  0  0  0  0  0  0  0  0  0  0
   -8.4300   -9.7033    3.9965 H   0  0  0  0  0  0  0  0  0  0  0  0
   -4.4184   -6.3679    3.6320 H   0  0  0  0  0  0  0  0  0  0  0  0
   -2.9620   -5.9303    1.9403 H   0  0  0  0  0  0  0  0  0  0  0  0
   -1.8119   -6.9080    1.0070 H   0  0  0  0  0  0  0  0  0  0  0  0
   -1.7223   -8.6547    7.7298 H   0  0  0  0  0  0  0  0  0  0  0  0
   -0.2014   -9.5879    7.4735 H   0  0  0  0  0  0  0  0  0  0  0  0
   -1.7504  -10.4540    7.6946 H   0  0  0  0  0  0  0  0  0  0  0  0
   -0.0865   -7.4491    6.6328 H   0  0  0  0  0  0  0  0  0  0  0  0
    0.5694   -3.8524    6.7995 H   0  0  0  0  0  0  0  0  0  0  0  0
    1.0269   -5.5224    7.2280 H   0  0  0  0  0  0  0  0  0  0  0  0
   -0.7163   -5.0868    7.0827 H   0  0  0  0  0  0  0  0  0  0  0  0
   -5.2795   -9.6453    0.9579 H   0  0  0  0  0  0  0  0  0  0  0  0
   -6.2036  -10.3318    5.7891 H   0  0  0  0  0  0  0  0  0  0  0  0
   -7.7625  -11.1293    6.0471 H   0  0  0  0  0  0  0  0  0  0  0  0
   -6.6867  -10.8233    7.4306 H   0  0  0  0  0  0  0  0  0  0  0  0
   -7.3598   -9.0396    8.8299 H   0  0  0  0  0  0  0  0  0  0  0  0
  -10.0230   -5.6292    9.3973 H   0  0  0  0  0  0  0  0  0  0  0  0
   -8.6595   -4.5656    8.9901 H   0  0  0  0  0  0  0  0  0  0  0  0
   -9.3161   -5.7508   11.7450 H   0  0  0  0  0  0  0  0  0  0  0  0
   -9.4918   -4.0564   11.2574 H   0  0  0  0  0  0  0  0  0  0  0  0
   -7.1463   -6.7289   11.9684 H   0  0  0  0  0  0  0  0  0  0  0  0
   -5.6970   -5.7565   11.6184 H   0  0  0  0  0  0  0  0  0  0  0  0
   -6.2520   -7.3709    9.7974 H   0  0  0  0  0  0  0  0  0  0  0  0
   -6.2634   -5.6972    9.2065 H   0  0  0  0  0  0  0  0  0  0  0  0
   -6.8408   -3.4997    9.9136 H   0  0  0  0  0  0  0  0  0  0  0  0
   -5.8442   -3.5310   11.3731 H   0  0  0  0  0  0  0  0  0  0  0  0
   -8.5523   -2.0983   11.0723 H   0  0  0  0  0  0  0  0  0  0  0  0
   -6.9504   -1.3662   11.2189 H   0  0  0  0  0  0  0  0  0  0  0  0
   -7.6552   -2.2510   12.6071 H   0  0  0  0  0  0  0  0  0  0  0  0
   -9.2808   -5.5437    7.1815 H   0  0  0  0  0  0  0  0  0  0  0  0
  1 55  1  0  0  0  0
  2 16  1  6  0  0  0
  2  1  1  0  0  0  0
  3  2  1  0  0  0  0
  3  4  1  0  0  0  0
  5 60  1  0  0  0  0
  5  6  1  0  0  0  0
  5  4  1  0  0  0  0
  6  8  1  0  0  0  0
  6  7  1  1  0  0  0
  8  9  1  0  0  0  0
  9 11  2  0  0  0  0
 10  9  1  0  0  0  0
 10 63  1  0  0  0  0
 12 13  1  0  0  0  0
 12  6  1  0  0  0  0
 13 66  1  0  0  0  0
 14 69  1  0  0  0  0
 14 13  1  0  0  0  0
 15 12  2  0  0  0  0
 17 16  1  0  0  0  0
 17 18  1  0  0  0  0
 18 53  1  0  0  0  0
 19 18  2  0  0  0  0
 19 41  1  0  0  0  0
 20 19  1  0  0  0  0
 21 22  2  0  0  0  0
 21 20  1  0  0  0  0
 23 72  1  0  0  0  0
 23 22  1  0  0  0  0
 24 23  2  0  0  0  0
 25 26  1  0  0  0  0
 25 24  1  0  0  0  0
 26 73  1  0  0  0  0
 26 27  1  0  0  0  0
 27 37  2  0  0  0  0
 27 28  1  0  0  0  0
 28 30  2  0  0  0  0
 29 28  1  0  0  0  0
 30 33  1  0  0  0  0
 30 31  1  0  0  0  0
 31 32  1  0  0  0  0
 32 76  1  0  0  0  0
 32 77  1  0  0  0  0
 32 75  1  0  0  0  0
 33 78  1  0  0  0  0
 34 35  1  0  0  0  0
 34 33  2  0  0  0  0
 35 36  1  0  0  0  0
 36 79  1  0  0  0  0
 36 81  1  0  0  0  0
 36 80  1  0  0  0  0
 37 34  1  0  0  0  0
 38 37  1  0  0  0  0
 39 24  1  0  0  0  0
 39 40  2  0  0  0  0
 40 21  1  0  0  0  0
 41 43  2  0  0  0  0
 42 41  1  0  0  0  0
 42 85  1  0  0  0  0
 43 44  1  0  0  0  0
 43 86  1  0  0  0  0
 44 45  1  0  0  0  0
 45 46  1  0  0  0  0
 45 50  1  0  0  0  0
 46 47  1  0  0  0  0
 47 90  1  0  0  0  0
 47 48  1  0  0  0  0
 47 89  1  0  0  0  0
 49 48  1  0  0  0  0
 49 92  1  0  0  0  0
 49 91  1  0  0  0  0
 50 49  1  0  0  0  0
 51 96  1  0  0  0  0
 51 52  1  0  0  0  0
 51 48  1  0  0  0  0
 52 99  1  0  0  0  0
 53100  1  0  0  0  0
 53 44  2  0  0  0  0
 54 16  2  0  0  0  0
 56  1  1  0  0  0  0
 57  1  1  0  0  0  0
 58  3  1  0  0  0  0
 59  3  1  0  0  0  0
 61  5  1  0  0  0  0
 62  8  1  0  0  0  0
 64 10  1  0  0  0  0
 65 10  1  0  0  0  0
 67 14  1  0  0  0  0
 68 14  1  0  0  0  0
 70 17  1  0  0  0  0
 71 20  1  0  0  0  0
 74 26  1  0  0  0  0
 82 39  1  0  0  0  0
 83 42  1  0  0  0  0
 84 42  1  0  0  0  0
 87 46  1  0  0  0  0
 88 46  1  0  0  0  0
 93 50  1  0  0  0  0
 94 50  1  0  0  0  0
 95 51  1  0  0  0  0
 97 52  1  0  0  0  0
 98 52  1  0  0  0  0
M  END
