-1 1
 OpenBabel05232413483D

100102  0  0  1  0  0  0  0  0999 V2000
   -5.2471    3.1943   -0.7477 C   0  0  0  0  0  0  0  0  0  0  0  0
   -4.2036    2.1312   -0.9413 C   0  0  0  0  0  0  0  0  0  0  0  0
   -2.9074    2.2917   -0.6580 C   0  0  0  0  0  0  0  0  0  0  0  0
   -0.7975    2.7085    2.0921 S   0  0  0  0  0  1  0  0  0  0  0  0
    0.2587    2.9352    0.6359 C   0  0  0  0  0  0  0  0  0  0  0  0
    1.4245    1.9311    0.5314 C   0  0  1  0  0  0  0  0  0  0  0  0
    2.0834    2.0605    1.4056 H   0  0  0  0  0  0  0  0  0  0  0  0
    0.9563    0.5736    0.5242 N   0  0  0  0  0  0  0  0  0  0  0  0
    1.7294   -0.4471    0.9359 C   0  0  0  0  0  0  0  0  0  0  0  0
    1.0786   -1.8092    0.9057 C   0  0  0  0  0  0  0  0  0  0  0  0
    2.8970   -0.2963    1.2948 O   0  0  0  0  0  0  0  0  0  0  0  0
    2.2059    2.2337   -0.7480 C   0  0  0  0  0  0  0  0  0  0  0  0
    3.1667    3.1806   -0.5985 N   0  0  0  0  0  0  0  0  0  0  0  0
    3.9065    3.7473   -1.6987 C   0  0  0  0  0  0  0  0  0  0  0  0
    1.9322    1.7360   -1.8302 O   0  0  0  0  0  0  0  0  0  0  0  0
   -4.6732    0.8838   -1.6226 C   0  0  0  0  0  0  0  0  0  0  0  0
   -4.1425   -0.3322   -1.2517 N   0  0  0  0  0  0  0  0  0  0  0  0
   -3.5812   -0.8268   -0.0675 C   0  0  0  0  0  0  0  0  0  0  0  0
   -2.9029   -2.0531   -0.1673 C   0  0  0  0  0  0  0  0  0  0  0  0
   -2.7061   -2.6213   -1.4532 N   0  0  0  0  0  0  0  0  0  0  0  0
   -1.6044   -2.2915   -2.2217 C   0  0  0  0  0  0  0  0  0  0  0  0
   -0.8816   -1.2298   -1.8785 N   0  0  0  0  0  0  0  0  0  0  0  0
    0.1913   -0.9374   -2.6194 C   0  0  0  0  0  0  0  0  0  0  0  0
    0.5334   -1.7194   -3.7232 C   0  0  0  0  0  0  0  0  0  0  0  0
    1.6060   -1.5591   -4.5346 O   0  0  0  0  0  0  0  0  0  0  0  0
    2.5827   -0.6078   -4.2130 C   0  0  0  0  0  0  0  0  0  0  0  0
    3.4473   -0.9194   -3.0061 C   0  0  0  0  0  0  0  0  0  0  0  0
    3.4036   -2.0770   -2.2341 C   0  0  0  0  0  0  0  0  0  0  0  0
    2.6140   -3.1041   -2.5608 F   0  0  0  0  0  0  0  0  0  0  0  0
    4.1379   -2.1926   -1.0461 C   0  0  0  0  0  0  0  0  0  0  0  0
    3.9563   -3.3277   -0.3369 O   0  0  0  0  0  0  0  0  0  0  0  0
    4.3630   -3.3264    1.0104 C   0  0  0  0  0  0  0  0  0  0  0  0
    4.9587   -1.1430   -0.6487 C   0  0  0  0  0  0  0  0  0  0  0  0
    5.0357    0.0242   -1.4086 C   0  0  0  0  0  0  0  0  0  0  0  0
    5.7533    1.1092   -1.0336 O   0  0  0  0  0  0  0  0  0  0  0  0
    5.8509    1.3490    0.3528 C   0  0  0  0  0  0  0  0  0  0  0  0
    4.3117    0.0952   -2.5934 C   0  0  0  0  0  0  0  0  0  0  0  0
    4.4020    1.1944   -3.3503 F   0  0  0  0  0  0  0  0  0  0  0  0
   -0.3045   -2.8029   -4.0001 C   0  0  0  0  0  0  0  0  0  0  0  0
   -1.3639   -3.0951   -3.2669 N   0  0  0  0  0  0  0  0  0  0  0  0
   -2.3796   -2.6559    0.9846 C   0  0  0  0  0  0  0  0  0  0  0  0
   -1.6834   -3.9873    0.8744 C   0  0  0  0  0  0  0  0  0  0  0  0
   -2.4946   -2.0092    2.2093 C   0  0  0  0  0  0  0  0  0  0  0  0
   -3.1187   -0.7489    2.3235 C   0  0  0  0  0  0  0  0  0  0  0  0
   -3.1864   -0.1016    3.5555 N   0  0  0  0  0  0  0  0  0  0  0  0
   -3.8944    1.1715    3.6141 C   0  0  0  0  0  0  0  0  0  0  0  0
   -4.1460    1.5812    5.0662 C   0  0  0  0  0  0  0  0  0  0  0  0
   -2.9533    1.6237    5.8926 N   0  0  0  0  0  0  0  0  0  0  0  0
   -2.2965    0.3325    5.8112 C   0  0  0  0  0  0  0  0  0  0  0  0
   -1.9779   -0.1134    4.3846 C   0  0  0  0  0  0  0  0  0  0  0  0
   -2.0559    2.7498    5.6403 C   0  0  0  0  0  0  0  0  0  0  0  0
   -2.6788    4.0932    5.9901 C   0  0  0  0  0  0  0  0  0  0  0  0
   -3.6924   -0.1922    1.1698 C   0  0  0  0  0  0  0  0  0  0  0  0
   -5.4635    0.9363   -2.5496 O   0  0  0  0  0  0  0  0  0  0  0  0
   -6.0327    2.8553   -0.0516 H   0  0  0  0  0  0  0  0  0  0  0  0
   -5.7418    3.4174   -1.7049 H   0  0  0  0  0  0  0  0  0  0  0  0
   -4.8002    4.1124   -0.3429 H   0  0  0  0  0  0  0  0  0  0  0  0
   -2.5238    3.2085   -0.2042 H   0  0  0  0  0  0  0  0  0  0  0  0
   -2.1863    1.4882   -0.8314 H   0  0  0  0  0  0  0  0  0  0  0  0
    0.7089    3.9416    0.6276 H   0  0  0  0  0  0  0  0  0  0  0  0
   -0.3191    2.8530   -0.3032 H   0  0  0  0  0  0  0  0  0  0  0  0
   -0.0389    0.4198    0.3905 H   0  0  0  0  0  0  0  0  0  0  0  0
    1.1852   -2.2779    1.8944 H   0  0  0  0  0  0  0  0  0  0  0  0
    1.6068   -2.4371    0.1725 H   0  0  0  0  0  0  0  0  0  0  0  0
    0.0184   -1.7563    0.6342 H   0  0  0  0  0  0  0  0  0  0  0  0
    3.3402    3.5190    0.3378 H   0  0  0  0  0  0  0  0  0  0  0  0
    3.3721    3.5050   -2.6255 H   0  0  0  0  0  0  0  0  0  0  0  0
    4.9167    3.3169   -1.7769 H   0  0  0  0  0  0  0  0  0  0  0  0
    3.9720    4.8409   -1.5931 H   0  0  0  0  0  0  0  0  0  0  0  0
   -4.2889   -1.0496   -1.9559 H   0  0  0  0  0  0  0  0  0  0  0  0
   -3.0542   -3.5533   -1.6412 H   0  0  0  0  0  0  0  0  0  0  0  0
    0.7831   -0.0689   -2.2985 H   0  0  0  0  0  0  0  0  0  0  0  0
    2.1337    0.3870   -4.0410 H   0  0  0  0  0  0  0  0  0  0  0  0
    3.2175   -0.5289   -5.1075 H   0  0  0  0  0  0  0  0  0  0  0  0
    3.9708   -2.4383    1.5346 H   0  0  0  0  0  0  0  0  0  0  0  0
    5.4642   -3.3572    1.1007 H   0  0  0  0  0  0  0  0  0  0  0  0
    3.9518   -4.2393    1.4597 H   0  0  0  0  0  0  0  0  0  0  0  0
    5.4888   -1.1979    0.2980 H   0  0  0  0  0  0  0  0  0  0  0  0
    6.1027    2.4119    0.4723 H   0  0  0  0  0  0  0  0  0  0  0  0
    6.6570    0.7499    0.8131 H   0  0  0  0  0  0  0  0  0  0  0  0
    4.8965    1.1269    0.8596 H   0  0  0  0  0  0  0  0  0  0  0  0
   -0.0700   -3.4511   -4.8519 H   0  0  0  0  0  0  0  0  0  0  0  0
   -0.8784   -3.9567    0.1235 H   0  0  0  0  0  0  0  0  0  0  0  0
   -2.3808   -4.7841    0.5666 H   0  0  0  0  0  0  0  0  0  0  0  0
   -1.2397   -4.2824    1.8352 H   0  0  0  0  0  0  0  0  0  0  0  0
   -2.0839   -2.4957    3.0942 H   0  0  0  0  0  0  0  0  0  0  0  0
   -4.8740    1.0566    3.1267 H   0  0  0  0  0  0  0  0  0  0  0  0
   -3.3346    1.9577    3.0680 H   0  0  0  0  0  0  0  0  0  0  0  0
   -4.8430    0.8529    5.5191 H   0  0  0  0  0  0  0  0  0  0  0  0
   -4.6503    2.5585    5.0814 H   0  0  0  0  0  0  0  0  0  0  0  0
   -2.9594   -0.4202    6.2767 H   0  0  0  0  0  0  0  0  0  0  0  0
   -1.3638    0.3599    6.3972 H   0  0  0  0  0  0  0  0  0  0  0  0
   -1.5644   -1.1286    4.4286 H   0  0  0  0  0  0  0  0  0  0  0  0
   -1.2095    0.5418    3.9275 H   0  0  0  0  0  0  0  0  0  0  0  0
   -1.6714    2.7884    4.6020 H   0  0  0  0  0  0  0  0  0  0  0  0
   -1.1720    2.5942    6.2811 H   0  0  0  0  0  0  0  0  0  0  0  0
   -3.4782    4.3736    5.2874 H   0  0  0  0  0  0  0  0  0  0  0  0
   -1.9162    4.8837    5.9332 H   0  0  0  0  0  0  0  0  0  0  0  0
   -3.1018    4.0755    7.0073 H   0  0  0  0  0  0  0  0  0  0  0  0
   -4.1742    0.7773    1.2156 H   0  0  0  0  0  0  0  0  0  0  0  0
  1 57  1  0  0  0  0
  1 55  1  0  0  0  0
  2  1  1  0  0  0  0
  2  3  2  0  0  0  0
  3 58  1  0  0  0  0
  5  4  1  0  0  0  0
  6  5  1  0  0  0  0
  6  7  1  1  0  0  0
  8  6  1  0  0  0  0
  8  9  1  0  0  0  0
  9 11  2  0  0  0  0
 10  9  1  0  0  0  0
 10 63  1  0  0  0  0
 12 13  1  0  0  0  0
 12  6  1  0  0  0  0
 13 66  1  0  0  0  0
 14 69  1  0  0  0  0
 14 13  1  0  0  0  0
 15 12  2  0  0  0  0
 16 17  1  0  0  0  0
 16  2  1  0  0  0  0
 17 18  1  0  0  0  0
 18 53  1  0  0  0  0
 19 18  2  0  0  0  0
 19 41  1  0  0  0  0
 20 19  1  0  0  0  0
 21 22  2  0  0  0  0
 21 20  1  0  0  0  0
 23 72  1  0  0  0  0
 23 22  1  0  0  0  0
 24 23  2  0  0  0  0
 25 26  1  0  0  0  0
 25 24  1  0  0  0  0
 26 73  1  0  0  0  0
 26 27  1  0  0  0  0
 27 37  2  0  0  0  0
 27 28  1  0  0  0  0
 28 30  2  0  0  0  0
 29 28  1  0  0  0  0
 30 33  1  0  0  0  0
 30 31  1  0  0  0  0
 31 32  1  0  0  0  0
 32 76  1  0  0  0  0
 32 77  1  0  0  0  0
 32 75  1  0  0  0  0
 33 78  1  0  0  0  0
 34 35  1  0  0  0  0
 34 33  2  0  0  0  0
 35 36  1  0  0  0  0
 36 79  1  0  0  0  0
 36 80  1  0  0  0  0
 36 81  1  0  0  0  0
 37 34  1  0  0  0  0
 38 37  1  0  0  0  0
 39 24  1  0  0  0  0
 39 40  2  0  0  0  0
 40 21  1  0  0  0  0
 41 43  2  0  0  0  0
 42 41  1  0  0  0  0
 42 85  1  0  0  0  0
 43 44  1  0  0  0  0
 43 86  1  0  0  0  0
 44 45  1  0  0  0  0
 45 46  1  0  0  0  0
 45 50  1  0  0  0  0
 46 47  1  0  0  0  0
 47 90  1  0  0  0  0
 47 89  1  0  0  0  0
 47 48  1  0  0  0  0
 49 48  1  0  0  0  0
 49 91  1  0  0  0  0
 49 92  1  0  0  0  0
 50 93  1  0  0  0  0
 50 49  1  0  0  0  0
 51 48  1  0  0  0  0
 51 52  1  0  0  0  0
 51 96  1  0  0  0  0
 52 99  1  0  0  0  0
 53100  1  0  0  0  0
 53 44  2  0  0  0  0
 54 16  2  0  0  0  0
 56  1  1  0  0  0  0
 59  3  1  0  0  0  0
 60  5  1  0  0  0  0
 61  5  1  0  0  0  0
 62  8  1  0  0  0  0
 64 10  1  0  0  0  0
 65 10  1  0  0  0  0
 67 14  1  0  0  0  0
 68 14  1  0  0  0  0
 70 17  1  0  0  0  0
 71 20  1  0  0  0  0
 74 26  1  0  0  0  0
 82 39  1  0  0  0  0
 83 42  1  0  0  0  0
 84 42  1  0  0  0  0
 87 46  1  0  0  0  0
 88 46  1  0  0  0  0
 94 50  1  0  0  0  0
 95 51  1  0  0  0  0
 97 52  1  0  0  0  0
 98 52  1  0  0  0  0
M  END
