-1 1
 OpenBabel05192410563D

100103  0  0  1  0  0  0  0  0999 V2000
   -5.2961    3.4073   -0.4845 C   0  0  0  0  0  0  0  0  0  0  0  0
   -4.4145    2.2181   -0.7472 C   0  0  2  0  0  3  0  0  0  0  0  0
   -2.9824    2.4311   -0.9133 C   0  0  0  0  0  0  0  0  0  0  0  0
   -1.9243    2.7506    0.7014 S   0  0  0  0  0  0  0  0  0  0  0  0
   -0.3346    2.9861   -0.1337 C   0  0  0  0  0  0  0  0  0  0  0  0
    0.8180    2.0862    0.3387 C   0  0  1  0  0  0  0  0  0  0  0  0
    1.1337    2.3799    1.3545 H   0  0  0  0  0  0  0  0  0  0  0  0
    0.4665    0.6949    0.3626 N   0  0  0  0  0  0  0  0  0  0  0  0
    1.2775   -0.2034    0.9621 C   0  0  0  0  0  0  0  0  0  0  0  0
    0.8126   -1.6345    0.9145 C   0  0  0  0  0  0  0  0  0  0  0  0
    2.3299    0.1292    1.5056 O   0  0  0  0  0  0  0  0  0  0  0  0
    1.9663    2.3406   -0.6467 C   0  0  0  0  0  0  0  0  0  0  0  0
    2.8452    3.3007   -0.2758 N   0  0  0  0  0  0  0  0  0  0  0  0
    3.8619    3.8063   -1.1703 C   0  0  0  0  0  0  0  0  0  0  0  0
    2.0021    1.8015   -1.7402 O   0  0  0  0  0  0  0  0  0  0  0  0
   -5.0148    0.9788   -1.0176 C   0  0  0  0  0  0  0  0  0  0  0  0
   -4.0849   -0.1488   -1.1808 N   0  0  0  0  0  0  0  0  0  0  0  0
   -3.5499   -0.8369   -0.1273 C   0  0  0  0  0  0  0  0  0  0  0  0
   -2.9147   -2.0800   -0.3446 C   0  0  0  0  0  0  0  0  0  0  0  0
   -2.7156   -2.5175   -1.6843 N   0  0  0  0  0  0  0  0  0  0  0  0
   -1.5821   -2.1846   -2.3838 C   0  0  0  0  0  0  0  0  0  0  0  0
   -0.8314   -1.1666   -1.9574 N   0  0  0  0  0  0  0  0  0  0  0  0
    0.3041   -0.9113   -2.6116 C   0  0  0  0  0  0  0  0  0  0  0  0
    0.7034   -1.6813   -3.7015 C   0  0  0  0  0  0  0  0  0  0  0  0
    1.8669   -1.5714   -4.3929 O   0  0  0  0  0  0  0  0  0  0  0  0
    2.8318   -0.6437   -3.9832 C   0  0  0  0  0  0  0  0  0  0  0  0
    3.5318   -0.9292   -2.6653 C   0  0  0  0  0  0  0  0  0  0  0  0
    3.3846   -2.0743   -1.8877 C   0  0  0  0  0  0  0  0  0  0  0  0
    2.6482   -3.1066   -2.3019 F   0  0  0  0  0  0  0  0  0  0  0  0
    3.9466   -2.1665   -0.6063 C   0  0  0  0  0  0  0  0  0  0  0  0
    3.6733   -3.2914    0.0908 O   0  0  0  0  0  0  0  0  0  0  0  0
    3.9052   -3.2701    1.4759 C   0  0  0  0  0  0  0  0  0  0  0  0
    4.6953   -1.1047   -0.1124 C   0  0  0  0  0  0  0  0  0  0  0  0
    4.8856    0.0445   -0.8800 C   0  0  0  0  0  0  0  0  0  0  0  0
    5.5596    1.1304   -0.4312 O   0  0  0  0  0  0  0  0  0  0  0  0
    5.4779    1.3972    0.9516 C   0  0  0  0  0  0  0  0  0  0  0  0
    4.3342    0.0944   -2.1555 C   0  0  0  0  0  0  0  0  0  0  0  0
    4.5362    1.1785   -2.9105 F   0  0  0  0  0  0  0  0  0  0  0  0
   -0.1824   -2.6869   -4.0989 C   0  0  0  0  0  0  0  0  0  0  0  0
   -1.3107   -2.9401   -3.4622 N   0  0  0  0  0  0  0  0  0  0  0  0
   -2.3989   -2.8223    0.7276 C   0  0  0  0  0  0  0  0  0  0  0  0
   -1.7481   -4.1557    0.4641 C   0  0  0  0  0  0  0  0  0  0  0  0
   -2.4402   -2.2921    2.0136 C   0  0  0  0  0  0  0  0  0  0  0  0
   -2.9510   -0.9989    2.2306 C   0  0  0  0  0  0  0  0  0  0  0  0
   -2.8009   -0.4132    3.5133 N   0  0  0  0  0  0  0  0  0  0  0  0
   -3.5942    0.7810    3.7672 C   0  0  0  0  0  0  0  0  0  0  0  0
   -3.4313    1.2282    5.2182 C   0  0  0  0  0  0  0  0  0  0  0  0
   -2.0452    1.4736    5.5940 N   0  0  0  0  0  0  0  0  0  0  0  0
   -1.2757    0.2714    5.3207 C   0  0  0  0  0  0  0  0  0  0  0  0
   -1.3974   -0.2186    3.8798 C   0  0  0  0  0  0  0  0  0  0  0  0
   -1.4551    2.6824    5.0319 C   0  0  0  0  0  0  0  0  0  0  0  0
   -2.0803    3.9578    5.5805 C   0  0  0  0  0  0  0  0  0  0  0  0
   -3.5462   -0.3123    1.1792 C   0  0  0  0  0  0  0  0  0  0  0  0
   -6.2162    0.7218   -1.1690 O   0  0  0  0  0  0  0  0  0  0  0  0
   -5.1189    3.8641    0.5095 H   0  0  0  0  0  0  0  0  0  0  0  0
   -6.3500    3.0978   -0.5334 H   0  0  0  0  0  0  0  0  0  0  0  0
   -5.1459    4.2182   -1.2265 H   0  0  0  0  0  0  0  0  0  0  0  0
   -2.7509    3.3515   -1.4774 H   0  0  0  0  0  0  0  0  0  0  0  0
   -2.4828    1.5678   -1.3716 H   0  0  0  0  0  0  0  0  0  0  0  0
    0.0038    4.0300   -0.0494 H   0  0  0  0  0  0  0  0  0  0  0  0
   -0.5000    2.7900   -1.2061 H   0  0  0  0  0  0  0  0  0  0  0  0
   -0.4041    0.3817   -0.0663 H   0  0  0  0  0  0  0  0  0  0  0  0
    0.9133   -2.0733    1.9167 H   0  0  0  0  0  0  0  0  0  0  0  0
    1.4543   -2.2028    0.2266 H   0  0  0  0  0  0  0  0  0  0  0  0
   -0.2260   -1.7200    0.5819 H   0  0  0  0  0  0  0  0  0  0  0  0
    2.8104    3.6316    0.6781 H   0  0  0  0  0  0  0  0  0  0  0  0
    3.4634    3.8061   -2.1936 H   0  0  0  0  0  0  0  0  0  0  0  0
    4.7633    3.1760   -1.1689 H   0  0  0  0  0  0  0  0  0  0  0  0
    4.1218    4.8353   -0.8849 H   0  0  0  0  0  0  0  0  0  0  0  0
   -4.3341   -0.7466   -1.9612 H   0  0  0  0  0  0  0  0  0  0  0  0
   -3.1484   -3.3738   -2.0069 H   0  0  0  0  0  0  0  0  0  0  0  0
    0.9028   -0.0711   -2.2371 H   0  0  0  0  0  0  0  0  0  0  0  0
    2.4025    0.3714   -3.9046 H   0  0  0  0  0  0  0  0  0  0  0  0
    3.5756   -0.6202   -4.7931 H   0  0  0  0  0  0  0  0  0  0  0  0
    3.4523   -2.3771    1.9397 H   0  0  0  0  0  0  0  0  0  0  0  0
    4.9854   -3.2937    1.7082 H   0  0  0  0  0  0  0  0  0  0  0  0
    3.4385   -4.1746    1.8856 H   0  0  0  0  0  0  0  0  0  0  0  0
    5.0952   -1.1426    0.8971 H   0  0  0  0  0  0  0  0  0  0  0  0
    5.7612    2.4506    1.0847 H   0  0  0  0  0  0  0  0  0  0  0  0
    6.1862    0.7765    1.5287 H   0  0  0  0  0  0  0  0  0  0  0  0
    4.4530    1.2308    1.3240 H   0  0  0  0  0  0  0  0  0  0  0  0
    0.0701   -3.3063   -4.9674 H   0  0  0  0  0  0  0  0  0  0  0  0
   -0.8769   -4.0479   -0.2033 H   0  0  0  0  0  0  0  0  0  0  0  0
   -2.4384   -4.8611   -0.0261 H   0  0  0  0  0  0  0  0  0  0  0  0
   -1.4018   -4.6173    1.3996 H   0  0  0  0  0  0  0  0  0  0  0  0
   -2.0327   -2.8601    2.8528 H   0  0  0  0  0  0  0  0  0  0  0  0
   -4.6517    0.5528    3.5665 H   0  0  0  0  0  0  0  0  0  0  0  0
   -3.3112    1.6139    3.0922 H   0  0  0  0  0  0  0  0  0  0  0  0
   -3.8258    0.4395    5.8821 H   0  0  0  0  0  0  0  0  0  0  0  0
   -4.0346    2.1303    5.3960 H   0  0  0  0  0  0  0  0  0  0  0  0
   -1.6372   -0.5271    5.9929 H   0  0  0  0  0  0  0  0  0  0  0  0
   -0.2154    0.4526    5.5607 H   0  0  0  0  0  0  0  0  0  0  0  0
   -0.8568   -1.1697    3.7764 H   0  0  0  0  0  0  0  0  0  0  0  0
   -0.9137    0.5016    3.1856 H   0  0  0  0  0  0  0  0  0  0  0  0
   -1.4864    2.7152    3.9224 H   0  0  0  0  0  0  0  0  0  0  0  0
   -0.3863    2.6678    5.3045 H   0  0  0  0  0  0  0  0  0  0  0  0
   -3.1119    4.0981    5.2249 H   0  0  0  0  0  0  0  0  0  0  0  0
   -1.5052    4.8356    5.2498 H   0  0  0  0  0  0  0  0  0  0  0  0
   -2.0951    3.9358    6.6812 H   0  0  0  0  0  0  0  0  0  0  0  0
   -3.9745    0.6774    1.3124 H   0  0  0  0  0  0  0  0  0  0  0  0
  1 55  1  0  0  0  0
  2 16  1  6  0  0  0
  2  1  1  0  0  0  0
  3  2  1  0  0  0  0
  3  4  1  0  0  0  0
  5 60  1  0  0  0  0
  5  6  1  0  0  0  0
  5  4  1  0  0  0  0
  6  8  1  0  0  0  0
  6  7  1  1  0  0  0
  8  9  1  0  0  0  0
  9 11  2  0  0  0  0
 10  9  1  0  0  0  0
 10 63  1  0  0  0  0
 12 13  1  0  0  0  0
 12  6  1  0  0  0  0
 13 66  1  0  0  0  0
 14 68  1  0  0  0  0
 14 69  1  0  0  0  0
 14 13  1  0  0  0  0
 15 12  2  0  0  0  0
 17 16  1  0  0  0  0
 17 18  1  0  0  0  0
 18 53  1  0  0  0  0
 19 18  2  0  0  0  0
 19 41  1  0  0  0  0
 20 19  1  0  0  0  0
 21 22  2  0  0  0  0
 21 20  1  0  0  0  0
 23 72  1  0  0  0  0
 23 22  1  0  0  0  0
 24 23  2  0  0  0  0
 25 26  1  0  0  0  0
 25 24  1  0  0  0  0
 26 73  1  0  0  0  0
 26 27  1  0  0  0  0
 27 37  2  0  0  0  0
 27 28  1  0  0  0  0
 28 30  2  0  0  0  0
 29 28  1  0  0  0  0
 30 33  1  0  0  0  0
 30 31  1  0  0  0  0
 31 32  1  0  0  0  0
 32 76  1  0  0  0  0
 32 77  1  0  0  0  0
 32 75  1  0  0  0  0
 33 78  1  0  0  0  0
 34 35  1  0  0  0  0
 34 33  2  0  0  0  0
 35 36  1  0  0  0  0
 36 79  1  0  0  0  0
 36 81  1  0  0  0  0
 36 80  1  0  0  0  0
 37 34  1  0  0  0  0
 38 37  1  0  0  0  0
 39 24  1  0  0  0  0
 39 40  2  0  0  0  0
 40 21  1  0  0  0  0
 41 43  2  0  0  0  0
 42 41  1  0  0  0  0
 42 85  1  0  0  0  0
 43 44  1  0  0  0  0
 43 86  1  0  0  0  0
 44 45  1  0  0  0  0
 45 46  1  0  0  0  0
 45 50  1  0  0  0  0
 46 47  1  0  0  0  0
 47 90  1  0  0  0  0
 47 48  1  0  0  0  0
 47 89  1  0  0  0  0
 49 92  1  0  0  0  0
 49 48  1  0  0  0  0
 49 91  1  0  0  0  0
 50 49  1  0  0  0  0
 51 96  1  0  0  0  0
 51 52  1  0  0  0  0
 51 48  1  0  0  0  0
 52 99  1  0  0  0  0
 53100  1  0  0  0  0
 53 44  2  0  0  0  0
 54 16  2  0  0  0  0
 56  1  1  0  0  0  0
 57  1  1  0  0  0  0
 58  3  1  0  0  0  0
 59  3  1  0  0  0  0
 61  5  1  0  0  0  0
 62  8  1  0  0  0  0
 64 10  1  0  0  0  0
 65 10  1  0  0  0  0
 67 14  1  0  0  0  0
 70 17  1  0  0  0  0
 71 20  1  0  0  0  0
 74 26  1  0  0  0  0
 82 39  1  0  0  0  0
 83 42  1  0  0  0  0
 84 42  1  0  0  0  0
 87 46  1  0  0  0  0
 88 46  1  0  0  0  0
 93 50  1  0  0  0  0
 94 50  1  0  0  0  0
 95 51  1  0  0  0  0
 97 52  1  0  0  0  0
 98 52  1  0  0  0  0
M  END
