-1 1
 OpenBabel05192410563D

 74 76  0  0  1  0  0  0  0  0999 V2000
    4.4156    1.4051   -1.7717 O   0  0  0  0  0  0  0  0  0  0  0  0
    3.6786    1.5287   -0.7774 C   0  0  0  0  0  0  0  0  0  0  0  0
    2.2678    1.6903   -1.0651 N   0  0  0  0  0  0  0  0  0  0  0  0
    1.4534    2.7305   -0.6301 C   0  0  0  0  0  0  0  0  0  0  0  0
    0.0439    2.6360   -0.8098 C   0  0  0  0  0  0  0  0  0  0  0  0
   -0.4539    1.4397   -1.3653 N   0  0  0  0  0  0  0  0  0  0  0  0
   -1.7473    1.0170   -1.4732 C   0  0  0  0  0  0  0  0  0  0  0  0
   -1.8995   -0.3019   -1.7120 N   0  0  0  0  0  0  0  0  0  0  0  0
   -3.1100   -0.7981   -1.5734 C   0  0  0  0  0  0  0  0  0  0  0  0
   -4.2094   -0.0160   -1.2033 C   0  0  0  0  0  0  0  0  0  0  0  0
   -5.3798   -0.5965   -0.8034 O   0  0  0  0  0  0  0  0  0  0  0  0
   -5.5144   -0.7915    0.6163 C   0  0  0  0  0  0  0  0  0  0  0  0
   -4.1834   -0.8027    1.3237 C   0  0  0  0  0  0  0  0  0  0  0  0
   -3.6456    0.3779    1.8229 C   0  0  0  0  0  0  0  0  0  0  0  0
   -4.4095    1.4729    1.8635 F   0  0  0  0  0  0  0  0  0  0  0  0
   -2.2991    0.4931    2.2033 C   0  0  0  0  0  0  0  0  0  0  0  0
   -1.8859    1.6988    2.6146 O   0  0  0  0  0  0  0  0  0  0  0  0
   -0.4950    1.9358    2.6821 C   0  0  0  0  0  0  0  0  0  0  0  0
   -1.4861   -0.6337    2.0810 C   0  0  0  0  0  0  0  0  0  0  0  0
   -1.9926   -1.8410    1.5884 C   0  0  0  0  0  0  0  0  0  0  0  0
   -1.1549   -2.8961    1.4277 O   0  0  0  0  0  0  0  0  0  0  0  0
   -0.9185   -3.2798    0.0784 C   0  0  0  0  0  0  0  0  0  0  0  0
   -3.3397   -1.9138    1.2444 C   0  0  0  0  0  0  0  0  0  0  0  0
   -3.8272   -3.0513    0.7237 F   0  0  0  0  0  0  0  0  0  0  0  0
   -3.9838    1.3532   -1.1846 C   0  0  0  0  0  0  0  0  0  0  0  0
   -2.7698    1.8713   -1.3369 N   0  0  0  0  0  0  0  0  0  0  0  0
   -0.7687    3.6951   -0.3847 C   0  0  0  0  0  0  0  0  0  0  0  0
   -0.2238    4.8043    0.2604 C   0  0  0  0  0  0  0  0  0  0  0  0
    1.1476    4.8786    0.4792 C   0  0  0  0  0  0  0  0  0  0  0  0
    1.9734    3.8549    0.0250 C   0  0  0  0  0  0  0  0  0  0  0  0
    4.0616    1.3917    0.5666 C   0  0  0  0  0  3  0  0  0  0  0  0
    3.1719    1.2618    1.7380 C   0  0  0  0  0  0  0  0  0  0  0  0
    2.7012   -0.4922    2.3139 S   0  0  0  0  0  0  0  0  0  0  0  0
    1.8437   -1.1078    0.8390 C   0  0  0  0  0  0  0  0  0  0  0  0
    2.6479   -1.9552   -0.1512 C   0  0  2  0  0  0  0  0  0  0  0  0
    2.7353   -2.9928    0.2138 H   0  0  0  0  0  0  0  0  0  0  0  0
    3.9792   -1.4411   -0.3628 N   0  0  0  0  0  0  0  0  0  0  0  0
    4.9758   -2.1422   -0.9285 C   0  0  0  0  0  0  0  0  0  0  0  0
    6.2662   -1.3665   -1.0636 C   0  0  0  0  0  0  0  0  0  0  0  0
    4.8519   -3.3099   -1.3089 O   0  0  0  0  0  0  0  0  0  0  0  0
    1.9067   -1.9830   -1.5081 C   0  0  0  0  0  0  0  0  0  0  0  0
    2.2362   -3.0395   -2.2852 N   0  0  0  0  0  0  0  0  0  0  0  0
    1.7913   -3.1252   -3.6535 C   0  0  0  0  0  0  0  0  0  0  0  0
    1.1085   -1.1222   -1.8517 O   0  0  0  0  0  0  0  0  0  0  0  0
    2.0855    1.3631   -2.0099 H   0  0  0  0  0  0  0  0  0  0  0  0
    0.2098    0.6633   -1.4632 H   0  0  0  0  0  0  0  0  0  0  0  0
   -3.2422   -1.8776   -1.7151 H   0  0  0  0  0  0  0  0  0  0  0  0
   -6.0320   -1.7511    0.7450 H   0  0  0  0  0  0  0  0  0  0  0  0
   -6.1466    0.0084    1.0301 H   0  0  0  0  0  0  0  0  0  0  0  0
   -0.3690    3.0097    2.8598 H   0  0  0  0  0  0  0  0  0  0  0  0
   -0.0055    1.6823    1.7280 H   0  0  0  0  0  0  0  0  0  0  0  0
   -0.0199    1.3611    3.4943 H   0  0  0  0  0  0  0  0  0  0  0  0
   -0.4286   -0.5911    2.3444 H   0  0  0  0  0  0  0  0  0  0  0  0
   -0.0140   -3.9024    0.0781 H   0  0  0  0  0  0  0  0  0  0  0  0
   -0.7501   -2.3967   -0.5607 H   0  0  0  0  0  0  0  0  0  0  0  0
   -1.7595   -3.8703   -0.3196 H   0  0  0  0  0  0  0  0  0  0  0  0
   -4.8107    2.0491   -1.0029 H   0  0  0  0  0  0  0  0  0  0  0  0
   -1.8401    3.6219   -0.5428 H   0  0  0  0  0  0  0  0  0  0  0  0
   -0.8871    5.6056    0.5945 H   0  0  0  0  0  0  0  0  0  0  0  0
    1.5861    5.7402    0.9889 H   0  0  0  0  0  0  0  0  0  0  0  0
    3.0523    3.8946    0.1825 H   0  0  0  0  0  0  0  0  0  0  0  0
    5.1408    1.3389    0.7372 H   0  0  0  0  0  0  0  0  0  0  0  0
    2.2049    1.7659    1.6153 H   0  0  0  0  0  0  0  0  0  0  0  0
    3.6279    1.6596    2.6581 H   0  0  0  0  0  0  0  0  0  0  0  0
    1.4422   -0.2374    0.3038 H   0  0  0  0  0  0  0  0  0  0  0  0
    0.9931   -1.7106    1.1812 H   0  0  0  0  0  0  0  0  0  0  0  0
    4.1366   -0.4540   -0.0937 H   0  0  0  0  0  0  0  0  0  0  0  0
    6.0405   -0.3452   -1.4144 H   0  0  0  0  0  0  0  0  0  0  0  0
    6.9296   -1.8894   -1.7631 H   0  0  0  0  0  0  0  0  0  0  0  0
    6.7610   -1.2935   -0.0830 H   0  0  0  0  0  0  0  0  0  0  0  0
    3.1008   -3.5186   -2.0091 H   0  0  0  0  0  0  0  0  0  0  0  0
    2.5066   -2.6578   -4.3519 H   0  0  0  0  0  0  0  0  0  0  0  0
    0.8331   -2.5977   -3.7460 H   0  0  0  0  0  0  0  0  0  0  0  0
    1.6568   -4.1776   -3.9433 H   0  0  0  0  0  0  0  0  0  0  0  0
  1  2  2  0  0  0  0
  2 31  1  0  0  0  0
  3  2  1  0  0  0  0
  3  4  1  0  0  0  0
  4 30  1  0  0  0  0
  5  4  2  0  0  0  0
  5 27  1  0  0  0  0
  6  5  1  0  0  0  0
  7  6  1  0  0  0  0
  7 26  1  0  0  0  0
  8  9  1  0  0  0  0
  8  7  2  0  0  0  0
  9 10  2  0  0  0  0
 10 25  1  0  0  0  0
 10 11  1  0  0  0  0
 11 12  1  0  0  0  0
 12 48  1  0  0  0  0
 12 49  1  0  0  0  0
 12 13  1  0  0  0  0
 13 14  1  0  0  0  0
 14 15  1  0  0  0  0
 14 16  2  0  0  0  0
 16 17  1  0  0  0  0
 17 18  1  0  0  0  0
 18 50  1  0  0  0  0
 18 52  1  0  0  0  0
 19 16  1  0  0  0  0
 19 53  1  0  0  0  0
 20 19  2  0  0  0  0
 21 20  1  0  0  0  0
 22 21  1  0  0  0  0
 23 13  2  0  0  0  0
 23 20  1  0  0  0  0
 24 23  1  0  0  0  0
 25 57  1  0  0  0  0
 26 25  2  0  0  0  0
 27 28  2  0  0  0  0
 28 29  1  0  0  0  0
 28 59  1  0  0  0  0
 29 60  1  0  0  0  0
 30 61  1  0  0  0  0
 30 29  2  0  0  0  0
 31 62  1  0  0  0  0
 31 32  1  0  0  0  0
 32 33  1  0  0  0  0
 32 64  1  0  0  0  0
 34 66  1  0  0  0  0
 34 33  1  0  0  0  0
 35 36  1  1  0  0  0
 35 34  1  0  0  0  0
 37 35  1  0  0  0  0
 37 67  1  0  0  0  0
 38 37  1  0  0  0  0
 39 38  1  0  0  0  0
 39 70  1  0  0  0  0
 40 38  2  0  0  0  0
 41 35  1  0  0  0  0
 42 71  1  0  0  0  0
 42 41  1  0  0  0  0
 43 42  1  0  0  0  0
 44 41  2  0  0  0  0
 45  3  1  0  0  0  0
 46  6  1  0  0  0  0
 47  9  1  0  0  0  0
 51 18  1  0  0  0  0
 54 22  1  0  0  0  0
 55 22  1  0  0  0  0
 56 22  1  0  0  0  0
 58 27  1  0  0  0  0
 63 32  1  0  0  0  0
 65 34  1  0  0  0  0
 68 39  1  0  0  0  0
 69 39  1  0  0  0  0
 72 43  1  0  0  0  0
 73 43  1  0  0  0  0
 74 43  1  0  0  0  0
M  END
