-1 1
 OpenBabel05232414493D

 74 75  0  0  1  0  0  0  0  0999 V2000
    7.4994   -7.9810    9.7422 O   0  0  0  0  0  0  0  0  0  0  0  0
    6.7227   -7.6044   10.6216 C   0  0  0  0  0  0  0  0  0  0  0  0
    5.4344   -7.2157   10.2059 N   0  0  0  0  0  0  0  0  0  0  0  0
    4.5630   -6.2762   10.7659 C   0  0  0  0  0  0  0  0  0  0  0  0
    3.1601   -6.5000   10.7399 C   0  0  0  0  0  0  0  0  0  0  0  0
    2.6990   -7.7091   10.1991 N   0  0  0  0  0  0  0  0  0  0  0  0
    1.4245   -8.2045   10.1609 C   0  0  0  0  0  0  0  0  0  0  0  0
    1.3374   -9.5404    9.9970 N   0  0  0  0  0  0  0  0  0  0  0  0
    0.1426  -10.0813   10.1099 C   0  0  0  0  0  0  0  0  0  0  0  0
   -1.0040   -9.3324   10.3953 C   0  0  0  0  0  0  0  0  0  0  0  0
   -2.1782   -9.9481   10.7223 O   0  0  0  0  0  0  0  0  0  0  0  0
   -2.4171  -10.1225   12.1313 C   0  0  0  0  0  0  0  0  0  0  0  0
   -1.1378  -10.1259   12.9244 C   0  0  0  0  0  0  0  0  0  0  0  0
   -0.6218   -8.9333   13.4166 C   0  0  0  0  0  0  0  0  0  0  0  0
   -1.3843   -7.8351   13.3861 F   0  0  0  0  0  0  0  0  0  0  0  0
    0.7056   -8.8077   13.8537 C   0  0  0  0  0  0  0  0  0  0  0  0
    1.0991   -7.5826   14.2283 O   0  0  0  0  0  0  0  0  0  0  0  0
    2.4874   -7.3431   14.3363 C   0  0  0  0  0  0  0  0  0  0  0  0
    1.5219   -9.9393   13.8150 C   0  0  0  0  0  0  0  0  0  0  0  0
    1.0302  -11.1618   13.3431 C   0  0  0  0  0  0  0  0  0  0  0  0
    1.8665  -12.2270   13.2840 O   0  0  0  0  0  0  0  0  0  0  0  0
    2.1440  -12.7336   11.9910 C   0  0  0  0  0  0  0  0  0  0  0  0
   -0.2955  -11.2402   12.9230 C   0  0  0  0  0  0  0  0  0  0  0  0
   -0.7615  -12.3929   12.4126 F   0  0  0  0  0  0  0  0  0  0  0  0
   -0.8293   -7.9557   10.4065 C   0  0  0  0  0  0  0  0  0  0  0  0
    0.3669   -7.3921   10.2754 N   0  0  0  0  0  0  0  0  0  0  0  0
    2.3167   -5.5268   11.2991 C   0  0  0  0  0  0  0  0  0  0  0  0
    2.8383   -4.3860   11.9024 C   0  0  0  0  0  0  0  0  0  0  0  0
    4.2137   -4.1747   11.9423 C   0  0  0  0  0  0  0  0  0  0  0  0
    5.0600   -5.1100   11.3575 C   0  0  0  0  0  0  0  0  0  0  0  0
    7.0643   -7.6397   12.0286 C   0  0  0  0  0  3  0  0  0  0  0  0
    6.2191   -7.6352   13.1379 C   0  0  0  0  0  3  0  0  0  0  0  0
    5.2991   -9.7240   13.7584 S   0  0  0  0  0  1  0  0  0  0  0  0
    4.6221  -10.0129   12.1050 C   0  0  0  0  0  0  0  0  0  0  0  0
    5.3920  -10.9890   11.2181 C   0  0  2  0  0  0  0  0  0  0  0  0
    5.2672  -12.0233   11.5795 H   0  0  0  0  0  0  0  0  0  0  0  0
    6.8041  -10.6761   11.2163 N   0  0  0  0  0  0  0  0  0  0  0  0
    7.7680  -11.4980   10.7705 C   0  0  0  0  0  0  0  0  0  0  0  0
    9.1593  -10.9086   10.8465 C   0  0  0  0  0  0  0  0  0  0  0  0
    7.5452  -12.6268   10.3293 O   0  0  0  0  0  0  0  0  0  0  0  0
    4.8787  -10.9087    9.7641 C   0  0  0  0  0  0  0  0  0  0  0  0
    5.1181  -12.0222    9.0346 N   0  0  0  0  0  0  0  0  0  0  0  0
    4.8706  -12.0393    7.6149 C   0  0  0  0  0  0  0  0  0  0  0  0
    4.3270   -9.9203    9.2976 O   0  0  0  0  0  0  0  0  0  0  0  0
    5.2218   -7.5715    9.2792 H   0  0  0  0  0  0  0  0  0  0  0  0
    3.3975   -8.4392   10.0017 H   0  0  0  0  0  0  0  0  0  0  0  0
    0.0603  -11.1707   10.0135 H   0  0  0  0  0  0  0  0  0  0  0  0
   -2.9456  -11.0792   12.2321 H   0  0  0  0  0  0  0  0  0  0  0  0
   -3.0749   -9.3156   12.4882 H   0  0  0  0  0  0  0  0  0  0  0  0
    2.6075   -6.2622   14.4738 H   0  0  0  0  0  0  0  0  0  0  0  0
    3.0143   -7.6506   13.4190 H   0  0  0  0  0  0  0  0  0  0  0  0
    2.9324   -7.8864   15.1850 H   0  0  0  0  0  0  0  0  0  0  0  0
    2.5753   -9.8954   14.1157 H   0  0  0  0  0  0  0  0  0  0  0  0
    3.0649  -13.3249   12.0732 H   0  0  0  0  0  0  0  0  0  0  0  0
    2.3099  -11.9154   11.2694 H   0  0  0  0  0  0  0  0  0  0  0  0
    1.3292  -13.3794   11.6257 H   0  0  0  0  0  0  0  0  0  0  0  0
   -1.6867   -7.2906   10.5592 H   0  0  0  0  0  0  0  0  0  0  0  0
    1.2438   -5.6924   11.2709 H   0  0  0  0  0  0  0  0  0  0  0  0
    2.1520   -3.6591   12.3436 H   0  0  0  0  0  0  0  0  0  0  0  0
    4.6297   -3.2792   12.4097 H   0  0  0  0  0  0  0  0  0  0  0  0
    6.1416   -4.9679   11.3703 H   0  0  0  0  0  0  0  0  0  0  0  0
    8.1277   -7.8420   12.1885 H   0  0  0  0  0  0  0  0  0  0  0  0
    5.2136   -7.2216   13.0592 H   0  0  0  0  0  0  0  0  0  0  0  0
    6.6731   -7.5025   14.1218 H   0  0  0  0  0  0  0  0  0  0  0  0
    4.5997   -9.0524   11.5784 H   0  0  0  0  0  0  0  0  0  0  0  0
    3.5795  -10.3538   12.1602 H   0  0  0  0  0  0  0  0  0  0  0  0
    7.0591   -9.7509   11.5633 H   0  0  0  0  0  0  0  0  0  0  0  0
    9.1417   -9.8902   10.4270 H   0  0  0  0  0  0  0  0  0  0  0  0
    9.8535  -11.5481   10.2889 H   0  0  0  0  0  0  0  0  0  0  0  0
    9.4845  -10.8446   11.8960 H   0  0  0  0  0  0  0  0  0  0  0  0
    5.8478  -12.6306    9.4190 H   0  0  0  0  0  0  0  0  0  0  0  0
    5.6916  -11.5748    7.0413 H   0  0  0  0  0  0  0  0  0  0  0  0
    3.9530  -11.4744    7.4047 H   0  0  0  0  0  0  0  0  0  0  0  0
    4.7445  -13.0759    7.2717 H   0  0  0  0  0  0  0  0  0  0  0  0
  1  2  2  0  0  0  0
  2 31  1  0  0  0  0
  3  2  1  0  0  0  0
  3  4  1  0  0  0  0
  4 30  1  0  0  0  0
  5  4  2  0  0  0  0
  5 27  1  0  0  0  0
  6  5  1  0  0  0  0
  7  6  1  0  0  0  0
  7 26  1  0  0  0  0
  8  9  1  0  0  0  0
  8  7  2  0  0  0  0
  9 10  2  0  0  0  0
 10 25  1  0  0  0  0
 10 11  1  0  0  0  0
 11 12  1  0  0  0  0
 12 48  1  0  0  0  0
 12 49  1  0  0  0  0
 12 13  1  0  0  0  0
 13 14  1  0  0  0  0
 14 16  2  0  0  0  0
 15 14  1  0  0  0  0
 16 17  1  0  0  0  0
 17 18  1  0  0  0  0
 18 50  1  0  0  0  0
 18 52  1  0  0  0  0
 19 16  1  0  0  0  0
 19 53  1  0  0  0  0
 20 19  2  0  0  0  0
 21 20  1  0  0  0  0
 22 54  1  0  0  0  0
 22 21  1  0  0  0  0
 23 13  2  0  0  0  0
 23 20  1  0  0  0  0
 24 23  1  0  0  0  0
 25 57  1  0  0  0  0
 26 25  2  0  0  0  0
 27 28  2  0  0  0  0
 28 29  1  0  0  0  0
 28 59  1  0  0  0  0
 29 60  1  0  0  0  0
 30 61  1  0  0  0  0
 30 29  2  0  0  0  0
 31 62  1  0  0  0  0
 31 32  1  0  0  0  0
 32 64  1  0  0  0  0
 34 66  1  0  0  0  0
 34 33  1  0  0  0  0
 35 36  1  1  0  0  0
 35 34  1  0  0  0  0
 37 35  1  0  0  0  0
 37 67  1  0  0  0  0
 38 39  1  0  0  0  0
 38 37  1  0  0  0  0
 39 70  1  0  0  0  0
 40 38  2  0  0  0  0
 41 35  1  0  0  0  0
 42 71  1  0  0  0  0
 42 41  1  0  0  0  0
 43 42  1  0  0  0  0
 44 41  2  0  0  0  0
 45  3  1  0  0  0  0
 46  6  1  0  0  0  0
 47  9  1  0  0  0  0
 51 18  1  0  0  0  0
 55 22  1  0  0  0  0
 56 22  1  0  0  0  0
 58 27  1  0  0  0  0
 63 32  1  0  0  0  0
 65 34  1  0  0  0  0
 68 39  1  0  0  0  0
 69 39  1  0  0  0  0
 72 43  1  0  0  0  0
 73 43  1  0  0  0  0
 74 43  1  0  0  0  0
M  END
