-1 1
 OpenBabel05232413483D

 74 75  0  0  1  0  0  0  0  0999 V2000
    4.2134    0.8988   -2.3376 O   0  0  0  0  0  0  0  0  0  0  0  0
    3.5738    1.5036   -1.4924 C   0  0  0  0  0  0  0  0  0  0  0  0
    2.2826    1.8990   -1.7417 N   0  0  0  0  0  0  0  0  0  0  0  0
    1.4772    2.8243   -1.0503 C   0  0  0  0  0  0  0  0  0  0  0  0
    0.1080    2.5399   -0.8217 C   0  0  0  0  0  0  0  0  0  0  0  0
   -0.4124    1.3317   -1.2825 N   0  0  0  0  0  0  0  0  0  0  0  0
   -1.7247    0.9366   -1.3386 C   0  0  0  0  0  0  0  0  0  0  0  0
   -1.9103   -0.3918   -1.4369 N   0  0  0  0  0  0  0  0  0  0  0  0
   -3.1491   -0.8309   -1.3361 C   0  0  0  0  0  0  0  0  0  0  0  0
   -4.2351    0.0291   -1.1349 C   0  0  0  0  0  0  0  0  0  0  0  0
   -5.4666   -0.4579   -0.8001 O   0  0  0  0  0  0  0  0  0  0  0  0
   -5.7389   -0.4603    0.6127 C   0  0  0  0  0  0  0  0  0  0  0  0
   -4.4844   -0.6958    1.4111 C   0  0  0  0  0  0  0  0  0  0  0  0
   -3.6954    0.3813    1.8081 C   0  0  0  0  0  0  0  0  0  0  0  0
   -4.1925    1.6242    1.7166 F   0  0  0  0  0  0  0  0  0  0  0  0
   -2.3597    0.2240    2.1900 C   0  0  0  0  0  0  0  0  0  0  0  0
   -1.6824    1.3542    2.4473 O   0  0  0  0  0  0  0  0  0  0  0  0
   -0.2773    1.2797    2.5628 C   0  0  0  0  0  0  0  0  0  0  0  0
   -1.8208   -1.0687    2.2471 C   0  0  0  0  0  0  0  0  0  0  0  0
   -2.6116   -2.1783    1.9188 C   0  0  0  0  0  0  0  0  0  0  0  0
   -2.1953   -3.4531    1.9383 O   0  0  0  0  0  0  0  0  0  0  0  0
   -0.9282   -3.7434    2.4911 C   0  0  0  0  0  0  0  0  0  0  0  0
   -3.9305   -1.9686    1.4974 C   0  0  0  0  0  0  0  0  0  0  0  0
   -4.6510   -3.0196    1.0825 F   0  0  0  0  0  0  0  0  0  0  0  0
   -3.9482    1.3858   -1.1978 C   0  0  0  0  0  0  0  0  0  0  0  0
   -2.7058    1.8425   -1.3104 N   0  0  0  0  0  0  0  0  0  0  0  0
   -0.6487    3.4740   -0.0939 C   0  0  0  0  0  0  0  0  0  0  0  0
   -0.0782    4.6509    0.3762 C   0  0  0  0  0  0  0  0  0  0  0  0
    1.2587    4.9447    0.1155 C   0  0  0  0  0  0  0  0  0  0  0  0
    2.0195    4.0335   -0.6067 C   0  0  0  0  0  0  0  0  0  0  0  0
    4.1850    1.7512   -0.1501 C   0  0  0  0  0  0  0  0  0  0  0  0
    3.5535    1.6331    1.0190 C   0  0  0  0  0  0  0  0  0  0  0  0
    1.9428   -1.5600    2.0197 S   0  0  0  0  0  1  0  0  0  0  0  0
    1.4185   -1.3426    0.2825 C   0  0  0  0  0  0  0  0  0  0  0  0
    2.3768   -1.9750   -0.7394 C   0  0  2  0  0  0  0  0  0  0  0  0
    2.2799   -3.0761   -0.7141 H   0  0  0  0  0  0  0  0  0  0  0  0
    3.7301   -1.6046   -0.3613 N   0  0  0  0  0  0  0  0  0  0  0  0
    4.8709   -2.1462   -0.8156 C   0  0  0  0  0  0  0  0  0  0  0  0
    6.1238   -1.6039   -0.1632 C   0  0  0  0  0  0  0  0  0  0  0  0
    4.9380   -2.9700   -1.7292 O   0  0  0  0  0  0  0  0  0  0  0  0
    2.0655   -1.5041   -2.1768 C   0  0  0  0  0  0  0  0  0  0  0  0
    2.7676   -2.1096   -3.1458 N   0  0  0  0  0  0  0  0  0  0  0  0
    2.7502   -1.5843   -4.4886 C   0  0  0  0  0  0  0  0  0  0  0  0
    1.2321   -0.6340   -2.4322 O   0  0  0  0  0  0  0  0  0  0  0  0
    1.8690    1.3827   -2.5172 H   0  0  0  0  0  0  0  0  0  0  0  0
    0.2355    0.5636   -1.5159 H   0  0  0  0  0  0  0  0  0  0  0  0
   -3.3151   -1.9138   -1.3740 H   0  0  0  0  0  0  0  0  0  0  0  0
   -6.4695   -1.2628    0.7728 H   0  0  0  0  0  0  0  0  0  0  0  0
   -6.1941    0.5000    0.9012 H   0  0  0  0  0  0  0  0  0  0  0  0
    0.0820    2.3137    2.6304 H   0  0  0  0  0  0  0  0  0  0  0  0
    0.1715    0.7908    1.6846 H   0  0  0  0  0  0  0  0  0  0  0  0
    0.0326    0.7118    3.4542 H   0  0  0  0  0  0  0  0  0  0  0  0
   -0.7621   -1.2090    2.4973 H   0  0  0  0  0  0  0  0  0  0  0  0
   -0.8022   -4.8301    2.4118 H   0  0  0  0  0  0  0  0  0  0  0  0
   -0.8876   -3.4485    3.5542 H   0  0  0  0  0  0  0  0  0  0  0  0
   -0.0981   -3.2349    1.9734 H   0  0  0  0  0  0  0  0  0  0  0  0
   -4.7536    2.1247   -1.1180 H   0  0  0  0  0  0  0  0  0  0  0  0
   -1.6908    3.2509    0.1173 H   0  0  0  0  0  0  0  0  0  0  0  0
   -0.6953    5.3454    0.9510 H   0  0  0  0  0  0  0  0  0  0  0  0
    1.7066    5.8779    0.4633 H   0  0  0  0  0  0  0  0  0  0  0  0
    3.0662    4.2445   -0.8310 H   0  0  0  0  0  0  0  0  0  0  0  0
    5.2703    1.8833   -0.1904 H   0  0  0  0  0  0  0  0  0  0  0  0
    2.4816    1.4369    1.0941 H   0  0  0  0  0  0  0  0  0  0  0  0
    4.0997    1.6912    1.9630 H   0  0  0  0  0  0  0  0  0  0  0  0
    1.3641   -0.2677    0.0461 H   0  0  0  0  0  0  0  0  0  0  0  0
    0.4071   -1.7377    0.0935 H   0  0  0  0  0  0  0  0  0  0  0  0
    3.7390   -1.1721    0.5702 H   0  0  0  0  0  0  0  0  0  0  0  0
    6.4119   -0.6943   -0.7125 H   0  0  0  0  0  0  0  0  0  0  0  0
    6.9279   -2.3444   -0.2524 H   0  0  0  0  0  0  0  0  0  0  0  0
    5.9645   -1.3375    0.8912 H   0  0  0  0  0  0  0  0  0  0  0  0
    3.5734   -2.6642   -2.8290 H   0  0  0  0  0  0  0  0  0  0  0  0
    3.2425   -0.5976   -4.5306 H   0  0  0  0  0  0  0  0  0  0  0  0
    1.7150   -1.4668   -4.8389 H   0  0  0  0  0  0  0  0  0  0  0  0
    3.2781   -2.2790   -5.1554 H   0  0  0  0  0  0  0  0  0  0  0  0
  1  2  2  0  0  0  0
  2 31  1  0  0  0  0
  3  2  1  0  0  0  0
  3  4  1  0  0  0  0
  4  5  2  0  0  0  0
  4 30  1  0  0  0  0
  5 27  1  0  0  0  0
  6  5  1  0  0  0  0
  7 26  1  0  0  0  0
  7  6  1  0  0  0  0
  8  7  2  0  0  0  0
  8  9  1  0  0  0  0
  9 10  2  0  0  0  0
 10 11  1  0  0  0  0
 11 12  1  0  0  0  0
 12 48  1  0  0  0  0
 12 49  1  0  0  0  0
 12 13  1  0  0  0  0
 13 23  2  0  0  0  0
 13 14  1  0  0  0  0
 14 16  2  0  0  0  0
 15 14  1  0  0  0  0
 16 19  1  0  0  0  0
 16 17  1  0  0  0  0
 17 18  1  0  0  0  0
 18 50  1  0  0  0  0
 18 52  1  0  0  0  0
 19 53  1  0  0  0  0
 20 21  1  0  0  0  0
 20 19  2  0  0  0  0
 21 22  1  0  0  0  0
 22 55  1  0  0  0  0
 23 20  1  0  0  0  0
 24 23  1  0  0  0  0
 25 10  1  0  0  0  0
 25 57  1  0  0  0  0
 26 25  2  0  0  0  0
 27 58  1  0  0  0  0
 27 28  2  0  0  0  0
 28 59  1  0  0  0  0
 29 28  1  0  0  0  0
 29 60  1  0  0  0  0
 30 29  2  0  0  0  0
 31 32  2  0  0  0  0
 32 63  1  0  0  0  0
 32 64  1  0  0  0  0
 34 33  1  0  0  0  0
 35 36  1  1  0  0  0
 35 37  1  0  0  0  0
 35 34  1  0  0  0  0
 37 67  1  0  0  0  0
 38 37  1  0  0  0  0
 38 39  1  0  0  0  0
 39 70  1  0  0  0  0
 40 38  2  0  0  0  0
 41 35  1  0  0  0  0
 42 71  1  0  0  0  0
 42 41  1  0  0  0  0
 43 42  1  0  0  0  0
 44 41  2  0  0  0  0
 45  3  1  0  0  0  0
 46  6  1  0  0  0  0
 47  9  1  0  0  0  0
 51 18  1  0  0  0  0
 54 22  1  0  0  0  0
 56 22  1  0  0  0  0
 61 30  1  0  0  0  0
 62 31  1  0  0  0  0
 65 34  1  0  0  0  0
 66 34  1  0  0  0  0
 68 39  1  0  0  0  0
 69 39  1  0  0  0  0
 72 43  1  0  0  0  0
 73 43  1  0  0  0  0
 74 43  1  0  0  0  0
M  END
