40
-1 1
C         3.105377   -5.558979    0.401409
O         2.508131   -4.325061    0.684825
C         1.186314   -4.373322    1.068677
O         0.603818   -5.456266    1.106098
C         0.659323   -3.093872    1.374466
C        -0.687958   -2.982304    1.799048
S        -1.027602   -3.155514    3.919233
C         0.601186   -2.610639    4.478140
C         1.221738   -3.480911    5.589308
H         0.437639   -3.698130    6.336847
N         2.317946   -2.803147    6.245931
C         2.157910   -1.803253    7.139854
C         3.444957   -1.307044    7.782974
O         1.082077   -1.298171    7.412784
C         1.806734   -4.827466    5.111862
N         1.016850   -5.568399    4.323553
C         1.431113   -6.838940    3.779896
O         2.929949   -5.172052    5.473104
C        -1.384359   -1.675376    1.615514
O        -0.591186   -0.622479    1.894824
C        -1.204039    0.642618    1.832793
O        -2.528362   -1.533235    1.255616
H         4.112766   -5.341808    0.017926
H         2.537694   -6.130800   -0.350795
H         3.193411   -6.191018    1.301655
H         1.306956   -2.220839    1.310001
H        -1.335922   -3.814019    1.512084
H         0.528080   -1.587102    4.867106
H         1.262997   -2.613591    3.589009
H         3.190557   -3.324004    6.188328
H         3.299312   -1.266994    8.871270
H         3.633053   -0.279729    7.437966
H         4.322095   -1.926808    7.550735
H         0.152566   -5.135158    3.981752
H         0.959212   -7.680554    4.316277
H         2.520192   -6.931410    3.887149
H         1.155067   -6.872115    2.717012
H        -2.032868    0.715459    2.553939
H        -1.604846    0.846329    0.827546
H        -0.427758    1.376594    2.083077
