81
-1 1
C         6.311897    2.061572   -1.208887
O         6.593186    2.886332   -2.302951
C         5.733750    2.701370   -3.395171
C         4.453976    3.516967   -3.252372
O         3.593509    3.230868   -4.341886
C         2.326966    2.824233   -4.076932
C         1.273726    3.550630   -4.578494
C         2.083371    1.641719   -3.297358
O         3.172409    1.036235   -2.786092
C         2.988928   -0.068034   -1.922318
C         0.790118    1.215281   -3.095903
C        -0.294789    1.954119   -3.629343
C        -0.066934    3.155361   -4.338281
N        -1.095819    3.962420   -4.723735
C        -2.291461    3.584680   -4.353648
N        -2.640473    2.445478   -3.719523
C        -1.670988    1.611205   -3.411213
N        -1.966318    0.380424   -2.870093
C        -2.815825    0.081831   -1.836251
C        -3.747284    0.892102   -1.271928
C        -4.500668    0.484733   -0.093775
O        -5.350109    1.201347    0.422309
C        -4.189049   -0.864964    0.488770
C        -3.333895   -1.702350   -0.120382
S        -0.416407   -0.537486   -0.079603
C         0.314220   -2.158405   -0.421949
C         0.543887   -3.035155    0.812675
H         0.669202   -4.085496    0.492724
N        -0.629355   -2.992634    1.665383
C        -1.010950   -3.978938    2.496577
C        -2.337362   -3.788890    3.196386
O        -0.318723   -4.976050    2.706456
C         1.854070   -2.678827    1.554555
N         2.083351   -3.463024    2.635106
C         3.244364   -3.324072    3.469986
O         2.627475   -1.815070    1.170370
C        -2.651199   -1.344761   -1.376560
O        -2.178377   -2.186109   -2.135066
O        -4.838005   -1.261922    1.617348
C        -4.742468   -0.416000    2.754444
C        -3.395674   -0.389651    3.335878
C        -2.276075   -0.393770    3.800964
C        -0.954623   -0.443321    4.364355
C         0.175387   -0.332500    3.538257
C         1.451050   -0.411864    4.090056
C         1.616508   -0.587139    5.463595
C         0.497251   -0.695005    6.290867
C        -0.782076   -0.628331    5.746872
H         7.018428    2.316778   -0.407155
H         6.438407    0.990843   -1.461654
H         5.284914    2.193027   -0.821127
H         5.453572    1.640709   -3.521674
H         6.273114    3.022510   -4.299826
H         4.688655    4.594664   -3.266520
H         3.962966    3.292025   -2.294405
H         1.468222    4.466625   -5.136332
H         3.982393   -0.343913   -1.551245
H         2.556256   -0.923521   -2.467740
H         2.334328    0.172492   -1.068293
H         0.582719    0.373500   -2.430738
H        -3.123870    4.254836   -4.600561
H        -1.265903   -0.347842   -2.979785
H        -3.941314    1.890283   -1.660786
H        -3.147141   -2.705202    0.266692
H         1.280102   -2.049382   -0.932360
H        -0.370894   -2.687316   -1.111914
H        -1.178779   -2.135063    1.561015
H        -3.022430   -3.116259    2.663934
H        -2.148246   -3.357901    4.191616
H        -2.797480   -4.775749    3.332807
H         1.387556   -4.185303    2.838665
H         3.890015   -2.550539    3.034019
H         3.812839   -4.267263    3.525054
H         2.972240   -3.021135    4.494709
H        -5.449047   -0.834177    3.485926
H        -5.075627    0.600276    2.497542
H         0.050293   -0.207197    2.456760
H         2.313743   -0.353030    3.422624
H         2.620441   -0.645874    5.891868
H         0.621396   -0.836429    7.367247
H        -1.661590   -0.718166    6.388134
