-1 1
 OpenBabel05232414493D

 81 84  0  0  1  0  0  0  0  0999 V2000
   24.2961    4.8789  -12.2298 C   0  0  0  0  0  0  0  0  0  0  0  0
   23.9946    5.8329  -13.2036 O   0  0  0  0  0  0  0  0  0  0  0  0
   22.6746    5.7795  -13.6740 C   0  0  0  0  0  0  0  0  0  0  0  0
   21.7198    6.5626  -12.7807 C   0  0  0  0  0  0  0  0  0  0  0  0
   20.4048    6.4265  -13.2863 O   0  0  0  0  0  0  0  0  0  0  0  0
   19.4231    6.0194  -12.4429 C   0  0  0  0  0  0  0  0  0  0  0  0
   18.3062    6.8010  -12.2799 C   0  0  0  0  0  0  0  0  0  0  0  0
   19.5136    4.7583  -11.7698 C   0  0  0  0  0  0  0  0  0  0  0  0
   20.6411    4.0458  -12.0049 O   0  0  0  0  0  0  0  0  0  0  0  0
   20.8007    2.8065  -11.3688 C   0  0  0  0  0  0  0  0  0  0  0  0
   18.4839    4.3476  -10.9515 C   0  0  0  0  0  0  0  0  0  0  0  0
   17.3293    5.1513  -10.7830 C   0  0  0  0  0  0  0  0  0  0  0  0
   17.2309    6.3908  -11.4507 C   0  0  0  0  0  0  0  0  0  0  0  0
   16.1477    7.2093  -11.3107 N   0  0  0  0  0  0  0  0  0  0  0  0
   15.2078    6.7723  -10.5138 C   0  0  0  0  0  0  0  0  0  0  0  0
   15.1692    5.6153   -9.8294 N   0  0  0  0  0  0  0  0  0  0  0  0
   16.1987    4.7941   -9.9510 C   0  0  0  0  0  0  0  0  0  0  0  0
   16.2111    3.6131   -9.2991 N   0  0  0  0  0  0  0  0  0  0  0  0
   15.2962    3.0292   -8.4228 C   0  0  0  0  0  0  0  0  0  0  0  0
   14.0824    3.4630   -8.0244 C   0  0  0  0  0  0  0  0  0  0  0  0
   13.1669    2.6675   -7.1431 C   0  0  0  0  0  0  0  0  0  0  0  0
   12.0196    3.1105   -6.9336 O   0  0  0  0  0  0  0  0  0  0  0  0
   13.6927    1.4592   -6.6357 C   0  0  1  0  0  3  0  0  0  0  0  0
   15.0495    1.0865   -6.8403 C   0  0  2  0  0  0  0  0  0  0  0  0
   16.4214    1.8972   -5.4441 S   0  0  0  0  0  0  0  0  0  0  0  0
   17.6812    0.5951   -5.5316 C   0  0  0  0  0  0  0  0  0  0  0  0
   17.4850   -0.5677   -4.5442 C   0  0  2  0  0  0  0  0  0  0  0  0
   17.9038   -1.4867   -4.9896 H   0  0  0  0  0  0  0  0  0  0  0  0
   16.0788   -0.8271   -4.3065 N   0  0  0  0  0  0  0  0  0  0  0  0
   15.5653   -2.0407   -4.0148 C   0  0  0  0  0  0  0  0  0  0  0  0
   14.0576   -2.1065   -3.9572 C   0  0  0  0  0  0  0  0  0  0  0  0
   16.2765   -3.0200   -3.7931 O   0  0  0  0  0  0  0  0  0  0  0  0
   18.2743   -0.3547   -3.2297 C   0  0  0  0  0  0  0  0  0  0  0  0
   18.1837   -1.4082   -2.3863 N   0  0  0  0  0  0  0  0  0  0  0  0
   18.8048   -1.4289   -1.0893 C   0  0  0  0  0  0  0  0  0  0  0  0
   18.9372    0.6455   -3.0060 O   0  0  0  0  0  0  0  0  0  0  0  0
   15.7741    1.6865   -7.9937 C   0  0  0  0  0  0  0  0  0  0  0  0
   16.7118    1.1474   -8.5699 O   0  0  0  0  0  0  0  0  0  0  0  0
   12.9323    0.6130   -5.8342 O   0  0  0  0  0  0  0  0  0  0  0  0
   12.2710    1.2046   -4.7360 C   0  0  0  0  0  0  0  0  0  0  0  0
   13.1069    1.2495   -3.5296 C   0  0  0  0  0  0  0  0  0  0  0  0
   13.8221    1.2166   -2.5502 C   0  0  0  0  0  0  0  0  0  0  0  0
   14.7152    1.1704   -1.4283 C   0  0  0  0  0  0  0  0  0  0  0  0
   16.0673    1.5078   -1.5992 C   0  0  0  0  0  0  0  0  0  0  0  0
   16.9494    1.4427   -0.5252 C   0  0  0  0  0  0  0  0  0  0  0  0
   16.4961    1.0503    0.7343 C   0  0  0  0  0  0  0  0  0  0  0  0
   15.1531    0.7146    0.9140 C   0  0  0  0  0  0  0  0  0  0  0  0
   14.2670    0.7695   -0.1584 C   0  0  0  0  0  0  0  0  0  0  0  0
   25.3372    5.0367  -11.9162 H   0  0  0  0  0  0  0  0  0  0  0  0
   24.2010    3.8478  -12.6241 H   0  0  0  0  0  0  0  0  0  0  0  0
   23.6502    4.9559  -11.3349 H   0  0  0  0  0  0  0  0  0  0  0  0
   22.3066    4.7403  -13.7462 H   0  0  0  0  0  0  0  0  0  0  0  0
   22.6650    6.2140  -14.6852 H   0  0  0  0  0  0  0  0  0  0  0  0
   21.9918    7.6316  -12.7826 H   0  0  0  0  0  0  0  0  0  0  0  0
   21.7821    6.2019  -11.7430 H   0  0  0  0  0  0  0  0  0  0  0  0
   18.2380    7.7589  -12.7954 H   0  0  0  0  0  0  0  0  0  0  0  0
   21.7710    2.4108  -11.6935 H   0  0  0  0  0  0  0  0  0  0  0  0
   20.0079    2.0951  -11.6567 H   0  0  0  0  0  0  0  0  0  0  0  0
   20.8032    2.9085  -10.2697 H   0  0  0  0  0  0  0  0  0  0  0  0
   18.5648    3.3916  -10.4352 H   0  0  0  0  0  0  0  0  0  0  0  0
   14.3319    7.4193  -10.3798 H   0  0  0  0  0  0  0  0  0  0  0  0
   16.9787    2.9680   -9.4677 H   0  0  0  0  0  0  0  0  0  0  0  0
   13.6894    4.4145   -8.3784 H   0  0  0  0  0  0  0  0  0  0  0  0
   15.2789    0.0238   -6.7069 H   0  0  0  0  0  0  0  0  0  0  0  0
   18.6589    1.0526   -5.3360 H   0  0  0  0  0  0  0  0  0  0  0  0
   17.6825    0.2253   -6.5690 H   0  0  0  0  0  0  0  0  0  0  0  0
   15.4616   -0.0163   -4.3814 H   0  0  0  0  0  0  0  0  0  0  0  0
   13.5926   -1.4488   -4.7062 H   0  0  0  0  0  0  0  0  0  0  0  0
   13.7235   -1.7706   -2.9633 H   0  0  0  0  0  0  0  0  0  0  0  0
   13.7482   -3.1487   -4.1013 H   0  0  0  0  0  0  0  0  0  0  0  0
   17.6158   -2.2009   -2.6954 H   0  0  0  0  0  0  0  0  0  0  0  0
   19.4961   -0.5789   -1.0234 H   0  0  0  0  0  0  0  0  0  0  0  0
   19.3723   -2.3616   -0.9425 H   0  0  0  0  0  0  0  0  0  0  0  0
   18.0625   -1.3363   -0.2792 H   0  0  0  0  0  0  0  0  0  0  0  0
   11.3888    0.5779   -4.5265 H   0  0  0  0  0  0  0  0  0  0  0  0
   11.9046    2.2064   -5.0156 H   0  0  0  0  0  0  0  0  0  0  0  0
   16.4196    1.8130   -2.5870 H   0  0  0  0  0  0  0  0  0  0  0  0
   18.0004    1.6825   -0.6972 H   0  0  0  0  0  0  0  0  0  0  0  0
   17.1906    1.0000    1.5767 H   0  0  0  0  0  0  0  0  0  0  0  0
   14.7928    0.4035    1.8977 H   0  0  0  0  0  0  0  0  0  0  0  0
   13.2167    0.5027   -0.0235 H   0  0  0  0  0  0  0  0  0  0  0  0
  1 49  1  0  0  0  0
  1 51  1  0  0  0  0
  2  1  1  0  0  0  0
  3  2  1  0  0  0  0
  3  4  1  0  0  0  0
  4 55  1  0  0  0  0
  5  4  1  0  0  0  0
  5  6  1  0  0  0  0
  6  7  2  0  0  0  0
  6  8  1  0  0  0  0
  7 13  1  0  0  0  0
  8 11  2  0  0  0  0
  9  8  1  0  0  0  0
  9 10  1  0  0  0  0
 10 59  1  0  0  0  0
 11 12  1  0  0  0  0
 11 60  1  0  0  0  0
 12 17  1  0  0  0  0
 13 14  1  0  0  0  0
 13 12  2  0  0  0  0
 14 15  2  0  0  0  0
 15 61  1  0  0  0  0
 15 16  1  0  0  0  0
 17 16  2  0  0  0  0
 17 18  1  0  0  0  0
 18 19  1  0  0  0  0
 19 20  2  0  0  0  0
 19 37  1  0  0  0  0
 20 21  1  0  0  0  0
 21 22  2  0  0  0  0
 21 23  1  0  0  0  0
 23 39  1  1  0  0  0
 24 64  1  6  0  0  0
 24 23  1  0  0  0  0
 24 25  1  0  0  0  0
 26 25  1  0  0  0  0
 26 65  1  0  0  0  0
 26 27  1  0  0  0  0
 27 28  1  6  0  0  0
 27 29  1  0  0  0  0
 27 33  1  0  0  0  0
 29 30  1  0  0  0  0
 30 31  1  0  0  0  0
 30 32  2  0  0  0  0
 31 69  1  0  0  0  0
 33 36  2  0  0  0  0
 33 34  1  0  0  0  0
 34 35  1  0  0  0  0
 35 72  1  0  0  0  0
 35 73  1  0  0  0  0
 35 74  1  0  0  0  0
 37 24  1  0  0  0  0
 38 37  2  0  0  0  0
 39 40  1  0  0  0  0
 40 75  1  0  0  0  0
 40 41  1  0  0  0  0
 41 42  3  0  0  0  0
 42 43  1  0  0  0  0
 43 48  1  0  0  0  0
 44 43  2  0  0  0  0
 44 45  1  0  0  0  0
 45 46  2  0  0  0  0
 46 47  1  0  0  0  0
 46 79  1  0  0  0  0
 47 80  1  0  0  0  0
 48 81  1  0  0  0  0
 48 47  2  0  0  0  0
 50  1  1  0  0  0  0
 52  3  1  0  0  0  0
 53  3  1  0  0  0  0
 54  4  1  0  0  0  0
 56  7  1  0  0  0  0
 57 10  1  0  0  0  0
 58 10  1  0  0  0  0
 62 18  1  0  0  0  0
 63 20  1  0  0  0  0
 66 26  1  0  0  0  0
 67 29  1  0  0  0  0
 68 31  1  0  0  0  0
 70 31  1  0  0  0  0
 71 34  1  0  0  0  0
 76 40  1  0  0  0  0
 77 44  1  0  0  0  0
 78 45  1  0  0  0  0
M  END
