-1 1
 OpenBabel05232413483D

 81 83  0  0  1  0  0  0  0  0999 V2000
    6.3119    2.0616   -1.2089 C   0  0  0  0  0  0  0  0  0  0  0  0
    6.5932    2.8863   -2.3030 O   0  0  0  0  0  0  0  0  0  0  0  0
    5.7337    2.7014   -3.3952 C   0  0  0  0  0  0  0  0  0  0  0  0
    4.4540    3.5170   -3.2524 C   0  0  0  0  0  0  0  0  0  0  0  0
    3.5935    3.2309   -4.3419 O   0  0  0  0  0  0  0  0  0  0  0  0
    2.3270    2.8242   -4.0769 C   0  0  0  0  0  0  0  0  0  0  0  0
    1.2737    3.5506   -4.5785 C   0  0  0  0  0  0  0  0  0  0  0  0
    2.0834    1.6417   -3.2974 C   0  0  0  0  0  0  0  0  0  0  0  0
    3.1724    1.0362   -2.7861 O   0  0  0  0  0  0  0  0  0  0  0  0
    2.9889   -0.0680   -1.9223 C   0  0  0  0  0  0  0  0  0  0  0  0
    0.7901    1.2153   -3.0959 C   0  0  0  0  0  0  0  0  0  0  0  0
   -0.2948    1.9541   -3.6293 C   0  0  0  0  0  0  0  0  0  0  0  0
   -0.0669    3.1554   -4.3383 C   0  0  0  0  0  0  0  0  0  0  0  0
   -1.0958    3.9624   -4.7237 N   0  0  0  0  0  0  0  0  0  0  0  0
   -2.2915    3.5847   -4.3536 C   0  0  0  0  0  0  0  0  0  0  0  0
   -2.6405    2.4455   -3.7195 N   0  0  0  0  0  0  0  0  0  0  0  0
   -1.6710    1.6112   -3.4112 C   0  0  0  0  0  0  0  0  0  0  0  0
   -1.9663    0.3804   -2.8701 N   0  0  0  0  0  0  0  0  0  0  0  0
   -2.8158    0.0818   -1.8363 C   0  0  0  0  0  0  0  0  0  0  0  0
   -3.7473    0.8921   -1.2719 C   0  0  0  0  0  0  0  0  0  0  0  0
   -4.5007    0.4847   -0.0938 C   0  0  0  0  0  0  0  0  0  0  0  0
   -5.3501    1.2013    0.4223 O   0  0  0  0  0  0  0  0  0  0  0  0
   -4.1890   -0.8650    0.4888 C   0  0  0  0  0  0  0  0  0  0  0  0
   -3.3339   -1.7024   -0.1204 C   0  0  0  0  0  0  0  0  0  0  0  0
   -0.4164   -0.5375   -0.0796 S   0  0  0  0  0  1  0  0  0  0  0  0
    0.3142   -2.1584   -0.4219 C   0  0  0  0  0  0  0  0  0  0  0  0
    0.5439   -3.0352    0.8127 C   0  0  2  0  0  0  0  0  0  0  0  0
    0.6692   -4.0855    0.4927 H   0  0  0  0  0  0  0  0  0  0  0  0
   -0.6294   -2.9926    1.6654 N   0  0  0  0  0  0  0  0  0  0  0  0
   -1.0110   -3.9789    2.4966 C   0  0  0  0  0  0  0  0  0  0  0  0
   -2.3374   -3.7889    3.1964 C   0  0  0  0  0  0  0  0  0  0  0  0
   -0.3187   -4.9760    2.7065 O   0  0  0  0  0  0  0  0  0  0  0  0
    1.8541   -2.6788    1.5546 C   0  0  0  0  0  0  0  0  0  0  0  0
    2.0834   -3.4630    2.6351 N   0  0  0  0  0  0  0  0  0  0  0  0
    3.2444   -3.3241    3.4700 C   0  0  0  0  0  0  0  0  0  0  0  0
    2.6275   -1.8151    1.1704 O   0  0  0  0  0  0  0  0  0  0  0  0
   -2.6512   -1.3448   -1.3766 C   0  0  0  0  0  0  0  0  0  0  0  0
   -2.1784   -2.1861   -2.1351 O   0  0  0  0  0  0  0  0  0  0  0  0
   -4.8380   -1.2619    1.6173 O   0  0  0  0  0  0  0  0  0  0  0  0
   -4.7425   -0.4160    2.7544 C   0  0  0  0  0  0  0  0  0  0  0  0
   -3.3957   -0.3897    3.3359 C   0  0  0  0  0  0  0  0  0  0  0  0
   -2.2761   -0.3938    3.8010 C   0  0  0  0  0  0  0  0  0  0  0  0
   -0.9546   -0.4433    4.3644 C   0  0  0  0  0  0  0  0  0  0  0  0
    0.1754   -0.3325    3.5383 C   0  0  0  0  0  0  0  0  0  0  0  0
    1.4510   -0.4119    4.0901 C   0  0  0  0  0  0  0  0  0  0  0  0
    1.6165   -0.5871    5.4636 C   0  0  0  0  0  0  0  0  0  0  0  0
    0.4973   -0.6950    6.2909 C   0  0  0  0  0  0  0  0  0  0  0  0
   -0.7821   -0.6283    5.7469 C   0  0  0  0  0  0  0  0  0  0  0  0
    7.0184    2.3168   -0.4072 H   0  0  0  0  0  0  0  0  0  0  0  0
    6.4384    0.9908   -1.4617 H   0  0  0  0  0  0  0  0  0  0  0  0
    5.2849    2.1930   -0.8211 H   0  0  0  0  0  0  0  0  0  0  0  0
    5.4536    1.6407   -3.5217 H   0  0  0  0  0  0  0  0  0  0  0  0
    6.2731    3.0225   -4.2998 H   0  0  0  0  0  0  0  0  0  0  0  0
    4.6887    4.5947   -3.2665 H   0  0  0  0  0  0  0  0  0  0  0  0
    3.9630    3.2920   -2.2944 H   0  0  0  0  0  0  0  0  0  0  0  0
    1.4682    4.4666   -5.1363 H   0  0  0  0  0  0  0  0  0  0  0  0
    3.9824   -0.3439   -1.5512 H   0  0  0  0  0  0  0  0  0  0  0  0
    2.5563   -0.9235   -2.4677 H   0  0  0  0  0  0  0  0  0  0  0  0
    2.3343    0.1725   -1.0683 H   0  0  0  0  0  0  0  0  0  0  0  0
    0.5827    0.3735   -2.4307 H   0  0  0  0  0  0  0  0  0  0  0  0
   -3.1239    4.2548   -4.6006 H   0  0  0  0  0  0  0  0  0  0  0  0
   -1.2659   -0.3478   -2.9798 H   0  0  0  0  0  0  0  0  0  0  0  0
   -3.9413    1.8903   -1.6608 H   0  0  0  0  0  0  0  0  0  0  0  0
   -3.1471   -2.7052    0.2667 H   0  0  0  0  0  0  0  0  0  0  0  0
    1.2801   -2.0494   -0.9324 H   0  0  0  0  0  0  0  0  0  0  0  0
   -0.3709   -2.6873   -1.1119 H   0  0  0  0  0  0  0  0  0  0  0  0
   -1.1788   -2.1351    1.5610 H   0  0  0  0  0  0  0  0  0  0  0  0
   -3.0224   -3.1163    2.6639 H   0  0  0  0  0  0  0  0  0  0  0  0
   -2.1482   -3.3579    4.1916 H   0  0  0  0  0  0  0  0  0  0  0  0
   -2.7975   -4.7757    3.3328 H   0  0  0  0  0  0  0  0  0  0  0  0
    1.3876   -4.1853    2.8387 H   0  0  0  0  0  0  0  0  0  0  0  0
    3.8900   -2.5505    3.0340 H   0  0  0  0  0  0  0  0  0  0  0  0
    3.8128   -4.2673    3.5251 H   0  0  0  0  0  0  0  0  0  0  0  0
    2.9722   -3.0211    4.4947 H   0  0  0  0  0  0  0  0  0  0  0  0
   -5.4490   -0.8342    3.4859 H   0  0  0  0  0  0  0  0  0  0  0  0
   -5.0756    0.6003    2.4975 H   0  0  0  0  0  0  0  0  0  0  0  0
    0.0503   -0.2072    2.4568 H   0  0  0  0  0  0  0  0  0  0  0  0
    2.3137   -0.3530    3.4226 H   0  0  0  0  0  0  0  0  0  0  0  0
    2.6204   -0.6459    5.8919 H   0  0  0  0  0  0  0  0  0  0  0  0
    0.6214   -0.8364    7.3672 H   0  0  0  0  0  0  0  0  0  0  0  0
   -1.6616   -0.7182    6.3881 H   0  0  0  0  0  0  0  0  0  0  0  0
  1 51  1  0  0  0  0
  1 49  1  0  0  0  0
  2  1  1  0  0  0  0
  3  4  1  0  0  0  0
  3  2  1  0  0  0  0
  4 55  1  0  0  0  0
  5  6  1  0  0  0  0
  5  4  1  0  0  0  0
  6  8  1  0  0  0  0
  7 13  1  0  0  0  0
  7  6  2  0  0  0  0
  8 11  2  0  0  0  0
  8  9  1  0  0  0  0
  9 10  1  0  0  0  0
 10 57  1  0  0  0  0
 10 59  1  0  0  0  0
 11 60  1  0  0  0  0
 12 17  1  0  0  0  0
 12 11  1  0  0  0  0
 13 12  2  0  0  0  0
 14 15  2  0  0  0  0
 14 13  1  0  0  0  0
 15 16  1  0  0  0  0
 16 17  2  0  0  0  0
 17 18  1  0  0  0  0
 18 19  1  0  0  0  0
 19 37  1  0  0  0  0
 19 20  2  0  0  0  0
 20 21  1  0  0  0  0
 21 22  2  0  0  0  0
 21 23  1  0  0  0  0
 23 39  1  0  0  0  0
 24 64  1  0  0  0  0
 24 23  2  0  0  0  0
 26 25  1  0  0  0  0
 26 27  1  0  0  0  0
 27 28  1  6  0  0  0
 27 33  1  0  0  0  0
 27 29  1  0  0  0  0
 29 30  1  0  0  0  0
 30 32  2  0  0  0  0
 30 31  1  0  0  0  0
 31 70  1  0  0  0  0
 31 69  1  0  0  0  0
 33 34  1  0  0  0  0
 34 71  1  0  0  0  0
 34 35  1  0  0  0  0
 35 73  1  0  0  0  0
 35 74  1  0  0  0  0
 36 33  2  0  0  0  0
 37 24  1  0  0  0  0
 38 37  2  0  0  0  0
 39 40  1  0  0  0  0
 40 41  1  0  0  0  0
 40 75  1  0  0  0  0
 41 42  3  0  0  0  0
 42 43  1  0  0  0  0
 43 48  1  0  0  0  0
 44 45  1  0  0  0  0
 44 43  2  0  0  0  0
 45 46  2  0  0  0  0
 46 79  1  0  0  0  0
 46 47  1  0  0  0  0
 47 80  1  0  0  0  0
 48 47  2  0  0  0  0
 48 81  1  0  0  0  0
 50  1  1  0  0  0  0
 52  3  1  0  0  0  0
 53  3  1  0  0  0  0
 54  4  1  0  0  0  0
 56  7  1  0  0  0  0
 58 10  1  0  0  0  0
 61 15  1  0  0  0  0
 62 18  1  0  0  0  0
 63 20  1  0  0  0  0
 65 26  1  0  0  0  0
 66 26  1  0  0  0  0
 67 29  1  0  0  0  0
 68 31  1  0  0  0  0
 72 35  1  0  0  0  0
 76 40  1  0  0  0  0
 77 44  1  0  0  0  0
 78 45  1  0  0  0  0
M  END
