-1 1
 OpenBabel05192410563D

 66 66  0  0  1  0  0  0  0  0999 V2000
    1.6710    2.4041   -0.6805 O   0  0  0  0  0  0  0  0  0  0  0  0
    1.4593    1.2276   -0.3716 C   0  0  0  0  0  0  0  0  0  0  0  0
    2.5556    0.4159   -0.0524 O   0  0  0  0  0  0  0  0  0  0  0  0
    3.8276    0.9671   -0.2795 C   0  0  0  0  0  0  0  0  0  0  0  0
    4.2528    0.8366   -1.7341 C   0  0  0  0  0  0  0  0  0  0  0  0
    0.2312    0.5510   -0.3041 C   0  0  2  0  0  3  0  0  0  0  0  0
   -1.0332    1.3592   -0.3363 C   0  0  1  0  0  0  0  0  0  0  0  0
   -1.0862    2.6022   -1.2347 C   0  0  0  0  0  0  0  0  0  0  0  0
   -0.6298    2.7350   -2.5565 C   0  0  0  0  0  0  0  0  0  0  0  0
    0.2208    1.4689   -3.4113 Cl  0  0  0  0  0  0  0  0  0  0  0  0
   -0.8221    3.9068   -3.2895 C   0  0  0  0  0  0  0  0  0  0  0  0
   -1.4899    4.9756   -2.7079 C   0  0  0  0  0  0  0  0  0  0  0  0
   -1.7298    6.4463   -3.6377 Cl  0  0  0  0  0  0  0  0  0  0  0  0
   -1.9693    4.8931   -1.4080 C   0  0  0  0  0  0  0  0  0  0  0  0
   -1.7603    3.7108   -0.7066 C   0  0  0  0  0  0  0  0  0  0  0  0
   -2.2087    0.5663   -0.5805 O   0  0  0  0  0  0  0  0  0  0  0  0
   -2.3103   -0.0833   -1.8131 C   0  0  0  0  0  0  0  0  0  0  0  0
   -3.5503   -0.9637   -1.7615 C   0  0  0  0  0  0  0  0  0  0  0  0
   -3.4436   -2.0197   -0.6882 C   0  0  0  0  0  0  0  0  0  0  0  0
   -4.4722   -1.9785    0.1628 O   0  0  0  0  0  0  0  0  0  0  0  0
   -4.4544   -2.8823    1.2680 C   0  0  0  0  0  0  0  0  0  0  0  0
   -3.7118   -2.2901    2.4482 C   0  0  0  0  0  0  0  0  0  0  0  0
   -2.5514   -2.8292   -0.6111 O   0  0  0  0  0  0  0  0  0  0  0  0
    0.1375   -0.7881    0.2783 C   0  0  0  0  0  0  0  0  0  0  0  0
   -0.1164   -0.8736    2.1967 S   0  0  0  0  0  0  0  0  0  0  0  0
    1.5846   -1.2093    2.7418 C   0  0  0  0  0  0  0  0  0  0  0  0
    1.9172   -2.6973    2.9938 C   0  0  2  0  0  0  0  0  0  0  0  0
    1.1955   -3.0814    3.7342 H   0  0  0  0  0  0  0  0  0  0  0  0
    3.2536   -2.8439    3.5182 N   0  0  0  0  0  0  0  0  0  0  0  0
    3.5835   -2.6001    4.8056 C   0  0  0  0  0  0  0  0  0  0  0  0
    5.0467   -2.8241    5.1495 C   0  0  0  0  0  0  0  0  0  0  0  0
    2.7861   -2.2080    5.6411 O   0  0  0  0  0  0  0  0  0  0  0  0
    1.8608   -3.5784    1.7343 C   0  0  0  0  0  0  0  0  0  0  0  0
    0.6329   -3.7850    1.2228 N   0  0  0  0  0  0  0  0  0  0  0  0
    0.4509   -4.3993   -0.0724 C   0  0  0  0  0  0  0  0  0  0  0  0
    2.8803   -4.0557    1.2525 O   0  0  0  0  0  0  0  0  0  0  0  0
    4.5176    0.4109    0.3766 H   0  0  0  0  0  0  0  0  0  0  0  0
    3.8350    2.0278    0.0164 H   0  0  0  0  0  0  0  0  0  0  0  0
    3.5667    1.4146   -2.3694 H   0  0  0  0  0  0  0  0  0  0  0  0
    4.2267   -0.2169   -2.0528 H   0  0  0  0  0  0  0  0  0  0  0  0
    5.2752    1.2220   -1.8796 H   0  0  0  0  0  0  0  0  0  0  0  0
   -1.2591    1.7391    0.6801 H   0  0  0  0  0  0  0  0  0  0  0  0
   -0.4420    3.9760   -4.3081 H   0  0  0  0  0  0  0  0  0  0  0  0
   -2.4928    5.7342   -0.9524 H   0  0  0  0  0  0  0  0  0  0  0  0
   -2.1319    3.6352    0.3179 H   0  0  0  0  0  0  0  0  0  0  0  0
   -1.4124   -0.6890   -2.0274 H   0  0  0  0  0  0  0  0  0  0  0  0
   -2.4249    0.6377   -2.6446 H   0  0  0  0  0  0  0  0  0  0  0  0
   -3.6631   -1.4831   -2.7264 H   0  0  0  0  0  0  0  0  0  0  0  0
   -4.4444   -0.3522   -1.5826 H   0  0  0  0  0  0  0  0  0  0  0  0
   -3.9995   -3.8319    0.9505 H   0  0  0  0  0  0  0  0  0  0  0  0
   -5.5133   -3.0573    1.5070 H   0  0  0  0  0  0  0  0  0  0  0  0
   -2.6532   -2.1132    2.2085 H   0  0  0  0  0  0  0  0  0  0  0  0
   -3.7572   -2.9794    3.3049 H   0  0  0  0  0  0  0  0  0  0  0  0
   -4.1582   -1.3312    2.7483 H   0  0  0  0  0  0  0  0  0  0  0  0
    1.0524   -1.3663    0.1094 H   0  0  0  0  0  0  0  0  0  0  0  0
   -0.7188   -1.3754   -0.0723 H   0  0  0  0  0  0  0  0  0  0  0  0
    1.7359   -0.6885    3.6970 H   0  0  0  0  0  0  0  0  0  0  0  0
    2.2697   -0.7781    1.9969 H   0  0  0  0  0  0  0  0  0  0  0  0
    3.9084   -3.2532    2.8568 H   0  0  0  0  0  0  0  0  0  0  0  0
    5.1033   -3.3827    6.0934 H   0  0  0  0  0  0  0  0  0  0  0  0
    5.5198   -1.8450    5.3156 H   0  0  0  0  0  0  0  0  0  0  0  0
    5.6042   -3.3594    4.3685 H   0  0  0  0  0  0  0  0  0  0  0  0
   -0.1089   -3.1853    1.5855 H   0  0  0  0  0  0  0  0  0  0  0  0
    1.1867   -4.0103   -0.7934 H   0  0  0  0  0  0  0  0  0  0  0  0
   -0.5588   -4.1639   -0.4302 H   0  0  0  0  0  0  0  0  0  0  0  0
    0.5782   -5.4927   -0.0194 H   0  0  0  0  0  0  0  0  0  0  0  0
  1  2  2  0  0  0  0
  2  3  1  0  0  0  0
  4  3  1  0  0  0  0
  4 38  1  0  0  0  0
  4 37  1  0  0  0  0
  5  4  1  0  0  0  0
  6  2  1  1  0  0  0
  6 24  1  0  0  0  0
  7  6  1  0  0  0  0
  7 42  1  1  0  0  0
  8 15  1  0  0  0  0
  8  7  1  0  0  0  0
  9  8  2  0  0  0  0
 10  9  1  0  0  0  0
 11 12  2  0  0  0  0
 11  9  1  0  0  0  0
 12 14  1  0  0  0  0
 13 12  1  0  0  0  0
 14 44  1  0  0  0  0
 14 15  2  0  0  0  0
 15 45  1  0  0  0  0
 16  7  1  0  0  0  0
 17 18  1  0  0  0  0
 17 16  1  0  0  0  0
 18 49  1  0  0  0  0
 18 19  1  0  0  0  0
 19 23  2  0  0  0  0
 19 20  1  0  0  0  0
 20 21  1  0  0  0  0
 21 51  1  0  0  0  0
 21 22  1  0  0  0  0
 22 54  1  0  0  0  0
 22 53  1  0  0  0  0
 24 25  1  0  0  0  0
 25 26  1  0  0  0  0
 26 27  1  0  0  0  0
 26 57  1  0  0  0  0
 27 29  1  0  0  0  0
 27 28  1  1  0  0  0
 29 30  1  0  0  0  0
 30 31  1  0  0  0  0
 30 32  2  0  0  0  0
 31 61  1  0  0  0  0
 31 60  1  0  0  0  0
 33 27  1  0  0  0  0
 34 63  1  0  0  0  0
 34 33  1  0  0  0  0
 35 66  1  0  0  0  0
 35 34  1  0  0  0  0
 36 33  2  0  0  0  0
 39  5  1  0  0  0  0
 40  5  1  0  0  0  0
 41  5  1  0  0  0  0
 43 11  1  0  0  0  0
 46 17  1  0  0  0  0
 47 17  1  0  0  0  0
 48 18  1  0  0  0  0
 50 21  1  0  0  0  0
 52 22  1  0  0  0  0
 55 24  1  0  0  0  0
 56 24  1  0  0  0  0
 58 26  1  0  0  0  0
 59 29  1  0  0  0  0
 62 31  1  0  0  0  0
 64 35  1  0  0  0  0
 65 35  1  0  0  0  0
M  END
