-1 1
 OpenBabel05232414493D

 66 65  0  0  1  0  0  0  0  0999 V2000
    6.1410   -8.3929    2.7701 O   0  0  0  0  0  0  0  0  0  0  0  0
    6.0157   -9.5936    2.9738 C   0  0  0  0  0  0  0  0  0  0  0  0
    7.1105  -10.3658    3.2466 O   0  0  0  0  0  0  0  0  0  0  0  0
    8.3660   -9.7216    3.2539 C   0  0  0  0  0  0  0  0  0  0  0  0
    8.9510   -9.6090    1.8560 C   0  0  0  0  0  0  0  0  0  0  0  0
    4.7824  -10.3292    2.9517 C   0  0  2  0  0  3  0  0  0  0  0  0
    3.5179   -9.5089    2.8597 C   0  0  1  0  0  0  0  0  0  0  0  0
    3.4739   -8.3442    1.8618 C   0  0  0  0  0  0  0  0  0  0  0  0
    3.9856   -8.3096    0.5569 C   0  0  0  0  0  0  0  0  0  0  0  0
    4.8904   -9.6344   -0.1405 Cl  0  0  0  0  0  0  0  0  0  0  0  0
    3.8071   -7.2067   -0.2800 C   0  0  0  0  0  0  0  0  0  0  0  0
    3.0895   -6.1127    0.1818 C   0  0  0  0  0  0  0  0  0  0  0  0
    2.8644   -4.7284   -0.8722 Cl  0  0  0  0  0  0  0  0  0  0  0  0
    2.5482   -6.1033    1.4614 C   0  0  0  0  0  0  0  0  0  0  0  0
    2.7498   -7.2161    2.2687 C   0  0  0  0  0  0  0  0  0  0  0  0
    2.3415  -10.2955    2.7044 O   0  0  0  0  0  0  0  0  0  0  0  0
    2.1457  -10.9464    1.4803 C   0  0  0  0  0  0  0  0  0  0  0  0
    0.8832  -11.7809    1.6149 C   0  0  0  0  0  0  0  0  0  0  0  0
    1.0464  -12.8599    2.6598 C   0  0  0  0  0  0  0  0  0  0  0  0
    0.0651  -12.8422    3.5611 O   0  0  0  0  0  0  0  0  0  0  0  0
    0.1468  -13.7641    4.6525 C   0  0  0  0  0  0  0  0  0  0  0  0
    0.9210  -13.1719    5.8112 C   0  0  0  0  0  0  0  0  0  0  0  0
    1.9479  -13.6617    2.6650 O   0  0  0  0  0  0  0  0  0  0  0  0
    4.7191  -11.6402    3.4035 C   0  0  0  0  0  3  0  0  0  0  0  0
    4.4967  -11.8450    5.7526 S   0  0  0  0  0  1  0  0  0  0  0  0
    6.2347  -12.2602    6.1138 C   0  0  0  0  0  0  0  0  0  0  0  0
    6.5290  -13.7573    6.3613 C   0  0  2  0  0  0  0  0  0  0  0  0
    5.8328  -14.1074    7.1425 H   0  0  0  0  0  0  0  0  0  0  0  0
    7.8892  -13.9668    6.8029 N   0  0  0  0  0  0  0  0  0  0  0  0
    8.3214  -13.7362    8.0610 C   0  0  0  0  0  0  0  0  0  0  0  0
    9.7829  -14.0790    8.3107 C   0  0  0  0  0  0  0  0  0  0  0  0
    7.6228  -13.2720    8.9462 O   0  0  0  0  0  0  0  0  0  0  0  0
    6.3630  -14.6378    5.1103 C   0  0  0  0  0  0  0  0  0  0  0  0
    5.1272  -14.6681    4.5850 N   0  0  0  0  0  0  0  0  0  0  0  0
    4.8653  -15.3066    3.3181 C   0  0  0  0  0  0  0  0  0  0  0  0
    7.3113  -15.2609    4.6417 O   0  0  0  0  0  0  0  0  0  0  0  0
    9.0082  -10.3409    3.8986 H   0  0  0  0  0  0  0  0  0  0  0  0
    8.2688   -8.7230    3.7060 H   0  0  0  0  0  0  0  0  0  0  0  0
    8.3090   -8.9714    1.2320 H   0  0  0  0  0  0  0  0  0  0  0  0
    9.0264  -10.6015    1.3866 H   0  0  0  0  0  0  0  0  0  0  0  0
    9.9574   -9.1627    1.8937 H   0  0  0  0  0  0  0  0  0  0  0  0
    3.3536   -9.0417    3.8475 H   0  0  0  0  0  0  0  0  0  0  0  0
    4.2309   -7.2124   -1.2836 H   0  0  0  0  0  0  0  0  0  0  0  0
    1.9846   -5.2415    1.8202 H   0  0  0  0  0  0  0  0  0  0  0  0
    2.3320   -7.2180    3.2781 H   0  0  0  0  0  0  0  0  0  0  0  0
    3.0031  -11.5915    1.2212 H   0  0  0  0  0  0  0  0  0  0  0  0
    2.0114  -10.2217    0.6549 H   0  0  0  0  0  0  0  0  0  0  0  0
    0.6754  -12.2788    0.6544 H   0  0  0  0  0  0  0  0  0  0  0  0
    0.0286  -11.1422    1.8735 H   0  0  0  0  0  0  0  0  0  0  0  0
    0.6101  -14.6971    4.3002 H   0  0  0  0  0  0  0  0  0  0  0  0
   -0.8986  -13.9668    4.9265 H   0  0  0  0  0  0  0  0  0  0  0  0
    1.9699  -12.9738    5.5444 H   0  0  0  0  0  0  0  0  0  0  0  0
    0.9191  -13.8731    6.6592 H   0  0  0  0  0  0  0  0  0  0  0  0
    0.4668  -12.2268    6.1416 H   0  0  0  0  0  0  0  0  0  0  0  0
    5.6421  -12.2208    3.4003 H   0  0  0  0  0  0  0  0  0  0  0  0
    3.8100  -12.2182    3.2446 H   0  0  0  0  0  0  0  0  0  0  0  0
    6.5327  -11.7354    7.0319 H   0  0  0  0  0  0  0  0  0  0  0  0
    6.8757  -11.8947    5.2950 H   0  0  0  0  0  0  0  0  0  0  0  0
    8.4557  -14.4730    6.1265 H   0  0  0  0  0  0  0  0  0  0  0  0
    9.8470  -14.7001    9.2148 H   0  0  0  0  0  0  0  0  0  0  0  0
   10.3296  -13.1464    8.5132 H   0  0  0  0  0  0  0  0  0  0  0  0
   10.2644  -14.6000    7.4715 H   0  0  0  0  0  0  0  0  0  0  0  0
    4.4804  -13.9496    4.9369 H   0  0  0  0  0  0  0  0  0  0  0  0
    5.5926  -14.9874    2.5537 H   0  0  0  0  0  0  0  0  0  0  0  0
    3.8571  -15.0280    2.9884 H   0  0  0  0  0  0  0  0  0  0  0  0
    4.9345  -16.4034    3.4021 H   0  0  0  0  0  0  0  0  0  0  0  0
  1  2  2  0  0  0  0
  2  3  1  0  0  0  0
  3  4  1  0  0  0  0
  4 38  1  0  0  0  0
  4 37  1  0  0  0  0
  5 41  1  0  0  0  0
  5  4  1  0  0  0  0
  6  2  1  1  0  0  0
  6 24  1  0  0  0  0
  7  6  1  0  0  0  0
  7 42  1  1  0  0  0
  8 15  1  0  0  0  0
  8  7  1  0  0  0  0
  9  8  2  0  0  0  0
 10  9  1  0  0  0  0
 11 12  2  0  0  0  0
 11  9  1  0  0  0  0
 12 14  1  0  0  0  0
 13 12  1  0  0  0  0
 14 44  1  0  0  0  0
 14 15  2  0  0  0  0
 15 45  1  0  0  0  0
 16  7  1  0  0  0  0
 17 18  1  0  0  0  0
 17 16  1  0  0  0  0
 18 49  1  0  0  0  0
 18 19  1  0  0  0  0
 19 23  2  0  0  0  0
 19 20  1  0  0  0  0
 20 21  1  0  0  0  0
 21 51  1  0  0  0  0
 21 22  1  0  0  0  0
 22 54  1  0  0  0  0
 22 53  1  0  0  0  0
 25 26  1  0  0  0  0
 26 27  1  0  0  0  0
 26 57  1  0  0  0  0
 27 29  1  0  0  0  0
 27 28  1  1  0  0  0
 29 30  1  0  0  0  0
 30 31  1  0  0  0  0
 30 32  2  0  0  0  0
 31 61  1  0  0  0  0
 31 60  1  0  0  0  0
 33 27  1  0  0  0  0
 34 63  1  0  0  0  0
 34 33  1  0  0  0  0
 35 66  1  0  0  0  0
 35 34  1  0  0  0  0
 36 33  2  0  0  0  0
 39  5  1  0  0  0  0
 40  5  1  0  0  0  0
 43 11  1  0  0  0  0
 46 17  1  0  0  0  0
 47 17  1  0  0  0  0
 48 18  1  0  0  0  0
 50 21  1  0  0  0  0
 52 22  1  0  0  0  0
 55 24  1  0  0  0  0
 56 24  1  0  0  0  0
 58 26  1  0  0  0  0
 59 29  1  0  0  0  0
 62 31  1  0  0  0  0
 64 35  1  0  0  0  0
 65 35  1  0  0  0  0
M  END
