54
-1 1
O        -0.361160    2.698674   -3.881441
C        -0.881935    1.814137   -3.226430
O        -2.216326    1.725842   -3.103904
C        -2.986613    2.769348   -3.669508
C        -4.427967    2.547227   -3.267336
C        -0.157865    0.766255   -2.494222
C         1.358467    0.811756   -2.606454
C         1.966554    1.509845   -1.399503
C         2.382748    0.909574   -0.204316
Cl         2.322997   -0.820523    0.063156
C         2.866495    1.673451    0.859500
C         2.930727    3.057589    0.760590
C         2.509088    3.680535   -0.411785
C         2.040400    2.909166   -1.468173
O         1.952525   -0.447676   -2.798022
C         1.631205   -1.047179   -4.012816
C        -0.799893   -0.093527   -1.673272
S        -1.440362    0.764193    1.007383
C        -2.124231   -0.906582    1.274065
C        -1.601476   -1.606145    2.540373
H        -2.109154   -1.185553    3.428498
N        -0.173916   -1.342798    2.672228
C         0.478529   -1.331621    3.850691
C         1.796006   -0.584303    3.840380
O         0.060482   -1.870408    4.876310
C        -1.917657   -3.118755    2.517339
N        -1.586647   -3.762407    3.665977
C        -1.738710   -5.181561    3.822602
O        -2.447076   -3.671880    1.567628
H        -2.864045    2.769527   -4.766191
H        -2.610806    3.740217   -3.308559
H        -4.792283    1.578714   -3.640314
H        -5.065757    3.342961   -3.680795
H        -4.523742    2.549325   -2.172128
H         1.588017    1.450306   -3.479057
H         3.177386    1.165987    1.772919
H         3.300031    3.644371    1.604430
H         2.541038    4.768240   -0.504500
H         1.688068    3.391333   -2.383646
H         2.176812   -1.999640   -4.065825
H         1.932728   -0.416330   -4.874125
H         0.548936   -1.251970   -4.104926
H        -0.246265   -0.860950   -1.130728
H        -1.885797   -0.119719   -1.625206
H        -1.891380   -1.560658    0.416572
H        -3.221733   -0.884318    1.342967
H         0.109863   -0.626108    1.984433
H         1.598304    0.492074    3.716847
H         2.422558   -0.905575    2.996013
H         2.315597   -0.757993    4.789846
H        -1.074948   -3.212491    4.363748
H        -2.249458   -5.569976    2.931501
H        -2.342054   -5.429011    4.712463
H        -0.764439   -5.691667    3.919058
