54
-1 1
O         7.971049    9.982289    0.658127
C         7.495115    9.069634    1.317165
O         6.154723    8.940386    1.448468
C         5.357158    9.953166    0.874147
C         3.917813    9.677807    1.252918
C         8.246855    8.049040    2.027098
C         9.755195    8.148946    1.927118
C        10.348740    8.794797    3.169849
C        10.842758    8.149828    4.309618
Cl        10.887525    6.402988    4.472140
C        11.319323    8.872474    5.405717
C        11.289736   10.260924    5.399653
C        10.780619   10.928749    4.287367
C        10.326350   10.198385    3.197067
O        10.399506    6.923213    1.661813
C        10.081602    6.377225    0.422097
C         7.634067    7.149938    2.860243
S         7.167203    7.920421    5.264666
C         6.389737    6.320767    5.657131
C         6.859618    5.693180    6.978121
H         6.379542    6.214997    7.826632
N         8.301887    5.860312    7.107819
C         8.937946    5.915692    8.295199
C        10.311661    6.549678    8.257892
O         8.455715    5.505427    9.350952
C         6.435250    4.208575    7.066151
N         6.693317    3.638411    8.270238
C         6.437512    2.249643    8.532488
O         5.889972    3.620842    6.147201
H         5.492393    9.963170   -0.221372
H         5.687785   10.939387    1.239280
H         3.597423    8.694774    0.877055
H         3.255684   10.447083    0.827145
H         3.802597    9.678074    2.346427
H         9.962311    8.844997    1.093610
H        11.701169    8.328471    6.269953
H        11.654987   10.815187    6.267055
H        10.735823   12.019854    4.268208
H         9.910089   10.712619    2.326533
H        10.653803    5.444726    0.314200
H        10.354036    7.059385   -0.409623
H         9.004020    6.149022    0.330430
H         8.219237    6.342888    3.303728
H         6.555745    7.016871    2.814301
H         6.599381    5.596798    4.851155
H         5.294582    6.407673    5.704726
H         8.664924    6.469832    6.361750
H        10.192828    7.643322    8.205785
H        10.877123    6.233082    7.370371
H        10.853354    6.288444    9.174553
H         7.228771    4.204953    8.935603
H         5.920481    1.828129    7.660307
H         5.798602    2.116658    9.421738
H         7.370967    1.683502    8.695065
