-1 1
 OpenBabel05232414493D

 54 53  0  0  1  0  0  0  0  0999 V2000
    7.9710    9.9823    0.6581 O   0  0  0  0  0  0  0  0  0  0  0  0
    7.4951    9.0696    1.3172 C   0  0  0  0  0  0  0  0  0  0  0  0
    6.1547    8.9404    1.4485 O   0  0  0  0  0  0  0  0  0  0  0  0
    5.3572    9.9532    0.8741 C   0  0  0  0  0  0  0  0  0  0  0  0
    3.9178    9.6778    1.2529 C   0  0  0  0  0  0  0  0  0  0  0  0
    8.2469    8.0490    2.0271 C   0  0  1  0  0  3  0  0  0  0  0  0
    9.7552    8.1489    1.9271 C   0  0  1  0  0  0  0  0  0  0  0  0
   10.3487    8.7948    3.1698 C   0  0  0  0  0  0  0  0  0  0  0  0
   10.8428    8.1498    4.3096 C   0  0  0  0  0  0  0  0  0  0  0  0
   10.8875    6.4030    4.4721 Cl  0  0  0  0  0  0  0  0  0  0  0  0
   11.3193    8.8725    5.4057 C   0  0  0  0  0  0  0  0  0  0  0  0
   11.2897   10.2609    5.3997 C   0  0  0  0  0  0  0  0  0  0  0  0
   10.7806   10.9287    4.2874 C   0  0  0  0  0  0  0  0  0  0  0  0
   10.3263   10.1984    3.1971 C   0  0  0  0  0  0  0  0  0  0  0  0
   10.3995    6.9232    1.6618 O   0  0  0  0  0  0  0  0  0  0  0  0
   10.0816    6.3772    0.4221 C   0  0  0  0  0  0  0  0  0  0  0  0
    7.6341    7.1499    2.8602 C   0  0  0  0  0  3  0  0  0  0  0  0
    7.1672    7.9204    5.2647 S   0  0  0  0  0  1  0  0  0  0  0  0
    6.3897    6.3208    5.6571 C   0  0  0  0  0  0  0  0  0  0  0  0
    6.8596    5.6932    6.9781 C   0  0  2  0  0  0  0  0  0  0  0  0
    6.3795    6.2150    7.8266 H   0  0  0  0  0  0  0  0  0  0  0  0
    8.3019    5.8603    7.1078 N   0  0  0  0  0  0  0  0  0  0  0  0
    8.9379    5.9157    8.2952 C   0  0  0  0  0  0  0  0  0  0  0  0
   10.3117    6.5497    8.2579 C   0  0  0  0  0  0  0  0  0  0  0  0
    8.4557    5.5054    9.3510 O   0  0  0  0  0  0  0  0  0  0  0  0
    6.4352    4.2086    7.0662 C   0  0  0  0  0  0  0  0  0  0  0  0
    6.6933    3.6384    8.2702 N   0  0  0  0  0  0  0  0  0  0  0  0
    6.4375    2.2496    8.5325 C   0  0  0  0  0  0  0  0  0  0  0  0
    5.8900    3.6208    6.1472 O   0  0  0  0  0  0  0  0  0  0  0  0
    5.4924    9.9632   -0.2214 H   0  0  0  0  0  0  0  0  0  0  0  0
    5.6878   10.9394    1.2393 H   0  0  0  0  0  0  0  0  0  0  0  0
    3.5974    8.6948    0.8771 H   0  0  0  0  0  0  0  0  0  0  0  0
    3.2557   10.4471    0.8271 H   0  0  0  0  0  0  0  0  0  0  0  0
    3.8026    9.6781    2.3464 H   0  0  0  0  0  0  0  0  0  0  0  0
    9.9623    8.8450    1.0936 H   0  0  0  0  0  0  0  0  0  0  0  0
   11.7012    8.3285    6.2700 H   0  0  0  0  0  0  0  0  0  0  0  0
   11.6550   10.8152    6.2671 H   0  0  0  0  0  0  0  0  0  0  0  0
   10.7358   12.0199    4.2682 H   0  0  0  0  0  0  0  0  0  0  0  0
    9.9101   10.7126    2.3265 H   0  0  0  0  0  0  0  0  0  0  0  0
   10.6538    5.4447    0.3142 H   0  0  0  0  0  0  0  0  0  0  0  0
   10.3540    7.0594   -0.4096 H   0  0  0  0  0  0  0  0  0  0  0  0
    9.0040    6.1490    0.3304 H   0  0  0  0  0  0  0  0  0  0  0  0
    8.2192    6.3429    3.3037 H   0  0  0  0  0  0  0  0  0  0  0  0
    6.5557    7.0169    2.8143 H   0  0  0  0  0  0  0  0  0  0  0  0
    6.5994    5.5968    4.8512 H   0  0  0  0  0  0  0  0  0  0  0  0
    5.2946    6.4077    5.7047 H   0  0  0  0  0  0  0  0  0  0  0  0
    8.6649    6.4698    6.3617 H   0  0  0  0  0  0  0  0  0  0  0  0
   10.1928    7.6433    8.2058 H   0  0  0  0  0  0  0  0  0  0  0  0
   10.8771    6.2331    7.3704 H   0  0  0  0  0  0  0  0  0  0  0  0
   10.8534    6.2884    9.1746 H   0  0  0  0  0  0  0  0  0  0  0  0
    7.2288    4.2050    8.9356 H   0  0  0  0  0  0  0  0  0  0  0  0
    5.9205    1.8281    7.6603 H   0  0  0  0  0  0  0  0  0  0  0  0
    5.7986    2.1167    9.4217 H   0  0  0  0  0  0  0  0  0  0  0  0
    7.3710    1.6835    8.6951 H   0  0  0  0  0  0  0  0  0  0  0  0
  1  2  2  0  0  0  0
  2  3  1  0  0  0  0
  4 31  1  0  0  0  0
  4  5  1  0  0  0  0
  4  3  1  0  0  0  0
  5 34  1  0  0  0  0
  6  2  1  1  0  0  0
  6 17  1  0  0  0  0
  7 35  1  6  0  0  0
  7  6  1  0  0  0  0
  7  8  1  0  0  0  0
  8 14  2  0  0  0  0
  8  9  1  0  0  0  0
  9 10  1  0  0  0  0
  9 11  2  0  0  0  0
 11 36  1  0  0  0  0
 12 11  1  0  0  0  0
 12 37  1  0  0  0  0
 13 12  2  0  0  0  0
 14 13  1  0  0  0  0
 15  7  1  0  0  0  0
 16 15  1  0  0  0  0
 17 43  1  0  0  0  0
 18 19  1  0  0  0  0
 19 46  1  0  0  0  0
 19 20  1  0  0  0  0
 20 26  1  0  0  0  0
 20 22  1  0  0  0  0
 20 21  1  1  0  0  0
 22 23  1  0  0  0  0
 23 25  2  0  0  0  0
 24 23  1  0  0  0  0
 24 50  1  0  0  0  0
 26 27  1  0  0  0  0
 27 28  1  0  0  0  0
 27 51  1  0  0  0  0
 28 54  1  0  0  0  0
 28 53  1  0  0  0  0
 29 26  2  0  0  0  0
 30  4  1  0  0  0  0
 32  5  1  0  0  0  0
 33  5  1  0  0  0  0
 38 13  1  0  0  0  0
 39 14  1  0  0  0  0
 40 16  1  0  0  0  0
 41 16  1  0  0  0  0
 42 16  1  0  0  0  0
 44 17  1  0  0  0  0
 45 19  1  0  0  0  0
 47 22  1  0  0  0  0
 48 24  1  0  0  0  0
 49 24  1  0  0  0  0
 52 28  1  0  0  0  0
M  END
