75
-1 1
O        -1.217992   -6.370726   -4.629951
C        -1.683961   -5.248888   -4.486316
N        -1.847070   -4.705860   -3.248622
C        -2.332914   -3.436275   -2.873561
C        -1.587107   -2.693195   -1.953885
C        -2.021221   -1.434215   -1.525310
N        -1.246155   -0.753380   -0.583356
C        -1.120009    0.582616   -0.401631
C        -1.341912    1.584234   -1.389045
F        -1.663674    1.278304   -2.652596
C        -1.164960    2.898700   -1.032528
N        -0.754726    3.284219    0.181343
C        -0.505761    2.286107    1.028474
N        -0.018178    2.543107    2.290226
C         0.303975    3.733199    2.936934
C         0.137372    5.009490    2.385823
C         0.479692    6.151881    3.113986
C         0.995262    6.050918    4.406060
O         1.370525    7.103193    5.191617
C         1.146880    8.415024    4.757583
C        -0.302192    8.841500    4.948225
O        -0.414845   10.171935    4.534536
C        -1.707521   10.680566    4.633034
C         1.166091    4.778090    4.960982
C         0.828365    3.643702    4.240636
N        -0.690284    0.987693    0.792513
C        -3.239992   -0.933167   -2.008581
C        -3.977925   -1.676202   -2.922966
C        -3.545149   -2.928224   -3.355855
C        -2.052807   -4.412173   -5.678141
C        -2.112279   -4.964483   -6.889470
S         0.636080   -2.246183    1.592332
C         1.079264   -3.964866    1.139287
C         1.867718   -4.081219   -0.182640
H         1.376986   -3.413800   -0.913123
N         1.907578   -5.425941   -0.725530
C         0.840040   -6.048690   -1.241264
C         1.073262   -7.366348   -1.944488
O        -0.296635   -5.581343   -1.160114
C         3.337896   -3.643241   -0.066961
N         3.517830   -2.415578    0.440939
C         4.822955   -1.866040    0.688663
O         4.246757   -4.386194   -0.433704
H        -1.373931   -5.231487   -2.495686
H        -0.662687   -3.112464   -1.556581
H        -0.702149   -1.330671    0.112271
H        -1.344224    3.676920   -1.782437
H         0.141713    1.684687    2.804818
H        -0.263842    5.095496    1.378510
H         0.328996    7.123168    2.640404
H         1.445637    8.562946    3.705099
H         1.790584    9.060273    5.372442
H        -0.576920    8.724119    6.016332
H        -0.978444    8.183848    4.366623
H        -1.690690   11.722251    4.283998
H        -2.080701   10.664972    5.676541
H        -2.425115   10.111592    4.009403
H         1.573575    4.698357    5.970429
H         0.973179    2.659239    4.693716
H        -3.616810    0.026501   -1.653491
H        -4.930767   -1.282778   -3.285536
H        -4.154111   -3.523916   -4.037962
H        -2.242013   -3.345723   -5.535567
H        -1.910903   -6.033063   -7.007406
H        -2.350467   -4.373499   -7.777054
H         0.161301   -4.552247    1.009769
H         1.667953   -4.439056    1.943433
H         2.854706   -5.772848   -0.867464
H         0.577301   -7.309741   -2.925669
H         0.575725   -8.163032   -1.372551
H         2.135994   -7.615896   -2.066448
H         2.670251   -1.967686    0.844522
H         4.866082   -0.814853    0.364403
H         5.566196   -2.447119    0.127071
H         5.088119   -1.905422    1.759179
