-1 1
 OpenBabel05232413483D

122124  0  0  1  0  0  0  0  0999 V2000
    1.4823   -2.5147   -5.6950 O   0  0  0  0  0  0  0  0  0  0  0  0
    1.5473   -2.5010   -4.4791 C   0  0  0  0  0  0  0  0  0  0  0  0
    2.3958   -1.5501   -3.8703 N   0  0  0  0  0  0  0  0  0  0  0  0
    2.0958   -0.5839   -2.9028 C   0  0  0  0  0  0  0  0  0  0  0  0
    2.9281    0.5500   -2.7926 C   0  0  0  0  0  0  0  0  0  0  0  0
    4.1446    0.7902   -3.6425 C   0  0  0  0  0  0  0  0  0  0  0  0
    3.9812    0.8427   -5.0052 N   0  0  0  0  0  0  0  0  0  0  0  0
    5.1810    0.9444   -5.8277 C   0  0  0  0  0  0  0  0  0  0  0  0
    5.4426   -0.3093   -6.6421 C   0  0  0  0  0  0  0  0  0  0  0  0
    4.4792   -0.4209   -7.6662 O   0  0  0  0  0  0  0  0  0  0  0  0
    4.0454   -1.7343   -7.9533 C   0  0  0  0  0  0  0  0  0  0  0  0
    5.1390   -2.6082   -8.5460 C   0  0  0  0  0  0  0  0  0  0  0  0
    2.7122    1.1519   -5.6571 C   0  0  0  0  0  0  0  0  0  0  0  0
    2.4121    2.6490   -5.6869 C   0  0  0  0  0  0  0  0  0  0  0  0
    2.1995    3.1849   -4.4105 O   0  0  0  0  0  0  0  0  0  0  0  0
    0.8644    3.4499   -4.0476 C   0  0  0  0  0  0  0  0  0  0  0  0
   -0.0875    2.2659   -4.1025 C   0  0  0  0  0  0  0  0  0  0  0  0
    5.2366    0.9159   -3.1115 O   0  0  0  0  0  0  0  0  0  0  0  0
    2.6923    1.4694   -1.7716 C   0  0  0  0  0  0  0  0  0  0  0  0
    1.6289    1.3438   -0.8937 C   0  0  0  0  0  0  0  0  0  0  0  0
    0.7541    0.2633   -1.0503 C   0  0  0  0  0  0  0  0  0  0  0  0
   -0.3533    0.0715   -0.2145 N   0  0  0  0  0  0  0  0  0  0  0  0
   -0.8672    0.9973    0.6812 C   0  0  0  0  0  0  0  0  0  0  0  0
   -1.1547    0.6648    1.9783 C   0  0  0  0  0  0  0  0  0  0  0  0
   -1.7913    1.5769    2.8744 C   0  0  0  0  0  0  0  0  0  0  0  0
   -2.0684    1.2022    4.2872 C   0  0  0  0  0  0  0  0  0  0  0  0
   -3.3554    1.3304    4.8526 C   0  0  0  0  0  0  0  0  0  0  0  0
   -4.5499    1.7366    4.0326 C   0  0  0  0  0  0  0  0  0  0  0  0
   -3.5111    1.0091    6.2152 C   0  0  0  0  0  0  0  0  0  0  0  0
   -4.7729    1.1326    6.8483 N   0  0  0  0  0  0  0  0  0  0  0  0
   -5.4690    2.3155    6.9656 C   0  0  0  0  0  0  0  0  0  0  0  0
   -6.7610    2.2226    7.7148 C   0  0  0  0  0  0  0  0  0  0  0  0
   -7.3076    3.4028    8.2300 C   0  0  0  0  0  0  0  0  0  0  0  0
   -8.5035    3.4037    8.9292 C   0  0  0  0  0  0  0  0  0  0  0  0
   -9.2276    2.2050    9.1341 C   0  0  0  0  0  0  0  0  0  0  0  0
  -10.4146    2.1955    9.8288 N   0  0  0  0  0  0  0  0  0  0  0  0
  -11.1397    0.9598    9.9999 C   0  0  0  0  0  0  0  0  0  0  0  0
  -10.9609    3.4294   10.3404 C   0  0  0  0  0  0  0  0  0  0  0  0
   -8.6856    1.0190    8.5880 C   0  0  0  0  0  0  0  0  0  0  0  0
   -7.4814    1.0374    7.8972 C   0  0  0  0  0  0  0  0  0  0  0  0
   -5.0673    3.3629    6.4991 O   0  0  0  0  0  0  0  0  0  0  0  0
   -2.4445    0.5134    6.9682 C   0  0  0  0  0  0  0  0  0  0  0  0
   -1.1972    0.3359    6.3826 C   0  0  0  0  0  0  0  0  0  0  0  0
   -1.0109    0.6941    5.0530 C   0  0  0  0  0  0  0  0  0  0  0  0
   -2.0642    2.8269    2.4038 C   0  0  0  0  0  0  0  0  0  0  0  0
   -1.7758    3.1914    1.1180 N   0  0  0  0  0  0  0  0  0  0  0  0
   -2.1155    4.5184    0.6307 C   0  0  0  0  0  0  0  0  0  0  0  0
   -1.2233    2.3284    0.1660 C   0  0  0  0  0  0  0  0  0  0  0  0
   -1.0739    2.7090   -0.9831 O   0  0  0  0  0  0  0  0  0  0  0  0
    0.9961   -0.6905   -2.0416 C   0  0  0  0  0  0  0  0  0  0  0  0
    0.8601   -3.5112   -3.6617 C   0  0  0  0  0  0  0  0  0  0  0  0
    1.2324   -3.8950   -2.4281 C   0  0  0  0  0  0  0  0  0  0  0  0
    3.2995   -6.0762   -1.9321 S   0  0  0  0  0  1  0  0  0  0  0  0
    5.0106   -5.4608   -2.1747 C   0  0  0  0  0  0  0  0  0  0  0  0
    5.1997   -4.1256   -2.9186 C   0  0  2  0  0  0  0  0  0  0  0  0
    6.2902   -3.9918   -3.0411 H   0  0  0  0  0  0  0  0  0  0  0  0
    4.7336   -2.9712   -2.1781 N   0  0  0  0  0  0  0  0  0  0  0  0
    5.4419   -2.4427   -1.1479 C   0  0  0  0  0  0  0  0  0  0  0  0
    4.8257   -1.2134   -0.5099 C   0  0  0  0  0  0  0  0  0  0  0  0
    6.5094   -2.9024   -0.7764 O   0  0  0  0  0  0  0  0  0  0  0  0
    4.6526   -4.0378   -4.3515 C   0  0  0  0  0  0  0  0  0  0  0  0
    3.9376   -5.0871   -4.7759 N   0  0  0  0  0  0  0  0  0  0  0  0
    3.4151   -5.1597   -6.1160 C   0  0  0  0  0  0  0  0  0  0  0  0
    4.9054   -3.0613   -5.0602 O   0  0  0  0  0  0  0  0  0  0  0  0
    3.1126   -1.2688   -4.5384 H   0  0  0  0  0  0  0  0  0  0  0  0
    6.0257    1.1255   -5.1518 H   0  0  0  0  0  0  0  0  0  0  0  0
    5.0916    1.8124   -6.5032 H   0  0  0  0  0  0  0  0  0  0  0  0
    5.4208   -1.1872   -5.9741 H   0  0  0  0  0  0  0  0  0  0  0  0
    6.4589   -0.2395   -7.0790 H   0  0  0  0  0  0  0  0  0  0  0  0
    3.2186   -1.6168   -8.6709 H   0  0  0  0  0  0  0  0  0  0  0  0
    3.6379   -2.2109   -7.0462 H   0  0  0  0  0  0  0  0  0  0  0  0
    5.9104   -2.8299   -7.7937 H   0  0  0  0  0  0  0  0  0  0  0  0
    5.6106   -2.1166   -9.4121 H   0  0  0  0  0  0  0  0  0  0  0  0
    4.7167   -3.5692   -8.8782 H   0  0  0  0  0  0  0  0  0  0  0  0
    1.8906    0.6193   -5.1648 H   0  0  0  0  0  0  0  0  0  0  0  0
    2.7777    0.7633   -6.6819 H   0  0  0  0  0  0  0  0  0  0  0  0
    1.5459    2.8280   -6.3523 H   0  0  0  0  0  0  0  0  0  0  0  0
    3.2702    3.1814   -6.1334 H   0  0  0  0  0  0  0  0  0  0  0  0
    0.4685    4.2759   -4.6763 H   0  0  0  0  0  0  0  0  0  0  0  0
    0.9093    3.8174   -3.0121 H   0  0  0  0  0  0  0  0  0  0  0  0
   -0.2365    1.8951   -5.1288 H   0  0  0  0  0  0  0  0  0  0  0  0
   -1.0631    2.5699   -3.6986 H   0  0  0  0  0  0  0  0  0  0  0  0
    0.2760    1.4411   -3.4771 H   0  0  0  0  0  0  0  0  0  0  0  0
    3.3773    2.3135   -1.6794 H   0  0  0  0  0  0  0  0  0  0  0  0
    1.4808    2.0741   -0.0986 H   0  0  0  0  0  0  0  0  0  0  0  0
   -0.5692   -0.8958   -0.0123 H   0  0  0  0  0  0  0  0  0  0  0  0
   -0.8983   -0.3363    2.3363 H   0  0  0  0  0  0  0  0  0  0  0  0
   -4.7526    2.8134    4.1297 H   0  0  0  0  0  0  0  0  0  0  0  0
   -5.4494    1.2151    4.3909 H   0  0  0  0  0  0  0  0  0  0  0  0
   -4.4043    1.4959    2.9719 H   0  0  0  0  0  0  0  0  0  0  0  0
   -5.0155    0.3989    7.5010 H   0  0  0  0  0  0  0  0  0  0  0  0
   -6.7645    4.3357    8.0661 H   0  0  0  0  0  0  0  0  0  0  0  0
   -8.8799    4.3498    9.3158 H   0  0  0  0  0  0  0  0  0  0  0  0
  -10.5429    0.2019   10.5374 H   0  0  0  0  0  0  0  0  0  0  0  0
  -11.4519    0.5201    9.0353 H   0  0  0  0  0  0  0  0  0  0  0  0
  -12.0454    1.1467   10.5893 H   0  0  0  0  0  0  0  0  0  0  0  0
  -10.2801    3.9162   11.0607 H   0  0  0  0  0  0  0  0  0  0  0  0
  -11.9024    3.2219   10.8629 H   0  0  0  0  0  0  0  0  0  0  0  0
  -11.1762    4.1563    9.5367 H   0  0  0  0  0  0  0  0  0  0  0  0
   -9.2121    0.0710    8.6886 H   0  0  0  0  0  0  0  0  0  0  0  0
   -7.1223    0.0994    7.4656 H   0  0  0  0  0  0  0  0  0  0  0  0
   -2.6012    0.2757    8.0232 H   0  0  0  0  0  0  0  0  0  0  0  0
   -0.3646   -0.0567    6.9694 H   0  0  0  0  0  0  0  0  0  0  0  0
   -0.0244    0.5941    4.5946 H   0  0  0  0  0  0  0  0  0  0  0  0
   -2.5179    3.5957    3.0309 H   0  0  0  0  0  0  0  0  0  0  0  0
   -2.5017    5.1202    1.4615 H   0  0  0  0  0  0  0  0  0  0  0  0
   -2.8701    4.4512   -0.1655 H   0  0  0  0  0  0  0  0  0  0  0  0
   -1.2261    4.9986    0.2010 H   0  0  0  0  0  0  0  0  0  0  0  0
    0.3068   -1.5255   -2.1474 H   0  0  0  0  0  0  0  0  0  0  0  0
    0.0986   -4.0659   -4.2152 H   0  0  0  0  0  0  0  0  0  0  0  0
    0.7321   -4.7156   -1.9145 H   0  0  0  0  0  0  0  0  0  0  0  0
    2.0201   -3.3975   -1.8610 H   0  0  0  0  0  0  0  0  0  0  0  0
    5.5986   -6.2167   -2.7235 H   0  0  0  0  0  0  0  0  0  0  0  0
    5.5034   -5.3311   -1.2008 H   0  0  0  0  0  0  0  0  0  0  0  0
    3.8968   -2.5027   -2.5014 H   0  0  0  0  0  0  0  0  0  0  0  0
    3.7264   -1.2577   -0.4863 H   0  0  0  0  0  0  0  0  0  0  0  0
    5.1152   -0.3274   -1.0965 H   0  0  0  0  0  0  0  0  0  0  0  0
    5.2173   -1.1167    0.5101 H   0  0  0  0  0  0  0  0  0  0  0  0
    3.5501   -5.7039   -4.0311 H   0  0  0  0  0  0  0  0  0  0  0  0
    3.0976   -6.1922   -6.3178 H   0  0  0  0  0  0  0  0  0  0  0  0
    4.1947   -4.8792   -6.8397 H   0  0  0  0  0  0  0  0  0  0  0  0
    2.5578   -4.4835   -6.2682 H   0  0  0  0  0  0  0  0  0  0  0  0
  1  2  2  0  0  0  0
  2  3  1  0  0  0  0
  2 51  1  0  0  0  0
  3  4  1  0  0  0  0
  4  5  2  0  0  0  0
  4 50  1  0  0  0  0
  5 19  1  0  0  0  0
  6 18  2  0  0  0  0
  6  5  1  0  0  0  0
  7  6  1  0  0  0  0
  8 66  1  0  0  0  0
  8  7  1  0  0  0  0
  9 68  1  0  0  0  0
  9  8  1  0  0  0  0
 10  9  1  0  0  0  0
 11 10  1  0  0  0  0
 11 71  1  0  0  0  0
 12 11  1  0  0  0  0
 12 72  1  0  0  0  0
 13 75  1  0  0  0  0
 13  7  1  0  0  0  0
 14 13  1  0  0  0  0
 14 15  1  0  0  0  0
 15 16  1  0  0  0  0
 16 80  1  0  0  0  0
 17 16  1  0  0  0  0
 17 82  1  0  0  0  0
 17 83  1  0  0  0  0
 19 84  1  0  0  0  0
 19 20  2  0  0  0  0
 20 85  1  0  0  0  0
 21 20  1  0  0  0  0
 21 22  1  0  0  0  0
 22 86  1  0  0  0  0
 22 23  1  0  0  0  0
 23 24  2  0  0  0  0
 24 87  1  0  0  0  0
 24 25  1  0  0  0  0
 25 26  1  0  0  0  0
 26 27  2  0  0  0  0
 26 44  1  0  0  0  0
 27 29  1  0  0  0  0
 28 88  1  0  0  0  0
 28 89  1  0  0  0  0
 28 27  1  0  0  0  0
 29 30  1  0  0  0  0
 29 42  2  0  0  0  0
 30 31  1  0  0  0  0
 30 91  1  0  0  0  0
 31 32  1  0  0  0  0
 32 40  2  0  0  0  0
 32 33  1  0  0  0  0
 33 34  2  0  0  0  0
 34 35  1  0  0  0  0
 34 93  1  0  0  0  0
 35 36  1  0  0  0  0
 36 37  1  0  0  0  0
 36 38  1  0  0  0  0
 37 94  1  0  0  0  0
 37 96  1  0  0  0  0
 38 98  1  0  0  0  0
 38 97  1  0  0  0  0
 39100  1  0  0  0  0
 39 35  2  0  0  0  0
 40 39  1  0  0  0  0
 41 31  2  0  0  0  0
 42102  1  0  0  0  0
 43 42  1  0  0  0  0
 43103  1  0  0  0  0
 44 43  2  0  0  0  0
 45 25  2  0  0  0  0
 45105  1  0  0  0  0
 46 45  1  0  0  0  0
 47 46  1  0  0  0  0
 47106  1  0  0  0  0
 48 23  1  0  0  0  0
 48 46  1  0  0  0  0
 49 48  2  0  0  0  0
 50 21  2  0  0  0  0
 51 52  2  0  0  0  0
 52111  1  0  0  0  0
 52112  1  0  0  0  0
 54 53  1  0  0  0  0
 54114  1  0  0  0  0
 55 56  1  6  0  0  0
 55 57  1  0  0  0  0
 55 54  1  0  0  0  0
 57 58  1  0  0  0  0
 58 60  2  0  0  0  0
 58 59  1  0  0  0  0
 59116  1  0  0  0  0
 59118  1  0  0  0  0
 61 55  1  0  0  0  0
 62 61  1  0  0  0  0
 62119  1  0  0  0  0
 63 62  1  0  0  0  0
 64 61  2  0  0  0  0
 65  3  1  0  0  0  0
 67  8  1  0  0  0  0
 69  9  1  0  0  0  0
 70 11  1  0  0  0  0
 73 12  1  0  0  0  0
 74 12  1  0  0  0  0
 76 13  1  0  0  0  0
 77 14  1  0  0  0  0
 78 14  1  0  0  0  0
 79 16  1  0  0  0  0
 81 17  1  0  0  0  0
 90 28  1  0  0  0  0
 92 33  1  0  0  0  0
 95 37  1  0  0  0  0
 99 38  1  0  0  0  0
101 40  1  0  0  0  0
104 44  1  0  0  0  0
107 47  1  0  0  0  0
108 47  1  0  0  0  0
109 50  1  0  0  0  0
110 51  1  0  0  0  0
113 54  1  0  0  0  0
115 57  1  0  0  0  0
117 59  1  0  0  0  0
120 63  1  0  0  0  0
121 63  1  0  0  0  0
122 63  1  0  0  0  0
M  END
