102
-1 1
O         2.962646   -2.798267   -0.161656
C         3.343370   -2.868606    1.027154
N         2.615032   -3.848743    1.858104
C         1.549043   -3.532412    2.659241
C         0.523289   -4.468617    2.963418
C         0.438024   -5.807433    2.294082
N         0.479771   -5.792575    0.915106
C         0.509579   -7.049887    0.190641
C        -0.753289   -7.205594   -0.645637
O        -0.939577   -6.106659   -1.499120
C        -1.034884   -4.901891   -0.779229
C         0.202448   -4.634118    0.068728
O         0.331903   -6.847305    2.922649
C        -0.467053   -4.138376    3.890128
C        -0.563383   -2.860734    4.437722
C         0.377757   -1.906189    4.048125
N         0.214850   -0.527690    4.390926
C         0.116603    0.353411    3.336150
C        -0.350156    0.011739    2.094645
C        -0.334252    0.939222    1.017142
C        -0.628986    0.437621   -0.353628
C        -1.548438    1.052851   -1.221898
C        -2.385605    2.233596   -0.791148
C        -1.717919    0.516060   -2.519493
N        -2.626888    1.185056   -3.371512
C        -3.068591    0.841170   -4.615107
C        -4.090900    1.793774   -5.197120
C        -4.197270    1.839773   -6.590611
C        -5.120824    2.678859   -7.200433
C        -5.963614    3.471734   -6.417643
C        -6.930773    4.414637   -7.086766
F        -7.446788    3.886108   -8.201576
F        -7.951532    4.738473   -6.286722
F        -6.331408    5.558790   -7.440654
C        -5.884024    3.414497   -5.027496
C        -4.950848    2.576940   -4.421574
O        -2.698620   -0.123186   -5.253968
C        -1.019083   -0.621416   -2.930685
C        -0.136513   -1.231998   -2.043091
C         0.058698   -0.715135   -0.770946
C         0.091507    2.210532    1.277343
N         0.486694    2.588119    2.537643
C         0.962612    3.950109    2.761349
C         0.586225    1.706886    3.591163
O         1.070381    2.040758    4.681843
C         1.427561   -2.247380    3.205365
C         4.399578   -2.195194    1.627632
C         4.775876   -2.238476    3.057517
S         4.338852   -0.718711    4.096775
C         5.403617    0.555890    3.338223
C         4.692186    1.859015    2.951117
H         5.491313    2.585301    2.727072
N         3.960536    2.449717    4.045667
C         4.462485    3.490864    4.761553
C         3.545880    4.004649    5.854972
O         5.563559    3.974008    4.559651
C         3.840590    1.880407    1.666823
N         3.661340    0.725337    1.011420
C         3.106769    0.673122   -0.321164
O         3.420516    2.953670    1.245864
H         2.490128   -4.705712    1.331077
H         0.600829   -7.863201    0.921063
H         1.388593   -7.057916   -0.478278
H        -1.624491   -7.320511    0.032309
H        -0.689202   -8.102251   -1.279667
H        -1.928125   -4.926892   -0.120231
H        -1.170803   -4.092262   -1.510032
H         0.024430   -3.749751    0.691550
H         1.080319   -4.400497   -0.556991
H        -1.210664   -4.900123    4.136859
H        -1.379238   -2.583132    5.106201
H         0.781658   -0.156970    5.149942
H        -0.683128   -1.009649    1.907875
H        -2.309293    2.397548    0.289706
H        -3.452847    2.069934   -1.017924
H        -2.075775    3.173007   -1.282699
H        -2.945705    2.079924   -3.030153
H        -3.543048    1.195892   -7.180614
H        -5.195672    2.712851   -8.288739
H        -6.559846    4.013692   -4.415924
H        -4.926887    2.520426   -3.330728
H        -1.172484   -1.009509   -3.934384
H         0.432987   -2.110866   -2.352819
H         0.789575   -1.195848   -0.114475
H         0.205236    2.970304    0.504599
H         0.454273    4.621177    2.058075
H         2.047799    3.995150    2.589108
H         0.728594    4.240511    3.791767
H         2.143416   -1.478828    2.915677
H         5.039172   -1.636743    0.937875
H         5.856194   -2.375292    3.222802
H         4.252873   -3.045402    3.591520
H         5.894677    0.123233    2.453446
H         6.194705    0.818570    4.054906
H         3.028683    2.108059    4.279839
H         2.534693    3.581061    5.793831
H         3.506532    5.100468    5.785006
H         3.989805    3.752595    6.829442
H         3.903187   -0.174775    1.432119
H         2.100182    1.112138   -0.355913
H         3.058223   -0.382297   -0.625161
H         3.738117    1.234486   -1.029299
