-1 1
 OpenBabel05232413483D

102105  0  0  1  0  0  0  0  0999 V2000
    2.0215   -4.2822   -1.3223 O   0  0  0  0  0  0  0  0  0  0  0  0
    2.3362   -3.7633   -0.2651 C   0  0  0  0  0  0  0  0  0  0  0  0
    2.0672   -4.4457    0.9207 N   0  0  0  0  0  0  0  0  0  0  0  0
    1.5754   -4.0110    2.1598 C   0  0  0  0  0  0  0  0  0  0  0  0
    1.3228   -4.9755    3.1646 C   0  0  0  0  0  0  0  0  0  0  0  0
    1.5081   -6.4475    2.9757 C   0  0  0  0  0  0  0  0  0  0  0  0
    0.9287   -7.0034    1.8403 N   0  0  0  0  0  0  0  0  0  0  0  0
    1.1212   -8.4250    1.5984 C   0  0  0  0  0  0  0  0  0  0  0  0
   -0.1183   -9.2017    2.0233 C   0  0  0  0  0  0  0  0  0  0  0  0
   -1.2711   -8.7099    1.3834 O   0  0  0  0  0  0  0  0  0  0  0  0
   -1.4829   -7.3487    1.6549 C   0  0  0  0  0  0  0  0  0  0  0  0
   -0.2950   -6.4911    1.2297 C   0  0  0  0  0  0  0  0  0  0  0  0
    2.1321   -7.1320    3.7643 O   0  0  0  0  0  0  0  0  0  0  0  0
    0.8976   -4.5382    4.4233 C   0  0  0  0  0  0  0  0  0  0  0  0
    0.6027   -3.2095    4.6751 C   0  0  0  0  0  0  0  0  0  0  0  0
    0.7570   -2.2628    3.6492 C   0  0  0  0  0  0  0  0  0  0  0  0
    0.3815   -0.9461    3.8910 N   0  0  0  0  0  0  0  0  0  0  0  0
    0.1890    0.0383    2.9514 C   0  0  0  0  0  0  0  0  0  0  0  0
   -0.2368   -0.1484    1.6667 C   0  0  0  0  0  0  0  0  0  0  0  0
   -0.3115    0.9422    0.7477 C   0  0  0  0  0  0  0  0  0  0  0  0
   -0.5594    0.6608   -0.6905 C   0  0  0  0  0  0  0  0  0  0  0  0
   -1.4089    1.4364   -1.5028 C   0  0  0  0  0  0  0  0  0  0  0  0
   -2.2478    2.5614   -0.9447 C   0  0  0  0  0  0  0  0  0  0  0  0
   -1.5119    1.1139   -2.8767 C   0  0  0  0  0  0  0  0  0  0  0  0
   -2.3246    1.9567   -3.6695 N   0  0  0  0  0  0  0  0  0  0  0  0
   -2.7355    1.8037   -4.9614 C   0  0  0  0  0  0  0  0  0  0  0  0
   -3.6461    2.9047   -5.4604 C   0  0  0  0  0  0  0  0  0  0  0  0
   -3.6851    3.1206   -6.8416 C   0  0  0  0  0  0  0  0  0  0  0  0
   -4.5065    4.1027   -7.3792 C   0  0  0  0  0  0  0  0  0  0  0  0
   -5.3143    4.8714   -6.5374 C   0  0  0  0  0  0  0  0  0  0  0  0
   -6.1699    5.9638   -7.1268 C   0  0  0  0  0  0  0  0  0  0  0  0
   -6.7163    5.5897   -8.2889 F   0  0  0  0  0  0  0  0  0  0  0  0
   -7.1669    6.3175   -6.3103 F   0  0  0  0  0  0  0  0  0  0  0  0
   -5.4521    7.0669   -7.3726 F   0  0  0  0  0  0  0  0  0  0  0  0
   -5.3020    4.6482   -5.1621 C   0  0  0  0  0  0  0  0  0  0  0  0
   -4.4706    3.6668   -4.6277 C   0  0  0  0  0  0  0  0  0  0  0  0
   -2.4182    0.8917   -5.6980 O   0  0  0  0  0  0  0  0  0  0  0  0
   -0.8444    0.0135   -3.4196 C   0  0  0  0  0  0  0  0  0  0  0  0
   -0.0498   -0.7720   -2.5890 C   0  0  0  0  0  0  0  0  0  0  0  0
    0.0993   -0.4461   -1.2504 C   0  0  0  0  0  0  0  0  0  0  0  0
   -0.0075    2.1852    1.2203 C   0  0  0  0  0  0  0  0  0  0  0  0
    0.2780    2.4089    2.5427 N   0  0  0  0  0  0  0  0  0  0  0  0
    0.5152    3.7874    2.9626 C   0  0  0  0  0  0  0  0  0  0  0  0
    0.3800    1.3944    3.4745 C   0  0  0  0  0  0  0  0  0  0  0  0
    0.5946    1.6038    4.6677 O   0  0  0  0  0  0  0  0  0  0  0  0
    1.2860   -2.6709    2.4183 C   0  0  0  0  0  0  0  0  0  0  0  0
    3.1182   -2.5077   -0.2441 C   0  0  0  0  0  0  0  0  0  0  0  0
    4.0350   -2.1972    0.6828 C   0  0  0  0  0  0  0  0  0  0  0  0
    3.7037   -0.3573    3.2860 S   0  0  0  0  0  1  0  0  0  0  0  0
    4.9147    0.9966    3.0427 C   0  0  0  0  0  0  0  0  0  0  0  0
    4.2706    2.3705    2.8058 C   0  0  2  0  0  0  0  0  0  0  0  0
    5.0499    3.1502    2.7738 H   0  0  0  0  0  0  0  0  0  0  0  0
    3.4145    2.7221    3.9140 N   0  0  0  0  0  0  0  0  0  0  0  0
    3.6335    3.8019    4.7050 C   0  0  0  0  0  0  0  0  0  0  0  0
    2.7448    3.8721    5.9354 C   0  0  0  0  0  0  0  0  0  0  0  0
    4.4713    4.6582    4.4757 O   0  0  0  0  0  0  0  0  0  0  0  0
    3.5395    2.5391    1.4584 C   0  0  0  0  0  0  0  0  0  0  0  0
    3.4218    1.4250    0.7028 N   0  0  0  0  0  0  0  0  0  0  0  0
    2.9245    1.4927   -0.6446 C   0  0  0  0  0  0  0  0  0  0  0  0
    3.1537    3.6383    1.0761 O   0  0  0  0  0  0  0  0  0  0  0  0
    1.8841   -5.4259    0.7276 H   0  0  0  0  0  0  0  0  0  0  0  0
    2.0003   -8.7578    2.1628 H   0  0  0  0  0  0  0  0  0  0  0  0
    1.2987   -8.5762    0.5201 H   0  0  0  0  0  0  0  0  0  0  0  0
   -0.2267   -9.1314    3.1244 H   0  0  0  0  0  0  0  0  0  0  0  0
   -0.0270  -10.2633    1.7516 H   0  0  0  0  0  0  0  0  0  0  0  0
   -1.6638   -7.1957    2.7394 H   0  0  0  0  0  0  0  0  0  0  0  0
   -2.3878   -7.0448    1.1092 H   0  0  0  0  0  0  0  0  0  0  0  0
   -0.4629   -5.4499    1.5321 H   0  0  0  0  0  0  0  0  0  0  0  0
   -0.1870   -6.5121    0.1316 H   0  0  0  0  0  0  0  0  0  0  0  0
    0.7673   -5.2861    5.2085 H   0  0  0  0  0  0  0  0  0  0  0  0
    0.2305   -2.8941    5.6513 H   0  0  0  0  0  0  0  0  0  0  0  0
    0.5997   -0.5614    4.8072 H   0  0  0  0  0  0  0  0  0  0  0  0
   -0.4902   -1.1487    1.3175 H   0  0  0  0  0  0  0  0  0  0  0  0
   -2.2994    2.5078    0.1487 H   0  0  0  0  0  0  0  0  0  0  0  0
   -3.2831    2.5065   -1.3201 H   0  0  0  0  0  0  0  0  0  0  0  0
   -1.8471    3.5587   -1.1988 H   0  0  0  0  0  0  0  0  0  0  0  0
   -2.5803    2.8301   -3.2325 H   0  0  0  0  0  0  0  0  0  0  0  0
   -3.0608    2.4943   -7.4809 H   0  0  0  0  0  0  0  0  0  0  0  0
   -4.5288    4.2688   -8.4577 H   0  0  0  0  0  0  0  0  0  0  0  0
   -5.9511    5.2315   -4.5079 H   0  0  0  0  0  0  0  0  0  0  0  0
   -4.5000    3.4846   -3.5508 H   0  0  0  0  0  0  0  0  0  0  0  0
   -0.9600   -0.2147   -4.4760 H   0  0  0  0  0  0  0  0  0  0  0  0
    0.4723   -1.6420   -2.9935 H   0  0  0  0  0  0  0  0  0  0  0  0
    0.7616   -1.0433   -0.6216 H   0  0  0  0  0  0  0  0  0  0  0  0
    0.0762    3.0633    0.5801 H   0  0  0  0  0  0  0  0  0  0  0  0
   -0.3443    4.4088    2.6714 H   0  0  0  0  0  0  0  0  0  0  0  0
    1.4367    4.1592    2.4906 H   0  0  0  0  0  0  0  0  0  0  0  0
    0.6214    3.8006    4.0505 H   0  0  0  0  0  0  0  0  0  0  0  0
    1.5175   -1.9184    1.6708 H   0  0  0  0  0  0  0  0  0  0  0  0
    3.0213   -1.9207   -1.1617 H   0  0  0  0  0  0  0  0  0  0  0  0
    4.6892   -1.3321    0.5660 H   0  0  0  0  0  0  0  0  0  0  0  0
    4.1906   -2.7943    1.5832 H   0  0  0  0  0  0  0  0  0  0  0  0
    5.5891    0.7796    2.1963 H   0  0  0  0  0  0  0  0  0  0  0  0
    5.5515    1.0877    3.9367 H   0  0  0  0  0  0  0  0  0  0  0  0
    2.8086    1.9716    4.2462 H   0  0  0  0  0  0  0  0  0  0  0  0
    1.9435    3.1210    5.9284 H   0  0  0  0  0  0  0  0  0  0  0  0
    2.3164    4.8827    5.9967 H   0  0  0  0  0  0  0  0  0  0  0  0
    3.3749    3.7292    6.8259 H   0  0  0  0  0  0  0  0  0  0  0  0
    3.4386    0.5325    1.2218 H   0  0  0  0  0  0  0  0  0  0  0  0
    1.9122    1.9206   -0.7048 H   0  0  0  0  0  0  0  0  0  0  0  0
    2.8942    0.4805   -1.0681 H   0  0  0  0  0  0  0  0  0  0  0  0
    3.5807    2.1179   -1.2712 H   0  0  0  0  0  0  0  0  0  0  0  0
  1  2  2  0  0  0  0
  2 47  1  0  0  0  0
  2  3  1  0  0  0  0
  3  4  1  0  0  0  0
  4 46  2  0  0  0  0
  4  5  1  0  0  0  0
  5 14  2  0  0  0  0
  6  5  1  0  0  0  0
  6 13  2  0  0  0  0
  7  6  1  0  0  0  0
  8  7  1  0  0  0  0
  8  9  1  0  0  0  0
  8 62  1  0  0  0  0
  9 64  1  0  0  0  0
 10 11  1  0  0  0  0
 10  9  1  0  0  0  0
 11 66  1  0  0  0  0
 12 68  1  0  0  0  0
 12 11  1  0  0  0  0
 12  7  1  0  0  0  0
 14 15  1  0  0  0  0
 14 70  1  0  0  0  0
 15 71  1  0  0  0  0
 16 17  1  0  0  0  0
 16 15  2  0  0  0  0
 17 72  1  0  0  0  0
 18 44  1  0  0  0  0
 18 17  1  0  0  0  0
 19 18  2  0  0  0  0
 20 41  2  0  0  0  0
 20 19  1  0  0  0  0
 21 20  1  0  0  0  0
 22 23  1  0  0  0  0
 22 21  2  0  0  0  0
 23 74  1  0  0  0  0
 24 22  1  0  0  0  0
 25 77  1  0  0  0  0
 25 24  1  0  0  0  0
 26 25  1  0  0  0  0
 27 26  1  0  0  0  0
 27 36  1  0  0  0  0
 28 27  2  0  0  0  0
 29 28  1  0  0  0  0
 29 30  2  0  0  0  0
 30 35  1  0  0  0  0
 31 30  1  0  0  0  0
 31 33  1  0  0  0  0
 32 31  1  0  0  0  0
 34 31  1  0  0  0  0
 35 36  2  0  0  0  0
 35 80  1  0  0  0  0
 36 81  1  0  0  0  0
 37 26  2  0  0  0  0
 38 24  2  0  0  0  0
 38 39  1  0  0  0  0
 39 40  2  0  0  0  0
 40 21  1  0  0  0  0
 40 84  1  0  0  0  0
 41 42  1  0  0  0  0
 42 43  1  0  0  0  0
 42 44  1  0  0  0  0
 43 88  1  0  0  0  0
 44 45  2  0  0  0  0
 46 16  1  0  0  0  0
 47 48  2  0  0  0  0
 48 92  1  0  0  0  0
 50 49  1  0  0  0  0
 50 94  1  0  0  0  0
 51 52  1  6  0  0  0
 51 50  1  0  0  0  0
 51 53  1  0  0  0  0
 53 95  1  0  0  0  0
 53 54  1  0  0  0  0
 54 55  1  0  0  0  0
 55 97  1  0  0  0  0
 55 98  1  0  0  0  0
 56 54  2  0  0  0  0
 57 51  1  0  0  0  0
 58 99  1  0  0  0  0
 58 57  1  0  0  0  0
 59 58  1  0  0  0  0
 60 57  2  0  0  0  0
 61  3  1  0  0  0  0
 63  8  1  0  0  0  0
 65  9  1  0  0  0  0
 67 11  1  0  0  0  0
 69 12  1  0  0  0  0
 73 19  1  0  0  0  0
 75 23  1  0  0  0  0
 76 23  1  0  0  0  0
 78 28  1  0  0  0  0
 79 29  1  0  0  0  0
 82 38  1  0  0  0  0
 83 39  1  0  0  0  0
 85 41  1  0  0  0  0
 86 43  1  0  0  0  0
 87 43  1  0  0  0  0
 89 46  1  0  0  0  0
 90 47  1  0  0  0  0
 91 48  1  0  0  0  0
 93 50  1  0  0  0  0
 96 55  1  0  0  0  0
100 59  1  0  0  0  0
101 59  1  0  0  0  0
102 59  1  0  0  0  0
M  END
