106
-1 1
O        -5.095994   -3.627620    0.895311
C        -4.292053   -2.692558    0.892859
N        -2.874223   -3.128503    0.840785
C        -1.932246   -3.023569    1.836333
C        -0.842295   -3.941539    1.915126
C        -0.695366   -5.180354    1.074864
N        -0.897329   -5.094283   -0.286964
C        -0.809003   -6.321851   -1.045392
C        -0.645500   -3.887068   -1.046162
O        -0.412119   -6.246029    1.598328
C         0.082100   -3.821315    2.958745
C         0.023930   -2.795045    3.888525
C        -1.041178   -1.886535    3.814759
N        -1.131260   -0.843107    4.759571
C        -1.083993    0.491513    4.452177
C        -1.130888    1.043993    3.201390
C        -1.008521    2.455428    3.009662
C        -0.960724    2.953092    1.604343
C         0.226668    2.806917    0.857622
C         1.521556    2.407588    1.510111
C         0.170279    3.055105   -0.528196
N         1.253935    2.726150   -1.373771
C         2.508197    3.250229   -1.305527
C         3.513744    2.601997   -2.221378
C         4.703898    3.286200   -2.468068
C         5.692827    2.732131   -3.277078
C         5.532921    1.465690   -3.853236
C         6.599499    0.810391   -4.742052
C         5.996571    0.522344   -6.129341
C         7.830176    1.706703   -4.929636
C         7.057412   -0.509667   -4.094774
C         4.338147    0.782468   -3.583281
C         3.340930    1.332013   -2.785500
O         2.820819    4.164213   -0.561483
C        -1.010587    3.506414   -1.123891
C        -2.155454    3.702466   -0.363299
C        -2.133713    3.409010    0.995723
C        -0.893524    3.253799    4.101057
N        -0.874024    2.713518    5.373639
C        -0.734709    3.568531    6.538537
C        -0.931096    1.357842    5.629183
O        -0.845187    0.917142    6.772973
C        -2.007730   -2.014934    2.822696
C        -4.557193   -1.318926    0.903555
C        -3.623197   -0.242102    0.612684
S        -3.628357    0.468898   -1.194406
C        -2.734077   -0.855211   -2.061394
C        -1.283539   -0.477003   -2.385318
H        -0.784411   -1.316324   -2.901812
N        -0.537358   -0.271027   -1.172561
C         0.663019   -0.867621   -0.939036
C         1.124535   -0.843291    0.496952
O         1.278914   -1.459256   -1.812038
C        -1.103396    0.712603   -3.343679
N        -2.149586    1.019224   -4.144499
C        -2.109577    2.143898   -5.047184
O        -0.034497    1.302112   -3.430220
H        -2.874585   -4.045852    0.403883
H        -1.452328   -6.247615   -1.935479
H        -1.134571   -7.161166   -0.421221
H         0.225862   -6.524733   -1.378669
H        -0.804607   -2.999137   -0.428842
H        -1.345408   -3.824601   -1.894787
H         0.384004   -3.857541   -1.441477
H         0.872409   -4.572087    3.021536
H         0.783548   -2.691811    4.665656
H        -0.853699   -1.032291    5.717682
H        -1.251798    0.403515    2.328763
H         2.136272    3.304230    1.680531
H         2.110041    1.752550    0.854743
H         1.360759    1.894996    2.466406
H         0.992464    2.140476   -2.173508
H         4.840905    4.264726   -2.003486
H         6.603646    3.307012   -3.447515
H         5.655587    1.453242   -6.608101
H         5.133727   -0.156438   -6.065493
H         6.746885    0.051925   -6.785577
H         7.569742    2.662551   -5.409652
H         8.565034    1.199705   -5.574248
H         8.324909    1.926692   -3.971252
H         6.223415   -1.216404   -3.975503
H         7.486106   -0.327472   -3.097381
H         7.825893   -0.997447   -4.716384
H         4.168573   -0.215702   -3.993374
H         2.438868    0.742240   -2.607918
H        -1.016221    3.677431   -2.201673
H        -3.078200    4.039147   -0.838892
H        -3.042591    3.493610    1.595497
H        -0.787562    4.336770    4.035147
H        -0.720076    4.616550    6.217122
H         0.193176    3.332169    7.078843
H        -1.570672    3.404328    7.232719
H        -2.880585   -1.362202    2.827917
H        -5.618940   -1.067138    0.967986
H        -2.571118   -0.522042    0.758884
H        -3.809305    0.691833    1.165859
H        -3.272893   -1.150723   -2.974820
H        -2.745091   -1.739429   -1.404010
H        -0.969612    0.312912   -0.463197
H         0.866068   -1.815409    0.948687
H         0.642377   -0.060523    1.093486
H         2.214806   -0.728197    0.531569
H        -3.055598    0.639448   -3.903956
H        -2.703831    1.928850   -5.946497
H        -1.066653    2.322649   -5.335653
H        -2.499745    3.061559   -4.575800
