-1 1
 OpenBabel05232414493D

106109  0  0  1  0  0  0  0  0999 V2000
    2.9862   -0.7477   12.2754 O   0  0  0  0  0  0  0  0  0  0  0  0
    4.0029   -0.1588   11.9196 C   0  0  0  0  0  0  0  0  0  0  0  0
    5.0410   -1.0190   11.4038 N   0  0  0  0  0  0  0  0  0  0  0  0
    6.3917   -1.0992   11.6833 C   0  0  0  0  0  0  0  0  0  0  0  0
    7.1384   -2.2480   11.2859 C   0  0  0  0  0  0  0  0  0  0  0  0
    6.5560   -3.4980   10.6914 C   0  0  0  0  0  0  0  0  0  0  0  0
    5.6239   -3.3829    9.6821 N   0  0  0  0  0  0  0  0  0  0  0  0
    5.0274   -4.6050    9.1925 C   0  0  0  0  0  0  0  0  0  0  0  0
    5.6037   -2.2766    8.7451 C   0  0  0  0  0  0  0  0  0  0  0  0
    6.8928   -4.5951   11.1099 O   0  0  0  0  0  0  0  0  0  0  0  0
    8.4949   -2.3175   11.6180 C   0  0  0  0  0  0  0  0  0  0  0  0
    9.1662   -1.2785   12.2463 C   0  0  0  0  0  0  0  0  0  0  0  0
    8.4356   -0.1437   12.6280 C   0  0  0  0  0  0  0  0  0  0  0  0
    9.0554    0.9553   13.2353 N   0  0  0  0  0  0  0  0  0  0  0  0
    8.6819    2.2372   12.7497 C   0  0  0  0  0  0  0  0  0  0  0  0
    9.0097    2.6212   11.4843 C   0  0  0  0  0  0  0  0  0  0  0  0
    8.5430    3.8351   10.9005 C   0  0  0  0  0  0  0  0  0  0  0  0
    8.8436    4.1458    9.4764 C   0  0  0  0  0  0  0  0  0  0  0  0
   10.1725    4.2555    9.0128 C   0  0  0  0  0  0  0  0  0  0  0  0
   11.3582    4.2360    9.9397 C   0  0  0  0  0  0  0  0  0  0  0  0
   10.3719    4.3888    7.6273 C   0  0  0  0  0  0  0  0  0  0  0  0
   11.6873    4.4264    7.0826 N   0  0  0  0  0  0  0  0  0  0  0  0
   12.5973    5.4280    7.2823 C   0  0  0  0  0  0  0  0  0  0  0  0
   13.9051    5.2519    6.5559 C   0  0  0  0  0  0  0  0  0  0  0  0
   14.6685    6.3911    6.3028 C   0  0  0  0  0  0  0  0  0  0  0  0
   15.8904    6.2984    5.6411 C   0  0  0  0  0  0  0  0  0  0  0  0
   16.4021    5.0635    5.2242 C   0  0  0  0  0  0  0  0  0  0  0  0
   17.7457    4.9186    4.4961 C   0  0  0  0  0  0  0  0  0  0  0  0
   17.5094    4.2672    3.1210 C   0  0  0  0  0  0  0  0  0  0  0  0
   18.4331    6.2721    4.2759 C   0  0  0  0  0  0  0  0  0  0  0  0
   18.6838    4.0308    5.3347 C   0  0  0  0  0  0  0  0  0  0  0  0
   15.6355    3.9226    5.5053 C   0  0  0  0  0  0  0  0  0  0  0  0
   14.4111    4.0096    6.1581 C   0  0  0  0  0  0  0  0  0  0  0  0
   12.3895    6.3962    7.9863 O   0  0  0  0  0  0  0  0  0  0  0  0
    9.2976    4.4098    6.7362 C   0  0  0  0  0  0  0  0  0  0  0  0
    7.9951    4.3212    7.2069 C   0  0  0  0  0  0  0  0  0  0  0  0
    7.7729    4.1995    8.5745 C   0  0  0  0  0  0  0  0  0  0  0  0
    7.7029    4.5905   11.6656 C   0  0  0  0  0  0  0  0  0  0  0  0
    7.3665    4.2424   12.9394 N   0  0  0  0  0  0  0  0  0  0  0  0
    6.4164    5.0352   13.7013 C   0  0  0  0  0  0  0  0  0  0  0  0
    7.8375    3.0822   13.5918 C   0  0  0  0  0  0  0  0  0  0  0  0
    7.5067    2.8589   14.7404 O   0  0  0  0  0  0  0  0  0  0  0  0
    7.0640   -0.0878   12.3828 C   0  0  0  0  0  0  0  0  0  0  0  0
    4.1694    1.2632   11.9619 C   0  0  0  0  0  3  0  0  0  0  0  0
    5.0457    2.0645   11.2195 C   0  0  0  0  0  0  0  0  0  0  0  0
    4.2763    2.7851    9.2445 S   0  0  0  0  0  0  0  0  0  0  0  0
    4.2178    1.1594    8.4334 C   0  0  0  0  0  0  0  0  0  0  0  0
    5.3031    0.9744    7.3665 C   0  0  2  0  0  0  0  0  0  0  0  0
    5.2089   -0.0230    6.9028 H   0  0  0  0  0  0  0  0  0  0  0  0
    6.6077    1.0181    7.9682 N   0  0  0  0  0  0  0  0  0  0  0  0
    7.6412    0.2210    7.5892 C   0  0  0  0  0  0  0  0  0  0  0  0
    8.9266    0.4753    8.3521 C   0  0  0  0  0  0  0  0  0  0  0  0
    7.5330   -0.6694    6.7652 O   0  0  0  0  0  0  0  0  0  0  0  0
    5.2305    1.9717    6.1898 C   0  0  0  0  0  0  0  0  0  0  0  0
    3.9887    2.4393    5.8789 N   0  0  0  0  0  0  0  0  0  0  0  0
    3.8246    3.4456    4.8600 C   0  0  0  0  0  0  0  0  0  0  0  0
    6.2156    2.2651    5.5381 O   0  0  0  0  0  0  0  0  0  0  0  0
    4.6174   -1.9158   11.1864 H   0  0  0  0  0  0  0  0  0  0  0  0
    4.0232   -4.3862    8.7983 H   0  0  0  0  0  0  0  0  0  0  0  0
    4.9550   -5.3321   10.0089 H   0  0  0  0  0  0  0  0  0  0  0  0
    5.6283   -5.0590    8.3827 H   0  0  0  0  0  0  0  0  0  0  0  0
    6.0959   -1.3961    9.1668 H   0  0  0  0  0  0  0  0  0  0  0  0
    4.5644   -1.9969    8.5093 H   0  0  0  0  0  0  0  0  0  0  0  0
    6.1240   -2.5345    7.8079 H   0  0  0  0  0  0  0  0  0  0  0  0
    9.0321   -3.2290   11.3480 H   0  0  0  0  0  0  0  0  0  0  0  0
   10.2404   -1.3405   12.4377 H   0  0  0  0  0  0  0  0  0  0  0  0
   10.0504    0.8389   13.3802 H   0  0  0  0  0  0  0  0  0  0  0  0
    9.6091    1.9380   10.8764 H   0  0  0  0  0  0  0  0  0  0  0  0
   11.8402    5.2248    9.9430 H   0  0  0  0  0  0  0  0  0  0  0  0
   12.1129    3.5114    9.5957 H   0  0  0  0  0  0  0  0  0  0  0  0
   11.0777    3.9861   10.9686 H   0  0  0  0  0  0  0  0  0  0  0  0
   11.8511    3.8122    6.2950 H   0  0  0  0  0  0  0  0  0  0  0  0
   14.2851    7.3563    6.6389 H   0  0  0  0  0  0  0  0  0  0  0  0
   16.4480    7.2166    5.4559 H   0  0  0  0  0  0  0  0  0  0  0  0
   16.8334    4.8820    2.5071 H   0  0  0  0  0  0  0  0  0  0  0  0
   17.0620    3.2665    3.2128 H   0  0  0  0  0  0  0  0  0  0  0  0
   18.4624    4.1585    2.5790 H   0  0  0  0  0  0  0  0  0  0  0  0
   17.8184    6.9476    3.6616 H   0  0  0  0  0  0  0  0  0  0  0  0
   19.3880    6.1219    3.7494 H   0  0  0  0  0  0  0  0  0  0  0  0
   18.6556    6.7777    5.2279 H   0  0  0  0  0  0  0  0  0  0  0  0
   18.2691    3.0232    5.4847 H   0  0  0  0  0  0  0  0  0  0  0  0
   18.8580    4.4733    6.3275 H   0  0  0  0  0  0  0  0  0  0  0  0
   19.6579    3.9197    4.8320 H   0  0  0  0  0  0  0  0  0  0  0  0
   16.0013    2.9343    5.2175 H   0  0  0  0  0  0  0  0  0  0  0  0
   13.8647    3.0901    6.3825 H   0  0  0  0  0  0  0  0  0  0  0  0
    9.4934    4.4877    5.6642 H   0  0  0  0  0  0  0  0  0  0  0  0
    7.1587    4.2866    6.5084 H   0  0  0  0  0  0  0  0  0  0  0  0
    6.7484    4.0705    8.9404 H   0  0  0  0  0  0  0  0  0  0  0  0
    7.2505    5.5073   11.2824 H   0  0  0  0  0  0  0  0  0  0  0  0
    6.0924    5.8917   13.0986 H   0  0  0  0  0  0  0  0  0  0  0  0
    6.8756    5.3829   14.6368 H   0  0  0  0  0  0  0  0  0  0  0  0
    5.5483    4.4153   13.9666 H   0  0  0  0  0  0  0  0  0  0  0  0
    6.4882    0.7494   12.7695 H   0  0  0  0  0  0  0  0  0  0  0  0
    3.3440    1.7550   12.4829 H   0  0  0  0  0  0  0  0  0  0  0  0
    5.9536    1.6154   10.8055 H   0  0  0  0  0  0  0  0  0  0  0  0
    5.2076    3.0880   11.5699 H   0  0  0  0  0  0  0  0  0  0  0  0
    3.2231    0.9701    7.9998 H   0  0  0  0  0  0  0  0  0  0  0  0
    4.3508    0.3901    9.2119 H   0  0  0  0  0  0  0  0  0  0  0  0
    6.7845    1.8146    8.5709 H   0  0  0  0  0  0  0  0  0  0  0  0
    8.8257    0.0702    9.3733 H   0  0  0  0  0  0  0  0  0  0  0  0
    9.1477    1.5515    8.4206 H   0  0  0  0  0  0  0  0  0  0  0  0
    9.7476   -0.0444    7.8449 H   0  0  0  0  0  0  0  0  0  0  0  0
    3.2956    2.4132    6.6160 H   0  0  0  0  0  0  0  0  0  0  0  0
    2.7909    3.4339    4.4862 H   0  0  0  0  0  0  0  0  0  0  0  0
    4.5102    3.2286    4.0310 H   0  0  0  0  0  0  0  0  0  0  0  0
    4.0547    4.4595    5.2324 H   0  0  0  0  0  0  0  0  0  0  0  0
  2 44  1  0  0  0  0
  2  1  2  0  0  0  0
  3  4  1  0  0  0  0
  3  2  1  0  0  0  0
  4 43  1  0  0  0  0
  5 11  1  0  0  0  0
  5  4  2  0  0  0  0
  6 10  2  0  0  0  0
  6  5  1  0  0  0  0
  7  6  1  0  0  0  0
  8  7  1  0  0  0  0
  8 60  1  0  0  0  0
  9 62  1  0  0  0  0
  9  7  1  0  0  0  0
 11 12  2  0  0  0  0
 12 66  1  0  0  0  0
 12 13  1  0  0  0  0
 13 14  1  0  0  0  0
 14 67  1  0  0  0  0
 15 14  1  0  0  0  0
 15 41  1  0  0  0  0
 16 15  2  0  0  0  0
 17 16  1  0  0  0  0
 17 38  2  0  0  0  0
 18 17  1  0  0  0  0
 19 18  1  0  0  0  0
 19 20  1  0  0  0  0
 20 69  1  0  0  0  0
 20 71  1  0  0  0  0
 21 19  2  0  0  0  0
 22 23  1  0  0  0  0
 22 21  1  0  0  0  0
 23 34  2  0  0  0  0
 24 23  1  0  0  0  0
 25 24  1  0  0  0  0
 25 73  1  0  0  0  0
 26 25  2  0  0  0  0
 27 32  2  0  0  0  0
 27 26  1  0  0  0  0
 28 27  1  0  0  0  0
 28 31  1  0  0  0  0
 29 76  1  0  0  0  0
 29 28  1  0  0  0  0
 30 28  1  0  0  0  0
 30 80  1  0  0  0  0
 31 81  1  0  0  0  0
 31 82  1  0  0  0  0
 32 33  1  0  0  0  0
 33 85  1  0  0  0  0
 33 24  2  0  0  0  0
 35 36  2  0  0  0  0
 35 21  1  0  0  0  0
 36 37  1  0  0  0  0
 37 88  1  0  0  0  0
 37 18  2  0  0  0  0
 38 39  1  0  0  0  0
 39 41  1  0  0  0  0
 39 40  1  0  0  0  0
 40 92  1  0  0  0  0
 40 91  1  0  0  0  0
 41 42  2  0  0  0  0
 43 13  2  0  0  0  0
 43 93  1  0  0  0  0
 44 94  1  0  0  0  0
 45 96  1  0  0  0  0
 45 44  1  0  0  0  0
 46 45  1  0  0  0  0
 47 98  1  0  0  0  0
 47 46  1  0  0  0  0
 48 49  1  6  0  0  0
 48 50  1  0  0  0  0
 48 47  1  0  0  0  0
 50 99  1  0  0  0  0
 51 50  1  0  0  0  0
 51 52  1  0  0  0  0
 52101  1  0  0  0  0
 52100  1  0  0  0  0
 53 51  2  0  0  0  0
 54 48  1  0  0  0  0
 55 54  1  0  0  0  0
 55103  1  0  0  0  0
 56106  1  0  0  0  0
 56 55  1  0  0  0  0
 57 54  2  0  0  0  0
 58  3  1  0  0  0  0
 59  8  1  0  0  0  0
 61  8  1  0  0  0  0
 63  9  1  0  0  0  0
 64  9  1  0  0  0  0
 65 11  1  0  0  0  0
 68 16  1  0  0  0  0
 70 20  1  0  0  0  0
 72 22  1  0  0  0  0
 74 26  1  0  0  0  0
 75 29  1  0  0  0  0
 77 29  1  0  0  0  0
 78 30  1  0  0  0  0
 79 30  1  0  0  0  0
 83 31  1  0  0  0  0
 84 32  1  0  0  0  0
 86 35  1  0  0  0  0
 87 36  1  0  0  0  0
 89 38  1  0  0  0  0
 90 40  1  0  0  0  0
 95 45  1  0  0  0  0
 97 47  1  0  0  0  0
102 52  1  0  0  0  0
104 56  1  0  0  0  0
105 56  1  0  0  0  0
M  END
