-1 1
 OpenBabel05232413483D

106108  0  0  1  0  0  0  0  0999 V2000
   -5.5398   -3.1547    4.7277 O   0  0  0  0  0  0  0  0  0  0  0  0
   -4.5533   -2.8682    4.0783 C   0  0  0  0  0  0  0  0  0  0  0  0
   -3.6155   -3.8496    3.8036 N   0  0  0  0  0  0  0  0  0  0  0  0
   -2.2597   -3.7804    3.4445 C   0  0  0  0  0  0  0  0  0  0  0  0
   -1.6411   -4.9148    2.8789 C   0  0  0  0  0  0  0  0  0  0  0  0
   -2.3548   -6.2148    2.6203 C   0  0  0  0  0  0  0  0  0  0  0  0
   -3.4816   -6.1699    1.8443 N   0  0  0  0  0  0  0  0  0  0  0  0
   -4.2451   -7.3833    1.6639 C   0  0  0  0  0  0  0  0  0  0  0  0
   -3.8398   -5.0653    0.9751 C   0  0  0  0  0  0  0  0  0  0  0  0
   -1.9331   -7.2567    3.0990 O   0  0  0  0  0  0  0  0  0  0  0  0
   -0.2663   -4.8725    2.6379 C   0  0  0  0  0  0  0  0  0  0  0  0
    0.4722   -3.7127    2.8290 C   0  0  0  0  0  0  0  0  0  0  0  0
   -0.1579   -2.5677    3.3372 C   0  0  0  0  0  0  0  0  0  0  0  0
    0.5471   -1.3599    3.4679 N   0  0  0  0  0  0  0  0  0  0  0  0
   -0.0089   -0.1844    2.8949 C   0  0  0  0  0  0  0  0  0  0  0  0
    0.4304    0.2725    1.6854 C   0  0  0  0  0  0  0  0  0  0  0  0
   -0.1161    1.4285    1.0582 C   0  0  0  0  0  0  0  0  0  0  0  0
    0.3121    1.8525   -0.3030 C   0  0  0  0  0  0  0  0  0  0  0  0
    1.6712    2.0455   -0.6357 C   0  0  0  0  0  0  0  0  0  0  0  0
    2.7782    1.9951    0.3851 C   0  0  0  0  0  0  0  0  0  0  0  0
    1.9861    2.3264   -1.9776 C   0  0  0  0  0  0  0  0  0  0  0  0
    3.3450    2.4542   -2.3938 N   0  0  0  0  0  0  0  0  0  0  0  0
    4.1765    3.4890   -2.0635 C   0  0  0  0  0  0  0  0  0  0  0  0
    5.5446    3.4319   -2.6921 C   0  0  0  0  0  0  0  0  0  0  0  0
    6.2525    4.6266   -2.8182 C   0  0  0  0  0  0  0  0  0  0  0  0
    7.5244    4.6459   -3.3850 C   0  0  0  0  0  0  0  0  0  0  0  0
    8.1426    3.4709   -3.8297 C   0  0  0  0  0  0  0  0  0  0  0  0
    9.5438    3.4493   -4.4562 C   0  0  0  0  0  0  0  0  0  0  0  0
    9.4524    2.8759   -5.8824 C   0  0  0  0  0  0  0  0  0  0  0  0
   10.1618    4.8508   -4.5395 C   0  0  0  0  0  0  0  0  0  0  0  0
   10.4685    2.5635   -3.6008 C   0  0  0  0  0  0  0  0  0  0  0  0
    7.4296    2.2724   -3.6758 C   0  0  0  0  0  0  0  0  0  0  0  0
    6.1561    2.2479   -3.1185 C   0  0  0  0  0  0  0  0  0  0  0  0
    3.8593    4.3970   -1.3216 O   0  0  0  0  0  0  0  0  0  0  0  0
    0.9943    2.4312   -2.9532 C   0  0  0  0  0  0  0  0  0  0  0  0
   -0.3415    2.2749   -2.6057 C   0  0  0  0  0  0  0  0  0  0  0  0
   -0.6773    1.9959   -1.2869 C   0  0  0  0  0  0  0  0  0  0  0  0
   -1.1650    2.0239    1.7030 C   0  0  0  0  0  0  0  0  0  0  0  0
   -1.6144    1.5993    2.9143 N   0  0  0  0  0  0  0  0  0  0  0  0
   -2.7695    2.2774    3.4941 C   0  0  0  0  0  0  0  0  0  0  0  0
   -1.0520    0.5310    3.6277 C   0  0  0  0  0  0  0  0  0  0  0  0
   -1.4560    0.2380    4.7445 O   0  0  0  0  0  0  0  0  0  0  0  0
   -1.5048   -2.6367    3.7026 C   0  0  0  0  0  0  0  0  0  0  0  0
   -4.3924   -1.5009    3.5024 C   0  0  0  0  0  0  0  0  0  0  0  0
   -4.0419   -1.2538    2.2402 C   0  0  0  0  0  0  0  0  0  0  0  0
   -4.2826    1.8709    0.1626 S   0  0  0  0  0  1  0  0  0  0  0  0
   -5.1861    0.4855   -0.6351 C   0  0  0  0  0  0  0  0  0  0  0  0
   -4.3578   -0.3234   -1.6524 C   0  0  2  0  0  0  0  0  0  0  0  0
   -4.8701   -1.2644   -1.8956 H   0  0  0  0  0  0  0  0  0  0  0  0
   -3.0730   -0.6867   -1.0897 N   0  0  0  0  0  0  0  0  0  0  0  0
   -2.6519   -1.9616   -0.9134 C   0  0  0  0  0  0  0  0  0  0  0  0
   -1.3278   -2.0855   -0.1823 C   0  0  0  0  0  0  0  0  0  0  0  0
   -3.2783   -2.9444   -1.2800 O   0  0  0  0  0  0  0  0  0  0  0  0
   -4.1694    0.3792   -3.0111 C   0  0  0  0  0  0  0  0  0  0  0  0
   -3.8631    1.6988   -2.9488 N   0  0  0  0  0  0  0  0  0  0  0  0
   -3.7490    2.4851   -4.1465 C   0  0  0  0  0  0  0  0  0  0  0  0
   -4.2786   -0.2218   -4.0674 O   0  0  0  0  0  0  0  0  0  0  0  0
   -3.9620   -4.7675    4.0634 H   0  0  0  0  0  0  0  0  0  0  0  0
   -5.3218   -7.1632    1.7447 H   0  0  0  0  0  0  0  0  0  0  0  0
   -3.9540   -8.1093    2.4312 H   0  0  0  0  0  0  0  0  0  0  0  0
   -4.0598   -7.8299    0.6708 H   0  0  0  0  0  0  0  0  0  0  0  0
   -3.0602   -4.2982    0.9664 H   0  0  0  0  0  0  0  0  0  0  0  0
   -4.7915   -4.5999    1.2791 H   0  0  0  0  0  0  0  0  0  0  0  0
   -3.9395   -5.4147   -0.0636 H   0  0  0  0  0  0  0  0  0  0  0  0
    0.2177   -5.7718    2.2514 H   0  0  0  0  0  0  0  0  0  0  0  0
    1.5321   -3.6850    2.5634 H   0  0  0  0  0  0  0  0  0  0  0  0
    1.5204   -1.4691    3.2102 H   0  0  0  0  0  0  0  0  0  0  0  0
    1.2002   -0.3003    1.1595 H   0  0  0  0  0  0  0  0  0  0  0  0
    3.2869    2.9693    0.4210 H   0  0  0  0  0  0  0  0  0  0  0  0
    3.5351    1.2405    0.1165 H   0  0  0  0  0  0  0  0  0  0  0  0
    2.4055    1.7735    1.3907 H   0  0  0  0  0  0  0  0  0  0  0  0
    3.6105    1.8978   -3.1961 H   0  0  0  0  0  0  0  0  0  0  0  0
    5.7852    5.5453   -2.4585 H   0  0  0  0  0  0  0  0  0  0  0  0
    8.0359    5.6046   -3.4723 H   0  0  0  0  0  0  0  0  0  0  0  0
    8.7881    3.4899   -6.5097 H   0  0  0  0  0  0  0  0  0  0  0  0
    9.0618    1.8476   -5.8865 H   0  0  0  0  0  0  0  0  0  0  0  0
   10.4484    2.8568   -6.3530 H   0  0  0  0  0  0  0  0  0  0  0  0
    9.5557    5.5289   -5.1595 H   0  0  0  0  0  0  0  0  0  0  0  0
   11.1615    4.7889   -4.9960 H   0  0  0  0  0  0  0  0  0  0  0  0
   10.2797    5.3058   -3.5443 H   0  0  0  0  0  0  0  0  0  0  0  0
   10.1061    1.5265   -3.5449 H   0  0  0  0  0  0  0  0  0  0  0  0
   10.5401    2.9501   -2.5727 H   0  0  0  0  0  0  0  0  0  0  0  0
   11.4827    2.5401   -4.0307 H   0  0  0  0  0  0  0  0  0  0  0  0
    7.8779    1.3266   -3.9890 H   0  0  0  0  0  0  0  0  0  0  0  0
    5.6529    1.2863   -2.9902 H   0  0  0  0  0  0  0  0  0  0  0  0
    1.2820    2.6474   -3.9851 H   0  0  0  0  0  0  0  0  0  0  0  0
   -1.1281    2.3516   -3.3571 H   0  0  0  0  0  0  0  0  0  0  0  0
   -1.7301    1.8745   -1.0124 H   0  0  0  0  0  0  0  0  0  0  0  0
   -1.7056    2.8664    1.2702 H   0  0  0  0  0  0  0  0  0  0  0  0
   -3.5766    2.2941    2.7444 H   0  0  0  0  0  0  0  0  0  0  0  0
   -2.5013    3.3023    3.7904 H   0  0  0  0  0  0  0  0  0  0  0  0
   -3.0759    1.7165    4.3819 H   0  0  0  0  0  0  0  0  0  0  0  0
   -1.9446   -1.7815    4.2088 H   0  0  0  0  0  0  0  0  0  0  0  0
   -4.7178   -0.6957    4.1662 H   0  0  0  0  0  0  0  0  0  0  0  0
   -3.7648   -2.0696    1.5658 H   0  0  0  0  0  0  0  0  0  0  0  0
   -4.0320   -0.2351    1.8299 H   0  0  0  0  0  0  0  0  0  0  0  0
   -6.0888    0.8623   -1.1423 H   0  0  0  0  0  0  0  0  0  0  0  0
   -5.5326   -0.2179    0.1391 H   0  0  0  0  0  0  0  0  0  0  0  0
   -2.6288    0.0630   -0.5604 H   0  0  0  0  0  0  0  0  0  0  0  0
   -1.4952   -2.0465    0.9058 H   0  0  0  0  0  0  0  0  0  0  0  0
   -0.6397   -1.2694   -0.4452 H   0  0  0  0  0  0  0  0  0  0  0  0
   -0.8747   -3.0546   -0.4240 H   0  0  0  0  0  0  0  0  0  0  0  0
   -3.9039    2.1485   -2.0209 H   0  0  0  0  0  0  0  0  0  0  0  0
   -4.7216    2.6318   -4.6493 H   0  0  0  0  0  0  0  0  0  0  0  0
   -3.0845    1.9896   -4.8718 H   0  0  0  0  0  0  0  0  0  0  0  0
   -3.3362    3.4720   -3.8943 H   0  0  0  0  0  0  0  0  0  0  0  0
  2  1  2  0  0  0  0
  3 58  1  0  0  0  0
  3  2  1  0  0  0  0
  4 43  1  0  0  0  0
  4  3  1  0  0  0  0
  5  4  2  0  0  0  0
  6  5  1  0  0  0  0
  6 10  2  0  0  0  0
  7  6  1  0  0  0  0
  8 59  1  0  0  0  0
  8  7  1  0  0  0  0
  8 60  1  0  0  0  0
  9 63  1  0  0  0  0
  9  7  1  0  0  0  0
 11 12  2  0  0  0  0
 11  5  1  0  0  0  0
 12 13  1  0  0  0  0
 13 14  1  0  0  0  0
 13 43  2  0  0  0  0
 15 14  1  0  0  0  0
 15 41  1  0  0  0  0
 16 15  2  0  0  0  0
 17 16  1  0  0  0  0
 17 38  2  0  0  0  0
 18 17  1  0  0  0  0
 19 18  1  0  0  0  0
 19 20  1  0  0  0  0
 20 69  1  0  0  0  0
 20 71  1  0  0  0  0
 21 19  2  0  0  0  0
 22 23  1  0  0  0  0
 22 21  1  0  0  0  0
 23 34  2  0  0  0  0
 24 23  1  0  0  0  0
 25 24  1  0  0  0  0
 25 73  1  0  0  0  0
 26 25  2  0  0  0  0
 27 32  2  0  0  0  0
 27 26  1  0  0  0  0
 28 27  1  0  0  0  0
 28 31  1  0  0  0  0
 29 28  1  0  0  0  0
 30 28  1  0  0  0  0
 30 80  1  0  0  0  0
 31 81  1  0  0  0  0
 31 82  1  0  0  0  0
 32 33  1  0  0  0  0
 33 85  1  0  0  0  0
 33 24  2  0  0  0  0
 35 36  2  0  0  0  0
 35 21  1  0  0  0  0
 36 37  1  0  0  0  0
 37 88  1  0  0  0  0
 37 18  2  0  0  0  0
 38 39  1  0  0  0  0
 39 40  1  0  0  0  0
 39 41  1  0  0  0  0
 40 91  1  0  0  0  0
 40 92  1  0  0  0  0
 41 42  2  0  0  0  0
 43 93  1  0  0  0  0
 44  2  1  0  0  0  0
 44 94  1  0  0  0  0
 45 44  2  0  0  0  0
 47 98  1  0  0  0  0
 47 46  1  0  0  0  0
 48 49  1  6  0  0  0
 48 50  1  0  0  0  0
 48 47  1  0  0  0  0
 50 51  1  0  0  0  0
 50 99  1  0  0  0  0
 51 52  1  0  0  0  0
 52100  1  0  0  0  0
 53 51  2  0  0  0  0
 54 55  1  0  0  0  0
 54 48  1  0  0  0  0
 55103  1  0  0  0  0
 56106  1  0  0  0  0
 56 55  1  0  0  0  0
 57 54  2  0  0  0  0
 61  8  1  0  0  0  0
 62  9  1  0  0  0  0
 64  9  1  0  0  0  0
 65 11  1  0  0  0  0
 66 12  1  0  0  0  0
 67 14  1  0  0  0  0
 68 16  1  0  0  0  0
 70 20  1  0  0  0  0
 72 22  1  0  0  0  0
 74 26  1  0  0  0  0
 75 29  1  0  0  0  0
 76 29  1  0  0  0  0
 77 29  1  0  0  0  0
 78 30  1  0  0  0  0
 79 30  1  0  0  0  0
 83 31  1  0  0  0  0
 84 32  1  0  0  0  0
 86 35  1  0  0  0  0
 87 36  1  0  0  0  0
 89 38  1  0  0  0  0
 90 40  1  0  0  0  0
 95 45  1  0  0  0  0
 96 45  1  0  0  0  0
 97 47  1  0  0  0  0
101 52  1  0  0  0  0
102 52  1  0  0  0  0
104 56  1  0  0  0  0
105 56  1  0  0  0  0
M  END
