-1 1
 OpenBabel05232414493D

117120  0  0  1  0  0  0  0  0999 V2000
    2.9549    5.5270    4.0657 O   0  0  0  0  0  0  0  0  0  0  0  0
    2.2638    6.5420    3.9331 C   0  0  0  0  0  0  0  0  0  0  0  0
    2.4433    7.5308    4.9110 N   0  0  0  0  0  0  0  0  0  0  0  0
    1.7234    8.6673    5.2600 C   0  0  0  0  0  0  0  0  0  0  0  0
    2.3541    9.6831    6.0197 C   0  0  0  0  0  0  0  0  0  0  0  0
    3.7471    9.5843    6.5961 C   0  0  0  0  0  0  0  0  0  0  0  0
    4.7838    9.2873    5.7595 N   0  0  0  0  0  0  0  0  0  0  0  0
    6.1170    9.1231    6.3256 C   0  0  0  0  0  0  0  0  0  0  0  0
    6.8302    7.9394    5.6782 C   0  0  0  0  0  0  0  0  0  0  0  0
    6.8733    8.0771    4.1590 C   0  0  0  0  0  0  0  0  0  0  0  0
    5.4574    8.2866    3.6198 C   0  0  0  0  0  0  0  0  0  0  0  0
    4.7727    9.4573    4.3068 C   0  0  0  0  0  0  0  0  0  0  0  0
    7.7241    9.1648    3.8647 O   0  0  0  0  0  0  0  0  0  0  0  0
    8.2060    9.1770    2.5467 C   0  0  0  0  0  0  0  0  0  0  0  0
    3.9024    9.7594    7.7960 O   0  0  0  0  0  0  0  0  0  0  0  0
    1.6059   10.7934    6.4132 C   0  0  0  0  0  0  0  0  0  0  0  0
    0.2770   10.9609    6.0492 C   0  0  0  0  0  0  0  0  0  0  0  0
   -0.3597    9.9410    5.3296 C   0  0  0  0  0  0  0  0  0  0  0  0
   -1.7077   10.0209    4.9605 N   0  0  0  0  0  0  0  0  0  0  0  0
   -2.7700   10.4346    5.7187 C   0  0  0  0  0  0  0  0  0  0  0  0
   -2.7559   10.9207    6.9998 C   0  0  0  0  0  0  0  0  0  0  0  0
   -3.9733   11.2843    7.6619 C   0  0  0  0  0  0  0  0  0  0  0  0
   -3.9568   11.8327    9.0462 C   0  0  0  0  0  0  0  0  0  0  0  0
   -3.3442   11.1375   10.1063 C   0  0  0  0  0  0  0  0  0  0  0  0
   -2.7637    9.7552    9.9258 C   0  0  0  0  0  0  0  0  0  0  0  0
   -3.3126   11.7400   11.3845 C   0  0  0  0  0  0  0  0  0  0  0  0
   -2.6375   11.0422   12.4043 N   0  0  0  0  0  0  0  0  0  0  0  0
   -2.6169   11.2795   13.7539 C   0  0  0  0  0  0  0  0  0  0  0  0
   -1.8059   10.2899   14.5491 C   0  0  0  0  0  0  0  0  0  0  0  0
   -1.5082    8.9950   14.1212 C   0  0  0  0  0  0  0  0  0  0  0  0
   -0.7563    8.1342   14.9202 C   0  0  0  0  0  0  0  0  0  0  0  0
   -0.2784    8.5343   16.1720 C   0  0  0  0  0  0  0  0  0  0  0  0
    0.5625    7.6211   17.0738 C   0  0  0  0  0  0  0  0  0  0  0  0
   -0.1705    7.4169   18.4126 C   0  0  0  0  0  0  0  0  0  0  0  0
    0.8038    6.2451   16.4405 C   0  0  0  0  0  0  0  0  0  0  0  0
    1.9292    8.2843   17.3270 C   0  0  0  0  0  0  0  0  0  0  0  0
   -0.6000    9.8337   16.5973 C   0  0  0  0  0  0  0  0  0  0  0  0
   -1.3533   10.6925   15.8098 C   0  0  0  0  0  0  0  0  0  0  0  0
   -3.1802   12.2091   14.2978 O   0  0  0  0  0  0  0  0  0  0  0  0
   -3.9277   12.9756   11.6142 C   0  0  0  0  0  0  0  0  0  0  0  0
   -4.5588   13.6276   10.5607 C   0  0  0  0  0  0  0  0  0  0  0  0
   -4.5623   13.0735    9.2870 C   0  0  0  0  0  0  0  0  0  0  0  0
   -5.1470   11.1455    6.9872 C   0  0  0  0  0  0  0  0  0  0  0  0
   -5.1793   10.6550    5.7004 N   0  0  0  0  0  0  0  0  0  0  0  0
   -6.4401   10.4848    4.9982 C   0  0  0  0  0  0  0  0  0  0  0  0
   -4.0498   10.2686    5.0083 C   0  0  0  0  0  0  0  0  0  0  0  0
   -4.1216    9.8034    3.8763 O   0  0  0  0  0  0  0  0  0  0  0  0
    0.3614    8.8054    4.9552 C   0  0  0  0  0  0  0  0  0  0  0  0
    1.3376    6.7823    2.8516 C   0  0  0  0  0  0  0  0  0  0  0  0
    0.8329    5.7598    2.0909 C   0  0  0  0  0  0  0  0  0  0  0  0
    2.0267    4.9806   -0.0994 S   0  0  0  0  0  1  0  0  0  0  0  0
    3.5540    4.5889    0.8056 C   0  0  0  0  0  0  0  0  0  0  0  0
    4.4899    5.8027    0.9900 C   0  0  2  0  0  0  0  0  0  0  0  0
    3.9874    6.5309    1.6484 H   0  0  0  0  0  0  0  0  0  0  0  0
    4.7431    6.3949   -0.2976 N   0  0  0  0  0  0  0  0  0  0  0  0
    5.3486    7.5824   -0.4770 C   0  0  0  0  0  0  0  0  0  0  0  0
    5.4491    8.0430   -1.9199 C   0  0  0  0  0  0  0  0  0  0  0  0
    5.8254    8.2531    0.4293 O   0  0  0  0  0  0  0  0  0  0  0  0
    5.7858    5.3371    1.6682 C   0  0  0  0  0  0  0  0  0  0  0  0
    5.6022    4.9930    2.9727 N   0  0  0  0  0  0  0  0  0  0  0  0
    6.6512    4.4176    3.7673 C   0  0  0  0  0  0  0  0  0  0  0  0
    6.8528    5.2368    1.0903 O   0  0  0  0  0  0  0  0  0  0  0  0
    3.2778    7.3513    5.4593 H   0  0  0  0  0  0  0  0  0  0  0  0
    6.0080    8.9961    7.4087 H   0  0  0  0  0  0  0  0  0  0  0  0
    6.7043   10.0418    6.1498 H   0  0  0  0  0  0  0  0  0  0  0  0
    6.3003    7.0075    5.9360 H   0  0  0  0  0  0  0  0  0  0  0  0
    7.8560    7.8665    6.0704 H   0  0  0  0  0  0  0  0  0  0  0  0
    7.2887    7.1546    3.7115 H   0  0  0  0  0  0  0  0  0  0  0  0
    4.8889    7.3638    3.7987 H   0  0  0  0  0  0  0  0  0  0  0  0
    5.4771    8.4270    2.5298 H   0  0  0  0  0  0  0  0  0  0  0  0
    3.7422    9.5719    3.9534 H   0  0  0  0  0  0  0  0  0  0  0  0
    5.3120   10.3905    4.0638 H   0  0  0  0  0  0  0  0  0  0  0  0
    7.4028    9.2006    1.7921 H   0  0  0  0  0  0  0  0  0  0  0  0
    8.8234    8.2814    2.3386 H   0  0  0  0  0  0  0  0  0  0  0  0
    8.8362   10.0717    2.4377 H   0  0  0  0  0  0  0  0  0  0  0  0
    2.1024   11.5554    7.0173 H   0  0  0  0  0  0  0  0  0  0  0  0
   -0.2528   11.8777    6.3064 H   0  0  0  0  0  0  0  0  0  0  0  0
   -2.0019    9.5339    4.1179 H   0  0  0  0  0  0  0  0  0  0  0  0
   -1.8142   11.0320    7.5354 H   0  0  0  0  0  0  0  0  0  0  0  0
   -3.0680    9.3102    8.9720 H   0  0  0  0  0  0  0  0  0  0  0  0
   -1.6596    9.7569    9.9366 H   0  0  0  0  0  0  0  0  0  0  0  0
   -3.1092    9.0785   10.7243 H   0  0  0  0  0  0  0  0  0  0  0  0
   -2.0331   10.2987   12.0857 H   0  0  0  0  0  0  0  0  0  0  0  0
   -1.8792    8.6180   13.1645 H   0  0  0  0  0  0  0  0  0  0  0  0
   -0.5514    7.1318   14.5448 H   0  0  0  0  0  0  0  0  0  0  0  0
   -1.1555    6.9519   18.2536 H   0  0  0  0  0  0  0  0  0  0  0  0
   -0.3292    8.3675   18.9428 H   0  0  0  0  0  0  0  0  0  0  0  0
    0.4166    6.7597   19.0736 H   0  0  0  0  0  0  0  0  0  0  0  0
   -0.1390    5.7075   16.2571 H   0  0  0  0  0  0  0  0  0  0  0  0
    1.4107    5.6261   17.1185 H   0  0  0  0  0  0  0  0  0  0  0  0
    1.3490    6.3227   15.4876 H   0  0  0  0  0  0  0  0  0  0  0  0
    1.8257    9.2583   17.8277 H   0  0  0  0  0  0  0  0  0  0  0  0
    2.4670    8.4480   16.3808 H   0  0  0  0  0  0  0  0  0  0  0  0
    2.5527    7.6424   17.9693 H   0  0  0  0  0  0  0  0  0  0  0  0
   -0.2536   10.1884   17.5708 H   0  0  0  0  0  0  0  0  0  0  0  0
   -1.6065   11.6964   16.1552 H   0  0  0  0  0  0  0  0  0  0  0  0
   -3.9021   13.4032   12.6132 H   0  0  0  0  0  0  0  0  0  0  0  0
   -5.0346   14.5947   10.7375 H   0  0  0  0  0  0  0  0  0  0  0  0
   -5.0192   13.6098    8.4527 H   0  0  0  0  0  0  0  0  0  0  0  0
   -6.1113   11.3980    7.4291 H   0  0  0  0  0  0  0  0  0  0  0  0
   -6.4302   11.0533    4.0581 H   0  0  0  0  0  0  0  0  0  0  0  0
   -7.2588   10.8363    5.6369 H   0  0  0  0  0  0  0  0  0  0  0  0
   -6.5944    9.4271    4.7427 H   0  0  0  0  0  0  0  0  0  0  0  0
   -0.1537    7.9928    4.4440 H   0  0  0  0  0  0  0  0  0  0  0  0
    1.0517    7.8128    2.6342 H   0  0  0  0  0  0  0  0  0  0  0  0
    0.0031    5.9454    1.4127 H   0  0  0  0  0  0  0  0  0  0  0  0
    0.9958    4.7253    2.3943 H   0  0  0  0  0  0  0  0  0  0  0  0
    4.1160    3.8001    0.2767 H   0  0  0  0  0  0  0  0  0  0  0  0
    3.3083    4.2030    1.8045 H   0  0  0  0  0  0  0  0  0  0  0  0
    4.1294    6.0426   -1.0302 H   0  0  0  0  0  0  0  0  0  0  0  0
    5.2985    9.1297   -1.9543 H   0  0  0  0  0  0  0  0  0  0  0  0
    4.7281    7.5455   -2.5833 H   0  0  0  0  0  0  0  0  0  0  0  0
    6.4659    7.8290   -2.2821 H   0  0  0  0  0  0  0  0  0  0  0  0
    4.6702    5.0956    3.3807 H   0  0  0  0  0  0  0  0  0  0  0  0
    6.4697    3.3507    3.9850 H   0  0  0  0  0  0  0  0  0  0  0  0
    6.7625    4.9472    4.7276 H   0  0  0  0  0  0  0  0  0  0  0  0
    7.5895    4.5021    3.2029 H   0  0  0  0  0  0  0  0  0  0  0  0
  2  1  2  0  0  0  0
  2  3  1  0  0  0  0
  3  4  1  0  0  0  0
  3 63  1  0  0  0  0
  4  5  1  0  0  0  0
  5 16  2  0  0  0  0
  5  6  1  0  0  0  0
  6 15  2  0  0  0  0
  7  8  1  0  0  0  0
  7  6  1  0  0  0  0
  8 64  1  0  0  0  0
  9 66  1  0  0  0  0
  9 67  1  0  0  0  0
  9  8  1  0  0  0  0
 10  9  1  0  0  0  0
 11 69  1  0  0  0  0
 11 10  1  0  0  0  0
 11 12  1  0  0  0  0
 12  7  1  0  0  0  0
 13 10  1  0  0  0  0
 14 13  1  0  0  0  0
 16 76  1  0  0  0  0
 17 77  1  0  0  0  0
 17 16  1  0  0  0  0
 18 17  2  0  0  0  0
 19 18  1  0  0  0  0
 19 20  1  0  0  0  0
 20 21  2  0  0  0  0
 21 79  1  0  0  0  0
 21 22  1  0  0  0  0
 22 23  1  0  0  0  0
 23 42  2  0  0  0  0
 23 24  1  0  0  0  0
 24 26  2  0  0  0  0
 25 81  1  0  0  0  0
 25 24  1  0  0  0  0
 25 82  1  0  0  0  0
 26 40  1  0  0  0  0
 26 27  1  0  0  0  0
 27 28  1  0  0  0  0
 28 39  2  0  0  0  0
 28 29  1  0  0  0  0
 29 38  1  0  0  0  0
 30 29  2  0  0  0  0
 30 31  1  0  0  0  0
 31 32  2  0  0  0  0
 32 37  1  0  0  0  0
 32 33  1  0  0  0  0
 33 36  1  0  0  0  0
 33 34  1  0  0  0  0
 34 87  1  0  0  0  0
 34 88  1  0  0  0  0
 35 33  1  0  0  0  0
 35 90  1  0  0  0  0
 36 92  1  0  0  0  0
 36 94  1  0  0  0  0
 37 95  1  0  0  0  0
 38 96  1  0  0  0  0
 38 37  2  0  0  0  0
 40 97  1  0  0  0  0
 41 98  1  0  0  0  0
 41 40  2  0  0  0  0
 42 41  1  0  0  0  0
 43100  1  0  0  0  0
 43 22  2  0  0  0  0
 44 43  1  0  0  0  0
 45102  1  0  0  0  0
 45 44  1  0  0  0  0
 46 44  1  0  0  0  0
 46 20  1  0  0  0  0
 47 46  2  0  0  0  0
 48  4  2  0  0  0  0
 48 18  1  0  0  0  0
 49  2  1  0  0  0  0
 50107  1  0  0  0  0
 50 49  2  0  0  0  0
 51 52  1  0  0  0  0
 52 53  1  0  0  0  0
 52109  1  0  0  0  0
 53 54  1  1  0  0  0
 53 59  1  0  0  0  0
 55 53  1  0  0  0  0
 56 55  1  0  0  0  0
 56 58  2  0  0  0  0
 57 56  1  0  0  0  0
 59 60  1  0  0  0  0
 60114  1  0  0  0  0
 60 61  1  0  0  0  0
 61115  1  0  0  0  0
 61116  1  0  0  0  0
 62 59  2  0  0  0  0
 65  8  1  0  0  0  0
 68 10  1  0  0  0  0
 70 11  1  0  0  0  0
 71 12  1  0  0  0  0
 72 12  1  0  0  0  0
 73 14  1  0  0  0  0
 74 14  1  0  0  0  0
 75 14  1  0  0  0  0
 78 19  1  0  0  0  0
 80 25  1  0  0  0  0
 83 27  1  0  0  0  0
 84 30  1  0  0  0  0
 85 31  1  0  0  0  0
 86 34  1  0  0  0  0
 89 35  1  0  0  0  0
 91 35  1  0  0  0  0
 93 36  1  0  0  0  0
 99 42  1  0  0  0  0
101 45  1  0  0  0  0
103 45  1  0  0  0  0
104 48  1  0  0  0  0
105 49  1  0  0  0  0
106 50  1  0  0  0  0
108 52  1  0  0  0  0
110 55  1  0  0  0  0
111 57  1  0  0  0  0
112 57  1  0  0  0  0
113 57  1  0  0  0  0
117 61  1  0  0  0  0
M  END
