-1 1
 OpenBabel05192410563D

117121  0  0  1  0  0  0  0  0999 V2000
    1.4318   -3.1436   -2.4393 O   0  0  0  0  0  0  0  0  0  0  0  0
    0.9232   -2.0508   -2.8463 C   0  0  0  0  0  0  0  0  0  0  0  0
    1.2040   -0.9462   -1.9737 N   0  0  0  0  0  0  0  0  0  0  0  0
    0.5261    0.2094   -1.6797 C   0  0  0  0  0  0  0  0  0  0  0  0
    1.1574    1.2192   -0.9012 C   0  0  0  0  0  0  0  0  0  0  0  0
    2.5509    1.1029   -0.3373 C   0  0  0  0  0  0  0  0  0  0  0  0
    3.5764    0.8419   -1.2035 N   0  0  0  0  0  0  0  0  0  0  0  0
    4.9211    0.6486   -0.6846 C   0  0  0  0  0  0  0  0  0  0  0  0
    5.5582   -0.5929   -1.3059 C   0  0  0  0  0  0  0  0  0  0  0  0
    5.5379   -0.5395   -2.8310 C   0  0  1  0  0  0  0  0  0  0  0  0
    4.1148   -0.2700   -3.3215 C   0  0  0  0  0  0  0  0  0  0  0  0
    3.5169    0.9597   -2.6559 C   0  0  0  0  0  0  0  0  0  0  0  0
    6.4409    0.4754   -3.2298 O   0  0  0  0  0  0  0  0  0  0  0  0
    6.8218    0.4040   -4.5731 C   0  0  0  0  0  0  0  0  0  0  0  0
    2.7380    1.2522    0.8624 O   0  0  0  0  0  0  0  0  0  0  0  0
    0.4331    2.3516   -0.5304 C   0  0  0  0  0  0  0  0  0  0  0  0
   -0.8753    2.5653   -0.9454 C   0  0  0  0  0  0  0  0  0  0  0  0
   -1.5025    1.5734   -1.7121 C   0  0  0  0  0  0  0  0  0  0  0  0
   -2.8361    1.7143   -2.1393 N   0  0  0  0  0  0  0  0  0  0  0  0
   -3.9170    2.0104   -1.3560 C   0  0  0  0  0  0  0  0  0  0  0  0
   -3.9170    2.3882   -0.0380 C   0  0  0  0  0  0  0  0  0  0  0  0
   -5.1436    2.6276    0.6609 C   0  0  0  0  0  0  0  0  0  0  0  0
   -5.1379    3.0394    2.0914 C   0  0  0  0  0  0  0  0  0  0  0  0
   -4.4469    2.2959    3.0680 C   0  0  0  0  0  0  0  0  0  0  0  0
   -3.7711    0.9841    2.7463 C   0  0  0  0  0  0  0  0  0  0  0  0
   -4.4243    2.7772    4.3965 C   0  0  0  0  0  0  0  0  0  0  0  0
   -3.6601    2.0468    5.3276 N   0  0  0  0  0  0  0  0  0  0  0  0
   -3.6327    2.1398    6.6935 C   0  0  0  0  0  0  0  0  0  0  0  0
   -2.7024    1.1642    7.3671 C   0  0  0  0  0  0  0  0  0  0  0  0
   -2.2621   -0.0284    6.7907 C   0  0  0  0  0  0  0  0  0  0  0  0
   -1.4017   -0.8810    7.4815 C   0  0  0  0  0  0  0  0  0  0  0  0
   -0.9540   -0.5751    8.7704 C   0  0  0  0  0  0  0  0  0  0  0  0
    0.0045   -1.4795    9.5567 C   0  0  0  0  0  0  0  0  0  0  0  0
   -0.6752   -1.9221   10.8656 C   0  0  0  0  0  0  0  0  0  0  0  0
    0.3954   -2.7349    8.7667 C   0  0  0  0  0  0  0  0  0  0  0  0
    1.2878   -0.6918    9.8797 C   0  0  0  0  0  0  0  0  0  0  0  0
   -1.4193    0.6189    9.3456 C   0  0  0  0  0  0  0  0  0  0  0  0
   -2.2800    1.4684    8.6653 C   0  0  0  0  0  0  0  0  0  0  0  0
   -4.2778    2.9404    7.3423 O   0  0  0  0  0  0  0  0  0  0  0  0
   -5.1281    3.9308    4.7587 C   0  0  0  0  0  0  0  0  0  0  0  0
   -5.8376    4.6269    3.7865 C   0  0  0  0  0  0  0  0  0  0  0  0
   -5.8306    4.1992    2.4647 C   0  0  0  0  0  0  0  0  0  0  0  0
   -6.3161    2.4917   -0.0171 C   0  0  0  0  0  0  0  0  0  0  0  0
   -6.3339    2.1221   -1.3449 N   0  0  0  0  0  0  0  0  0  0  0  0
   -7.5902    1.9543   -2.0540 C   0  0  0  0  0  0  0  0  0  0  0  0
   -5.1929    1.8545   -2.0750 C   0  0  0  0  0  0  0  0  0  0  0  0
   -5.2560    1.4947   -3.2457 O   0  0  0  0  0  0  0  0  0  0  0  0
   -0.8107    0.4191   -2.0705 C   0  0  0  0  0  0  0  0  0  0  0  0
    0.2107   -1.8413   -4.0079 C   0  0  0  0  0  3  0  0  0  0  0  0
   -0.2721   -2.9713   -4.8383 C   0  0  0  0  0  0  0  0  0  0  0  0
    0.7536   -3.5331   -6.2980 S   0  0  0  0  0  0  0  0  0  0  0  0
    2.2117   -4.1529   -5.4128 C   0  0  0  0  0  0  0  0  0  0  0  0
    3.3702   -3.1522   -5.3269 C   0  0  2  0  0  0  0  0  0  0  0  0
    2.9652   -2.1835   -5.0023 H   0  0  0  0  0  0  0  0  0  0  0  0
    3.9994   -2.9632   -6.6114 N   0  0  0  0  0  0  0  0  0  0  0  0
    4.4535   -1.7641   -7.0597 C   0  0  0  0  0  0  0  0  0  0  0  0
    5.3938   -1.8559   -8.2479 C   0  0  0  0  0  0  0  0  0  0  0  0
    4.1600   -0.6908   -6.5636 O   0  0  0  0  0  0  0  0  0  0  0  0
    4.4359   -3.6261   -4.3150 C   0  0  0  0  0  0  0  0  0  0  0  0
    4.0067   -3.7419   -3.0482 N   0  0  0  0  0  0  0  0  0  0  0  0
    4.8900   -4.2127   -2.0150 C   0  0  0  0  0  0  0  0  0  0  0  0
    5.5816   -3.8820   -4.6719 O   0  0  0  0  0  0  0  0  0  0  0  0
    1.9951   -1.1588   -1.3786 H   0  0  0  0  0  0  0  0  0  0  0  0
    4.8505    0.5706    0.4065 H   0  0  0  0  0  0  0  0  0  0  0  0
    5.5373    1.5339   -0.9240 H   0  0  0  0  0  0  0  0  0  0  0  0
    5.0030   -1.4874   -0.9816 H   0  0  0  0  0  0  0  0  0  0  0  0
    6.5977   -0.6945   -0.9578 H   0  0  0  0  0  0  0  0  0  0  0  0
    5.8834   -1.5093   -3.2391 H   0  0  0  0  0  0  0  0  0  0  0  0
    3.5012   -1.1457   -3.0749 H   0  0  0  0  0  0  0  0  0  0  0  0
    4.0833   -0.1674   -4.4149 H   0  0  0  0  0  0  0  0  0  0  0  0
    2.4815    1.1089   -2.9782 H   0  0  0  0  0  0  0  0  0  0  0  0
    4.0913    1.8558   -2.9545 H   0  0  0  0  0  0  0  0  0  0  0  0
    5.9690    0.4839   -5.2700 H   0  0  0  0  0  0  0  0  0  0  0  0
    7.3410   -0.5501   -4.7947 H   0  0  0  0  0  0  0  0  0  0  0  0
    7.5172    1.2341   -4.7655 H   0  0  0  0  0  0  0  0  0  0  0  0
    0.9344    3.0979    0.0900 H   0  0  0  0  0  0  0  0  0  0  0  0
   -1.3910    3.4954   -0.7053 H   0  0  0  0  0  0  0  0  0  0  0  0
   -3.1013    1.2714   -3.0146 H   0  0  0  0  0  0  0  0  0  0  0  0
   -2.9741    2.5016    0.4950 H   0  0  0  0  0  0  0  0  0  0  0  0
   -4.0840    0.5967    1.7705 H   0  0  0  0  0  0  0  0  0  0  0  0
   -2.6711    1.0723    2.7109 H   0  0  0  0  0  0  0  0  0  0  0  0
   -4.0266    0.2192    3.4975 H   0  0  0  0  0  0  0  0  0  0  0  0
   -2.9918    1.4079    4.9216 H   0  0  0  0  0  0  0  0  0  0  0  0
   -2.5994   -0.3337    5.7967 H   0  0  0  0  0  0  0  0  0  0  0  0
   -1.0864   -1.8005    6.9890 H   0  0  0  0  0  0  0  0  0  0  0  0
   -1.6011   -2.4799   10.6573 H   0  0  0  0  0  0  0  0  0  0  0  0
   -0.9357   -1.0646   11.5034 H   0  0  0  0  0  0  0  0  0  0  0  0
   -0.0030   -2.5764   11.4433 H   0  0  0  0  0  0  0  0  0  0  0  0
   -0.4805   -3.3564    8.5258 H   0  0  0  0  0  0  0  0  0  0  0  0
    1.0831   -3.3508    9.3659 H   0  0  0  0  0  0  0  0  0  0  0  0
    0.9102   -2.4839    7.8271 H   0  0  0  0  0  0  0  0  0  0  0  0
    1.0791    0.1990   10.4905 H   0  0  0  0  0  0  0  0  0  0  0  0
    1.7854   -0.3577    8.9566 H   0  0  0  0  0  0  0  0  0  0  0  0
    1.9942   -1.3244   10.4405 H   0  0  0  0  0  0  0  0  0  0  0  0
   -1.1017    0.8969   10.3533 H   0  0  0  0  0  0  0  0  0  0  0  0
   -2.6432    2.3891    9.1252 H   0  0  0  0  0  0  0  0  0  0  0  0
   -5.1081    4.2613    5.7942 H   0  0  0  0  0  0  0  0  0  0  0  0
   -6.3830    5.5312    4.0656 H   0  0  0  0  0  0  0  0  0  0  0  0
   -6.3480    4.7762    1.6954 H   0  0  0  0  0  0  0  0  0  0  0  0
   -7.2884    2.6483    0.4508 H   0  0  0  0  0  0  0  0  0  0  0  0
   -7.6190    2.6091   -2.9360 H   0  0  0  0  0  0  0  0  0  0  0  0
   -8.4200    2.2003   -1.3812 H   0  0  0  0  0  0  0  0  0  0  0  0
   -7.6926    0.9192   -2.4093 H   0  0  0  0  0  0  0  0  0  0  0  0
   -1.3170   -0.3657   -2.6321 H   0  0  0  0  0  0  0  0  0  0  0  0
   -0.0219   -0.8245   -4.3281 H   0  0  0  0  0  0  0  0  0  0  0  0
   -1.2343   -2.7386   -5.3218 H   0  0  0  0  0  0  0  0  0  0  0  0
   -0.4143   -3.8721   -4.2225 H   0  0  0  0  0  0  0  0  0  0  0  0
    2.5546   -5.0751   -5.9092 H   0  0  0  0  0  0  0  0  0  0  0  0
    1.8806   -4.4111   -4.3982 H   0  0  0  0  0  0  0  0  0  0  0  0
    4.4954   -3.7772   -6.9548 H   0  0  0  0  0  0  0  0  0  0  0  0
    5.3845   -0.8988   -8.7825 H   0  0  0  0  0  0  0  0  0  0  0  0
    5.1213   -2.6702   -8.9346 H   0  0  0  0  0  0  0  0  0  0  0  0
    6.4124   -2.0433   -7.8740 H   0  0  0  0  0  0  0  0  0  0  0  0
    3.0162   -3.5109   -2.8023 H   0  0  0  0  0  0  0  0  0  0  0  0
    5.1726   -5.2693   -2.1623 H   0  0  0  0  0  0  0  0  0  0  0  0
    4.3805   -4.1167   -1.0468 H   0  0  0  0  0  0  0  0  0  0  0  0
    5.8243   -3.6285   -1.9884 H   0  0  0  0  0  0  0  0  0  0  0  0
  2  1  2  0  0  0  0
  2  3  1  0  0  0  0
  3  4  1  0  0  0  0
  3 63  1  0  0  0  0
  4  5  1  0  0  0  0
  5 16  2  0  0  0  0
  5  6  1  0  0  0  0
  6 15  2  0  0  0  0
  7  8  1  0  0  0  0
  7  6  1  0  0  0  0
  8 64  1  0  0  0  0
  9 66  1  0  0  0  0
  9 67  1  0  0  0  0
  9  8  1  0  0  0  0
 10 68  1  6  0  0  0
 10  9  1  0  0  0  0
 11 69  1  0  0  0  0
 11 10  1  0  0  0  0
 11 12  1  0  0  0  0
 12  7  1  0  0  0  0
 13 10  1  0  0  0  0
 14 13  1  0  0  0  0
 16 76  1  0  0  0  0
 17 77  1  0  0  0  0
 17 16  1  0  0  0  0
 18 17  2  0  0  0  0
 19 18  1  0  0  0  0
 19 20  1  0  0  0  0
 20 21  2  0  0  0  0
 21 79  1  0  0  0  0
 21 22  1  0  0  0  0
 22 23  1  0  0  0  0
 23 42  2  0  0  0  0
 23 24  1  0  0  0  0
 24 26  2  0  0  0  0
 25 24  1  0  0  0  0
 25 82  1  0  0  0  0
 26 40  1  0  0  0  0
 26 27  1  0  0  0  0
 27 28  1  0  0  0  0
 28 39  2  0  0  0  0
 28 29  1  0  0  0  0
 29 38  1  0  0  0  0
 30 29  2  0  0  0  0
 30 31  1  0  0  0  0
 31 32  2  0  0  0  0
 32 37  1  0  0  0  0
 32 33  1  0  0  0  0
 33 36  1  0  0  0  0
 33 34  1  0  0  0  0
 34 88  1  0  0  0  0
 34 87  1  0  0  0  0
 35 90  1  0  0  0  0
 35 33  1  0  0  0  0
 36 94  1  0  0  0  0
 36 92  1  0  0  0  0
 37 95  1  0  0  0  0
 38 96  1  0  0  0  0
 38 37  2  0  0  0  0
 40 97  1  0  0  0  0
 41 98  1  0  0  0  0
 41 40  2  0  0  0  0
 42 41  1  0  0  0  0
 43100  1  0  0  0  0
 43 22  2  0  0  0  0
 44 43  1  0  0  0  0
 45102  1  0  0  0  0
 45 44  1  0  0  0  0
 46 20  1  0  0  0  0
 46 44  1  0  0  0  0
 47 46  2  0  0  0  0
 48 18  1  0  0  0  0
 48  4  2  0  0  0  0
 49  2  1  0  0  0  0
 50107  1  0  0  0  0
 50 49  1  0  0  0  0
 51 52  1  0  0  0  0
 51 50  1  0  0  0  0
 52 53  1  0  0  0  0
 52109  1  0  0  0  0
 53 54  1  1  0  0  0
 53 59  1  0  0  0  0
 55 53  1  0  0  0  0
 56 55  1  0  0  0  0
 56 58  2  0  0  0  0
 57113  1  0  0  0  0
 57 56  1  0  0  0  0
 59 60  1  0  0  0  0
 60114  1  0  0  0  0
 60 61  1  0  0  0  0
 61117  1  0  0  0  0
 61116  1  0  0  0  0
 62 59  2  0  0  0  0
 65  8  1  0  0  0  0
 70 11  1  0  0  0  0
 71 12  1  0  0  0  0
 72 12  1  0  0  0  0
 73 14  1  0  0  0  0
 74 14  1  0  0  0  0
 75 14  1  0  0  0  0
 78 19  1  0  0  0  0
 80 25  1  0  0  0  0
 81 25  1  0  0  0  0
 83 27  1  0  0  0  0
 84 30  1  0  0  0  0
 85 31  1  0  0  0  0
 86 34  1  0  0  0  0
 89 35  1  0  0  0  0
 91 35  1  0  0  0  0
 93 36  1  0  0  0  0
 99 42  1  0  0  0  0
101 45  1  0  0  0  0
103 45  1  0  0  0  0
104 48  1  0  0  0  0
105 49  1  0  0  0  0
106 50  1  0  0  0  0
108 52  1  0  0  0  0
110 55  1  0  0  0  0
111 57  1  0  0  0  0
112 57  1  0  0  0  0
115 61  1  0  0  0  0
M  END
