117
-1 1
O         1.431830   -3.143608   -2.439289
C         0.923224   -2.050809   -2.846322
N         1.203954   -0.946152   -1.973676
C         0.526121    0.209439   -1.679735
C         1.157383    1.219230   -0.901227
C         2.550897    1.102925   -0.337324
N         3.576358    0.841870   -1.203513
C         4.921133    0.648637   -0.684573
C         5.558233   -0.592877   -1.305939
C         5.537887   -0.539508   -2.830951
C         4.114771   -0.269960   -3.321521
C         3.516851    0.959720   -2.655942
O         6.440861    0.475380   -3.229755
C         6.821845    0.404047   -4.573056
O         2.738008    1.252170    0.862409
C         0.433082    2.351569   -0.530367
C        -0.875322    2.565321   -0.945394
C        -1.502546    1.573373   -1.712074
N        -2.836079    1.714266   -2.139350
C        -3.917049    2.010379   -1.355955
C        -3.917039    2.388195   -0.038032
C        -5.143640    2.627646    0.660879
C        -5.137916    3.039382    2.091420
C        -4.446861    2.295875    3.067973
C        -3.771123    0.984085    2.746313
C        -4.424263    2.777188    4.396499
N        -3.660147    2.046800    5.327615
C        -3.632671    2.139763    6.693536
C        -2.702391    1.164188    7.367131
C        -2.262149   -0.028419    6.790663
C        -1.401718   -0.881008    7.481544
C        -0.953968   -0.575073    8.770437
C         0.004519   -1.479484    9.556665
C        -0.675222   -1.922125   10.865591
C         0.395351   -2.734884    8.766739
C         1.287825   -0.691755    9.879713
C        -1.419324    0.618896    9.345638
C        -2.279989    1.468360    8.665266
O        -4.277846    2.940381    7.342340
C        -5.128064    3.930787    4.758737
C        -5.837628    4.626928    3.786461
C        -5.830637    4.199234    2.464746
C        -6.316096    2.491748   -0.017102
N        -6.333862    2.122141   -1.344861
C        -7.590206    1.954295   -2.054026
C        -5.192947    1.854472   -2.075022
O        -5.255992    1.494692   -3.245688
C        -0.810662    0.419078   -2.070506
C         0.210675   -1.841305   -4.007941
C        -0.272111   -2.971285   -4.838278
S         0.753562   -3.533113   -6.297989
C         2.211736   -4.152899   -5.412820
C         3.370187   -3.152166   -5.326917
H         2.965196   -2.183476   -5.002334
N         3.999409   -2.963223   -6.611436
C         4.453462   -1.764073   -7.059661
C         5.393753   -1.855897   -8.247901
O         4.159979   -0.690816   -6.563634
C         4.435948   -3.626107   -4.314965
N         4.006743   -3.741901   -3.048164
C         4.889959   -4.212733   -2.014959
O         5.581592   -3.882039   -4.671861
H         1.995090   -1.158766   -1.378552
H         4.850541    0.570595    0.406518
H         5.537317    1.533878   -0.923962
H         5.003000   -1.487402   -0.981567
H         6.597736   -0.694524   -0.957785
H         5.883355   -1.509298   -3.239145
H         3.501169   -1.145747   -3.074918
H         4.083343   -0.167369   -4.414863
H         2.481516    1.108911   -2.978165
H         4.091316    1.855799   -2.954515
H         5.968972    0.483873   -5.270014
H         7.340988   -0.550090   -4.794697
H         7.517243    1.234050   -4.765484
H         0.934442    3.097854    0.090033
H        -1.390976    3.495384   -0.705333
H        -3.101271    1.271417   -3.014649
H        -2.974100    2.501642    0.495009
H        -4.084003    0.596664    1.770525
H        -2.671098    1.072311    2.710914
H        -4.026597    0.219201    3.497460
H        -2.991789    1.407900    4.921604
H        -2.599404   -0.333745    5.796664
H        -1.086445   -1.800508    6.989036
H        -1.601139   -2.479880   10.657309
H        -0.935672   -1.064558   11.503410
H        -0.003046   -2.576359   11.443349
H        -0.480547   -3.356428    8.525756
H         1.083124   -3.350813    9.365862
H         0.910177   -2.483855    7.827063
H         1.079088    0.199009   10.490483
H         1.785382   -0.357674    8.956631
H         1.994150   -1.324360   10.440501
H        -1.101700    0.896911   10.353337
H        -2.643199    2.389117    9.125193
H        -5.108115    4.261289    5.794154
H        -6.382997    5.531241    4.065612
H        -6.348012    4.776181    1.695369
H        -7.288447    2.648285    0.450843
H        -7.619044    2.609096   -2.936023
H        -8.420047    2.200272   -1.381155
H        -7.692575    0.919166   -2.409296
H        -1.316995   -0.365742   -2.632113
H        -0.021945   -0.824547   -4.328149
H        -1.234288   -2.738592   -5.321754
H        -0.414272   -3.872135   -4.222541
H         2.554603   -5.075118   -5.909225
H         1.880588   -4.411064   -4.398167
H         4.495438   -3.777160   -6.954808
H         5.384516   -0.898840   -8.782532
H         5.121305   -2.670151   -8.934553
H         6.412443   -2.043326   -7.873999
H         3.016182   -3.510857   -2.802316
H         5.172594   -5.269251   -2.162280
H         4.380485   -4.116742   -1.046831
H         5.824292   -3.628471   -1.988382
