-1 1
 OpenBabel05192410563D

102106  0  0  1  0  0  0  0  0999 V2000
    1.0907    0.4446    3.9283 O   0  0  0  0  0  0  0  0  0  0  0  0
    0.5328   -0.2292    4.8061 C   0  0  0  0  0  0  0  0  0  0  0  0
   -0.5674   -1.0886    4.4578 N   0  0  0  0  0  0  0  0  0  0  0  0
   -1.0940   -1.4036    3.2348 C   0  0  0  0  0  0  0  0  0  0  0  0
   -2.1782   -2.3256    3.1370 C   0  0  0  0  0  0  0  0  0  0  0  0
   -2.8055   -2.9983    4.3174 C   0  0  0  0  0  0  0  0  0  0  0  0
   -3.1517   -2.1934    5.3896 N   0  0  0  0  0  0  0  0  0  0  0  0
   -3.6793   -2.8278    6.5844 C   0  0  0  0  0  0  0  0  0  0  0  0
   -3.3788   -1.9566    7.7973 C   0  0  0  0  0  0  0  0  0  0  0  0
   -3.8810   -0.6533    7.6262 O   0  0  0  0  0  0  0  0  0  0  0  0
   -3.2862   -0.0350    6.5085 C   0  0  0  0  0  0  0  0  0  0  0  0
   -3.5806   -0.8083    5.2334 C   0  0  0  0  0  0  0  0  0  0  0  0
   -2.9955   -4.2026    4.3525 O   0  0  0  0  0  0  0  0  0  0  0  0
   -2.6310   -2.7135    1.8735 C   0  0  0  0  0  0  0  0  0  0  0  0
   -2.1192   -2.1782    0.7020 C   0  0  0  0  0  0  0  0  0  0  0  0
   -1.1047   -1.2149    0.8020 C   0  0  0  0  0  0  0  0  0  0  0  0
   -0.4982   -0.6374   -0.3281 N   0  0  0  0  0  0  0  0  0  0  0  0
   -0.8930   -0.7219   -1.6452 C   0  0  0  0  0  0  0  0  0  0  0  0
    0.0068   -0.9611   -2.6521 C   0  0  0  0  0  0  0  0  0  0  0  0
   -0.3716   -0.9546   -4.0315 C   0  0  0  0  0  0  0  0  0  0  0  0
    0.6085   -1.2269   -5.1159 C   0  0  0  0  0  0  0  0  0  0  0  0
    1.7751   -0.4468   -5.2681 C   0  0  0  0  0  0  0  0  0  0  0  0
    2.0644    0.7408   -4.3874 C   0  0  0  0  0  0  0  0  0  0  0  0
    2.6671   -0.7729   -6.3058 C   0  0  0  0  0  0  0  0  0  0  0  0
    3.8489   -0.0032   -6.4645 N   0  0  0  0  0  0  0  0  0  0  0  0
    4.3953    0.4976   -7.6190 C   0  0  0  0  0  0  0  0  0  0  0  0
    3.4875    0.6884   -8.8071 C   0  0  0  0  0  0  0  0  0  0  0  0
    4.0636    0.5708  -10.0729 C   0  0  0  0  0  0  0  0  0  0  0  0
    3.2942    0.7871  -11.2135 C   0  0  0  0  0  0  0  0  0  0  0  0
    3.9015    0.5810  -12.5776 C   0  0  0  0  0  0  0  0  0  0  0  0
    5.2104    0.8443  -12.5878 F   0  0  0  0  0  0  0  0  0  0  0  0
    3.7536   -0.6850  -12.9917 F   0  0  0  0  0  0  0  0  0  0  0  0
    3.3264    1.3603  -13.5008 F   0  0  0  0  0  0  0  0  0  0  0  0
    1.9528    1.1556  -11.0975 C   0  0  0  0  0  0  0  0  0  0  0  0
    1.3861    1.3040   -9.8347 C   0  0  0  0  0  0  0  0  0  0  0  0
    2.1460    1.0661   -8.6924 C   0  0  0  0  0  0  0  0  0  0  0  0
    5.5650    0.8176   -7.6766 O   0  0  0  0  0  0  0  0  0  0  0  0
    2.4086   -1.8319   -7.1801 C   0  0  0  0  0  0  0  0  0  0  0  0
    1.2380   -2.5666   -7.0466 C   0  0  0  0  0  0  0  0  0  0  0  0
    0.3524   -2.2701   -6.0154 C   0  0  0  0  0  0  0  0  0  0  0  0
   -1.6855   -0.7427   -4.3239 C   0  0  0  0  0  0  0  0  0  0  0  0
   -2.6095   -0.5072   -3.3418 N   0  0  0  0  0  0  0  0  0  0  0  0
   -3.9906   -0.2091   -3.6814 C   0  0  0  0  0  0  0  0  0  0  0  0
   -2.2970   -0.4087   -1.9793 C   0  0  0  0  0  0  0  0  0  0  0  0
   -3.1571   -0.0801   -1.1852 O   0  0  0  0  0  0  0  0  0  0  0  0
   -0.5946   -0.8444    2.0430 C   0  0  0  0  0  0  0  0  0  0  0  0
    0.8351   -0.2740    6.1812 C   0  0  0  0  0  3  0  0  0  0  0  0
    1.9126    0.5032    6.7363 C   0  0  0  0  0  0  0  0  0  0  0  0
    1.4468    2.3584    7.3849 S   0  0  0  0  0  0  0  0  0  0  0  0
   -0.3407    2.3694    7.1599 C   0  0  0  0  0  0  0  0  0  0  0  0
   -1.1888    2.4728    8.4345 C   0  0  2  0  0  0  0  0  0  0  0  0
   -2.1645    2.9100    8.1639 H   0  0  0  0  0  0  0  0  0  0  0  0
   -0.5746    3.3887    9.3806 N   0  0  0  0  0  0  0  0  0  0  0  0
   -1.2591    4.1576   10.2456 C   0  0  0  0  0  0  0  0  0  0  0  0
   -0.4265    5.0971   11.0938 C   0  0  0  0  0  0  0  0  0  0  0  0
   -2.4823    4.1240   10.3556 O   0  0  0  0  0  0  0  0  0  0  0  0
   -1.5110    1.1262    9.1213 C   0  0  0  0  0  0  0  0  0  0  0  0
   -2.5138    1.2390   10.0275 N   0  0  0  0  0  0  0  0  0  0  0  0
   -3.0447    0.1076   10.7379 C   0  0  0  0  0  0  0  0  0  0  0  0
   -0.9400    0.0793    8.8761 O   0  0  0  0  0  0  0  0  0  0  0  0
   -0.9647   -1.5847    5.2445 H   0  0  0  0  0  0  0  0  0  0  0  0
   -3.2232   -3.8209    6.6838 H   0  0  0  0  0  0  0  0  0  0  0  0
   -4.7737   -2.9733    6.4916 H   0  0  0  0  0  0  0  0  0  0  0  0
   -2.2883   -1.9122    7.9817 H   0  0  0  0  0  0  0  0  0  0  0  0
   -3.8634   -2.3749    8.6921 H   0  0  0  0  0  0  0  0  0  0  0  0
   -2.1917    0.0325    6.6472 H   0  0  0  0  0  0  0  0  0  0  0  0
   -3.6962    0.9829    6.4417 H   0  0  0  0  0  0  0  0  0  0  0  0
   -3.0678   -0.3431    4.3841 H   0  0  0  0  0  0  0  0  0  0  0  0
   -4.6697   -0.7839    5.0317 H   0  0  0  0  0  0  0  0  0  0  0  0
   -3.4181   -3.4696    1.8261 H   0  0  0  0  0  0  0  0  0  0  0  0
   -2.4970   -2.5047   -0.2663 H   0  0  0  0  0  0  0  0  0  0  0  0
    0.4690   -0.3796   -0.1810 H   0  0  0  0  0  0  0  0  0  0  0  0
    1.0433   -1.1854   -2.3872 H   0  0  0  0  0  0  0  0  0  0  0  0
    2.7451    0.4814   -3.5594 H   0  0  0  0  0  0  0  0  0  0  0  0
    1.1467    1.1386   -3.9365 H   0  0  0  0  0  0  0  0  0  0  0  0
    2.5499    1.5413   -4.9640 H   0  0  0  0  0  0  0  0  0  0  0  0
    4.4946    0.0307   -5.6810 H   0  0  0  0  0  0  0  0  0  0  0  0
    5.1230    0.3202  -10.1484 H   0  0  0  0  0  0  0  0  0  0  0  0
    1.3581    1.3374  -11.9942 H   0  0  0  0  0  0  0  0  0  0  0  0
    0.3427    1.6093   -9.7388 H   0  0  0  0  0  0  0  0  0  0  0  0
    1.6906    1.1827   -7.7078 H   0  0  0  0  0  0  0  0  0  0  0  0
    3.1310   -2.0701   -7.9627 H   0  0  0  0  0  0  0  0  0  0  0  0
    1.0298   -3.3920   -7.7302 H   0  0  0  0  0  0  0  0  0  0  0  0
   -0.5486   -2.8718   -5.8784 H   0  0  0  0  0  0  0  0  0  0  0  0
   -2.0585   -0.7293   -5.3494 H   0  0  0  0  0  0  0  0  0  0  0  0
   -4.1468   -0.3893   -4.7517 H   0  0  0  0  0  0  0  0  0  0  0  0
   -4.2313    0.8361   -3.4393 H   0  0  0  0  0  0  0  0  0  0  0  0
   -4.6646   -0.8445   -3.0918 H   0  0  0  0  0  0  0  0  0  0  0  0
    0.2145   -0.1198    2.1434 H   0  0  0  0  0  0  0  0  0  0  0  0
    0.2221   -0.8728    6.8576 H   0  0  0  0  0  0  0  0  0  0  0  0
    2.6786    0.7622    5.9959 H   0  0  0  0  0  0  0  0  0  0  0  0
    2.3504    0.0815    7.6475 H   0  0  0  0  0  0  0  0  0  0  0  0
   -0.5617    1.4245    6.6254 H   0  0  0  0  0  0  0  0  0  0  0  0
   -0.6056    3.2044    6.4965 H   0  0  0  0  0  0  0  0  0  0  0  0
    0.4453    3.3806    9.3557 H   0  0  0  0  0  0  0  0  0  0  0  0
   -0.6391    4.8949   12.1529 H   0  0  0  0  0  0  0  0  0  0  0  0
   -0.7462    6.1279   10.8851 H   0  0  0  0  0  0  0  0  0  0  0  0
    0.6530    5.0097   10.9123 H   0  0  0  0  0  0  0  0  0  0  0  0
   -2.9057    2.1679   10.1777 H   0  0  0  0  0  0  0  0  0  0  0  0
   -4.0129   -0.2106   10.3174 H   0  0  0  0  0  0  0  0  0  0  0  0
   -3.1736    0.3402   11.8065 H   0  0  0  0  0  0  0  0  0  0  0  0
   -2.3378   -0.7261   10.6357 H   0  0  0  0  0  0  0  0  0  0  0  0
  1  2  2  0  0  0  0
  2 47  1  0  0  0  0
  3  2  1  0  0  0  0
  3 61  1  0  0  0  0
  4  3  1  0  0  0  0
  5  4  1  0  0  0  0
  5  6  1  0  0  0  0
  6 13  2  0  0  0  0
  6  7  1  0  0  0  0
  7  8  1  0  0  0  0
  8 62  1  0  0  0  0
  8  9  1  0  0  0  0
  9 64  1  0  0  0  0
  9 65  1  0  0  0  0
 10  9  1  0  0  0  0
 11 66  1  0  0  0  0
 11 10  1  0  0  0  0
 12  7  1  0  0  0  0
 12 11  1  0  0  0  0
 14  5  2  0  0  0  0
 15 16  2  0  0  0  0
 15 14  1  0  0  0  0
 16 46  1  0  0  0  0
 17 72  1  0  0  0  0
 17 16  1  0  0  0  0
 18 17  1  0  0  0  0
 19 73  1  0  0  0  0
 19 18  2  0  0  0  0
 20 19  1  0  0  0  0
 21 20  1  0  0  0  0
 22 21  1  0  0  0  0
 22 23  1  0  0  0  0
 23 75  1  0  0  0  0
 23 74  1  0  0  0  0
 24 22  2  0  0  0  0
 25 24  1  0  0  0  0
 25 77  1  0  0  0  0
 26 25  1  0  0  0  0
 27 36  1  0  0  0  0
 27 26  1  0  0  0  0
 28 27  2  0  0  0  0
 29 34  2  0  0  0  0
 29 28  1  0  0  0  0
 30 29  1  0  0  0  0
 31 30  1  0  0  0  0
 32 30  1  0  0  0  0
 33 30  1  0  0  0  0
 34 35  1  0  0  0  0
 35 80  1  0  0  0  0
 35 36  2  0  0  0  0
 36 81  1  0  0  0  0
 37 26  2  0  0  0  0
 38 39  2  0  0  0  0
 38 24  1  0  0  0  0
 39 40  1  0  0  0  0
 40 84  1  0  0  0  0
 40 21  2  0  0  0  0
 41 20  2  0  0  0  0
 41 42  1  0  0  0  0
 42 44  1  0  0  0  0
 43 87  1  0  0  0  0
 43 42  1  0  0  0  0
 43 88  1  0  0  0  0
 44 18  1  0  0  0  0
 44 45  2  0  0  0  0
 46 89  1  0  0  0  0
 46  4  2  0  0  0  0
 47 48  1  0  0  0  0
 47 90  1  0  0  0  0
 48 49  1  0  0  0  0
 48 92  1  0  0  0  0
 50 49  1  0  0  0  0
 50 51  1  0  0  0  0
 51 52  1  6  0  0  0
 51 57  1  0  0  0  0
 51 53  1  0  0  0  0
 53 54  1  0  0  0  0
 54 56  2  0  0  0  0
 54 55  1  0  0  0  0
 55 96  1  0  0  0  0
 57 58  1  0  0  0  0
 58 99  1  0  0  0  0
 58 59  1  0  0  0  0
 59101  1  0  0  0  0
 60 57  2  0  0  0  0
 63  8  1  0  0  0  0
 67 11  1  0  0  0  0
 68 12  1  0  0  0  0
 69 12  1  0  0  0  0
 70 14  1  0  0  0  0
 71 15  1  0  0  0  0
 76 23  1  0  0  0  0
 78 28  1  0  0  0  0
 79 34  1  0  0  0  0
 82 38  1  0  0  0  0
 83 39  1  0  0  0  0
 85 41  1  0  0  0  0
 86 43  1  0  0  0  0
 91 48  1  0  0  0  0
 93 50  1  0  0  0  0
 94 50  1  0  0  0  0
 95 53  1  0  0  0  0
 97 55  1  0  0  0  0
 98 55  1  0  0  0  0
100 59  1  0  0  0  0
102 59  1  0  0  0  0
M  END
