-1 1
 OpenBabel05232413483D

102105  0  0  1  0  0  0  0  0999 V2000
    1.2223    1.3220    3.4893 O   0  0  0  0  0  0  0  0  0  0  0  0
    0.6021    0.7894    4.3918 C   0  0  0  0  0  0  0  0  0  0  0  0
   -0.3955   -0.1528    4.1731 N   0  0  0  0  0  0  0  0  0  0  0  0
   -0.9438   -0.5761    2.9599 C   0  0  0  0  0  0  0  0  0  0  0  0
   -2.0548   -1.4544    2.9572 C   0  0  0  0  0  0  0  0  0  0  0  0
   -2.7043   -2.0504    4.1745 C   0  0  0  0  0  0  0  0  0  0  0  0
   -3.0552   -1.2111    5.2090 N   0  0  0  0  0  0  0  0  0  0  0  0
   -3.7146   -1.8098    6.3628 C   0  0  0  0  0  0  0  0  0  0  0  0
   -3.4087   -0.9883    7.6032 C   0  0  0  0  0  0  0  0  0  0  0  0
   -3.7702    0.3617    7.4306 O   0  0  0  0  0  0  0  0  0  0  0  0
   -3.0811    0.9418    6.3512 C   0  0  0  0  0  0  0  0  0  0  0  0
   -3.3781    0.2048    5.0507 C   0  0  0  0  0  0  0  0  0  0  0  0
   -2.9141   -3.2497    4.2329 O   0  0  0  0  0  0  0  0  0  0  0  0
   -2.5380   -1.9170    1.7302 C   0  0  0  0  0  0  0  0  0  0  0  0
   -2.0134   -1.5021    0.5169 C   0  0  0  0  0  0  0  0  0  0  0  0
   -0.9503   -0.5929    0.5221 C   0  0  0  0  0  0  0  0  0  0  0  0
   -0.3355   -0.1417   -0.6507 N   0  0  0  0  0  0  0  0  0  0  0  0
   -0.7651   -0.3280   -1.9535 C   0  0  0  0  0  0  0  0  0  0  0  0
    0.0900   -0.7384   -2.9409 C   0  0  0  0  0  0  0  0  0  0  0  0
   -0.3185   -0.8376   -4.3079 C   0  0  0  0  0  0  0  0  0  0  0  0
    0.6082   -1.3031   -5.3739 C   0  0  0  0  0  0  0  0  0  0  0  0
    1.8331   -0.6482   -5.6235 C   0  0  0  0  0  0  0  0  0  0  0  0
    2.2447    0.5945   -4.8777 C   0  0  0  0  0  0  0  0  0  0  0  0
    2.6707   -1.1582   -6.6326 C   0  0  0  0  0  0  0  0  0  0  0  0
    3.9111   -0.5179   -6.8835 N   0  0  0  0  0  0  0  0  0  0  0  0
    4.4891   -0.2130   -8.0915 C   0  0  0  0  0  0  0  0  0  0  0  0
    3.5884   -0.0771   -9.2915 C   0  0  0  0  0  0  0  0  0  0  0  0
    4.1299   -0.4063  -10.5355 C   0  0  0  0  0  0  0  0  0  0  0  0
    3.3679   -0.2533  -11.6906 C   0  0  0  0  0  0  0  0  0  0  0  0
    3.9232   -0.6827  -13.0249 C   0  0  0  0  0  0  0  0  0  0  0  0
    5.2570   -0.6455  -13.0492 F   0  0  0  0  0  0  0  0  0  0  0  0
    3.5589   -1.9375  -13.3224 F   0  0  0  0  0  0  0  0  0  0  0  0
    3.4792    0.0952  -14.0188 F   0  0  0  0  0  0  0  0  0  0  0  0
    2.0722    0.2618  -11.6157 C   0  0  0  0  0  0  0  0  0  0  0  0
    1.5433    0.6193  -10.3791 C   0  0  0  0  0  0  0  0  0  0  0  0
    2.2940    0.4457   -9.2189 C   0  0  0  0  0  0  0  0  0  0  0  0
    5.6828   -0.0166   -8.1860 O   0  0  0  0  0  0  0  0  0  0  0  0
    2.3005   -2.2752   -7.3865 C   0  0  0  0  0  0  0  0  0  0  0  0
    1.0741   -2.8855   -7.1607 C   0  0  0  0  0  0  0  0  0  0  0  0
    0.2413   -2.4070   -6.1544 C   0  0  0  0  0  0  0  0  0  0  0  0
   -1.6180   -0.5436   -4.5968 C   0  0  0  0  0  0  0  0  0  0  0  0
   -2.4976   -0.1393   -3.6316 N   0  0  0  0  0  0  0  0  0  0  0  0
   -3.8614    0.2294   -3.9761 C   0  0  0  0  0  0  0  0  0  0  0  0
   -2.1494    0.0523   -2.2880 C   0  0  0  0  0  0  0  0  0  0  0  0
   -2.9665    0.5015   -1.5073 O   0  0  0  0  0  0  0  0  0  0  0  0
   -0.4161   -0.1501    1.7348 C   0  0  0  0  0  0  0  0  0  0  0  0
    0.8028    1.1043    5.8288 C   0  0  0  0  0  0  0  0  0  0  0  0
    1.5677    2.1357    6.1988 C   0  0  0  0  0  0  0  0  0  0  0  0
    0.5355    3.7615    9.3046 S   0  0  0  0  0  1  0  0  0  0  0  0
   -1.0177    3.0253    8.6753 C   0  0  0  0  0  0  0  0  0  0  0  0
   -1.6958    2.0419    9.6537 C   0  0  2  0  0  0  0  0  0  0  0  0
   -2.7760    1.9732    9.4260 H   0  0  0  0  0  0  0  0  0  0  0  0
   -1.5363    2.5700   10.9932 N   0  0  0  0  0  0  0  0  0  0  0  0
   -2.2882    2.3143   12.0645 C   0  0  0  0  0  0  0  0  0  0  0  0
   -1.9772    3.1480   13.2922 C   0  0  0  0  0  0  0  0  0  0  0  0
   -3.1833    1.4625   12.0983 O   0  0  0  0  0  0  0  0  0  0  0  0
   -1.1985    0.5912    9.5038 C   0  0  0  0  0  0  0  0  0  0  0  0
   -1.6402   -0.2420   10.4752 N   0  0  0  0  0  0  0  0  0  0  0  0
   -1.3002   -1.6376   10.5111 C   0  0  0  0  0  0  0  0  0  0  0  0
   -0.5391    0.1977    8.5498 O   0  0  0  0  0  0  0  0  0  0  0  0
   -0.8240   -0.5359    5.0092 H   0  0  0  0  0  0  0  0  0  0  0  0
   -3.3574   -2.8407    6.4723 H   0  0  0  0  0  0  0  0  0  0  0  0
   -4.8066   -1.8500    6.1860 H   0  0  0  0  0  0  0  0  0  0  0  0
   -2.3300   -1.0626    7.8283 H   0  0  0  0  0  0  0  0  0  0  0  0
   -3.9765   -1.3660    8.4651 H   0  0  0  0  0  0  0  0  0  0  0  0
   -1.9936    0.9369    6.5499 H   0  0  0  0  0  0  0  0  0  0  0  0
   -3.4073    1.9884    6.2786 H   0  0  0  0  0  0  0  0  0  0  0  0
   -2.8079    0.6439    4.2241 H   0  0  0  0  0  0  0  0  0  0  0  0
   -4.4536    0.3060    4.8102 H   0  0  0  0  0  0  0  0  0  0  0  0
   -3.3549   -2.6409    1.7474 H   0  0  0  0  0  0  0  0  0  0  0  0
   -2.4179   -1.8910   -0.4168 H   0  0  0  0  0  0  0  0  0  0  0  0
    0.6361    0.1167   -0.5418 H   0  0  0  0  0  0  0  0  0  0  0  0
    1.1122   -1.0156   -2.6705 H   0  0  0  0  0  0  0  0  0  0  0  0
    2.9275    0.3653   -4.0425 H   0  0  0  0  0  0  0  0  0  0  0  0
    1.3769    1.1144   -4.4530 H   0  0  0  0  0  0  0  0  0  0  0  0
    2.7768    1.2873   -5.5454 H   0  0  0  0  0  0  0  0  0  0  0  0
    4.5685   -0.4539   -6.1117 H   0  0  0  0  0  0  0  0  0  0  0  0
    5.1569   -0.7716  -10.5842 H   0  0  0  0  0  0  0  0  0  0  0  0
    1.4846    0.3932  -12.5260 H   0  0  0  0  0  0  0  0  0  0  0  0
    0.5377    1.0390  -10.3179 H   0  0  0  0  0  0  0  0  0  0  0  0
    1.8689    0.7278   -8.2543 H   0  0  0  0  0  0  0  0  0  0  0  0
    2.9812   -2.6577   -8.1489 H   0  0  0  0  0  0  0  0  0  0  0  0
    0.7798   -3.7555   -7.7509 H   0  0  0  0  0  0  0  0  0  0  0  0
   -0.7045   -2.9103   -5.9426 H   0  0  0  0  0  0  0  0  0  0  0  0
   -2.0119   -0.5996   -5.6131 H   0  0  0  0  0  0  0  0  0  0  0  0
   -4.0438   -0.0049   -5.0314 H   0  0  0  0  0  0  0  0  0  0  0  0
   -4.0259    1.3013   -3.7966 H   0  0  0  0  0  0  0  0  0  0  0  0
   -4.5686   -0.3214   -3.3419 H   0  0  0  0  0  0  0  0  0  0  0  0
    0.4246    0.5402    1.7524 H   0  0  0  0  0  0  0  0  0  0  0  0
    0.2783    0.5259    6.5976 H   0  0  0  0  0  0  0  0  0  0  0  0
    2.0776    2.7331    5.4365 H   0  0  0  0  0  0  0  0  0  0  0  0
    1.6529    2.4324    7.2531 H   0  0  0  0  0  0  0  0  0  0  0  0
   -0.8349    2.4850    7.7365 H   0  0  0  0  0  0  0  0  0  0  0  0
   -1.7462    3.8233    8.4562 H   0  0  0  0  0  0  0  0  0  0  0  0
   -0.7251    3.2197   11.0138 H   0  0  0  0  0  0  0  0  0  0  0  0
   -1.8018    2.4731   14.1418 H   0  0  0  0  0  0  0  0  0  0  0  0
   -2.8619    3.7557   13.5323 H   0  0  0  0  0  0  0  0  0  0  0  0
   -1.1113    3.8090   13.1555 H   0  0  0  0  0  0  0  0  0  0  0  0
   -2.3040    0.1457   11.1545 H   0  0  0  0  0  0  0  0  0  0  0  0
   -2.1504   -2.2835   10.2279 H   0  0  0  0  0  0  0  0  0  0  0  0
   -0.9674   -1.9345   11.5182 H   0  0  0  0  0  0  0  0  0  0  0  0
   -0.4836   -1.8148    9.7991 H   0  0  0  0  0  0  0  0  0  0  0  0
  1  2  2  0  0  0  0
  2 47  1  0  0  0  0
  3  2  1  0  0  0  0
  3 61  1  0  0  0  0
  4  3  1  0  0  0  0
  5  4  1  0  0  0  0
  5  6  1  0  0  0  0
  6 13  2  0  0  0  0
  6  7  1  0  0  0  0
  7  8  1  0  0  0  0
  8 62  1  0  0  0  0
  8  9  1  0  0  0  0
  9 64  1  0  0  0  0
  9 65  1  0  0  0  0
 10  9  1  0  0  0  0
 11 66  1  0  0  0  0
 11 10  1  0  0  0  0
 12  7  1  0  0  0  0
 12 11  1  0  0  0  0
 14 70  1  0  0  0  0
 14  5  2  0  0  0  0
 15 16  2  0  0  0  0
 15 14  1  0  0  0  0
 16 46  1  0  0  0  0
 17 72  1  0  0  0  0
 17 16  1  0  0  0  0
 18 17  1  0  0  0  0
 19 73  1  0  0  0  0
 19 18  2  0  0  0  0
 20 19  1  0  0  0  0
 21 20  1  0  0  0  0
 22 21  1  0  0  0  0
 22 23  1  0  0  0  0
 23 75  1  0  0  0  0
 23 74  1  0  0  0  0
 24 22  2  0  0  0  0
 25 24  1  0  0  0  0
 25 77  1  0  0  0  0
 26 25  1  0  0  0  0
 27 36  1  0  0  0  0
 27 26  1  0  0  0  0
 28 27  2  0  0  0  0
 29 34  2  0  0  0  0
 29 28  1  0  0  0  0
 30 29  1  0  0  0  0
 31 30  1  0  0  0  0
 32 30  1  0  0  0  0
 33 30  1  0  0  0  0
 34 35  1  0  0  0  0
 35 80  1  0  0  0  0
 35 36  2  0  0  0  0
 36 81  1  0  0  0  0
 37 26  2  0  0  0  0
 38 39  2  0  0  0  0
 38 24  1  0  0  0  0
 39 40  1  0  0  0  0
 40 84  1  0  0  0  0
 40 21  2  0  0  0  0
 41 20  2  0  0  0  0
 41 42  1  0  0  0  0
 42 44  1  0  0  0  0
 43 87  1  0  0  0  0
 43 42  1  0  0  0  0
 43 88  1  0  0  0  0
 44 18  1  0  0  0  0
 44 45  2  0  0  0  0
 46 89  1  0  0  0  0
 46  4  2  0  0  0  0
 47 48  2  0  0  0  0
 47 90  1  0  0  0  0
 48 92  1  0  0  0  0
 50 49  1  0  0  0  0
 50 51  1  0  0  0  0
 51 52  1  6  0  0  0
 51 53  1  0  0  0  0
 53 95  1  0  0  0  0
 53 54  1  0  0  0  0
 54 56  2  0  0  0  0
 54 55  1  0  0  0  0
 55 97  1  0  0  0  0
 55 96  1  0  0  0  0
 57 51  1  0  0  0  0
 57 58  1  0  0  0  0
 58 59  1  0  0  0  0
 58 99  1  0  0  0  0
 59101  1  0  0  0  0
 60 57  2  0  0  0  0
 63  8  1  0  0  0  0
 67 11  1  0  0  0  0
 68 12  1  0  0  0  0
 69 12  1  0  0  0  0
 71 15  1  0  0  0  0
 76 23  1  0  0  0  0
 78 28  1  0  0  0  0
 79 34  1  0  0  0  0
 82 38  1  0  0  0  0
 83 39  1  0  0  0  0
 85 41  1  0  0  0  0
 86 43  1  0  0  0  0
 91 48  1  0  0  0  0
 93 50  1  0  0  0  0
 94 50  1  0  0  0  0
 98 55  1  0  0  0  0
100 59  1  0  0  0  0
102 59  1  0  0  0  0
M  END
