-1 1
 OpenBabel05232414493D

102105  0  0  1  0  0  0  0  0999 V2000
   11.1966    4.2123  -10.7635 O   0  0  0  0  0  0  0  0  0  0  0  0
   10.6237    3.5553   -9.8940 C   0  0  0  0  0  0  0  0  0  0  0  0
    9.4945    2.7491  -10.2204 N   0  0  0  0  0  0  0  0  0  0  0  0
    8.9571    2.4391  -11.4485 C   0  0  0  0  0  0  0  0  0  0  0  0
    7.8763    1.5169  -11.5399 C   0  0  0  0  0  0  0  0  0  0  0  0
    7.2657    0.8292  -10.3574 C   0  0  0  0  0  0  0  0  0  0  0  0
    6.9103    1.6244   -9.2830 N   0  0  0  0  0  0  0  0  0  0  0  0
    6.3840    0.9748   -8.0944 C   0  0  0  0  0  0  0  0  0  0  0  0
    6.6606    1.8439   -6.8751 C   0  0  0  0  0  0  0  0  0  0  0  0
    6.1384    3.1400   -7.0430 O   0  0  0  0  0  0  0  0  0  0  0  0
    6.7286    3.7747   -8.1529 C   0  0  0  0  0  0  0  0  0  0  0  0
    6.4587    3.0036   -9.4349 C   0  0  0  0  0  0  0  0  0  0  0  0
    7.1006   -0.3782  -10.3289 O   0  0  0  0  0  0  0  0  0  0  0  0
    7.4104    1.1388  -12.8008 C   0  0  0  0  0  0  0  0  0  0  0  0
    7.9130    1.6811  -13.9736 C   0  0  0  0  0  0  0  0  0  0  0  0
    8.9296    2.6407  -13.8793 C   0  0  0  0  0  0  0  0  0  0  0  0
    9.5261    3.2250  -15.0087 N   0  0  0  0  0  0  0  0  0  0  0  0
    9.1287    3.1315  -16.3265 C   0  0  0  0  0  0  0  0  0  0  0  0
   10.0269    2.8836  -17.3317 C   0  0  0  0  0  0  0  0  0  0  0  0
    9.6474    2.8824  -18.7108 C   0  0  0  0  0  0  0  0  0  0  0  0
   10.6262    2.5984  -19.7935 C   0  0  0  0  0  0  0  0  0  0  0  0
   11.7954    3.3732  -19.9514 C   0  0  0  0  0  0  0  0  0  0  0  0
   12.0877    4.5684  -19.0820 C   0  0  0  0  0  0  0  0  0  0  0  0
   12.6889    3.0332  -20.9836 C   0  0  0  0  0  0  0  0  0  0  0  0
   13.8745    3.7957  -21.1447 N   0  0  0  0  0  0  0  0  0  0  0  0
   14.4385    4.2694  -22.3026 C   0  0  0  0  0  0  0  0  0  0  0  0
   13.5471    4.4423  -23.5055 C   0  0  0  0  0  0  0  0  0  0  0  0
   14.1371    4.2915  -24.7613 C   0  0  0  0  0  0  0  0  0  0  0  0
   13.3832    4.4895  -25.9155 C   0  0  0  0  0  0  0  0  0  0  0  0
   14.0048    4.2479  -27.2675 C   0  0  0  0  0  0  0  0  0  0  0  0
   15.3155    4.5013  -27.2682 F   0  0  0  0  0  0  0  0  0  0  0  0
   13.8519    2.9738  -27.6541 F   0  0  0  0  0  0  0  0  0  0  0  0
   13.4462    5.0101  -28.2147 F   0  0  0  0  0  0  0  0  0  0  0  0
   12.0441    4.8727  -25.8238 C   0  0  0  0  0  0  0  0  0  0  0  0
   11.4639    5.0542  -24.5715 C   0  0  0  0  0  0  0  0  0  0  0  0
   12.2080    4.8346  -23.4152 C   0  0  0  0  0  0  0  0  0  0  0  0
   15.6109    4.5805  -22.3514 O   0  0  0  0  0  0  0  0  0  0  0  0
   12.4278    1.9664  -21.8476 C   0  0  0  0  0  0  0  0  0  0  0  0
   11.2539    1.2379  -21.7097 C   0  0  0  0  0  0  0  0  0  0  0  0
   10.3673    1.5476  -20.6833 C   0  0  0  0  0  0  0  0  0  0  0  0
    8.3337    3.0973  -19.0023 C   0  0  0  0  0  0  0  0  0  0  0  0
    7.4113    3.3407  -18.0213 N   0  0  0  0  0  0  0  0  0  0  0  0
    6.0299    3.6385  -18.3609 C   0  0  0  0  0  0  0  0  0  0  0  0
    7.7248    3.4423  -16.6592 C   0  0  0  0  0  0  0  0  0  0  0  0
    6.8652    3.7705  -15.8642 O   0  0  0  0  0  0  0  0  0  0  0  0
    9.4486    3.0040  -12.6376 C   0  0  0  0  0  0  0  0  0  0  0  0
   10.9687    3.4817   -8.5089 C   0  0  0  0  0  3  0  0  0  0  0  0
   12.0463    4.2064   -7.9876 C   0  0  0  0  0  3  0  0  0  0  0  0
   11.4907    6.2591   -7.2125 S   0  0  0  0  0  1  0  0  0  0  0  0
    9.7125    6.1434   -7.4813 C   0  0  0  0  0  0  0  0  0  0  0  0
    8.8313    6.2091   -6.2229 C   0  0  2  0  0  0  0  0  0  0  0  0
    7.8340    6.5858   -6.5101 H   0  0  0  0  0  0  0  0  0  0  0  0
    9.3853    7.1659   -5.2816 N   0  0  0  0  0  0  0  0  0  0  0  0
    8.6684    7.9058   -4.4226 C   0  0  0  0  0  0  0  0  0  0  0  0
    9.4516    8.9228   -3.6173 C   0  0  0  0  0  0  0  0  0  0  0  0
    7.4516    7.7909   -4.2788 O   0  0  0  0  0  0  0  0  0  0  0  0
    8.5648    4.8479   -5.5397 C   0  0  0  0  0  0  0  0  0  0  0  0
    7.6289    4.9339   -4.5628 N   0  0  0  0  0  0  0  0  0  0  0  0
    7.1307    3.7775   -3.8700 C   0  0  0  0  0  0  0  0  0  0  0  0
    9.1066    3.8036   -5.8578 O   0  0  0  0  0  0  0  0  0  0  0  0
    9.0902    2.2606   -9.4317 H   0  0  0  0  0  0  0  0  0  0  0  0
    6.8560   -0.0109   -7.9964 H   0  0  0  0  0  0  0  0  0  0  0  0
    5.2934    0.8117   -8.1991 H   0  0  0  0  0  0  0  0  0  0  0  0
    7.7480    1.9053   -6.6805 H   0  0  0  0  0  0  0  0  0  0  0  0
    6.1751    1.4125   -5.9872 H   0  0  0  0  0  0  0  0  0  0  0  0
    7.8201    3.8644   -8.0055 H   0  0  0  0  0  0  0  0  0  0  0  0
    6.2997    4.7847   -8.2187 H   0  0  0  0  0  0  0  0  0  0  0  0
    6.9711    3.4832  -10.2767 H   0  0  0  0  0  0  0  0  0  0  0  0
    5.3717    3.0100   -9.6473 H   0  0  0  0  0  0  0  0  0  0  0  0
    6.6232    0.3829  -12.8469 H   0  0  0  0  0  0  0  0  0  0  0  0
    7.5255    1.3602  -14.9399 H   0  0  0  0  0  0  0  0  0  0  0  0
   10.4902    3.4960  -14.8648 H   0  0  0  0  0  0  0  0  0  0  0  0
   11.0634    2.6597  -17.0664 H   0  0  0  0  0  0  0  0  0  0  0  0
   12.7704    4.3163  -18.2534 H   0  0  0  0  0  0  0  0  0  0  0  0
   11.1716    4.9717  -18.6330 H   0  0  0  0  0  0  0  0  0  0  0  0
   12.5725    5.3632  -19.6671 H   0  0  0  0  0  0  0  0  0  0  0  0
   14.5115    3.8419  -20.3547 H   0  0  0  0  0  0  0  0  0  0  0  0
   15.1949    4.0296  -24.8186 H   0  0  0  0  0  0  0  0  0  0  0  0
   11.4619    5.0400  -26.7315 H   0  0  0  0  0  0  0  0  0  0  0  0
   10.4224    5.3712  -24.4951 H   0  0  0  0  0  0  0  0  0  0  0  0
   11.7421    4.9779  -22.4390 H   0  0  0  0  0  0  0  0  0  0  0  0
   13.1510    1.7165  -22.6259 H   0  0  0  0  0  0  0  0  0  0  0  0
   11.0440    0.4067  -22.3856 H   0  0  0  0  0  0  0  0  0  0  0  0
    9.4641    0.9503  -20.5420 H   0  0  0  0  0  0  0  0  0  0  0  0
    7.9599    3.1058  -20.0276 H   0  0  0  0  0  0  0  0  0  0  0  0
    5.8746    3.4618  -19.4319 H   0  0  0  0  0  0  0  0  0  0  0  0
    5.7885    4.6826  -18.1152 H   0  0  0  0  0  0  0  0  0  0  0  0
    5.3560    3.0005  -17.7739 H   0  0  0  0  0  0  0  0  0  0  0  0
   10.2597    3.7262  -12.5456 H   0  0  0  0  0  0  0  0  0  0  0  0
   10.3411    2.9018   -7.8288 H   0  0  0  0  0  0  0  0  0  0  0  0
   12.7724    4.5865   -8.7099 H   0  0  0  0  0  0  0  0  0  0  0  0
   12.4627    3.8798   -7.0340 H   0  0  0  0  0  0  0  0  0  0  0  0
    9.5444    5.1775   -7.9980 H   0  0  0  0  0  0  0  0  0  0  0  0
    9.3941    6.9441   -8.1647 H   0  0  0  0  0  0  0  0  0  0  0  0
   10.4039    7.2407   -5.3512 H   0  0  0  0  0  0  0  0  0  0  0  0
    9.2662    8.7430   -2.5491 H   0  0  0  0  0  0  0  0  0  0  0  0
    9.0653    9.9244   -3.8543 H   0  0  0  0  0  0  0  0  0  0  0  0
   10.5315    8.8961   -3.8141 H   0  0  0  0  0  0  0  0  0  0  0  0
    7.2176    5.8521   -4.3893 H   0  0  0  0  0  0  0  0  0  0  0  0
    6.1604    3.4496   -4.2801 H   0  0  0  0  0  0  0  0  0  0  0  0
    7.0131    3.9868   -2.7955 H   0  0  0  0  0  0  0  0  0  0  0  0
    7.8498    2.9579   -3.9985 H   0  0  0  0  0  0  0  0  0  0  0  0
  1  2  2  0  0  0  0
  2 47  1  0  0  0  0
  3  2  1  0  0  0  0
  3 61  1  0  0  0  0
  4  3  1  0  0  0  0
  5  4  1  0  0  0  0
  5  6  1  0  0  0  0
  6 13  2  0  0  0  0
  6  7  1  0  0  0  0
  7  8  1  0  0  0  0
  8 62  1  0  0  0  0
  8  9  1  0  0  0  0
  9 64  1  0  0  0  0
  9 65  1  0  0  0  0
 10  9  1  0  0  0  0
 11 66  1  0  0  0  0
 11 10  1  0  0  0  0
 12  7  1  0  0  0  0
 12 11  1  0  0  0  0
 14  5  2  0  0  0  0
 15 16  2  0  0  0  0
 15 14  1  0  0  0  0
 16 46  1  0  0  0  0
 17 72  1  0  0  0  0
 17 16  1  0  0  0  0
 18 17  1  0  0  0  0
 19 73  1  0  0  0  0
 19 18  2  0  0  0  0
 20 19  1  0  0  0  0
 21 20  1  0  0  0  0
 22 21  1  0  0  0  0
 22 23  1  0  0  0  0
 23 75  1  0  0  0  0
 23 74  1  0  0  0  0
 24 22  2  0  0  0  0
 25 24  1  0  0  0  0
 25 77  1  0  0  0  0
 26 25  1  0  0  0  0
 27 36  1  0  0  0  0
 27 26  1  0  0  0  0
 28 27  2  0  0  0  0
 29 34  2  0  0  0  0
 29 28  1  0  0  0  0
 30 29  1  0  0  0  0
 31 30  1  0  0  0  0
 32 30  1  0  0  0  0
 33 30  1  0  0  0  0
 34 35  1  0  0  0  0
 35 80  1  0  0  0  0
 35 36  2  0  0  0  0
 36 81  1  0  0  0  0
 37 26  2  0  0  0  0
 38 39  2  0  0  0  0
 38 24  1  0  0  0  0
 39 40  1  0  0  0  0
 40 84  1  0  0  0  0
 40 21  2  0  0  0  0
 41 20  2  0  0  0  0
 41 42  1  0  0  0  0
 42 44  1  0  0  0  0
 43 87  1  0  0  0  0
 43 42  1  0  0  0  0
 43 88  1  0  0  0  0
 44 18  1  0  0  0  0
 44 45  2  0  0  0  0
 46 89  1  0  0  0  0
 46  4  2  0  0  0  0
 47 48  1  0  0  0  0
 47 90  1  0  0  0  0
 48 92  1  0  0  0  0
 50 49  1  0  0  0  0
 50 51  1  0  0  0  0
 51 52  1  6  0  0  0
 51 57  1  0  0  0  0
 51 53  1  0  0  0  0
 53 54  1  0  0  0  0
 54 56  2  0  0  0  0
 54 55  1  0  0  0  0
 55 96  1  0  0  0  0
 57 58  1  0  0  0  0
 58 99  1  0  0  0  0
 58 59  1  0  0  0  0
 59101  1  0  0  0  0
 60 57  2  0  0  0  0
 63  8  1  0  0  0  0
 67 11  1  0  0  0  0
 68 12  1  0  0  0  0
 69 12  1  0  0  0  0
 70 14  1  0  0  0  0
 71 15  1  0  0  0  0
 76 23  1  0  0  0  0
 78 28  1  0  0  0  0
 79 34  1  0  0  0  0
 82 38  1  0  0  0  0
 83 39  1  0  0  0  0
 85 41  1  0  0  0  0
 86 43  1  0  0  0  0
 91 48  1  0  0  0  0
 93 50  1  0  0  0  0
 94 50  1  0  0  0  0
 95 53  1  0  0  0  0
 97 55  1  0  0  0  0
 98 55  1  0  0  0  0
100 59  1  0  0  0  0
102 59  1  0  0  0  0
M  END
