102
-1 1
O         1.090652    0.444627    3.928333
C         0.532817   -0.229164    4.806081
N        -0.567448   -1.088573    4.457789
C        -1.094029   -1.403644    3.234842
C        -2.178166   -2.325626    3.137019
C        -2.805543   -2.998337    4.317373
N        -3.151688   -2.193367    5.389564
C        -3.679323   -2.827822    6.584432
C        -3.378811   -1.956622    7.797276
O        -3.881008   -0.653342    7.626180
C        -3.286223   -0.035034    6.508533
C        -3.580616   -0.808267    5.233373
O        -2.995454   -4.202604    4.352479
C        -2.631033   -2.713469    1.873525
C        -2.119216   -2.178192    0.702032
C        -1.104675   -1.214936    0.802041
N        -0.498168   -0.637439   -0.328066
C        -0.892963   -0.721857   -1.645227
C         0.006770   -0.961066   -2.652061
C        -0.371625   -0.954618   -4.031500
C         0.608469   -1.226917   -5.115926
C         1.775088   -0.446752   -5.268082
C         2.064375    0.740836   -4.387390
C         2.667140   -0.772920   -6.305802
N         3.848902   -0.003189   -6.464526
C         4.395302    0.497573   -7.619013
C         3.487501    0.688405   -8.807100
C         4.063586    0.570842  -10.072932
C         3.294191    0.787128  -11.213500
C         3.901536    0.581003  -12.577600
F         5.210354    0.844329  -12.587829
F         3.753555   -0.685006  -12.991748
F         3.326440    1.360332  -13.500847
C         1.952797    1.155631  -11.097496
C         1.386127    1.304015   -9.834691
C         2.146045    1.066056   -8.692403
O         5.565005    0.817562   -7.676582
C         2.408599   -1.831857   -7.180081
C         1.238045   -2.566633   -7.046623
C         0.352411   -2.270109   -6.015441
C        -1.685489   -0.742728   -4.323901
N        -2.609497   -0.507242   -3.341825
C        -3.990558   -0.209115   -3.681403
C        -2.297013   -0.408749   -1.979284
O        -3.157102   -0.080118   -1.185200
C        -0.594616   -0.844360    2.042992
C         0.835070   -0.273985    6.181219
C         1.912554    0.503167    6.736332
S         1.446825    2.358382    7.384856
C        -0.340697    2.369448    7.159889
C        -1.188759    2.472778    8.434545
H        -2.164462    2.909985    8.163918
N        -0.574590    3.388744    9.380561
C        -1.259116    4.157571   10.245588
C        -0.426462    5.097123   11.093840
O        -2.482273    4.124046   10.355557
C        -1.511015    1.126197    9.121274
N        -2.513758    1.238971   10.027499
C        -3.044745    0.107584   10.737905
O        -0.939991    0.079257    8.876124
H        -0.964660   -1.584734    5.244510
H        -3.223236   -3.820923    6.683773
H        -4.773712   -2.973261    6.491593
H        -2.288349   -1.912232    7.981662
H        -3.863385   -2.374870    8.692081
H        -2.191684    0.032527    6.647221
H        -3.696235    0.982874    6.441677
H        -3.067841   -0.343072    4.384105
H        -4.669669   -0.783888    5.031735
H        -3.418140   -3.469574    1.826085
H        -2.497004   -2.504725   -0.266335
H         0.469020   -0.379633   -0.180990
H         1.043296   -1.185357   -2.387176
H         2.745060    0.481443   -3.559443
H         1.146740    1.138604   -3.936548
H         2.549890    1.541344   -4.963958
H         4.494565    0.030660   -5.680998
H         5.122962    0.320243  -10.148352
H         1.358113    1.337363  -11.994238
H         0.342669    1.609313   -9.738846
H         1.690570    1.182710   -7.707770
H         3.130985   -2.070123   -7.962748
H         1.029756   -3.391998   -7.730219
H        -0.548552   -2.871814   -5.878405
H        -2.058463   -0.729294   -5.349446
H        -4.146784   -0.389317   -4.751748
H        -4.231339    0.836122   -3.439259
H        -4.664616   -0.844485   -3.091804
H         0.214500   -0.119804    2.143362
H         0.222132   -0.872848    6.857589
H         2.678589    0.762218    5.995883
H         2.350393    0.081537    7.647472
H        -0.561729    1.424461    6.625375
H        -0.605643    3.204448    6.496451
H         0.445307    3.380552    9.355729
H        -0.639100    4.894937   12.152920
H        -0.746171    6.127931   10.885092
H         0.652965    5.009671   10.912271
H        -2.905692    2.167882   10.177698
H        -4.012930   -0.210631   10.317391
H        -3.173582    0.340207   11.806520
H        -2.337776   -0.726072   10.635736
