-1 1
 OpenBabel05192410563D

 99102  0  0  1  0  0  0  0  0999 V2000
    1.8205   -6.7222    2.0518 O   0  0  0  0  0  0  0  0  0  0  0  0
    0.5839   -6.7844    1.9009 C   0  0  0  0  0  0  0  0  0  0  0  0
    0.1490   -6.9140    0.5069 N   0  0  0  0  0  0  0  0  0  0  0  0
   -0.6078   -5.9994   -0.1864 C   0  0  0  0  0  0  0  0  0  0  0  0
   -0.6719   -6.0772   -1.6081 C   0  0  0  0  0  0  0  0  0  0  0  0
    0.0817   -7.1597   -2.3310 C   0  0  0  0  0  0  0  0  0  0  0  0
   -1.4487   -5.1517   -2.2967 C   0  0  0  0  0  0  0  0  0  0  0  0
   -2.1657   -4.1385   -1.6561 C   0  0  0  0  0  0  0  0  0  0  0  0
   -2.0789   -4.0454   -0.2632 C   0  0  0  0  0  0  0  0  0  0  0  0
   -2.7581   -3.0566    0.4737 N   0  0  0  0  0  0  0  0  0  0  0  0
   -2.7290   -1.7039    0.2648 C   0  0  0  0  0  0  0  0  0  0  0  0
   -2.3148   -1.0344   -0.8590 C   0  0  0  0  0  0  0  0  0  0  0  0
   -2.2758    0.3933   -0.8861 C   0  0  0  0  0  0  0  0  0  0  0  0
   -1.7732    1.1024   -2.0914 C   0  0  0  0  0  0  0  0  0  0  0  0
   -0.7686    2.0944   -2.0098 C   0  0  0  0  0  0  0  0  0  0  0  0
   -0.0985    2.4649   -0.7135 C   0  0  0  0  0  0  0  0  0  0  0  0
   -0.3639    2.7139   -3.2090 C   0  0  0  0  0  0  0  0  0  0  0  0
    0.6431    3.7164   -3.1966 N   0  0  0  0  0  0  0  0  0  0  0  0
    0.5225    4.9276   -2.5659 C   0  0  0  0  0  0  0  0  0  0  0  0
    1.7210    5.8299   -2.6880 C   0  0  0  0  0  0  0  0  0  0  0  0
    1.5238    7.2017   -2.5336 C   0  0  0  0  0  0  0  0  0  0  0  0
    2.5924    8.0902   -2.6220 C   0  0  0  0  0  0  0  0  0  0  0  0
    3.8986    7.6394   -2.8488 C   0  0  0  0  0  0  0  0  0  0  0  0
    5.1044    8.5847   -2.9421 C   0  0  0  0  0  0  0  0  0  0  0  0
    6.1079    8.2365   -1.8271 C   0  0  0  0  0  0  0  0  0  0  0  0
    5.7779    8.4142   -4.3163 C   0  0  0  0  0  0  0  0  0  0  0  0
    4.6997   10.0559   -2.7839 C   0  0  0  0  0  0  0  0  0  0  0  0
    4.0869    6.2553   -2.9796 C   0  0  0  0  0  0  0  0  0  0  0  0
    3.0228    5.3640   -2.9015 C   0  0  0  0  0  0  0  0  0  0  0  0
   -0.4694    5.2661   -1.9542 O   0  0  0  0  0  0  0  0  0  0  0  0
   -0.8903    2.3346   -4.4446 C   0  0  0  0  0  0  0  0  0  0  0  0
   -1.8427    1.3252   -4.5141 C   0  0  0  0  0  0  0  0  0  0  0  0
   -2.2833    0.7248   -3.3415 C   0  0  0  0  0  0  0  0  0  0  0  0
   -2.6907    1.0745    0.2157 C   0  0  0  0  0  0  0  0  0  0  0  0
   -3.1134    0.4199    1.3440 N   0  0  0  0  0  0  0  0  0  0  0  0
   -3.3323    1.1726    2.5675 C   0  0  0  0  0  0  0  0  0  0  0  0
   -3.1274   -0.9466    1.4565 C   0  0  0  0  0  0  0  0  0  0  0  0
   -3.4274   -1.5065    2.5176 O   0  0  0  0  0  0  0  0  0  0  0  0
   -1.3193   -4.9693    0.4537 C   0  0  0  0  0  0  0  0  0  0  0  0
   -0.4219   -6.7634    2.8594 C   0  0  0  0  0  3  0  0  0  0  0  0
   -0.1159   -6.4964    4.2714 C   0  0  0  0  0  0  0  0  0  0  0  0
   -0.4267   -4.7114    4.8553 S   0  0  0  0  0  0  0  0  0  0  0  0
    0.5767   -3.8358    3.6273 C   0  0  0  0  0  0  0  0  0  0  0  0
   -0.0969   -2.5877    3.0518 C   0  0  2  0  0  0  0  0  0  0  0  0
   -1.1415   -2.8202    2.7889 H   0  0  0  0  0  0  0  0  0  0  0  0
    0.6270   -2.2035    1.8531 N   0  0  0  0  0  0  0  0  0  0  0  0
    0.4910   -1.0192    1.2248 C   0  0  0  0  0  0  0  0  0  0  0  0
    1.2516   -0.8741   -0.0773 C   0  0  0  0  0  0  0  0  0  0  0  0
   -0.2043   -0.1082    1.6577 O   0  0  0  0  0  0  0  0  0  0  0  0
   -0.0763   -1.4645    4.1008 C   0  0  0  0  0  0  0  0  0  0  0  0
   -1.2992   -1.1012    4.5534 N   0  0  0  0  0  0  0  0  0  0  0  0
   -1.4247   -0.0888    5.5659 C   0  0  0  0  0  0  0  0  0  0  0  0
    0.9642   -1.0129    4.5410 O   0  0  0  0  0  0  0  0  0  0  0  0
    0.9225   -7.2964   -0.0261 H   0  0  0  0  0  0  0  0  0  0  0  0
    1.1753   -7.0461   -2.2214 H   0  0  0  0  0  0  0  0  0  0  0  0
   -0.1430   -7.1500   -3.4073 H   0  0  0  0  0  0  0  0  0  0  0  0
   -0.1748   -8.1564   -1.9334 H   0  0  0  0  0  0  0  0  0  0  0  0
   -1.5115   -5.2329   -3.3867 H   0  0  0  0  0  0  0  0  0  0  0  0
   -2.8140   -3.4735   -2.2267 H   0  0  0  0  0  0  0  0  0  0  0  0
   -2.9531   -3.2772    1.4474 H   0  0  0  0  0  0  0  0  0  0  0  0
   -1.9485   -1.5912   -1.7210 H   0  0  0  0  0  0  0  0  0  0  0  0
   -0.5479    3.3769   -0.2914 H   0  0  0  0  0  0  0  0  0  0  0  0
    0.9620    2.6965   -0.8927 H   0  0  0  0  0  0  0  0  0  0  0  0
   -0.1632    1.6630    0.0345 H   0  0  0  0  0  0  0  0  0  0  0  0
    1.3805    3.6251   -3.8829 H   0  0  0  0  0  0  0  0  0  0  0  0
    0.5118    7.5608   -2.3368 H   0  0  0  0  0  0  0  0  0  0  0  0
    2.3894    9.1546   -2.5031 H   0  0  0  0  0  0  0  0  0  0  0  0
    6.4786    7.2048   -1.9163 H   0  0  0  0  0  0  0  0  0  0  0  0
    5.6431    8.3409   -0.8349 H   0  0  0  0  0  0  0  0  0  0  0  0
    6.9791    8.9096   -1.8711 H   0  0  0  0  0  0  0  0  0  0  0  0
    6.1380    7.3865   -4.4716 H   0  0  0  0  0  0  0  0  0  0  0  0
    6.6447    9.0884   -4.4048 H   0  0  0  0  0  0  0  0  0  0  0  0
    5.0747    8.6507   -5.1296 H   0  0  0  0  0  0  0  0  0  0  0  0
    4.2385   10.2501   -1.8036 H   0  0  0  0  0  0  0  0  0  0  0  0
    3.9934   10.3722   -3.5666 H   0  0  0  0  0  0  0  0  0  0  0  0
    5.5915   10.6964   -2.8627 H   0  0  0  0  0  0  0  0  0  0  0  0
    5.0908    5.8533   -3.1348 H   0  0  0  0  0  0  0  0  0  0  0  0
    3.2234    4.2922   -2.9742 H   0  0  0  0  0  0  0  0  0  0  0  0
   -0.5498    2.8450   -5.3489 H   0  0  0  0  0  0  0  0  0  0  0  0
   -2.2543    1.0213   -5.4788 H   0  0  0  0  0  0  0  0  0  0  0  0
   -3.0497   -0.0525   -3.3813 H   0  0  0  0  0  0  0  0  0  0  0  0
   -2.6945    2.1623    0.2695 H   0  0  0  0  0  0  0  0  0  0  0  0
   -2.4185    1.1406    3.1787 H   0  0  0  0  0  0  0  0  0  0  0  0
   -4.1543    0.7210    3.1348 H   0  0  0  0  0  0  0  0  0  0  0  0
   -3.5739    2.2121    2.3154 H   0  0  0  0  0  0  0  0  0  0  0  0
   -1.2650   -4.8988    1.5403 H   0  0  0  0  0  0  0  0  0  0  0  0
   -1.4637   -6.8832    2.5544 H   0  0  0  0  0  0  0  0  0  0  0  0
    0.9412   -6.7001    4.4918 H   0  0  0  0  0  0  0  0  0  0  0  0
   -0.7429   -7.0565    4.9828 H   0  0  0  0  0  0  0  0  0  0  0  0
    0.7508   -4.5596    2.8160 H   0  0  0  0  0  0  0  0  0  0  0  0
    1.5494   -3.5429    4.0494 H   0  0  0  0  0  0  0  0  0  0  0  0
    1.1626   -2.9355    1.4038 H   0  0  0  0  0  0  0  0  0  0  0  0
    1.8611   -1.7514   -0.3320 H   0  0  0  0  0  0  0  0  0  0  0  0
    1.8970    0.0126   -0.0105 H   0  0  0  0  0  0  0  0  0  0  0  0
    0.5226   -0.6984   -0.8820 H   0  0  0  0  0  0  0  0  0  0  0  0
   -2.1204   -1.3782    4.0170 H   0  0  0  0  0  0  0  0  0  0  0  0
   -1.1307    0.9110    5.1975 H   0  0  0  0  0  0  0  0  0  0  0  0
   -0.7724   -0.3227    6.4201 H   0  0  0  0  0  0  0  0  0  0  0  0
   -2.4662   -0.0492    5.9132 H   0  0  0  0  0  0  0  0  0  0  0  0
  2  1  2  0  0  0  0
  2 40  1  0  0  0  0
  3  2  1  0  0  0  0
  4 39  1  0  0  0  0
  4  3  1  0  0  0  0
  5  4  2  0  0  0  0
  6 55  1  0  0  0  0
  6 57  1  0  0  0  0
  6  5  1  0  0  0  0
  7  8  2  0  0  0  0
  7  5  1  0  0  0  0
  8  9  1  0  0  0  0
  9 39  2  0  0  0  0
  9 10  1  0  0  0  0
 10 60  1  0  0  0  0
 11 10  1  0  0  0  0
 11 37  1  0  0  0  0
 12 11  2  0  0  0  0
 13 12  1  0  0  0  0
 13 34  2  0  0  0  0
 14 15  1  0  0  0  0
 14 13  1  0  0  0  0
 15 16  1  0  0  0  0
 16 62  1  0  0  0  0
 16 64  1  0  0  0  0
 17 18  1  0  0  0  0
 17 15  2  0  0  0  0
 18 19  1  0  0  0  0
 19 30  2  0  0  0  0
 20 19  1  0  0  0  0
 20 21  1  0  0  0  0
 21 66  1  0  0  0  0
 22 21  2  0  0  0  0
 22 67  1  0  0  0  0
 23 22  1  0  0  0  0
 24 23  1  0  0  0  0
 24 27  1  0  0  0  0
 24 25  1  0  0  0  0
 25 69  1  0  0  0  0
 26 24  1  0  0  0  0
 27 74  1  0  0  0  0
 28 29  1  0  0  0  0
 28 23  2  0  0  0  0
 29 20  2  0  0  0  0
 31 17  1  0  0  0  0
 32 31  2  0  0  0  0
 32 33  1  0  0  0  0
 33 14  2  0  0  0  0
 34 82  1  0  0  0  0
 34 35  1  0  0  0  0
 35 37  1  0  0  0  0
 35 36  1  0  0  0  0
 36 84  1  0  0  0  0
 36 83  1  0  0  0  0
 37 38  2  0  0  0  0
 39 86  1  0  0  0  0
 40 41  1  0  0  0  0
 41 88  1  0  0  0  0
 41 42  1  0  0  0  0
 41 89  1  0  0  0  0
 43 91  1  0  0  0  0
 43 42  1  0  0  0  0
 44 45  1  6  0  0  0
 44 43  1  0  0  0  0
 44 50  1  0  0  0  0
 46 44  1  0  0  0  0
 47 49  2  0  0  0  0
 47 46  1  0  0  0  0
 48 94  1  0  0  0  0
 48 47  1  0  0  0  0
 50 53  2  0  0  0  0
 50 51  1  0  0  0  0
 51 52  1  0  0  0  0
 52 99  1  0  0  0  0
 52 98  1  0  0  0  0
 54  3  1  0  0  0  0
 56  6  1  0  0  0  0
 58  7  1  0  0  0  0
 59  8  1  0  0  0  0
 61 12  1  0  0  0  0
 63 16  1  0  0  0  0
 65 18  1  0  0  0  0
 68 25  1  0  0  0  0
 70 25  1  0  0  0  0
 71 26  1  0  0  0  0
 72 26  1  0  0  0  0
 73 26  1  0  0  0  0
 75 27  1  0  0  0  0
 76 27  1  0  0  0  0
 77 28  1  0  0  0  0
 78 29  1  0  0  0  0
 79 31  1  0  0  0  0
 80 32  1  0  0  0  0
 81 33  1  0  0  0  0
 85 36  1  0  0  0  0
 87 40  1  0  0  0  0
 90 43  1  0  0  0  0
 92 46  1  0  0  0  0
 93 48  1  0  0  0  0
 95 48  1  0  0  0  0
 96 51  1  0  0  0  0
 97 52  1  0  0  0  0
M  END
