-1 1
 OpenBabel05232413483D

 99101  0  0  1  0  0  0  0  0999 V2000
    2.3600   -7.5209    0.3586 O   0  0  0  0  0  0  0  0  0  0  0  0
    1.2933   -6.9447    0.4970 C   0  0  0  0  0  0  0  0  0  0  0  0
    0.6176   -6.5338   -0.6365 N   0  0  0  0  0  0  0  0  0  0  0  0
   -0.5301   -5.7467   -0.8516 C   0  0  0  0  0  0  0  0  0  0  0  0
   -1.2467   -5.9525   -2.0497 C   0  0  0  0  0  0  0  0  0  0  0  0
   -0.8283   -7.0190   -3.0276 C   0  0  0  0  0  0  0  0  0  0  0  0
   -2.3545   -5.1393   -2.3000 C   0  0  0  0  0  0  0  0  0  0  0  0
   -2.7833   -4.1771   -1.3927 C   0  0  0  0  0  0  0  0  0  0  0  0
   -2.0744   -3.9826   -0.2015 C   0  0  0  0  0  0  0  0  0  0  0  0
   -2.4989   -3.0511    0.7543 N   0  0  0  0  0  0  0  0  0  0  0  0
   -2.5694   -1.7064    0.5027 C   0  0  0  0  0  0  0  0  0  0  0  0
   -2.1699   -1.0830   -0.6554 C   0  0  0  0  0  0  0  0  0  0  0  0
   -2.1864    0.3387   -0.7771 C   0  0  0  0  0  0  0  0  0  0  0  0
   -1.7208    0.9902   -2.0292 C   0  0  0  0  0  0  0  0  0  0  0  0
   -0.7018    1.9698   -2.0267 C   0  0  0  0  0  0  0  0  0  0  0  0
    0.0352    2.3537   -0.7718 C   0  0  0  0  0  0  0  0  0  0  0  0
   -0.3494    2.5495   -3.2609 C   0  0  0  0  0  0  0  0  0  0  0  0
    0.6689    3.5396   -3.3281 N   0  0  0  0  0  0  0  0  0  0  0  0
    0.6045    4.7645   -2.7193 C   0  0  0  0  0  0  0  0  0  0  0  0
    1.8111    5.6418   -2.9288 C   0  0  0  0  0  0  0  0  0  0  0  0
    1.6462    7.0202   -2.7975 C   0  0  0  0  0  0  0  0  0  0  0  0
    2.7228    7.8871   -2.9668 C   0  0  0  0  0  0  0  0  0  0  0  0
    4.0067    7.4079   -3.2546 C   0  0  0  0  0  0  0  0  0  0  0  0
    5.2207    8.3291   -3.4398 C   0  0  0  0  0  0  0  0  0  0  0  0
    6.2816    7.9890   -2.3767 C   0  0  0  0  0  0  0  0  0  0  0  0
    5.8103    8.1147   -4.8460 C   0  0  0  0  0  0  0  0  0  0  0  0
    4.8505    9.8105   -3.2940 C   0  0  0  0  0  0  0  0  0  0  0  0
    4.1642    6.0179   -3.3610 C   0  0  0  0  0  0  0  0  0  0  0  0
    3.0912    5.1480   -3.2019 C   0  0  0  0  0  0  0  0  0  0  0  0
   -0.3440    5.1385   -2.0611 O   0  0  0  0  0  0  0  0  0  0  0  0
   -0.9370    2.1390   -4.4588 C   0  0  0  0  0  0  0  0  0  0  0  0
   -1.8979    1.1352   -4.4523 C   0  0  0  0  0  0  0  0  0  0  0  0
   -2.2894    0.5765   -3.2414 C   0  0  0  0  0  0  0  0  0  0  0  0
   -2.6175    1.0752    0.2828 C   0  0  0  0  0  0  0  0  0  0  0  0
   -3.0530    0.4700    1.4321 N   0  0  0  0  0  0  0  0  0  0  0  0
   -3.4185    1.2577    2.5950 C   0  0  0  0  0  0  0  0  0  0  0  0
   -3.0872   -0.8982    1.6113 C   0  0  0  0  0  0  0  0  0  0  0  0
   -3.5091   -1.3745    2.6635 O   0  0  0  0  0  0  0  0  0  0  0  0
   -0.9310   -4.7497    0.0414 C   0  0  0  0  0  0  0  0  0  0  0  0
    0.6785   -6.6880    1.8269 C   0  0  0  0  0  0  0  0  0  0  0  0
    1.4089   -6.8125    2.9362 C   0  0  0  0  0  0  0  0  0  0  0  0
   -1.5818   -4.4663    3.5890 S   0  0  0  0  0  1  0  0  0  0  0  0
   -0.0644   -3.4585    3.5134 C   0  0  0  0  0  0  0  0  0  0  0  0
   -0.3138   -1.9490    3.6844 C   0  0  2  0  0  0  0  0  0  0  0  0
   -1.0611   -1.6315    2.9520 H   0  0  0  0  0  0  0  0  0  0  0  0
    0.8839   -1.1685    3.4336 N   0  0  0  0  0  0  0  0  0  0  0  0
    0.9410   -0.1648    2.5344 C   0  0  0  0  0  0  0  0  0  0  0  0
    2.2512    0.6005    2.4862 C   0  0  0  0  0  0  0  0  0  0  0  0
    0.0252    0.1226    1.7751 O   0  0  0  0  0  0  0  0  0  0  0  0
   -0.7872   -1.6250    5.1005 C   0  0  0  0  0  0  0  0  0  0  0  0
   -2.1216   -1.4996    5.2393 N   0  0  0  0  0  0  0  0  0  0  0  0
   -2.7500   -1.4413    6.5307 C   0  0  0  0  0  0  0  0  0  0  0  0
    0.0242   -1.4820    6.0081 O   0  0  0  0  0  0  0  0  0  0  0  0
    1.1063   -6.8456   -1.4682 H   0  0  0  0  0  0  0  0  0  0  0  0
    0.1485   -6.7993   -3.4950 H   0  0  0  0  0  0  0  0  0  0  0  0
   -1.5600   -7.1109   -3.8424 H   0  0  0  0  0  0  0  0  0  0  0  0
   -0.7390   -8.0026   -2.5385 H   0  0  0  0  0  0  0  0  0  0  0  0
   -2.9175   -5.2896   -3.2259 H   0  0  0  0  0  0  0  0  0  0  0  0
   -3.6753   -3.5801   -1.5912 H   0  0  0  0  0  0  0  0  0  0  0  0
   -2.4095   -3.3639    1.7497 H   0  0  0  0  0  0  0  0  0  0  0  0
   -1.7660   -1.6777   -1.4768 H   0  0  0  0  0  0  0  0  0  0  0  0
   -0.3921    3.2690   -0.3339 H   0  0  0  0  0  0  0  0  0  0  0  0
    1.0851    2.5835   -1.0086 H   0  0  0  0  0  0  0  0  0  0  0  0
    0.0072    1.5562   -0.0157 H   0  0  0  0  0  0  0  0  0  0  0  0
    1.3709    3.4179   -4.0459 H   0  0  0  0  0  0  0  0  0  0  0  0
    0.6526    7.4015   -2.5538 H   0  0  0  0  0  0  0  0  0  0  0  0
    2.5443    8.9575   -2.8632 H   0  0  0  0  0  0  0  0  0  0  0  0
    6.6290    6.9489   -2.4623 H   0  0  0  0  0  0  0  0  0  0  0  0
    5.8769    8.1248   -1.3622 H   0  0  0  0  0  0  0  0  0  0  0  0
    7.1599    8.6450   -2.4873 H   0  0  0  0  0  0  0  0  0  0  0  0
    6.1432    7.0773   -4.9969 H   0  0  0  0  0  0  0  0  0  0  0  0
    6.6817    8.7709   -5.0010 H   0  0  0  0  0  0  0  0  0  0  0  0
    5.0649    8.3448   -5.6227 H   0  0  0  0  0  0  0  0  0  0  0  0
    4.4495   10.0353   -2.2940 H   0  0  0  0  0  0  0  0  0  0  0  0
    4.1058   10.1215   -4.0424 H   0  0  0  0  0  0  0  0  0  0  0  0
    5.7468   10.4329   -3.4389 H   0  0  0  0  0  0  0  0  0  0  0  0
    5.1509    5.5942   -3.5622 H   0  0  0  0  0  0  0  0  0  0  0  0
    3.2689    4.0712   -3.2596 H   0  0  0  0  0  0  0  0  0  0  0  0
   -0.6354    2.6185   -5.3935 H   0  0  0  0  0  0  0  0  0  0  0  0
   -2.3548    0.8040   -5.3873 H   0  0  0  0  0  0  0  0  0  0  0  0
   -3.0603   -0.1972   -3.2190 H   0  0  0  0  0  0  0  0  0  0  0  0
   -2.6391    2.1646    0.2748 H   0  0  0  0  0  0  0  0  0  0  0  0
   -2.7739    0.9813    3.4417 H   0  0  0  0  0  0  0  0  0  0  0  0
   -4.4587    1.0555    2.8865 H   0  0  0  0  0  0  0  0  0  0  0  0
   -3.2940    2.3218    2.3623 H   0  0  0  0  0  0  0  0  0  0  0  0
   -0.3650   -4.5439    0.9465 H   0  0  0  0  0  0  0  0  0  0  0  0
   -0.3613   -6.3590    1.9215 H   0  0  0  0  0  0  0  0  0  0  0  0
    2.4591   -7.1140    2.8833 H   0  0  0  0  0  0  0  0  0  0  0  0
    0.9538   -6.5934    3.9058 H   0  0  0  0  0  0  0  0  0  0  0  0
    0.4569   -3.5751    2.5441 H   0  0  0  0  0  0  0  0  0  0  0  0
    0.6575   -3.7761    4.2869 H   0  0  0  0  0  0  0  0  0  0  0  0
    1.5912   -1.2313    4.1567 H   0  0  0  0  0  0  0  0  0  0  0  0
    2.9784    0.2798    3.2449 H   0  0  0  0  0  0  0  0  0  0  0  0
    2.0368    1.6708    2.6134 H   0  0  0  0  0  0  0  0  0  0  0  0
    2.6919    0.4690    1.4875 H   0  0  0  0  0  0  0  0  0  0  0  0
   -2.6904   -1.7473    4.4274 H   0  0  0  0  0  0  0  0  0  0  0  0
   -3.5966   -0.7376    6.5183 H   0  0  0  0  0  0  0  0  0  0  0  0
   -2.0076   -1.1015    7.2648 H   0  0  0  0  0  0  0  0  0  0  0  0
   -3.1218   -2.4321    6.8429 H   0  0  0  0  0  0  0  0  0  0  0  0
  1  2  2  0  0  0  0
  2 40  1  0  0  0  0
  3  2  1  0  0  0  0
  4  3  1  0  0  0  0
  4 39  1  0  0  0  0
  5  4  2  0  0  0  0
  6 57  1  0  0  0  0
  6  5  1  0  0  0  0
  7  5  1  0  0  0  0
  7  8  2  0  0  0  0
  8  9  1  0  0  0  0
  9 39  2  0  0  0  0
  9 10  1  0  0  0  0
 10 60  1  0  0  0  0
 11 10  1  0  0  0  0
 11 37  1  0  0  0  0
 12 11  2  0  0  0  0
 13 12  1  0  0  0  0
 13 34  2  0  0  0  0
 14 15  1  0  0  0  0
 14 13  1  0  0  0  0
 15 16  1  0  0  0  0
 16 62  1  0  0  0  0
 16 64  1  0  0  0  0
 17 15  2  0  0  0  0
 18 17  1  0  0  0  0
 18 19  1  0  0  0  0
 19 30  2  0  0  0  0
 20 21  1  0  0  0  0
 20 19  1  0  0  0  0
 21 66  1  0  0  0  0
 22 67  1  0  0  0  0
 22 21  2  0  0  0  0
 23 22  1  0  0  0  0
 24 27  1  0  0  0  0
 24 23  1  0  0  0  0
 24 25  1  0  0  0  0
 25 69  1  0  0  0  0
 26 24  1  0  0  0  0
 27 74  1  0  0  0  0
 28 23  2  0  0  0  0
 28 29  1  0  0  0  0
 29 20  2  0  0  0  0
 31 32  2  0  0  0  0
 31 17  1  0  0  0  0
 32 33  1  0  0  0  0
 33 81  1  0  0  0  0
 33 14  2  0  0  0  0
 34 35  1  0  0  0  0
 35 37  1  0  0  0  0
 35 36  1  0  0  0  0
 36 84  1  0  0  0  0
 36 83  1  0  0  0  0
 37 38  2  0  0  0  0
 39 86  1  0  0  0  0
 40 87  1  0  0  0  0
 40 41  2  0  0  0  0
 41 89  1  0  0  0  0
 43 42  1  0  0  0  0
 43 44  1  0  0  0  0
 43 91  1  0  0  0  0
 44 45  1  6  0  0  0
 44 50  1  0  0  0  0
 46 44  1  0  0  0  0
 46 92  1  0  0  0  0
 47 46  1  0  0  0  0
 48 47  1  0  0  0  0
 48 94  1  0  0  0  0
 48 93  1  0  0  0  0
 49 47  2  0  0  0  0
 50 51  1  0  0  0  0
 50 53  2  0  0  0  0
 51 52  1  0  0  0  0
 52 99  1  0  0  0  0
 52 98  1  0  0  0  0
 54  3  1  0  0  0  0
 55  6  1  0  0  0  0
 56  6  1  0  0  0  0
 58  7  1  0  0  0  0
 59  8  1  0  0  0  0
 61 12  1  0  0  0  0
 63 16  1  0  0  0  0
 65 18  1  0  0  0  0
 68 25  1  0  0  0  0
 70 25  1  0  0  0  0
 71 26  1  0  0  0  0
 72 26  1  0  0  0  0
 73 26  1  0  0  0  0
 75 27  1  0  0  0  0
 76 27  1  0  0  0  0
 77 28  1  0  0  0  0
 78 29  1  0  0  0  0
 79 31  1  0  0  0  0
 80 32  1  0  0  0  0
 82 34  1  0  0  0  0
 85 36  1  0  0  0  0
 88 41  1  0  0  0  0
 90 43  1  0  0  0  0
 95 48  1  0  0  0  0
 96 51  1  0  0  0  0
 97 52  1  0  0  0  0
M  END
