106
-1 1
O         3.641915   -5.670932    1.132870
C         3.431261   -4.870698    0.212952
N         3.416781   -3.473598    0.663811
C         2.506612   -2.462460    0.343865
C         2.814743   -1.096394    0.592451
C         4.151735   -0.543383    1.011090
N         5.189902   -1.415431    1.094026
C         6.564461   -0.970970    1.001962
C         7.070673   -0.238172    2.243564
O         8.415716    0.144518    2.110802
C         8.629085    1.223443    1.246657
O         4.304755    0.662974    1.185647
C         1.864663   -0.133274    0.237870
C         0.675270   -0.443712   -0.401420
C         0.398504   -1.785888   -0.694771
N        -0.694881   -2.218135   -1.446744
C        -1.774884   -1.542951   -1.940926
C        -2.339691   -0.383121   -1.475436
C        -3.469542    0.195275   -2.138235
C        -4.064930    1.478331   -1.672674
C        -4.577120    1.613266   -0.364352
C        -4.615674    0.451040    0.588791
C        -5.100584    2.864163    0.013018
N        -5.628619    3.067504    1.312069
C        -4.891127    2.943648    2.471670
C        -5.629896    3.257152    3.735305
C        -7.022612    3.240443    3.860315
C        -7.646262    3.521023    5.069274
C        -6.888819    3.834494    6.220662
N        -7.496772    4.123382    7.421331
C        -6.693221    4.378808    8.592734
C        -8.934100    4.078552    7.529402
C        -5.479725    3.829749    6.091999
C        -4.876000    3.540124    4.879404
O        -3.725643    2.607836    2.473078
C        -5.158916    3.926340   -0.893676
C        -4.687492    3.767751   -2.189977
C        -4.128377    2.551757   -2.568870
C        -3.982214   -0.439494   -3.226389
N        -3.451431   -1.623826   -3.687647
C        -4.056768   -2.260301   -4.845489
C        -2.368956   -2.245264   -3.096165
O        -1.924030   -3.313957   -3.504719
C         1.294300   -2.773880   -0.277318
C         3.276202   -5.170359   -1.150759
C         3.192538   -4.287669   -2.308077
S         4.824942   -3.532299   -3.093146
C         4.912142   -1.921913   -2.251316
C         4.458789   -0.664717   -3.026751
H         5.048827   -0.611780   -3.959490
N         4.685019    0.526403   -2.241733
C         5.894502    1.049380   -1.939202
C         5.837083    2.314652   -1.108771
O         6.952338    0.527050   -2.266233
C         2.964064   -0.619493   -3.408767
N         2.523433   -1.647114   -4.160918
C         1.130446   -1.819652   -4.490958
O         2.257050    0.316819   -3.061407
H         3.659630   -3.499423    1.652205
H         4.980185   -2.368477    0.795267
H         6.692701   -0.329112    0.116061
H         7.192060   -1.858992    0.839393
H         7.012464   -0.907619    3.115816
H         6.423912    0.636586    2.437993
H         8.404517    0.988520    0.189684
H         9.690866    1.500407    1.318683
H         8.017038    2.101946    1.534081
H         2.127802    0.909454    0.421121
H         0.037984    0.363168   -0.753112
H        -0.596334   -3.133516   -1.879133
H        -1.939683    0.113045   -0.593076
H        -4.629179   -0.505764    0.051833
H        -5.509097    0.511028    1.227330
H        -3.744336    0.465661    1.260078
H        -6.461156    3.639052    1.367283
H        -7.651413    2.969113    3.008105
H        -8.733636    3.478784    5.115378
H        -6.032112    5.252458    8.457005
H        -6.058416    3.515530    8.862366
H        -7.349588    4.590243    9.445536
H        -9.421416    4.787381    6.836937
H        -9.232355    4.354544    8.548062
H        -9.341038    3.071987    7.320955
H        -4.845053    4.047742    6.949876
H        -3.787494    3.523602    4.795299
H        -5.564226    4.886281   -0.563874
H        -4.727979    4.600285   -2.895354
H        -3.713416    2.426171   -3.571172
H        -4.841176   -0.057432   -3.779743
H        -4.080118   -1.561114   -5.693907
H        -5.082935   -2.583954   -4.615097
H        -3.450651   -3.135279   -5.102844
H         1.088984   -3.827062   -0.484071
H         3.390886   -6.238413   -1.353176
H         2.598594   -3.372875   -2.178685
H         2.792716   -4.820853   -3.183302
H         5.960834   -1.747360   -1.977888
H         4.332895   -1.996244   -1.326395
H         3.829081    1.012437   -1.985043
H         6.816384    2.807018   -1.138117
H         5.580230    2.034180   -0.074526
H         5.060189    3.004592   -1.470084
H         3.177622   -2.421305   -4.297015
H         0.587173   -0.924167   -4.162339
H         0.694806   -2.694827   -3.984311
H         0.992144   -1.944449   -5.576518
