102
-1 1
O         2.912145   -3.232829    6.199911
C         2.341037   -2.827160    5.199921
N         1.176566   -2.105531    5.355458
C         0.088548   -1.786915    4.530414
C        -0.784822   -0.752203    4.940787
C        -0.652629   -0.005309    6.227937
N        -0.422479   -0.765209    7.376097
C        -1.011891   -2.083977    7.588569
C        -0.146309   -2.875845    8.561010
O         0.032854   -2.173865    9.766890
C         0.639507   -0.924922    9.549181
C        -0.189744   -0.050339    8.619605
O        -0.725638    1.205235    6.292893
C        -1.805858   -0.359317    4.069445
C        -2.025514   -0.989595    2.859242
C        -1.201200   -2.063124    2.484445
N        -1.394837   -2.773332    1.314022
C        -1.872061   -2.328007    0.098806
C        -1.959644   -1.029849   -0.317549
C        -2.412957   -0.722767   -1.639980
C        -2.385162    0.698194   -2.086031
C        -1.596303    1.129573   -3.175193
C        -0.885919    0.173889   -4.102841
C        -1.459697    2.516384   -3.390969
N        -0.495310    2.948048   -4.332422
C        -0.576036    4.055629   -5.121558
C         0.697518    4.428681   -5.841297
C         1.968802    3.974739   -5.470620
C         3.092842    4.399032   -6.177197
C         2.986012    5.275359   -7.261842
C         4.203911    5.698196   -8.041717
C         1.709867    5.731582   -7.615821
C         0.583769    5.319970   -6.912728
O        -1.592945    4.710900   -5.269373
C        -2.173766    3.443435   -2.629851
C        -2.990971    2.999686   -1.597484
C        -3.068278    1.643011   -1.309794
C        -2.768980   -1.753387   -2.453779
N        -2.668479   -3.061101   -2.047954
C        -2.879471   -4.136948   -2.996764
C        -2.189003   -3.432411   -0.807542
O        -2.032185   -4.612996   -0.504326
C        -0.169904   -2.464747    3.341996
C         2.968390   -3.032344    3.864250
C         2.938657   -2.168008    2.846725
S         1.047861    0.564940    1.273670
C         1.870716   -0.320012   -0.101750
C         1.315143   -0.015118   -1.508456
H         0.228308   -0.190844   -1.465622
N         1.875116   -0.888392   -2.522022
C         1.323662   -2.071854   -2.873321
C         1.918204   -2.707993   -4.118226
O         0.394377   -2.594834   -2.279433
C         1.523665    1.423193   -2.005115
N         1.239456    2.386634   -1.140163
C         1.396771    3.780942   -1.459494
O         1.915498    1.639692   -3.168152
H         1.089985   -1.767907    6.309747
H        -1.110797   -2.619371    6.636061
H        -2.027101   -1.970442    8.016097
H         0.833955   -3.099958    8.093532
H        -0.633446   -3.829199    8.810063
H         1.650969   -1.061273    9.115300
H         0.747494   -0.442136   10.531086
H         0.325106    0.891644    8.392725
H        -1.151714    0.206042    9.104198
H        -2.445572    0.471345    4.374272
H        -2.834878   -0.662650    2.208118
H        -1.090502   -3.741199    1.279785
H        -1.574365   -0.227923    0.320068
H        -0.923892   -0.853095   -3.725639
H         0.173390    0.433812   -4.226625
H        -1.351072    0.200714   -5.102085
H         0.404312    2.472944   -4.251086
H         2.107736    3.298268   -4.621197
H         4.078806    4.040905   -5.868307
H         5.107226    5.686429   -7.414749
H         4.085951    6.710623   -8.455161
H         4.382431    5.015575   -8.889019
H         1.599515    6.426967   -8.452996
H        -0.411597    5.686042   -7.171509
H        -2.072069    4.505530   -2.849990
H        -3.544173    3.721349   -0.992641
H        -3.666227    1.295123   -0.464649
H        -3.136719   -1.600300   -3.468740
H        -3.475462   -3.767555   -3.840695
H        -3.397632   -4.968521   -2.503931
H        -1.908108   -4.506055   -3.360319
H         0.484179   -3.274131    3.023975
H         3.616356   -3.913445    3.839861
H         3.538242   -2.361424    1.952776
H         2.329378   -1.252805    2.822316
H         1.737413   -1.406035    0.028824
H         2.958364   -0.124091   -0.110548
H         2.487141   -0.420871   -3.182967
H         2.951147   -2.388078   -4.314463
H         1.295835   -2.429805   -4.983150
H         1.881490   -3.799176   -4.009702
H         1.019172    2.066719   -0.162325
H         2.368752    3.973367   -1.940993
H         0.606294    4.133358   -2.141789
H         1.337749    4.362436   -0.530508
