102
-1 1
O         6.299361    8.379742   -8.771761
C         5.864121    8.708893   -9.874579
N         4.852202    9.729344   -9.867944
C         3.555995    9.677386  -10.340808
C         2.621648   10.662178   -9.923819
C         2.969008   11.753527   -8.957484
N         3.508117   11.361271   -7.745841
C         3.231227   10.075535   -7.111239
C         4.412542    9.659912   -6.244346
O         4.742329   10.671066   -5.317150
C         5.073274   11.870236   -5.963727
C         3.916737   12.390611   -6.806546
O         2.804489   12.929350   -9.227022
C         1.339239   10.669704  -10.473805
C         0.929854    9.708830  -11.386451
C         1.838917    8.716908  -11.785460
N         1.470537    7.767525  -12.753210
C         1.160650    8.135876  -14.050342
C         0.893467    9.400216  -14.484871
C         0.692658    9.696718  -15.871938
C         0.604166   11.145394  -16.209909
C         1.530380   11.757882  -17.082013
C         2.288597   10.968481  -18.114255
C         1.719806   13.150465  -16.977546
N         2.903991   13.681613  -17.534506
C         3.081583   14.917568  -18.073053
C         4.515798   15.273188  -18.382244
C         5.621884   14.625416  -17.819210
C         6.912994   15.030145  -18.151802
C         7.139099   16.080150  -19.048065
C         8.538656   16.485800  -19.430748
C         6.025261   16.729697  -19.594657
C         4.733734   16.336913  -19.262431
O         2.171429   15.687400  -18.325331
C         0.849383   13.945468  -16.228627
C        -0.169900   13.340459  -15.501985
C        -0.252678   11.953267  -15.449058
C         0.757432    8.658778  -16.749641
N         1.020223    7.374170  -16.331490
C         1.238455    6.355348  -17.350336
C         1.217290    7.019717  -15.004177
O         1.457080    5.871059  -14.655290
C         3.125854    8.694504  -11.245667
C         6.387736    8.246972  -11.121159
C         6.218401    8.854781  -12.359342
S         4.836224    7.744687  -13.936171
C         5.598619    8.406684  -15.440321
C         4.689156    9.340012  -16.266089
H         3.718460    8.825886  -16.366982
N         5.217233    9.569915  -17.591007
C         4.815410    8.848269  -18.664486
C         5.282976    9.376178  -20.007088
O         4.101992    7.861630  -18.580162
C         4.429323   10.716263  -15.634656
N         3.859760   10.692593  -14.431582
C         3.450171   11.883130  -13.724568
O         4.718873   11.756689  -16.241286
H         4.958458   10.304140   -9.039154
H         3.034974    9.309199   -7.870628
H         2.324951   10.170093   -6.482090
H         5.274620    9.406235   -6.891546
H         4.151103    8.763995   -5.664242
H         5.960719   11.726670   -6.613557
H         5.332505   12.601610   -5.184105
H         4.201102   13.287177   -7.371494
H         3.070466   12.664834   -6.147362
H         0.647008   11.453453  -10.157833
H        -0.086093    9.709606  -11.781917
H         1.978157    6.885167  -12.746436
H         0.915256   10.232050  -13.782423
H         2.564144    9.972173  -17.756019
H         3.193427   11.477333  -18.458799
H         1.641395   10.819081  -18.994966
H         3.721732   13.114792  -17.307235
H         5.499999   13.811560  -17.099112
H         7.764437   14.519331  -17.693802
H         9.253527   16.277112  -18.621763
H         8.595465   17.557422  -19.671473
H         8.877184   15.929994  -20.320739
H         6.174451   17.562161  -20.288276
H         3.861467   16.849729  -19.672297
H         0.993063   15.025249  -16.214035
H        -0.861902   13.953504  -14.920510
H        -0.980765   11.475024  -14.789845
H         0.624469    8.773307  -17.824482
H         0.361163    6.287425  -18.010474
H         1.391147    5.399370  -16.839497
H         2.134158    6.611756  -17.935984
H         3.826854    7.926593  -11.565979
H         7.091675    7.417773  -11.022507
H         7.013168    8.739326  -13.098610
H         5.683816    9.807706  -12.409718
H         5.867299    7.573632  -16.105624
H         6.536566    8.940047  -15.193355
H         5.616663   10.492788  -17.729770
H         6.149474   10.047206  -19.930163
H         4.450730    9.926653  -20.471926
H         5.527608    8.526386  -20.656860
H         3.760351    9.763419  -13.996995
H         3.177924   11.610836  -12.696055
H         4.262658   12.623945  -13.696449
H         2.577171   12.349788  -14.211563
