-1 1
 OpenBabel05232413483D

102105  0  0  1  0  0  0  0  0999 V2000
    2.9121   -3.2328    6.1999 O   0  0  0  0  0  0  0  0  0  0  0  0
    2.3410   -2.8272    5.1999 C   0  0  0  0  0  0  0  0  0  0  0  0
    1.1766   -2.1055    5.3555 N   0  0  0  0  0  0  0  0  0  0  0  0
    0.0885   -1.7869    4.5304 C   0  0  0  0  0  0  0  0  0  0  0  0
   -0.7848   -0.7522    4.9408 C   0  0  0  0  0  0  0  0  0  0  0  0
   -0.6526   -0.0053    6.2279 C   0  0  0  0  0  0  0  0  0  0  0  0
   -0.4225   -0.7652    7.3761 N   0  0  0  0  0  0  0  0  0  0  0  0
   -1.0119   -2.0840    7.5886 C   0  0  0  0  0  0  0  0  0  0  0  0
   -0.1463   -2.8758    8.5610 C   0  0  0  0  0  0  0  0  0  0  0  0
    0.0329   -2.1739    9.7669 O   0  0  0  0  0  0  0  0  0  0  0  0
    0.6395   -0.9249    9.5492 C   0  0  0  0  0  0  0  0  0  0  0  0
   -0.1897   -0.0503    8.6196 C   0  0  0  0  0  0  0  0  0  0  0  0
   -0.7256    1.2052    6.2929 O   0  0  0  0  0  0  0  0  0  0  0  0
   -1.8059   -0.3593    4.0694 C   0  0  0  0  0  0  0  0  0  0  0  0
   -2.0255   -0.9896    2.8592 C   0  0  0  0  0  0  0  0  0  0  0  0
   -1.2012   -2.0631    2.4844 C   0  0  0  0  0  0  0  0  0  0  0  0
   -1.3948   -2.7733    1.3140 N   0  0  0  0  0  0  0  0  0  0  0  0
   -1.8721   -2.3280    0.0988 C   0  0  0  0  0  0  0  0  0  0  0  0
   -1.9596   -1.0298   -0.3175 C   0  0  0  0  0  0  0  0  0  0  0  0
   -2.4130   -0.7228   -1.6400 C   0  0  0  0  0  0  0  0  0  0  0  0
   -2.3852    0.6982   -2.0860 C   0  0  0  0  0  0  0  0  0  0  0  0
   -1.5963    1.1296   -3.1752 C   0  0  0  0  0  0  0  0  0  0  0  0
   -0.8859    0.1739   -4.1028 C   0  0  0  0  0  0  0  0  0  0  0  0
   -1.4597    2.5164   -3.3910 C   0  0  0  0  0  0  0  0  0  0  0  0
   -0.4953    2.9480   -4.3324 N   0  0  0  0  0  0  0  0  0  0  0  0
   -0.5760    4.0556   -5.1216 C   0  0  0  0  0  0  0  0  0  0  0  0
    0.6975    4.4287   -5.8413 C   0  0  0  0  0  0  0  0  0  0  0  0
    1.9688    3.9747   -5.4706 C   0  0  0  0  0  0  0  0  0  0  0  0
    3.0928    4.3990   -6.1772 C   0  0  0  0  0  0  0  0  0  0  0  0
    2.9860    5.2754   -7.2618 C   0  0  0  0  0  0  0  0  0  0  0  0
    4.2039    5.6982   -8.0417 C   0  0  0  0  0  0  0  0  0  0  0  0
    1.7099    5.7316   -7.6158 C   0  0  0  0  0  0  0  0  0  0  0  0
    0.5838    5.3200   -6.9127 C   0  0  0  0  0  0  0  0  0  0  0  0
   -1.5929    4.7109   -5.2694 O   0  0  0  0  0  0  0  0  0  0  0  0
   -2.1738    3.4434   -2.6299 C   0  0  0  0  0  0  0  0  0  0  0  0
   -2.9910    2.9997   -1.5975 C   0  0  0  0  0  0  0  0  0  0  0  0
   -3.0683    1.6430   -1.3098 C   0  0  0  0  0  0  0  0  0  0  0  0
   -2.7690   -1.7534   -2.4538 C   0  0  0  0  0  0  0  0  0  0  0  0
   -2.6685   -3.0611   -2.0480 N   0  0  0  0  0  0  0  0  0  0  0  0
   -2.8795   -4.1369   -2.9968 C   0  0  0  0  0  0  0  0  0  0  0  0
   -2.1890   -3.4324   -0.8075 C   0  0  0  0  0  0  0  0  0  0  0  0
   -2.0322   -4.6130   -0.5043 O   0  0  0  0  0  0  0  0  0  0  0  0
   -0.1699   -2.4647    3.3420 C   0  0  0  0  0  0  0  0  0  0  0  0
    2.9684   -3.0323    3.8643 C   0  0  0  0  0  0  0  0  0  0  0  0
    2.9387   -2.1680    2.8467 C   0  0  0  0  0  0  0  0  0  0  0  0
    1.0479    0.5649    1.2737 S   0  0  0  0  0  1  0  0  0  0  0  0
    1.8707   -0.3200   -0.1017 C   0  0  0  0  0  0  0  0  0  0  0  0
    1.3151   -0.0151   -1.5085 C   0  0  2  0  0  0  0  0  0  0  0  0
    0.2283   -0.1908   -1.4656 H   0  0  0  0  0  0  0  0  0  0  0  0
    1.8751   -0.8884   -2.5220 N   0  0  0  0  0  0  0  0  0  0  0  0
    1.3237   -2.0719   -2.8733 C   0  0  0  0  0  0  0  0  0  0  0  0
    1.9182   -2.7080   -4.1182 C   0  0  0  0  0  0  0  0  0  0  0  0
    0.3944   -2.5948   -2.2794 O   0  0  0  0  0  0  0  0  0  0  0  0
    1.5237    1.4232   -2.0051 C   0  0  0  0  0  0  0  0  0  0  0  0
    1.2395    2.3866   -1.1402 N   0  0  0  0  0  0  0  0  0  0  0  0
    1.3968    3.7809   -1.4595 C   0  0  0  0  0  0  0  0  0  0  0  0
    1.9155    1.6397   -3.1682 O   0  0  0  0  0  0  0  0  0  0  0  0
    1.0900   -1.7679    6.3097 H   0  0  0  0  0  0  0  0  0  0  0  0
   -1.1108   -2.6194    6.6361 H   0  0  0  0  0  0  0  0  0  0  0  0
   -2.0271   -1.9704    8.0161 H   0  0  0  0  0  0  0  0  0  0  0  0
    0.8340   -3.1000    8.0935 H   0  0  0  0  0  0  0  0  0  0  0  0
   -0.6334   -3.8292    8.8101 H   0  0  0  0  0  0  0  0  0  0  0  0
    1.6510   -1.0613    9.1153 H   0  0  0  0  0  0  0  0  0  0  0  0
    0.7475   -0.4421   10.5311 H   0  0  0  0  0  0  0  0  0  0  0  0
    0.3251    0.8916    8.3927 H   0  0  0  0  0  0  0  0  0  0  0  0
   -1.1517    0.2060    9.1042 H   0  0  0  0  0  0  0  0  0  0  0  0
   -2.4456    0.4713    4.3743 H   0  0  0  0  0  0  0  0  0  0  0  0
   -2.8349   -0.6626    2.2081 H   0  0  0  0  0  0  0  0  0  0  0  0
   -1.0905   -3.7412    1.2798 H   0  0  0  0  0  0  0  0  0  0  0  0
   -1.5744   -0.2279    0.3201 H   0  0  0  0  0  0  0  0  0  0  0  0
   -0.9239   -0.8531   -3.7256 H   0  0  0  0  0  0  0  0  0  0  0  0
    0.1734    0.4338   -4.2266 H   0  0  0  0  0  0  0  0  0  0  0  0
   -1.3511    0.2007   -5.1021 H   0  0  0  0  0  0  0  0  0  0  0  0
    0.4043    2.4729   -4.2511 H   0  0  0  0  0  0  0  0  0  0  0  0
    2.1077    3.2983   -4.6212 H   0  0  0  0  0  0  0  0  0  0  0  0
    4.0788    4.0409   -5.8683 H   0  0  0  0  0  0  0  0  0  0  0  0
    5.1072    5.6864   -7.4147 H   0  0  0  0  0  0  0  0  0  0  0  0
    4.0860    6.7106   -8.4552 H   0  0  0  0  0  0  0  0  0  0  0  0
    4.3824    5.0156   -8.8890 H   0  0  0  0  0  0  0  0  0  0  0  0
    1.5995    6.4270   -8.4530 H   0  0  0  0  0  0  0  0  0  0  0  0
   -0.4116    5.6860   -7.1715 H   0  0  0  0  0  0  0  0  0  0  0  0
   -2.0721    4.5055   -2.8500 H   0  0  0  0  0  0  0  0  0  0  0  0
   -3.5442    3.7213   -0.9926 H   0  0  0  0  0  0  0  0  0  0  0  0
   -3.6662    1.2951   -0.4646 H   0  0  0  0  0  0  0  0  0  0  0  0
   -3.1367   -1.6003   -3.4687 H   0  0  0  0  0  0  0  0  0  0  0  0
   -3.4755   -3.7676   -3.8407 H   0  0  0  0  0  0  0  0  0  0  0  0
   -3.3976   -4.9685   -2.5039 H   0  0  0  0  0  0  0  0  0  0  0  0
   -1.9081   -4.5061   -3.3603 H   0  0  0  0  0  0  0  0  0  0  0  0
    0.4842   -3.2741    3.0240 H   0  0  0  0  0  0  0  0  0  0  0  0
    3.6164   -3.9134    3.8399 H   0  0  0  0  0  0  0  0  0  0  0  0
    3.5382   -2.3614    1.9528 H   0  0  0  0  0  0  0  0  0  0  0  0
    2.3294   -1.2528    2.8223 H   0  0  0  0  0  0  0  0  0  0  0  0
    1.7374   -1.4060    0.0288 H   0  0  0  0  0  0  0  0  0  0  0  0
    2.9584   -0.1241   -0.1105 H   0  0  0  0  0  0  0  0  0  0  0  0
    2.4871   -0.4209   -3.1830 H   0  0  0  0  0  0  0  0  0  0  0  0
    2.9511   -2.3881   -4.3145 H   0  0  0  0  0  0  0  0  0  0  0  0
    1.2958   -2.4298   -4.9832 H   0  0  0  0  0  0  0  0  0  0  0  0
    1.8815   -3.7992   -4.0097 H   0  0  0  0  0  0  0  0  0  0  0  0
    1.0192    2.0667   -0.1623 H   0  0  0  0  0  0  0  0  0  0  0  0
    2.3688    3.9734   -1.9410 H   0  0  0  0  0  0  0  0  0  0  0  0
    0.6063    4.1334   -2.1418 H   0  0  0  0  0  0  0  0  0  0  0  0
    1.3377    4.3624   -0.5305 H   0  0  0  0  0  0  0  0  0  0  0  0
  2  3  1  0  0  0  0
  2  1  2  0  0  0  0
  3 58  1  0  0  0  0
  4  5  1  0  0  0  0
  4  3  1  0  0  0  0
  5  6  1  0  0  0  0
  6 13  2  0  0  0  0
  6  7  1  0  0  0  0
  7  8  1  0  0  0  0
  7 12  1  0  0  0  0
  8 60  1  0  0  0  0
  8  9  1  0  0  0  0
  9 62  1  0  0  0  0
  9 10  1  0  0  0  0
 11 10  1  0  0  0  0
 11 64  1  0  0  0  0
 12 66  1  0  0  0  0
 12 11  1  0  0  0  0
 14 67  1  0  0  0  0
 14  5  2  0  0  0  0
 15 14  1  0  0  0  0
 16 15  2  0  0  0  0
 16 43  1  0  0  0  0
 17 16  1  0  0  0  0
 18 17  1  0  0  0  0
 19 18  2  0  0  0  0
 19 70  1  0  0  0  0
 20 19  1  0  0  0  0
 21 20  1  0  0  0  0
 21 37  1  0  0  0  0
 22 21  2  0  0  0  0
 23 71  1  0  0  0  0
 23 22  1  0  0  0  0
 24 22  1  0  0  0  0
 24 35  2  0  0  0  0
 25 74  1  0  0  0  0
 25 24  1  0  0  0  0
 26 25  1  0  0  0  0
 27 28  1  0  0  0  0
 27 26  1  0  0  0  0
 28 75  1  0  0  0  0
 29 76  1  0  0  0  0
 29 28  2  0  0  0  0
 30 29  1  0  0  0  0
 31 77  1  0  0  0  0
 31 30  1  0  0  0  0
 32 30  2  0  0  0  0
 32 33  1  0  0  0  0
 33 27  2  0  0  0  0
 34 26  2  0  0  0  0
 35 36  1  0  0  0  0
 36 37  2  0  0  0  0
 36 83  1  0  0  0  0
 37 84  1  0  0  0  0
 38 39  1  0  0  0  0
 38 20  2  0  0  0  0
 39 41  1  0  0  0  0
 40 87  1  0  0  0  0
 40 39  1  0  0  0  0
 41 42  2  0  0  0  0
 41 18  1  0  0  0  0
 43  4  2  0  0  0  0
 44  2  1  0  0  0  0
 45 44  2  0  0  0  0
 47 93  1  0  0  0  0
 47 46  1  0  0  0  0
 48 49  1  1  0  0  0
 48 47  1  0  0  0  0
 50 48  1  0  0  0  0
 51 50  1  0  0  0  0
 51 53  2  0  0  0  0
 52 98  1  0  0  0  0
 52 51  1  0  0  0  0
 54 48  1  0  0  0  0
 54 55  1  0  0  0  0
 55 99  1  0  0  0  0
 56 55  1  0  0  0  0
 56102  1  0  0  0  0
 57 54  2  0  0  0  0
 59  8  1  0  0  0  0
 61  9  1  0  0  0  0
 63 11  1  0  0  0  0
 65 12  1  0  0  0  0
 68 15  1  0  0  0  0
 69 17  1  0  0  0  0
 72 23  1  0  0  0  0
 73 23  1  0  0  0  0
 78 31  1  0  0  0  0
 79 31  1  0  0  0  0
 80 32  1  0  0  0  0
 81 33  1  0  0  0  0
 82 35  1  0  0  0  0
 85 38  1  0  0  0  0
 86 40  1  0  0  0  0
 88 40  1  0  0  0  0
 89 43  1  0  0  0  0
 90 44  1  0  0  0  0
 91 45  1  0  0  0  0
 92 45  1  0  0  0  0
 94 47  1  0  0  0  0
 95 50  1  0  0  0  0
 96 52  1  0  0  0  0
 97 52  1  0  0  0  0
100 56  1  0  0  0  0
101 56  1  0  0  0  0
M  END
