-1 1
 OpenBabel05192410563D

115119  0  0  1  0  0  0  0  0999 V2000
   -4.1347    6.8707   -0.5521 O   0  0  0  0  0  0  0  0  0  0  0  0
   -3.4544    5.8436   -0.6507 C   0  0  0  0  0  0  0  0  0  0  0  0
   -3.5328    4.9867    0.5291 N   0  0  0  0  0  0  0  0  0  0  0  0
   -3.4989    3.6391    0.7247 C   0  0  0  0  0  0  0  0  0  0  0  0
   -3.2660    3.0833    2.0174 C   0  0  0  0  0  0  0  0  0  0  0  0
   -3.2127    3.8613    3.3039 C   0  0  0  0  0  0  0  0  0  0  0  0
   -2.5043    5.0408    3.3492 N   0  0  0  0  0  0  0  0  0  0  0  0
   -2.4776    5.7716    4.6068 C   0  0  0  0  0  0  0  0  0  0  0  0
   -1.1601    5.4985    5.3430 C   0  0  0  0  0  0  0  0  0  0  0  0
    0.0198    5.7756    4.5372 N   0  0  0  0  0  0  0  0  0  0  0  0
   -0.0614    5.0785    3.2611 C   0  0  0  0  0  0  0  0  0  0  0  0
   -1.3607    5.3402    2.4964 C   0  0  0  0  0  0  0  0  0  0  0  0
    0.3426    7.1799    4.4213 C   0  0  0  0  0  0  0  0  0  0  0  0
   -3.8032    3.4443    4.2909 O   0  0  0  0  0  0  0  0  0  0  0  0
   -3.2264    1.6930    2.1594 C   0  0  0  0  0  0  0  0  0  0  0  0
   -3.3553    0.8230    1.0886 C   0  0  0  0  0  0  0  0  0  0  0  0
   -3.6073    1.3619   -0.1828 C   0  0  0  0  0  0  0  0  0  0  0  0
   -3.8126    0.5431   -1.3067 N   0  0  0  0  0  0  0  0  0  0  0  0
   -3.2068   -0.6447   -1.6192 C   0  0  0  0  0  0  0  0  0  0  0  0
   -2.1343   -1.2180   -0.9879 C   0  0  0  0  0  0  0  0  0  0  0  0
   -1.5732   -2.4389   -1.4769 C   0  0  0  0  0  0  0  0  0  0  0  0
   -0.3915   -2.9957   -0.7553 C   0  0  0  0  0  0  0  0  0  0  0  0
    0.9056   -2.5456   -1.0583 C   0  0  0  0  0  0  0  0  0  0  0  0
    1.1967   -1.6490   -2.2272 C   0  0  0  0  0  0  0  0  0  0  0  0
    1.9632   -2.9373   -0.2195 C   0  0  0  0  0  0  0  0  0  0  0  0
    3.2316   -2.3563   -0.4596 N   0  0  0  0  0  0  0  0  0  0  0  0
    4.4791   -2.8385   -0.1588 C   0  0  0  0  0  0  0  0  0  0  0  0
    4.6930   -4.3236   -0.2105 C   0  0  0  0  0  0  0  0  0  0  0  0
    5.6973   -4.8730    0.5843 C   0  0  0  0  0  0  0  0  0  0  0  0
    5.9645   -6.2403    0.5495 C   0  0  0  0  0  0  0  0  0  0  0  0
    5.2538   -7.0977   -0.2979 C   0  0  0  0  0  0  0  0  0  0  0  0
    5.5142   -8.6088   -0.3669 C   0  0  0  0  0  0  0  0  0  0  0  0
    4.2248   -9.3611    0.0111 C   0  0  0  0  0  0  0  0  0  0  0  0
    5.9327   -8.9871   -1.7997 C   0  0  0  0  0  0  0  0  0  0  0  0
    6.6276   -9.0494    0.5918 C   0  0  0  0  0  0  0  0  0  0  0  0
    4.2654   -6.5244   -1.1141 C   0  0  0  0  0  0  0  0  0  0  0  0
    3.9829   -5.1657   -1.0730 C   0  0  0  0  0  0  0  0  0  0  0  0
    5.3986   -2.0801    0.0937 O   0  0  0  0  0  0  0  0  0  0  0  0
    1.7482   -3.7989    0.8586 C   0  0  0  0  0  0  0  0  0  0  0  0
    0.4725   -4.2952    1.1000 C   0  0  0  0  0  0  0  0  0  0  0  0
   -0.5938   -3.8810    0.3077 C   0  0  0  0  0  0  0  0  0  0  0  0
   -2.1191   -3.0229   -2.5742 C   0  0  0  0  0  0  0  0  0  0  0  0
   -3.1882   -2.4454   -3.2311 N   0  0  0  0  0  0  0  0  0  0  0  0
   -3.7042   -3.0918   -4.4254 C   0  0  0  0  0  0  0  0  0  0  0  0
   -3.7723   -1.2565   -2.8327 C   0  0  0  0  0  0  0  0  0  0  0  0
   -4.6875   -0.7299   -3.4598 O   0  0  0  0  0  0  0  0  0  0  0  0
   -3.6992    2.7419   -0.3476 C   0  0  0  0  0  0  0  0  0  0  0  0
   -2.6007    5.4921   -1.7139 C   0  0  0  0  0  3  0  0  0  0  0  0
   -1.5784    4.4549   -1.7832 C   0  0  0  0  0  0  0  0  0  0  0  0
    0.0680    4.6923   -0.7523 S   0  0  0  0  0  0  0  0  0  0  0  0
    0.2117    3.1220    0.1502 C   0  0  0  0  0  0  0  0  0  0  0  0
    0.7089    1.9131   -0.6628 C   0  0  2  0  0  0  0  0  0  0  0  0
    1.5972    2.1964   -1.2464 H   0  0  0  0  0  0  0  0  0  0  0  0
   -0.2805    1.4821   -1.6135 N   0  0  0  0  0  0  0  0  0  0  0  0
   -0.0168    1.3320   -2.9387 C   0  0  0  0  0  0  0  0  0  0  0  0
   -1.2211    1.0114   -3.7975 C   0  0  0  0  0  0  0  0  0  0  0  0
    1.1096    1.4043   -3.4000 O   0  0  0  0  0  0  0  0  0  0  0  0
    1.0533    0.7911    0.3223 C   0  0  0  0  0  0  0  0  0  0  0  0
    2.3787    0.6942    0.6441 N   0  0  0  0  0  0  0  0  0  0  0  0
    2.8369   -0.0746    1.7825 C   0  0  0  0  0  0  0  0  0  0  0  0
    0.2061    0.0735    0.8186 O   0  0  0  0  0  0  0  0  0  0  0  0
   -3.7541    5.5522    1.3406 H   0  0  0  0  0  0  0  0  0  0  0  0
   -3.3330    5.4513    5.2126 H   0  0  0  0  0  0  0  0  0  0  0  0
   -2.5819    6.8478    4.3849 H   0  0  0  0  0  0  0  0  0  0  0  0
   -1.1473    4.4321    5.6277 H   0  0  0  0  0  0  0  0  0  0  0  0
   -1.1108    6.0878    6.2734 H   0  0  0  0  0  0  0  0  0  0  0  0
    0.0108    3.9922    3.4542 H   0  0  0  0  0  0  0  0  0  0  0  0
    0.7971    5.3605    2.6312 H   0  0  0  0  0  0  0  0  0  0  0  0
   -1.3877    4.7479    1.5805 H   0  0  0  0  0  0  0  0  0  0  0  0
   -1.4215    6.3912    2.1681 H   0  0  0  0  0  0  0  0  0  0  0  0
    0.4815    7.6115    5.4257 H   0  0  0  0  0  0  0  0  0  0  0  0
   -0.4153    7.7990    3.8954 H   0  0  0  0  0  0  0  0  0  0  0  0
    1.2913    7.2962    3.8746 H   0  0  0  0  0  0  0  0  0  0  0  0
   -3.0892    1.2916    3.1651 H   0  0  0  0  0  0  0  0  0  0  0  0
   -3.3060   -0.2533    1.2442 H   0  0  0  0  0  0  0  0  0  0  0  0
   -4.4716    0.8533   -2.0152 H   0  0  0  0  0  0  0  0  0  0  0  0
   -1.6494   -0.7357   -0.1373 H   0  0  0  0  0  0  0  0  0  0  0  0
    0.3145   -1.5154   -2.8618 H   0  0  0  0  0  0  0  0  0  0  0  0
    2.0093   -2.0664   -2.8418 H   0  0  0  0  0  0  0  0  0  0  0  0
    1.5268   -0.6455   -1.9208 H   0  0  0  0  0  0  0  0  0  0  0  0
    3.2199   -1.3425   -0.5600 H   0  0  0  0  0  0  0  0  0  0  0  0
    6.2728   -4.2095    1.2327 H   0  0  0  0  0  0  0  0  0  0  0  0
    6.7495   -6.6297    1.1980 H   0  0  0  0  0  0  0  0  0  0  0  0
    3.3967   -9.1235   -0.6726 H   0  0  0  0  0  0  0  0  0  0  0  0
    3.9031   -9.0987    1.0306 H   0  0  0  0  0  0  0  0  0  0  0  0
    4.3898  -10.4498   -0.0279 H   0  0  0  0  0  0  0  0  0  0  0  0
    5.1503   -8.7424   -2.5330 H   0  0  0  0  0  0  0  0  0  0  0  0
    6.1296  -10.0689   -1.8691 H   0  0  0  0  0  0  0  0  0  0  0  0
    6.8482   -8.4516   -2.0945 H   0  0  0  0  0  0  0  0  0  0  0  0
    6.3762   -8.8266    1.6400 H   0  0  0  0  0  0  0  0  0  0  0  0
    7.5864   -8.5630    0.3561 H   0  0  0  0  0  0  0  0  0  0  0  0
    6.7785  -10.1369    0.5109 H   0  0  0  0  0  0  0  0  0  0  0  0
    3.6948   -7.1525   -1.8020 H   0  0  0  0  0  0  0  0  0  0  0  0
    3.2049   -4.7560   -1.7199 H   0  0  0  0  0  0  0  0  0  0  0  0
    2.5791   -4.0698    1.5120 H   0  0  0  0  0  0  0  0  0  0  0  0
    0.3037   -4.9754    1.9374 H   0  0  0  0  0  0  0  0  0  0  0  0
   -1.6087   -4.2189    0.5280 H   0  0  0  0  0  0  0  0  0  0  0  0
   -1.7434   -3.9526   -3.0035 H   0  0  0  0  0  0  0  0  0  0  0  0
   -3.9837   -4.1322   -4.2041 H   0  0  0  0  0  0  0  0  0  0  0  0
   -2.9487   -3.0841   -5.2258 H   0  0  0  0  0  0  0  0  0  0  0  0
   -4.5855   -2.5332   -4.7577 H   0  0  0  0  0  0  0  0  0  0  0  0
   -3.9320    3.1678   -1.3260 H   0  0  0  0  0  0  0  0  0  0  0  0
   -2.5969    6.2445   -2.5069 H   0  0  0  0  0  0  0  0  0  0  0  0
   -1.1996    4.3360   -2.8064 H   0  0  0  0  0  0  0  0  0  0  0  0
   -1.8727    3.4651   -1.4199 H   0  0  0  0  0  0  0  0  0  0  0  0
   -0.7534    2.8531    0.6161 H   0  0  0  0  0  0  0  0  0  0  0  0
    0.9148    3.3086    0.9774 H   0  0  0  0  0  0  0  0  0  0  0  0
   -1.2385    1.4218   -1.2896 H   0  0  0  0  0  0  0  0  0  0  0  0
   -1.2785   -0.0808   -3.9291 H   0  0  0  0  0  0  0  0  0  0  0  0
   -1.0768    1.4666   -4.7847 H   0  0  0  0  0  0  0  0  0  0  0  0
   -2.1682    1.3542   -3.3603 H   0  0  0  0  0  0  0  0  0  0  0  0
    3.0010    1.3938    0.2595 H   0  0  0  0  0  0  0  0  0  0  0  0
    2.1395   -0.9091    1.9333 H   0  0  0  0  0  0  0  0  0  0  0  0
    2.8550    0.5306    2.7046 H   0  0  0  0  0  0  0  0  0  0  0  0
    3.8443   -0.4711    1.5902 H   0  0  0  0  0  0  0  0  0  0  0  0
  2  1  2  0  0  0  0
  2  3  1  0  0  0  0
  3  4  1  0  0  0  0
  3 62  1  0  0  0  0
  4  5  1  0  0  0  0
  5 15  2  0  0  0  0
  5  6  1  0  0  0  0
  6  7  1  0  0  0  0
  6 14  2  0  0  0  0
  7  8  1  0  0  0  0
  8 63  1  0  0  0  0
  8  9  1  0  0  0  0
  9 65  1  0  0  0  0
  9 66  1  0  0  0  0
 10  9  1  0  0  0  0
 11 67  1  0  0  0  0
 11 10  1  0  0  0  0
 12 11  1  0  0  0  0
 12  7  1  0  0  0  0
 13 10  1  0  0  0  0
 13 71  1  0  0  0  0
 15 74  1  0  0  0  0
 16 75  1  0  0  0  0
 16 15  1  0  0  0  0
 17 16  2  0  0  0  0
 18 17  1  0  0  0  0
 19 18  1  0  0  0  0
 19 20  2  0  0  0  0
 20 77  1  0  0  0  0
 21 20  1  0  0  0  0
 21 22  1  0  0  0  0
 22 41  1  0  0  0  0
 23 22  2  0  0  0  0
 23 25  1  0  0  0  0
 24 80  1  0  0  0  0
 24 23  1  0  0  0  0
 25 39  2  0  0  0  0
 26 25  1  0  0  0  0
 26 27  1  0  0  0  0
 27 38  2  0  0  0  0
 28 27  1  0  0  0  0
 28 29  1  0  0  0  0
 29 82  1  0  0  0  0
 30 29  2  0  0  0  0
 30 83  1  0  0  0  0
 31 30  1  0  0  0  0
 32 31  1  0  0  0  0
 32 33  1  0  0  0  0
 32 35  1  0  0  0  0
 33 85  1  0  0  0  0
 34 32  1  0  0  0  0
 35 90  1  0  0  0  0
 36 37  1  0  0  0  0
 36 31  2  0  0  0  0
 37 28  2  0  0  0  0
 39 40  1  0  0  0  0
 39 95  1  0  0  0  0
 40 96  1  0  0  0  0
 41 97  1  0  0  0  0
 41 40  2  0  0  0  0
 42 21  2  0  0  0  0
 43 45  1  0  0  0  0
 43 42  1  0  0  0  0
 44 99  1  0  0  0  0
 44 43  1  0  0  0  0
 45 19  1  0  0  0  0
 46 45  2  0  0  0  0
 47 17  1  0  0  0  0
 47  4  2  0  0  0  0
 48  2  1  0  0  0  0
 49 48  1  0  0  0  0
 49105  1  0  0  0  0
 49 50  1  0  0  0  0
 50 51  1  0  0  0  0
 51106  1  0  0  0  0
 51107  1  0  0  0  0
 52 53  1  6  0  0  0
 52 51  1  0  0  0  0
 52 58  1  0  0  0  0
 54108  1  0  0  0  0
 54 52  1  0  0  0  0
 55 54  1  0  0  0  0
 56111  1  0  0  0  0
 56 55  1  0  0  0  0
 57 55  2  0  0  0  0
 58 59  1  0  0  0  0
 58 61  2  0  0  0  0
 59 60  1  0  0  0  0
 60113  1  0  0  0  0
 60114  1  0  0  0  0
 64  8  1  0  0  0  0
 68 11  1  0  0  0  0
 69 12  1  0  0  0  0
 70 12  1  0  0  0  0
 72 13  1  0  0  0  0
 73 13  1  0  0  0  0
 76 18  1  0  0  0  0
 78 24  1  0  0  0  0
 79 24  1  0  0  0  0
 81 26  1  0  0  0  0
 84 33  1  0  0  0  0
 86 33  1  0  0  0  0
 87 34  1  0  0  0  0
 88 34  1  0  0  0  0
 89 34  1  0  0  0  0
 91 35  1  0  0  0  0
 92 35  1  0  0  0  0
 93 36  1  0  0  0  0
 94 37  1  0  0  0  0
 98 42  1  0  0  0  0
100 44  1  0  0  0  0
101 44  1  0  0  0  0
102 47  1  0  0  0  0
103 48  1  0  0  0  0
104 49  1  0  0  0  0
109 56  1  0  0  0  0
110 56  1  0  0  0  0
112 59  1  0  0  0  0
115 60  1  0  0  0  0
M  END
