115
-1 1
O        -3.065433   -6.955655   -7.501014
C        -2.507029   -8.045159   -7.624714
N        -2.778118   -8.960550   -6.554779
C        -2.624102  -10.317342   -6.382465
C        -2.326302  -10.858199   -5.104926
C        -2.284966  -10.071137   -3.820398
N        -1.618509   -8.872460   -3.794519
C        -1.614299   -8.111268   -2.554735
C        -0.253434   -8.244183   -1.860040
N         0.868504   -7.889657   -2.713910
C         0.809401   -8.633702   -3.964397
C        -0.529082   -8.508890   -4.694556
C         1.061802   -6.467217   -2.883044
O        -2.856676  -10.506103   -2.829954
C        -2.203392  -12.244326   -4.972858
C        -2.309218  -13.110196   -6.049261
C        -2.617100  -12.582558   -7.312808
N        -2.802279  -13.395427   -8.439694
C        -2.215774  -14.596718   -8.746592
C        -1.141901  -15.178103   -8.127260
C        -0.625870  -16.427654   -8.594824
C         0.538265  -17.012768   -7.868099
C         1.837368  -16.530033   -8.104521
C         2.151073  -15.577528   -9.221772
C         2.873637  -16.953206   -7.254603
N         4.140469  -16.344830   -7.421452
C         5.383387  -16.830423   -7.107357
C         5.615896  -18.308393   -7.234913
C         6.596353  -18.893262   -6.435660
C         6.879345  -20.254020   -6.537490
C         6.209505  -21.067997   -7.457822
C         6.489263  -22.570261   -7.602449
C         5.194221  -23.354812   -7.321868
C         6.970139  -22.861535   -9.036042
C         7.567485  -23.055512   -6.625307
C         5.245716  -20.457936   -8.276766
C         4.947120  -19.106215   -8.169510
O         6.285721  -16.079264   -6.782572
C         2.637179  -17.878465   -6.234880
C         1.363186  -18.408084   -6.065934
C         0.315782  -17.963248   -6.867195
C        -1.207451  -17.020469   -9.668679
N        -2.268295  -16.426708  -10.323399
C        -2.820829  -17.083654  -11.495558
C        -2.815280  -15.215614   -9.939317
O        -3.729220  -14.679193  -10.560404
C        -2.794687  -11.205944   -7.458398
C        -1.610670   -8.370371   -8.693799
C        -0.668395   -9.407888   -8.806600
S         1.262501   -9.251434   -7.693449
C         1.277398  -10.820549   -6.780600
C         1.712829  -12.052779   -7.598093
H         2.627280  -11.814149   -8.160787
N         0.717659  -12.409267   -8.574117
C         0.996432  -12.556209   -9.896254
C        -0.208003  -12.782558  -10.785611
O         2.132597  -12.555171  -10.338301
C         1.975271  -13.208350   -6.629640
N         3.281176  -13.348884   -6.247077
C         3.663192  -14.153995   -5.106093
O         1.089820  -13.921196   -6.193838
H        -3.058546   -8.437032   -5.733727
H        -2.417441   -8.491788   -1.913045
H        -1.822458   -7.054228   -2.795963
H        -0.135050   -9.295910   -1.545388
H        -0.229031   -7.624004   -0.948886
H         0.977833   -9.702628   -3.738471
H         1.615792   -8.308186   -4.639052
H        -0.519823   -9.140725   -5.584463
H        -0.688545   -7.480434   -5.059235
H         1.199050   -5.992151   -1.898024
H         0.233322   -5.934318   -3.396978
H         1.974816   -6.287793   -3.471239
H        -2.015276  -12.646137   -3.975754
H        -2.191279  -14.181683   -5.901091
H        -3.467524  -13.091507   -9.145230
H        -0.626901  -14.691737   -7.296409
H         1.285851  -15.420157   -9.874487
H         2.983406  -15.960319   -9.832457
H         2.465319  -14.586741   -8.863879
H         4.118336  -15.326668   -7.467159
H         7.140548  -18.262572   -5.729929
H         7.644080  -20.673301   -5.883422
H         4.391975  -23.085088   -8.024279
H         4.828422  -23.154897   -6.303085
H         5.372870  -24.437937   -7.416803
H         6.215624  -22.581892   -9.785876
H         7.181852  -23.935831   -9.159100
H         7.890729  -22.301769   -9.261506
H         7.271471  -22.894870   -5.577411
H         8.529857  -22.548547   -6.793587
H         7.733167  -24.135268   -6.761398
H         4.707802  -21.050751   -9.020170
H         4.189424  -18.666956   -8.821047
H         3.450395  -18.174273   -5.570184
H         1.179099  -19.138772   -5.275570
H        -0.700366  -18.326808   -6.699531
H        -0.867621  -17.972012  -10.079708
H        -3.119521  -18.112883  -11.248889
H        -2.080522  -17.108479  -12.309539
H        -3.695393  -16.511485  -11.822424
H        -3.060378  -10.787554   -8.430960
H        -1.530548   -7.537499   -9.397419
H        -0.187841   -9.505287   -9.783341
H        -0.874456  -10.376491   -8.356580
H         0.282327  -11.040774   -6.348426
H         1.961646  -10.709585   -5.923387
H        -0.248207  -12.411050   -8.269053
H        -0.288983  -13.860210  -10.998024
H        -0.040963  -12.261102  -11.736172
H        -1.151532  -12.448308  -10.335195
H         3.933059  -12.645082   -6.571082
H         2.949395  -14.983645   -5.018189
H         3.635892  -13.574971   -4.167509
H         4.675367  -14.557763   -5.253110
