-1 1
 OpenBabel05232413483D

115118  0  0  1  0  0  0  0  0999 V2000
   -5.0952    6.7540   -0.3164 O   0  0  0  0  0  0  0  0  0  0  0  0
   -4.3355    5.8105   -0.4508 C   0  0  0  0  0  0  0  0  0  0  0  0
   -4.2100    4.8945    0.5673 N   0  0  0  0  0  0  0  0  0  0  0  0
   -3.5632    3.6496    0.6632 C   0  0  0  0  0  0  0  0  0  0  0  0
   -3.0120    3.2430    1.8949 C   0  0  0  0  0  0  0  0  0  0  0  0
   -3.1925    3.9831    3.1937 C   0  0  0  0  0  0  0  0  0  0  0  0
   -3.0043    5.3420    3.2085 N   0  0  0  0  0  0  0  0  0  0  0  0
   -3.3650    6.0768    4.4124 C   0  0  0  0  0  0  0  0  0  0  0  0
   -2.1118    6.5500    5.1550 C   0  0  0  0  0  0  0  0  0  0  0  0
   -1.2030    7.3058    4.3134 N   0  0  0  0  0  0  0  0  0  0  0  0
   -0.8647    6.5368    3.1229 C   0  0  0  0  0  0  0  0  0  0  0  0
   -2.0786    6.0494    2.3247 C   0  0  0  0  0  0  0  0  0  0  0  0
   -1.6193    8.6628    4.0505 C   0  0  0  0  0  0  0  0  0  0  0  0
   -3.5661    3.3716    4.1841 O   0  0  0  0  0  0  0  0  0  0  0  0
   -2.4347    1.9726    1.9634 C   0  0  0  0  0  0  0  0  0  0  0  0
   -2.3621    1.1186    0.8746 C   0  0  0  0  0  0  0  0  0  0  0  0
   -2.9568    1.5050   -0.3369 C   0  0  0  0  0  0  0  0  0  0  0  0
   -3.0611    0.6890   -1.4585 N   0  0  0  0  0  0  0  0  0  0  0  0
   -2.6181   -0.5970   -1.6746 C   0  0  0  0  0  0  0  0  0  0  0  0
   -1.5162   -1.1996   -1.1334 C   0  0  0  0  0  0  0  0  0  0  0  0
   -1.2395   -2.5776   -1.4123 C   0  0  0  0  0  0  0  0  0  0  0  0
   -0.0820   -3.2241   -0.7321 C   0  0  0  0  0  0  0  0  0  0  0  0
    1.2313   -2.8683   -1.0863 C   0  0  0  0  0  0  0  0  0  0  0  0
    1.5308   -1.9890   -2.2631 C   0  0  0  0  0  0  0  0  0  0  0  0
    2.2874   -3.3453   -0.2936 C   0  0  0  0  0  0  0  0  0  0  0  0
    3.5851   -2.8513   -0.5700 N   0  0  0  0  0  0  0  0  0  0  0  0
    4.8000   -3.4461   -0.3531 C   0  0  0  0  0  0  0  0  0  0  0  0
    4.8794   -4.9427   -0.4630 C   0  0  0  0  0  0  0  0  0  0  0  0
    5.8679   -5.6054    0.2620 C   0  0  0  0  0  0  0  0  0  0  0  0
    6.0130   -6.9884    0.1692 C   0  0  0  0  0  0  0  0  0  0  0  0
    5.1915   -7.7499   -0.6695 C   0  0  0  0  0  0  0  0  0  0  0  0
    5.3150   -9.2744   -0.8006 C   0  0  0  0  0  0  0  0  0  0  0  0
    3.9832   -9.9268   -0.3859 C   0  0  0  0  0  0  0  0  0  0  0  0
    5.6336   -9.6346   -2.2635 C   0  0  0  0  0  0  0  0  0  0  0  0
    6.4275   -9.8447    0.0882 C   0  0  0  0  0  0  0  0  0  0  0  0
    4.2201   -7.0641   -1.4163 C   0  0  0  0  0  0  0  0  0  0  0  0
    4.0594   -5.6885   -1.3165 C   0  0  0  0  0  0  0  0  0  0  0  0
    5.7955   -2.7819   -0.1268 O   0  0  0  0  0  0  0  0  0  0  0  0
    2.0527   -4.2105    0.7786 C   0  0  0  0  0  0  0  0  0  0  0  0
    0.7559   -4.6221    1.0617 C   0  0  0  0  0  0  0  0  0  0  0  0
   -0.3083   -4.1147    0.3209 C   0  0  0  0  0  0  0  0  0  0  0  0
   -2.0553   -3.2520   -2.2626 C   0  0  0  0  0  0  0  0  0  0  0  0
   -3.1223   -2.6311   -2.8771 N   0  0  0  0  0  0  0  0  0  0  0  0
   -3.9265   -3.3874   -3.8209 C   0  0  0  0  0  0  0  0  0  0  0  0
   -3.4574   -1.3079   -2.6516 C   0  0  0  0  0  0  0  0  0  0  0  0
   -4.3910   -0.7602   -3.2346 O   0  0  0  0  0  0  0  0  0  0  0  0
   -3.5522    2.7706   -0.4200 C   0  0  0  0  0  0  0  0  0  0  0  0
   -3.5080    5.7068   -1.6903 C   0  0  0  0  0  0  0  0  0  0  0  0
   -2.2151    5.3801   -1.7418 C   0  0  0  0  0  0  0  0  0  0  0  0
    0.6294    4.5530    0.4695 S   0  0  0  0  0  1  0  0  0  0  0  0
    1.1018    2.9057    1.0755 C   0  0  0  0  0  0  0  0  0  0  0  0
    1.4141    1.9102   -0.0705 C   0  0  2  0  0  0  0  0  0  0  0  0
    2.3346    2.2350   -0.5866 H   0  0  0  0  0  0  0  0  0  0  0  0
    0.3263    1.9204   -1.0121 N   0  0  0  0  0  0  0  0  0  0  0  0
    0.5285    1.6053   -2.3115 C   0  0  0  0  0  0  0  0  0  0  0  0
   -0.5964    1.9669   -3.2584 C   0  0  0  0  0  0  0  0  0  0  0  0
    1.5413    1.0438   -2.7080 O   0  0  0  0  0  0  0  0  0  0  0  0
    1.6498    0.5356    0.5474 C   0  0  0  0  0  0  0  0  0  0  0  0
    2.9494    0.2981    0.8974 N   0  0  0  0  0  0  0  0  0  0  0  0
    3.3208   -0.7232    1.8503 C   0  0  0  0  0  0  0  0  0  0  0  0
    0.7593   -0.2607    0.7961 O   0  0  0  0  0  0  0  0  0  0  0  0
   -4.6112    5.2481    1.4304 H   0  0  0  0  0  0  0  0  0  0  0  0
   -3.9686    5.4169    5.0468 H   0  0  0  0  0  0  0  0  0  0  0  0
   -3.9814    6.9445    4.1156 H   0  0  0  0  0  0  0  0  0  0  0  0
   -1.5801    5.6591    5.5317 H   0  0  0  0  0  0  0  0  0  0  0  0
   -2.3983    7.1580    6.0293 H   0  0  0  0  0  0  0  0  0  0  0  0
   -0.2800    5.6510    3.4207 H   0  0  0  0  0  0  0  0  0  0  0  0
   -0.2081    7.1239    2.4648 H   0  0  0  0  0  0  0  0  0  0  0  0
   -1.6991    5.3763    1.5427 H   0  0  0  0  0  0  0  0  0  0  0  0
   -2.6084    6.8912    1.8445 H   0  0  0  0  0  0  0  0  0  0  0  0
   -1.7577    9.2013    5.0025 H   0  0  0  0  0  0  0  0  0  0  0  0
   -2.5627    8.7687    3.4710 H   0  0  0  0  0  0  0  0  0  0  0  0
   -0.8323    9.1845    3.4841 H   0  0  0  0  0  0  0  0  0  0  0  0
   -2.0285    1.6472    2.9225 H   0  0  0  0  0  0  0  0  0  0  0  0
   -1.8590    0.1625    0.9863 H   0  0  0  0  0  0  0  0  0  0  0  0
   -3.7905    0.9389   -2.1211 H   0  0  0  0  0  0  0  0  0  0  0  0
   -0.8248   -0.6549   -0.4854 H   0  0  0  0  0  0  0  0  0  0  0  0
    0.6722   -1.9173   -2.9416 H   0  0  0  0  0  0  0  0  0  0  0  0
    2.3917   -2.3803   -2.8266 H   0  0  0  0  0  0  0  0  0  0  0  0
    1.7777   -0.9540   -1.9766 H   0  0  0  0  0  0  0  0  0  0  0  0
    3.6498   -1.8374   -0.6468 H   0  0  0  0  0  0  0  0  0  0  0  0
    6.5289   -5.0177    0.9021 H   0  0  0  0  0  0  0  0  0  0  0  0
    6.7905   -7.4669    0.7649 H   0  0  0  0  0  0  0  0  0  0  0  0
    3.1492   -9.5936   -1.0208 H   0  0  0  0  0  0  0  0  0  0  0  0
    3.7319   -9.6749    0.6558 H   0  0  0  0  0  0  0  0  0  0  0  0
    4.0502  -11.0236   -0.4681 H   0  0  0  0  0  0  0  0  0  0  0  0
    4.8438   -9.2956   -2.9498 H   0  0  0  0  0  0  0  0  0  0  0  0
    5.7306  -10.7262   -2.3780 H   0  0  0  0  0  0  0  0  0  0  0  0
    6.5786   -9.1699   -2.5841 H   0  0  0  0  0  0  0  0  0  0  0  0
    6.2444   -9.6395    1.1540 H   0  0  0  0  0  0  0  0  0  0  0  0
    7.4137   -9.4344   -0.1774 H   0  0  0  0  0  0  0  0  0  0  0  0
    6.4783  -10.9374   -0.0355 H   0  0  0  0  0  0  0  0  0  0  0  0
    3.5647   -7.6148   -2.0950 H   0  0  0  0  0  0  0  0  0  0  0  0
    3.2904   -5.1897   -1.9092 H   0  0  0  0  0  0  0  0  0  0  0  0
    2.8871   -4.5498    1.3949 H   0  0  0  0  0  0  0  0  0  0  0  0
    0.5711   -5.3045    1.8940 H   0  0  0  0  0  0  0  0  0  0  0  0
   -1.3362   -4.3777    0.5807 H   0  0  0  0  0  0  0  0  0  0  0  0
   -1.9067   -4.3027   -2.5163 H   0  0  0  0  0  0  0  0  0  0  0  0
   -4.2670   -4.3268   -3.3617 H   0  0  0  0  0  0  0  0  0  0  0  0
   -3.3462   -3.6188   -4.7272 H   0  0  0  0  0  0  0  0  0  0  0  0
   -4.7899   -2.7723   -4.0960 H   0  0  0  0  0  0  0  0  0  0  0  0
   -4.0385    3.0688   -1.3494 H   0  0  0  0  0  0  0  0  0  0  0  0
   -4.0255    6.0988   -2.5712 H   0  0  0  0  0  0  0  0  0  0  0  0
   -1.6676    5.4671   -2.6849 H   0  0  0  0  0  0  0  0  0  0  0  0
   -1.6261    5.0302   -0.8814 H   0  0  0  0  0  0  0  0  0  0  0  0
    0.2932    2.4657    1.6841 H   0  0  0  0  0  0  0  0  0  0  0  0
    1.9963    2.9584    1.7175 H   0  0  0  0  0  0  0  0  0  0  0  0
   -0.3542    2.6554   -0.8053 H   0  0  0  0  0  0  0  0  0  0  0  0
   -1.0781    1.0395   -3.6015 H   0  0  0  0  0  0  0  0  0  0  0  0
   -0.1627    2.4676   -4.1346 H   0  0  0  0  0  0  0  0  0  0  0  0
   -1.3581    2.6097   -2.7975 H   0  0  0  0  0  0  0  0  0  0  0  0
    3.6096    1.0448    0.7217 H   0  0  0  0  0  0  0  0  0  0  0  0
    2.5438   -1.4987    1.8378 H   0  0  0  0  0  0  0  0  0  0  0  0
    3.3896   -0.3201    2.8755 H   0  0  0  0  0  0  0  0  0  0  0  0
    4.2878   -1.1728    1.5797 H   0  0  0  0  0  0  0  0  0  0  0  0
  2  1  2  0  0  0  0
  2  3  1  0  0  0  0
  3  4  1  0  0  0  0
  3 62  1  0  0  0  0
  4  5  1  0  0  0  0
  5 15  2  0  0  0  0
  5  6  1  0  0  0  0
  6  7  1  0  0  0  0
  6 14  2  0  0  0  0
  7  8  1  0  0  0  0
  8 63  1  0  0  0  0
  8  9  1  0  0  0  0
  9 65  1  0  0  0  0
  9 66  1  0  0  0  0
 10  9  1  0  0  0  0
 11 67  1  0  0  0  0
 11 10  1  0  0  0  0
 12 11  1  0  0  0  0
 12  7  1  0  0  0  0
 13 10  1  0  0  0  0
 13 71  1  0  0  0  0
 15 74  1  0  0  0  0
 16 75  1  0  0  0  0
 16 15  1  0  0  0  0
 17 16  2  0  0  0  0
 18 17  1  0  0  0  0
 19 18  1  0  0  0  0
 19 20  2  0  0  0  0
 20 77  1  0  0  0  0
 21 20  1  0  0  0  0
 21 22  1  0  0  0  0
 22 41  1  0  0  0  0
 23 22  2  0  0  0  0
 23 25  1  0  0  0  0
 24 80  1  0  0  0  0
 24 23  1  0  0  0  0
 25 39  2  0  0  0  0
 26 27  1  0  0  0  0
 26 25  1  0  0  0  0
 27 38  2  0  0  0  0
 28 27  1  0  0  0  0
 28 29  1  0  0  0  0
 29 82  1  0  0  0  0
 30 29  2  0  0  0  0
 30 83  1  0  0  0  0
 31 30  1  0  0  0  0
 32 31  1  0  0  0  0
 32 33  1  0  0  0  0
 32 35  1  0  0  0  0
 33 85  1  0  0  0  0
 34 32  1  0  0  0  0
 35 90  1  0  0  0  0
 36 37  1  0  0  0  0
 36 31  2  0  0  0  0
 37 28  2  0  0  0  0
 39 40  1  0  0  0  0
 39 95  1  0  0  0  0
 40 96  1  0  0  0  0
 41 97  1  0  0  0  0
 41 40  2  0  0  0  0
 42 21  2  0  0  0  0
 43 45  1  0  0  0  0
 43 42  1  0  0  0  0
 44 99  1  0  0  0  0
 44 43  1  0  0  0  0
 45 19  1  0  0  0  0
 46 45  2  0  0  0  0
 47 17  1  0  0  0  0
 47  4  2  0  0  0  0
 48  2  1  0  0  0  0
 49 48  2  0  0  0  0
 49105  1  0  0  0  0
 50 51  1  0  0  0  0
 51106  1  0  0  0  0
 51107  1  0  0  0  0
 52 53  1  6  0  0  0
 52 58  1  0  0  0  0
 52 51  1  0  0  0  0
 54108  1  0  0  0  0
 54 52  1  0  0  0  0
 55 54  1  0  0  0  0
 56111  1  0  0  0  0
 56 55  1  0  0  0  0
 57 55  2  0  0  0  0
 58 61  2  0  0  0  0
 58 59  1  0  0  0  0
 59 60  1  0  0  0  0
 60114  1  0  0  0  0
 64  8  1  0  0  0  0
 68 11  1  0  0  0  0
 69 12  1  0  0  0  0
 70 12  1  0  0  0  0
 72 13  1  0  0  0  0
 73 13  1  0  0  0  0
 76 18  1  0  0  0  0
 78 24  1  0  0  0  0
 79 24  1  0  0  0  0
 81 26  1  0  0  0  0
 84 33  1  0  0  0  0
 86 33  1  0  0  0  0
 87 34  1  0  0  0  0
 88 34  1  0  0  0  0
 89 34  1  0  0  0  0
 91 35  1  0  0  0  0
 92 35  1  0  0  0  0
 93 36  1  0  0  0  0
 94 37  1  0  0  0  0
 98 42  1  0  0  0  0
100 44  1  0  0  0  0
101 44  1  0  0  0  0
102 47  1  0  0  0  0
103 48  1  0  0  0  0
104 49  1  0  0  0  0
109 56  1  0  0  0  0
110 56  1  0  0  0  0
112 59  1  0  0  0  0
113 60  1  0  0  0  0
115 60  1  0  0  0  0
M  END
