-1 1
 OpenBabel05232414493D

115119  0  0  1  0  0  0  0  0999 V2000
   -3.0654   -6.9557   -7.5010 O   0  0  0  0  0  0  0  0  0  0  0  0
   -2.5070   -8.0452   -7.6247 C   0  0  0  0  0  0  0  0  0  0  0  0
   -2.7781   -8.9605   -6.5548 N   0  0  0  0  0  0  0  0  0  0  0  0
   -2.6241  -10.3173   -6.3825 C   0  0  0  0  0  0  0  0  0  0  0  0
   -2.3263  -10.8582   -5.1049 C   0  0  0  0  0  0  0  0  0  0  0  0
   -2.2850  -10.0711   -3.8204 C   0  0  0  0  0  0  0  0  0  0  0  0
   -1.6185   -8.8725   -3.7945 N   0  0  0  0  0  0  0  0  0  0  0  0
   -1.6143   -8.1113   -2.5547 C   0  0  0  0  0  0  0  0  0  0  0  0
   -0.2534   -8.2442   -1.8600 C   0  0  0  0  0  0  0  0  0  0  0  0
    0.8685   -7.8897   -2.7139 N   0  0  0  0  0  0  0  0  0  0  0  0
    0.8094   -8.6337   -3.9644 C   0  0  0  0  0  0  0  0  0  0  0  0
   -0.5291   -8.5089   -4.6946 C   0  0  0  0  0  0  0  0  0  0  0  0
    1.0618   -6.4672   -2.8830 C   0  0  0  0  0  0  0  0  0  0  0  0
   -2.8567  -10.5061   -2.8300 O   0  0  0  0  0  0  0  0  0  0  0  0
   -2.2034  -12.2443   -4.9729 C   0  0  0  0  0  0  0  0  0  0  0  0
   -2.3092  -13.1102   -6.0493 C   0  0  0  0  0  0  0  0  0  0  0  0
   -2.6171  -12.5826   -7.3128 C   0  0  0  0  0  0  0  0  0  0  0  0
   -2.8023  -13.3954   -8.4397 N   0  0  0  0  0  0  0  0  0  0  0  0
   -2.2158  -14.5967   -8.7466 C   0  0  0  0  0  0  0  0  0  0  0  0
   -1.1419  -15.1781   -8.1273 C   0  0  0  0  0  0  0  0  0  0  0  0
   -0.6259  -16.4277   -8.5948 C   0  0  0  0  0  0  0  0  0  0  0  0
    0.5383  -17.0128   -7.8681 C   0  0  0  0  0  0  0  0  0  0  0  0
    1.8374  -16.5300   -8.1045 C   0  0  0  0  0  0  0  0  0  0  0  0
    2.1511  -15.5775   -9.2218 C   0  0  0  0  0  0  0  0  0  0  0  0
    2.8736  -16.9532   -7.2546 C   0  0  0  0  0  0  0  0  0  0  0  0
    4.1405  -16.3448   -7.4215 N   0  0  0  0  0  0  0  0  0  0  0  0
    5.3834  -16.8304   -7.1074 C   0  0  0  0  0  0  0  0  0  0  0  0
    5.6159  -18.3084   -7.2349 C   0  0  0  0  0  0  0  0  0  0  0  0
    6.5964  -18.8933   -6.4357 C   0  0  0  0  0  0  0  0  0  0  0  0
    6.8793  -20.2540   -6.5375 C   0  0  0  0  0  0  0  0  0  0  0  0
    6.2095  -21.0680   -7.4578 C   0  0  0  0  0  0  0  0  0  0  0  0
    6.4893  -22.5703   -7.6024 C   0  0  0  0  0  0  0  0  0  0  0  0
    5.1942  -23.3548   -7.3219 C   0  0  0  0  0  0  0  0  0  0  0  0
    6.9701  -22.8615   -9.0360 C   0  0  0  0  0  0  0  0  0  0  0  0
    7.5675  -23.0555   -6.6253 C   0  0  0  0  0  0  0  0  0  0  0  0
    5.2457  -20.4579   -8.2768 C   0  0  0  0  0  0  0  0  0  0  0  0
    4.9471  -19.1062   -8.1695 C   0  0  0  0  0  0  0  0  0  0  0  0
    6.2857  -16.0793   -6.7826 O   0  0  0  0  0  0  0  0  0  0  0  0
    2.6372  -17.8785   -6.2349 C   0  0  0  0  0  0  0  0  0  0  0  0
    1.3632  -18.4081   -6.0659 C   0  0  0  0  0  0  0  0  0  0  0  0
    0.3158  -17.9632   -6.8672 C   0  0  0  0  0  0  0  0  0  0  0  0
   -1.2075  -17.0205   -9.6687 C   0  0  0  0  0  0  0  0  0  0  0  0
   -2.2683  -16.4267  -10.3234 N   0  0  0  0  0  0  0  0  0  0  0  0
   -2.8208  -17.0837  -11.4956 C   0  0  0  0  0  0  0  0  0  0  0  0
   -2.8153  -15.2156   -9.9393 C   0  0  0  0  0  0  0  0  0  0  0  0
   -3.7292  -14.6792  -10.5604 O   0  0  0  0  0  0  0  0  0  0  0  0
   -2.7947  -11.2059   -7.4584 C   0  0  0  0  0  0  0  0  0  0  0  0
   -1.6107   -8.3704   -8.6938 C   0  0  0  0  0  3  0  0  0  0  0  0
   -0.6684   -9.4079   -8.8066 C   0  0  0  0  0  0  0  0  0  0  0  0
    1.2625   -9.2514   -7.6934 S   0  0  0  0  0  0  0  0  0  0  0  0
    1.2774  -10.8205   -6.7806 C   0  0  0  0  0  0  0  0  0  0  0  0
    1.7128  -12.0528   -7.5981 C   0  0  2  0  0  0  0  0  0  0  0  0
    2.6273  -11.8141   -8.1608 H   0  0  0  0  0  0  0  0  0  0  0  0
    0.7177  -12.4093   -8.5741 N   0  0  0  0  0  0  0  0  0  0  0  0
    0.9964  -12.5562   -9.8963 C   0  0  0  0  0  0  0  0  0  0  0  0
   -0.2080  -12.7826  -10.7856 C   0  0  0  0  0  0  0  0  0  0  0  0
    2.1326  -12.5552  -10.3383 O   0  0  0  0  0  0  0  0  0  0  0  0
    1.9753  -13.2083   -6.6296 C   0  0  0  0  0  0  0  0  0  0  0  0
    3.2812  -13.3489   -6.2471 N   0  0  0  0  0  0  0  0  0  0  0  0
    3.6632  -14.1540   -5.1061 C   0  0  0  0  0  0  0  0  0  0  0  0
    1.0898  -13.9212   -6.1938 O   0  0  0  0  0  0  0  0  0  0  0  0
   -3.0585   -8.4370   -5.7337 H   0  0  0  0  0  0  0  0  0  0  0  0
   -2.4174   -8.4918   -1.9130 H   0  0  0  0  0  0  0  0  0  0  0  0
   -1.8225   -7.0542   -2.7960 H   0  0  0  0  0  0  0  0  0  0  0  0
   -0.1351   -9.2959   -1.5454 H   0  0  0  0  0  0  0  0  0  0  0  0
   -0.2290   -7.6240   -0.9489 H   0  0  0  0  0  0  0  0  0  0  0  0
    0.9778   -9.7026   -3.7385 H   0  0  0  0  0  0  0  0  0  0  0  0
    1.6158   -8.3082   -4.6391 H   0  0  0  0  0  0  0  0  0  0  0  0
   -0.5198   -9.1407   -5.5845 H   0  0  0  0  0  0  0  0  0  0  0  0
   -0.6885   -7.4804   -5.0592 H   0  0  0  0  0  0  0  0  0  0  0  0
    1.1990   -5.9922   -1.8980 H   0  0  0  0  0  0  0  0  0  0  0  0
    0.2333   -5.9343   -3.3970 H   0  0  0  0  0  0  0  0  0  0  0  0
    1.9748   -6.2878   -3.4712 H   0  0  0  0  0  0  0  0  0  0  0  0
   -2.0153  -12.6461   -3.9758 H   0  0  0  0  0  0  0  0  0  0  0  0
   -2.1913  -14.1817   -5.9011 H   0  0  0  0  0  0  0  0  0  0  0  0
   -3.4675  -13.0915   -9.1452 H   0  0  0  0  0  0  0  0  0  0  0  0
   -0.6269  -14.6917   -7.2964 H   0  0  0  0  0  0  0  0  0  0  0  0
    1.2859  -15.4202   -9.8745 H   0  0  0  0  0  0  0  0  0  0  0  0
    2.9834  -15.9603   -9.8325 H   0  0  0  0  0  0  0  0  0  0  0  0
    2.4653  -14.5867   -8.8639 H   0  0  0  0  0  0  0  0  0  0  0  0
    4.1183  -15.3267   -7.4672 H   0  0  0  0  0  0  0  0  0  0  0  0
    7.1405  -18.2626   -5.7299 H   0  0  0  0  0  0  0  0  0  0  0  0
    7.6441  -20.6733   -5.8834 H   0  0  0  0  0  0  0  0  0  0  0  0
    4.3920  -23.0851   -8.0243 H   0  0  0  0  0  0  0  0  0  0  0  0
    4.8284  -23.1549   -6.3031 H   0  0  0  0  0  0  0  0  0  0  0  0
    5.3729  -24.4379   -7.4168 H   0  0  0  0  0  0  0  0  0  0  0  0
    6.2156  -22.5819   -9.7859 H   0  0  0  0  0  0  0  0  0  0  0  0
    7.1819  -23.9358   -9.1591 H   0  0  0  0  0  0  0  0  0  0  0  0
    7.8907  -22.3018   -9.2615 H   0  0  0  0  0  0  0  0  0  0  0  0
    7.2715  -22.8949   -5.5774 H   0  0  0  0  0  0  0  0  0  0  0  0
    8.5299  -22.5485   -6.7936 H   0  0  0  0  0  0  0  0  0  0  0  0
    7.7332  -24.1353   -6.7614 H   0  0  0  0  0  0  0  0  0  0  0  0
    4.7078  -21.0508   -9.0202 H   0  0  0  0  0  0  0  0  0  0  0  0
    4.1894  -18.6670   -8.8210 H   0  0  0  0  0  0  0  0  0  0  0  0
    3.4504  -18.1743   -5.5702 H   0  0  0  0  0  0  0  0  0  0  0  0
    1.1791  -19.1388   -5.2756 H   0  0  0  0  0  0  0  0  0  0  0  0
   -0.7004  -18.3268   -6.6995 H   0  0  0  0  0  0  0  0  0  0  0  0
   -0.8676  -17.9720  -10.0797 H   0  0  0  0  0  0  0  0  0  0  0  0
   -3.1195  -18.1129  -11.2489 H   0  0  0  0  0  0  0  0  0  0  0  0
   -2.0805  -17.1085  -12.3095 H   0  0  0  0  0  0  0  0  0  0  0  0
   -3.6954  -16.5115  -11.8224 H   0  0  0  0  0  0  0  0  0  0  0  0
   -3.0604  -10.7876   -8.4310 H   0  0  0  0  0  0  0  0  0  0  0  0
   -1.5305   -7.5375   -9.3974 H   0  0  0  0  0  0  0  0  0  0  0  0
   -0.1878   -9.5053   -9.7833 H   0  0  0  0  0  0  0  0  0  0  0  0
   -0.8745  -10.3765   -8.3566 H   0  0  0  0  0  0  0  0  0  0  0  0
    0.2823  -11.0408   -6.3484 H   0  0  0  0  0  0  0  0  0  0  0  0
    1.9616  -10.7096   -5.9234 H   0  0  0  0  0  0  0  0  0  0  0  0
   -0.2482  -12.4110   -8.2691 H   0  0  0  0  0  0  0  0  0  0  0  0
   -0.2890  -13.8602  -10.9980 H   0  0  0  0  0  0  0  0  0  0  0  0
   -0.0410  -12.2611  -11.7362 H   0  0  0  0  0  0  0  0  0  0  0  0
   -1.1515  -12.4483  -10.3352 H   0  0  0  0  0  0  0  0  0  0  0  0
    3.9331  -12.6451   -6.5711 H   0  0  0  0  0  0  0  0  0  0  0  0
    2.9494  -14.9836   -5.0182 H   0  0  0  0  0  0  0  0  0  0  0  0
    3.6359  -13.5750   -4.1675 H   0  0  0  0  0  0  0  0  0  0  0  0
    4.6754  -14.5578   -5.2531 H   0  0  0  0  0  0  0  0  0  0  0  0
  2  1  2  0  0  0  0
  2  3  1  0  0  0  0
  3  4  1  0  0  0  0
  3 62  1  0  0  0  0
  4  5  1  0  0  0  0
  5 15  2  0  0  0  0
  5  6  1  0  0  0  0
  6  7  1  0  0  0  0
  6 14  2  0  0  0  0
  7  8  1  0  0  0  0
  8 63  1  0  0  0  0
  8  9  1  0  0  0  0
  9 65  1  0  0  0  0
  9 66  1  0  0  0  0
 10  9  1  0  0  0  0
 11 67  1  0  0  0  0
 11 10  1  0  0  0  0
 12 11  1  0  0  0  0
 12  7  1  0  0  0  0
 13 10  1  0  0  0  0
 13 71  1  0  0  0  0
 15 74  1  0  0  0  0
 16 75  1  0  0  0  0
 16 15  1  0  0  0  0
 17 16  2  0  0  0  0
 18 17  1  0  0  0  0
 19 18  1  0  0  0  0
 19 20  2  0  0  0  0
 20 77  1  0  0  0  0
 21 20  1  0  0  0  0
 21 22  1  0  0  0  0
 22 41  1  0  0  0  0
 23 22  2  0  0  0  0
 23 25  1  0  0  0  0
 24 80  1  0  0  0  0
 24 23  1  0  0  0  0
 25 39  2  0  0  0  0
 26 25  1  0  0  0  0
 26 27  1  0  0  0  0
 27 38  2  0  0  0  0
 28 27  1  0  0  0  0
 28 29  1  0  0  0  0
 29 82  1  0  0  0  0
 30 29  2  0  0  0  0
 30 83  1  0  0  0  0
 31 30  1  0  0  0  0
 32 31  1  0  0  0  0
 32 33  1  0  0  0  0
 32 35  1  0  0  0  0
 33 85  1  0  0  0  0
 34 32  1  0  0  0  0
 35 90  1  0  0  0  0
 36 37  1  0  0  0  0
 36 31  2  0  0  0  0
 37 28  2  0  0  0  0
 39 40  1  0  0  0  0
 39 95  1  0  0  0  0
 40 96  1  0  0  0  0
 41 97  1  0  0  0  0
 41 40  2  0  0  0  0
 42 21  2  0  0  0  0
 43 45  1  0  0  0  0
 43 42  1  0  0  0  0
 44 99  1  0  0  0  0
 44 43  1  0  0  0  0
 45 19  1  0  0  0  0
 46 45  2  0  0  0  0
 47 17  1  0  0  0  0
 47  4  2  0  0  0  0
 48  2  1  0  0  0  0
 49 48  1  0  0  0  0
 49105  1  0  0  0  0
 49 50  1  0  0  0  0
 50 51  1  0  0  0  0
 51106  1  0  0  0  0
 51107  1  0  0  0  0
 52 53  1  6  0  0  0
 52 51  1  0  0  0  0
 52 58  1  0  0  0  0
 54108  1  0  0  0  0
 54 52  1  0  0  0  0
 55 54  1  0  0  0  0
 56111  1  0  0  0  0
 56 55  1  0  0  0  0
 57 55  2  0  0  0  0
 58 59  1  0  0  0  0
 58 61  2  0  0  0  0
 59 60  1  0  0  0  0
 60113  1  0  0  0  0
 60114  1  0  0  0  0
 64  8  1  0  0  0  0
 68 11  1  0  0  0  0
 69 12  1  0  0  0  0
 70 12  1  0  0  0  0
 72 13  1  0  0  0  0
 73 13  1  0  0  0  0
 76 18  1  0  0  0  0
 78 24  1  0  0  0  0
 79 24  1  0  0  0  0
 81 26  1  0  0  0  0
 84 33  1  0  0  0  0
 86 33  1  0  0  0  0
 87 34  1  0  0  0  0
 88 34  1  0  0  0  0
 89 34  1  0  0  0  0
 91 35  1  0  0  0  0
 92 35  1  0  0  0  0
 93 36  1  0  0  0  0
 94 37  1  0  0  0  0
 98 42  1  0  0  0  0
100 44  1  0  0  0  0
101 44  1  0  0  0  0
102 47  1  0  0  0  0
103 48  1  0  0  0  0
104 49  1  0  0  0  0
109 56  1  0  0  0  0
110 56  1  0  0  0  0
112 59  1  0  0  0  0
115 60  1  0  0  0  0
M  END
