-1 1
 OpenBabel05192410563D

105109  0  0  1  0  0  0  0  0999 V2000
    0.1477    5.6870   -3.7065 O   0  0  0  0  0  0  0  0  0  0  0  0
    0.1715    4.4213   -3.7255 C   0  0  0  0  0  0  0  0  0  0  0  0
    0.2413    3.8333   -2.4125 N   0  0  0  0  0  0  0  0  0  0  0  0
   -0.0328    2.5729   -1.9620 C   0  0  0  0  0  0  0  0  0  0  0  0
    0.5481    2.1059   -0.7493 C   0  0  0  0  0  0  0  0  0  0  0  0
    1.4273    2.9967    0.0689 C   0  0  0  0  0  0  0  0  0  0  0  0
    2.6439    2.4959    0.4478 N   0  0  0  0  0  0  0  0  0  0  0  0
    3.3353    1.3911   -0.1978 C   0  0  0  0  0  0  0  0  0  0  0  0
    4.7087    1.8541   -0.6786 C   0  0  0  0  0  0  0  0  0  0  0  0
    5.4544    2.4021    0.3800 O   0  0  0  0  0  0  0  0  0  0  0  0
    4.8141    3.5548    0.8859 C   0  0  0  0  0  0  0  0  0  0  0  0
    3.4406    3.2006    1.4409 C   0  0  0  0  0  0  0  0  0  0  0  0
    1.0518    4.1106    0.4174 O   0  0  0  0  0  0  0  0  0  0  0  0
    0.2525    0.8227   -0.2908 C   0  0  0  0  0  0  0  0  0  0  0  0
   -0.5922   -0.0388   -0.9785 C   0  0  0  0  0  0  0  0  0  0  0  0
   -1.1796    0.4165   -2.1709 C   0  0  0  0  0  0  0  0  0  0  0  0
   -2.0284   -0.3890   -2.9415 N   0  0  0  0  0  0  0  0  0  0  0  0
   -2.8788   -1.3810   -2.5502 C   0  0  0  0  0  0  0  0  0  0  0  0
   -3.2392   -1.7315   -1.2735 C   0  0  0  0  0  0  0  0  0  0  0  0
   -4.1319   -2.8254   -1.0377 C   0  0  0  0  0  0  0  0  0  0  0  0
   -4.4925   -3.2314    0.3476 C   0  0  0  0  0  0  0  0  0  0  0  0
   -3.4963   -3.5416    1.3006 C   0  0  0  0  0  0  0  0  0  0  0  0
   -2.0362   -3.5654    0.9393 C   0  0  0  0  0  0  0  0  0  0  0  0
   -3.9120   -3.8758    2.6015 C   0  0  0  0  0  0  0  0  0  0  0  0
   -2.9596   -4.1827    3.6133 N   0  0  0  0  0  0  0  0  0  0  0  0
   -2.0264   -3.2999    4.0845 C   0  0  0  0  0  0  0  0  0  0  0  0
   -1.1725   -3.7941    5.2254 C   0  0  0  0  0  0  0  0  0  0  0  0
   -1.5422   -4.8199    6.0967 C   0  0  0  0  0  0  0  0  0  0  0  0
   -0.7058   -5.2109    7.1407 C   0  0  0  0  0  0  0  0  0  0  0  0
   -1.1620   -6.3206    8.0586 C   0  0  0  0  0  0  0  0  0  0  0  0
   -2.3596   -6.8036    7.7102 F   0  0  0  0  0  0  0  0  0  0  0  0
   -0.3113   -7.3563    8.0539 F   0  0  0  0  0  0  0  0  0  0  0  0
   -1.2656   -5.9108    9.3303 F   0  0  0  0  0  0  0  0  0  0  0  0
    0.5367   -4.5799    7.3445 C   0  0  0  0  0  0  0  0  0  0  0  0
    1.4759   -4.9781    8.4530 C   0  0  0  0  0  0  0  0  0  0  0  0
    0.8836   -3.5446    6.4708 C   0  0  0  0  0  0  0  0  0  0  0  0
    0.0458   -3.1480    5.4350 C   0  0  0  0  0  0  0  0  0  0  0  0
   -1.8586   -2.1952    3.6140 O   0  0  0  0  0  0  0  0  0  0  0  0
   -5.2654   -3.9596    2.9360 C   0  0  0  0  0  0  0  0  0  0  0  0
   -6.2359   -3.6962    1.9785 C   0  0  0  0  0  0  0  0  0  0  0  0
   -5.8451   -3.3173    0.6981 C   0  0  0  0  0  0  0  0  0  0  0  0
   -4.6515   -3.4895   -2.1065 C   0  0  0  0  0  0  0  0  0  0  0  0
   -4.3391   -3.1192   -3.3960 N   0  0  0  0  0  0  0  0  0  0  0  0
   -4.9165   -3.8152   -4.5326 C   0  0  0  0  0  0  0  0  0  0  0  0
   -3.4764   -2.0847   -3.7003 C   0  0  0  0  0  0  0  0  0  0  0  0
   -3.2418   -1.7746   -4.8626 O   0  0  0  0  0  0  0  0  0  0  0  0
   -0.8954    1.6946   -2.6479 C   0  0  0  0  0  0  0  0  0  0  0  0
    0.2264    3.5918   -4.8320 C   0  0  0  0  0  3  0  0  0  0  0  0
    0.2265    4.1331   -6.2088 C   0  0  0  0  0  0  0  0  0  0  0  0
    1.8991    4.3775   -7.0238 S   0  0  0  0  0  0  0  0  0  0  0  0
    2.5912    5.5963   -5.8759 C   0  0  0  0  0  0  0  0  0  0  0  0
    3.2592    5.0067   -4.6150 C   0  0  2  0  0  0  0  0  0  0  0  0
    2.8863    3.9786   -4.4698 H   0  0  0  0  0  0  0  0  0  0  0  0
    2.8760    5.8172   -3.4745 N   0  0  0  0  0  0  0  0  0  0  0  0
    3.4298    5.6565   -2.2596 C   0  0  0  0  0  0  0  0  0  0  0  0
    2.7766    6.4396   -1.1420 C   0  0  0  0  0  0  0  0  0  0  0  0
    4.4085    4.9390   -2.0514 O   0  0  0  0  0  0  0  0  0  0  0  0
    4.7839    4.9880   -4.7909 C   0  0  0  0  0  0  0  0  0  0  0  0
    5.3400    3.7454   -4.7347 N   0  0  0  0  0  0  0  0  0  0  0  0
    6.7673    3.5721   -4.6877 C   0  0  0  0  0  0  0  0  0  0  0  0
    5.4223    5.9923   -5.0390 O   0  0  0  0  0  0  0  0  0  0  0  0
    0.4860    4.5130   -1.6998 H   0  0  0  0  0  0  0  0  0  0  0  0
    2.7433    1.0297   -1.0469 H   0  0  0  0  0  0  0  0  0  0  0  0
    3.4584    0.5565    0.5180 H   0  0  0  0  0  0  0  0  0  0  0  0
    4.5827    2.6042   -1.4822 H   0  0  0  0  0  0  0  0  0  0  0  0
    5.2751    0.9951   -1.0689 H   0  0  0  0  0  0  0  0  0  0  0  0
    4.7167    4.3094    0.0848 H   0  0  0  0  0  0  0  0  0  0  0  0
    5.4524    3.9535    1.6882 H   0  0  0  0  0  0  0  0  0  0  0  0
    2.8901    4.1007    1.7406 H   0  0  0  0  0  0  0  0  0  0  0  0
    3.5605    2.5438    2.3232 H   0  0  0  0  0  0  0  0  0  0  0  0
    0.7181    0.4792    0.6370 H   0  0  0  0  0  0  0  0  0  0  0  0
   -0.7547   -1.0519   -0.6146 H   0  0  0  0  0  0  0  0  0  0  0  0
   -2.0700   -0.2037   -3.9399 H   0  0  0  0  0  0  0  0  0  0  0  0
   -2.8595   -1.1684   -0.4222 H   0  0  0  0  0  0  0  0  0  0  0  0
   -1.5598   -2.6026    1.1767 H   0  0  0  0  0  0  0  0  0  0  0  0
   -1.8921   -3.7729   -0.1283 H   0  0  0  0  0  0  0  0  0  0  0  0
   -1.5095   -4.3342    1.5224 H   0  0  0  0  0  0  0  0  0  0  0  0
   -3.0559   -5.0756    4.0764 H   0  0  0  0  0  0  0  0  0  0  0  0
   -2.5061   -5.3208    5.9964 H   0  0  0  0  0  0  0  0  0  0  0  0
    0.9914   -4.8884    9.4353 H   0  0  0  0  0  0  0  0  0  0  0  0
    2.3709   -4.3429    8.4495 H   0  0  0  0  0  0  0  0  0  0  0  0
    1.7936   -6.0246    8.3438 H   0  0  0  0  0  0  0  0  0  0  0  0
    1.8384   -3.0330    6.6121 H   0  0  0  0  0  0  0  0  0  0  0  0
    0.3184   -2.3266    4.7699 H   0  0  0  0  0  0  0  0  0  0  0  0
   -5.5451   -4.2170    3.9602 H   0  0  0  0  0  0  0  0  0  0  0  0
   -7.2949   -3.7546    2.2377 H   0  0  0  0  0  0  0  0  0  0  0  0
   -6.5980   -3.0603   -0.0502 H   0  0  0  0  0  0  0  0  0  0  0  0
   -5.3154   -4.3482   -2.0009 H   0  0  0  0  0  0  0  0  0  0  0  0
   -5.5400   -4.6414   -4.1710 H   0  0  0  0  0  0  0  0  0  0  0  0
   -4.1213   -4.2044   -5.1831 H   0  0  0  0  0  0  0  0  0  0  0  0
   -5.5256   -3.1254   -5.1339 H   0  0  0  0  0  0  0  0  0  0  0  0
   -1.3677    2.0491   -3.5643 H   0  0  0  0  0  0  0  0  0  0  0  0
    0.4102    2.5233   -4.7077 H   0  0  0  0  0  0  0  0  0  0  0  0
   -0.2618    5.1182   -6.2409 H   0  0  0  0  0  0  0  0  0  0  0  0
   -0.2824    3.4714   -6.9284 H   0  0  0  0  0  0  0  0  0  0  0  0
    1.7583    6.2420   -5.5673 H   0  0  0  0  0  0  0  0  0  0  0  0
    3.3173    6.2159   -6.4202 H   0  0  0  0  0  0  0  0  0  0  0  0
    1.8798    6.1039   -3.5046 H   0  0  0  0  0  0  0  0  0  0  0  0
    2.3633    5.7360   -0.4034 H   0  0  0  0  0  0  0  0  0  0  0  0
    1.9659    7.0878   -1.4995 H   0  0  0  0  0  0  0  0  0  0  0  0
    3.5471    7.0476   -0.6465 H   0  0  0  0  0  0  0  0  0  0  0  0
    4.7614    3.0203   -4.3339 H   0  0  0  0  0  0  0  0  0  0  0  0
    7.1508    3.6012   -3.6525 H   0  0  0  0  0  0  0  0  0  0  0  0
    7.2300    4.3975   -5.2436 H   0  0  0  0  0  0  0  0  0  0  0  0
    7.0566    2.6173   -5.1516 H   0  0  0  0  0  0  0  0  0  0  0  0
  2  1  2  0  0  0  0
  2  3  1  0  0  0  0
  3  4  1  0  0  0  0
  3 62  1  0  0  0  0
  4  5  1  0  0  0  0
  5 14  2  0  0  0  0
  5  6  1  0  0  0  0
  6 13  2  0  0  0  0
  6  7  1  0  0  0  0
  7 12  1  0  0  0  0
  8  7  1  0  0  0  0
  8 64  1  0  0  0  0
  9  8  1  0  0  0  0
  9 10  1  0  0  0  0
 10 11  1  0  0  0  0
 11 12  1  0  0  0  0
 11 68  1  0  0  0  0
 12 69  1  0  0  0  0
 12 70  1  0  0  0  0
 14 71  1  0  0  0  0
 15 72  1  0  0  0  0
 15 14  1  0  0  0  0
 16 15  2  0  0  0  0
 17 18  1  0  0  0  0
 17 16  1  0  0  0  0
 18 19  2  0  0  0  0
 19 20  1  0  0  0  0
 19 74  1  0  0  0  0
 20 21  1  0  0  0  0
 21 41  2  0  0  0  0
 21 22  1  0  0  0  0
 22 24  2  0  0  0  0
 23 75  1  0  0  0  0
 23 22  1  0  0  0  0
 23 77  1  0  0  0  0
 24 39  1  0  0  0  0
 24 25  1  0  0  0  0
 25 78  1  0  0  0  0
 25 26  1  0  0  0  0
 26 27  1  0  0  0  0
 27 37  2  0  0  0  0
 27 28  1  0  0  0  0
 28 29  2  0  0  0  0
 29 34  1  0  0  0  0
 29 30  1  0  0  0  0
 30 33  1  0  0  0  0
 31 30  1  0  0  0  0
 32 30  1  0  0  0  0
 34 35  1  0  0  0  0
 35 80  1  0  0  0  0
 36 83  1  0  0  0  0
 36 34  2  0  0  0  0
 37 36  1  0  0  0  0
 38 26  2  0  0  0  0
 39 85  1  0  0  0  0
 40 86  1  0  0  0  0
 40 39  2  0  0  0  0
 41 40  1  0  0  0  0
 42 88  1  0  0  0  0
 42 20  2  0  0  0  0
 43 42  1  0  0  0  0
 44 89  1  0  0  0  0
 44 43  1  0  0  0  0
 45 43  1  0  0  0  0
 45 18  1  0  0  0  0
 46 45  2  0  0  0  0
 47 16  1  0  0  0  0
 47  4  2  0  0  0  0
 48 93  1  0  0  0  0
 48  2  1  0  0  0  0
 49 48  1  0  0  0  0
 50 49  1  0  0  0  0
 50 51  1  0  0  0  0
 51 96  1  0  0  0  0
 51 52  1  0  0  0  0
 52 53  1  1  0  0  0
 52 54  1  0  0  0  0
 54 55  1  0  0  0  0
 55 57  2  0  0  0  0
 55 56  1  0  0  0  0
 56101  1  0  0  0  0
 56 99  1  0  0  0  0
 58 59  1  0  0  0  0
 58 52  1  0  0  0  0
 59 60  1  0  0  0  0
 59102  1  0  0  0  0
 60103  1  0  0  0  0
 61 58  2  0  0  0  0
 63  8  1  0  0  0  0
 65  9  1  0  0  0  0
 66  9  1  0  0  0  0
 67 11  1  0  0  0  0
 73 17  1  0  0  0  0
 76 23  1  0  0  0  0
 79 28  1  0  0  0  0
 81 35  1  0  0  0  0
 82 35  1  0  0  0  0
 84 37  1  0  0  0  0
 87 41  1  0  0  0  0
 90 44  1  0  0  0  0
 91 44  1  0  0  0  0
 92 47  1  0  0  0  0
 94 49  1  0  0  0  0
 95 49  1  0  0  0  0
 97 51  1  0  0  0  0
 98 54  1  0  0  0  0
100 56  1  0  0  0  0
104 60  1  0  0  0  0
105 60  1  0  0  0  0
M  END
