105
-1 1
O        -0.242507    6.366657   -3.358246
C        -0.300972    5.155192   -3.231488
N        -0.644389    4.620017   -2.005763
C        -0.743588    3.277837   -1.635035
C        -0.064042    2.800813   -0.492596
C         0.770811    3.726069    0.341743
N         1.933624    3.242092    0.866147
C         2.694410    2.115166    0.337794
C         4.152098    2.499291    0.089441
O         4.727947    3.118415    1.219947
C         4.043494    4.300459    1.528980
C         2.601471    4.000857    1.910113
O         0.359646    4.854002    0.604015
C        -0.263675    1.474827   -0.112247
C        -1.063918    0.602325   -0.841479
C        -1.723621    1.069414   -1.985989
N        -2.528290    0.263646   -2.791322
C        -3.199391   -0.889779   -2.492039
C        -3.443698   -1.434865   -1.258681
C        -4.143930   -2.677644   -1.131897
C        -4.365362   -3.291021    0.205188
C        -3.284409   -3.537803    1.081126
C        -1.858432   -3.293725    0.668397
C        -3.574639   -4.068440    2.350371
N        -2.534339   -4.315787    3.288502
C        -1.728072   -3.343386    3.815485
C        -0.743840   -3.803242    4.860526
C        -0.906339   -4.950812    5.638319
C         0.038438   -5.305628    6.599417
C        -0.196045   -6.551289    7.421764
F        -1.317693   -7.187174    7.065582
F         0.805175   -7.432161    7.294148
F        -0.306368   -6.276553    8.728931
C         1.183981   -4.513917    6.810942
C         2.238491   -4.867707    7.826899
C         1.322374   -3.360425    6.032507
C         0.375737   -3.000758    5.080454
O        -1.766522   -2.184426    3.460442
C        -4.878864   -4.406294    2.718484
C        -5.926702   -4.205495    1.829661
C        -5.667636   -3.632730    0.588455
C        -4.602150   -3.287018   -2.259522
N        -4.416003   -2.724374   -3.501801
C        -4.931908   -3.367092   -4.698791
C        -3.744874   -1.533895   -3.700656
O        -3.627602   -1.047073   -4.818472
C        -1.564293    2.410263   -2.356927
C         0.064100    4.217168   -4.332197
C         0.334698    4.677621   -5.554845
S         3.402050    2.942267   -7.163461
C         3.718770    4.287044   -5.964944
C         3.660987    3.866844   -4.483968
H         2.788355    3.210292   -4.349850
N         3.450288    5.019240   -3.636788
C         2.780467    4.950977   -2.470835
C         2.661092    6.249880   -1.701970
O         2.239499    3.920304   -2.085276
C         4.890162    3.080978   -3.987408
N         5.254556    2.066637   -4.794607
C         6.381540    1.222629   -4.515437
O         5.452814    3.360455   -2.934259
H        -0.500253    5.257343   -1.223541
H         2.258569    1.798104   -0.615681
H         2.653468    1.273137    1.054981
H         4.229546    3.151576   -0.796577
H         4.737134    1.592692   -0.117642
H         4.061275    4.996711    0.667481
H         4.565642    4.777520    2.372181
H         2.031091    4.922788    2.076453
H         2.599252    3.404883    2.842238
H         0.237881    1.098583    0.781469
H        -1.139157   -0.438169   -0.532505
H        -2.624337    0.523678   -3.770001
H        -3.120395   -0.924291   -0.353167
H        -1.516935   -2.304658    1.008461
H        -1.740106   -3.351602   -0.420641
H        -1.193310   -4.035082    1.133535
H        -2.458256   -5.255451    3.652789
H        -1.790330   -5.580536    5.529361
H         1.803461   -4.988181    8.828562
H         3.007070   -4.085746    7.875299
H         2.728439   -5.817671    7.570224
H         2.198319   -2.724991    6.181990
H         0.485785   -2.088980    4.490694
H        -5.061436   -4.812450    3.716004
H        -6.948159   -4.464039    2.115706
H        -6.489591   -3.422905   -0.099537
H        -5.115859   -4.248832   -2.240555
H        -5.374931   -4.332405   -4.427269
H        -4.121449   -3.518428   -5.424557
H        -5.690000   -2.731349   -5.177887
H        -2.113399    2.798643   -3.216592
H         0.214316    3.162742   -4.094632
H         0.221616    5.744987   -5.766349
H         0.720522    4.016433   -6.339240
H         2.957185    5.075120   -6.085035
H         4.697703    4.763966   -6.161072
H         3.964588    5.861937   -3.853372
H         2.273044    6.041393   -0.697347
H         1.934857    6.894393   -2.221708
H         3.625656    6.775429   -1.636814
H         4.747962    1.994661   -5.698530
H         6.092068    0.158352   -4.510445
H         6.778828    1.488210   -3.526515
H         7.182459    1.352430   -5.263382
