105
-1 1
O         6.502197   -7.964905   -0.117591
C         6.638092   -9.186760   -0.085941
N         6.708341   -9.776532    1.200591
C         6.456889  -11.061888    1.622511
C         7.025546  -11.534942    2.834525
C         7.885975  -10.646065    3.677707
N         9.025603  -11.185472    4.202324
C         9.721336  -12.357115    3.688098
C        11.154019  -11.999023    3.299349
O        11.832603  -11.381950    4.369345
C        11.197387  -10.173124    4.714314
C         9.777608  -10.436795    5.196770
O         7.530113   -9.499669    3.935736
C         6.700291  -12.815280    3.283958
C         5.865125  -13.667237    2.574327
C         5.306263  -13.209388    1.370848
N         4.473604  -14.004847    0.576280
C         3.643448  -15.027733    0.935476
C         3.256575  -15.397940    2.198032
C         2.397012  -16.524567    2.401514
C         2.012870  -16.951662    3.773907
C         2.992736  -17.218646    4.756499
C         4.462973  -17.182672    4.439706
C         2.553490  -17.567532    6.045763
N         3.488858  -17.822805    7.087017
C         4.364082  -16.891186    7.575815
C         5.210387  -17.331285    8.743786
C         4.875315  -18.373174    9.610083
C         5.701894  -18.710190   10.680405
C         5.282497  -19.839172   11.592491
F         4.133362  -20.402089   11.202869
F         6.197697  -20.817002   11.633319
F         5.101621  -19.425167   12.854221
C         6.899002  -18.006884   10.916766
C         7.827662  -18.345661   12.053512
C         7.211256  -16.957516   10.046918
C         6.383025  -16.615089    8.984555
O         4.488686  -15.783366    7.098926
C         1.195789  -17.712260    6.339501
C         0.243858  -17.494629    5.352281
C         0.655477  -17.098004    4.083837
C         1.933075  -17.197863    1.312940
N         2.267798  -16.806282    0.035848
C         1.748240  -17.513360   -1.121997
C         3.102054  -15.739639   -0.236342
O         3.357511  -15.410167   -1.388585
C         5.599684  -11.923465    0.916156
C         6.785421  -10.060845   -1.220222
C         6.650394   -9.608111   -2.521944
S         8.668825   -8.814228   -3.580445
C         9.089908   -7.772802   -2.147532
C         9.826543   -8.499380   -1.002039
H         9.368086   -9.489995   -0.859813
N         9.662168   -7.744178    0.216021
C         9.837961   -8.269645    1.441683
C         9.582053   -7.331032    2.602650
O        10.183596   -9.430712    1.625698
C        11.319738   -8.702150   -1.310771
N        11.537296   -9.576222   -2.327844
C        12.849955   -9.799036   -2.868778
O        12.206319   -8.128554   -0.703548
H         6.916147   -9.113046    1.942033
H         9.196793  -12.743996    2.807511
H         9.732710  -13.147824    4.462347
H        11.128391  -11.330569    2.422134
H        11.706989  -12.916228    3.048386
H        11.161221   -9.501271    3.839532
H        11.790446   -9.707947    5.515841
H         9.243457   -9.499182    5.391803
H         9.815116  -11.029479    6.130194
H         7.131508  -13.165201    4.225092
H         5.683296  -14.677067    2.937419
H         4.458229  -13.816724   -0.422473
H         3.589671  -14.827974    3.064118
H         4.893924  -16.203855    4.698128
H         4.648507  -17.378362    3.376312
H         5.001277  -17.933822    5.035098
H         3.420087  -18.714870    7.556790
H         3.946004  -18.930614    9.485100
H         7.305884  -18.304982   13.019637
H         8.671477  -17.644627   12.086264
H         8.227918  -19.363619   11.944810
H         8.130370  -16.390727   10.212561
H         6.627900  -15.782702    8.322402
H         0.896993  -17.979883    7.355627
H        -0.818784  -17.600916    5.579419
H        -0.085725  -16.874050    3.313543
H         1.298201  -18.080898    1.393236
H         1.148754  -18.366969   -0.784471
H         2.575429  -17.864393   -1.754058
H         1.128474  -16.842088   -1.733237
H         5.134095  -11.560666   -0.000491
H         7.119656  -11.085529   -1.045780
H         6.176554   -8.638090   -2.685545
H         6.536566  -10.332765   -3.328189
H         8.148352   -7.391950   -1.726077
H         9.693754   -6.909746   -2.476092
H         9.282865   -6.811535    0.138722
H         8.890860   -7.827889    3.298721
H         9.161619   -6.363241    2.296294
H        10.535234   -7.154357    3.123318
H        10.715789   -9.807697   -2.896347
H        13.027531  -10.872323   -3.043837
H        13.586364   -9.429083   -2.143279
H        13.004370   -9.264330   -3.822686
