-1 1
 OpenBabel05232414493D

 80 82  0  0  1  0  0  0  0  0999 V2000
   -1.8221   -2.6045    8.1088 C   0  0  0  0  0  0  0  0  0  0  0  0
   -1.2647   -1.4972    7.4467 O   0  0  0  0  0  0  0  0  0  0  0  0
   -2.1301   -0.5828    6.8992 C   0  0  2  0  0  3  0  0  0  0  0  0
   -2.1336    0.6995    7.4720 C   0  0  0  0  0  3  0  0  0  0  0  0
   -3.6478    0.9202    9.1366 S   0  0  0  0  0  1  0  0  0  0  0  0
   -5.1059    0.2165    8.3331 C   0  0  0  0  0  0  0  0  0  0  0  0
   -5.9143   -0.7923    9.1584 C   0  0  2  0  0  0  0  0  0  0  0  0
   -6.9211   -0.8569    8.7142 H   0  0  0  0  0  0  0  0  0  0  0  0
   -6.1060   -0.3491   10.5116 N   0  0  0  0  0  0  0  0  0  0  0  0
   -7.2506   -0.6098   11.1998 C   0  0  0  0  0  0  0  0  0  0  0  0
   -7.1358   -0.4111   12.6993 C   0  0  0  0  0  0  0  0  0  0  0  0
   -8.2837   -0.9736   10.6701 O   0  0  0  0  0  0  0  0  0  0  0  0
   -5.4070   -2.2526    9.1565 C   0  0  0  0  0  0  0  0  0  0  0  0
   -5.1227   -2.7913    7.9462 N   0  0  0  0  0  0  0  0  0  0  0  0
   -4.7744   -4.1853    7.8263 C   0  0  0  0  0  0  0  0  0  0  0  0
   -5.3773   -2.9088   10.1834 O   0  0  0  0  0  0  0  0  0  0  0  0
   -3.0787   -0.9275    5.8962 C   0  0  0  0  0  0  0  0  0  0  0  0
   -3.3405   -2.0845    5.5038 O   0  0  0  0  0  0  0  0  0  0  0  0
   -3.8108    0.2136    5.2548 C   0  0  0  0  0  0  0  0  0  0  0  0
   -3.6503    1.5014    5.6245 C   0  0  0  0  0  0  0  0  0  0  0  0
   -4.2158    2.6568    5.0885 N   0  0  0  0  0  0  0  0  0  0  0  0
   -5.1084    2.8283    4.0924 C   0  0  2  0  0  3  0  0  0  0  0  0
   -5.6098    1.7762    3.4625 N   0  0  0  0  0  0  0  0  0  0  0  0
   -6.4867    2.0024    2.4719 C   0  0  0  0  0  0  0  0  0  0  0  0
   -6.9258    3.1519    2.0279 N   0  0  0  0  0  2  0  0  0  0  0  0
   -5.5069    4.1675    3.7177 C   0  0  0  0  0  0  0  0  0  0  0  0
   -6.4344    4.2623    2.6556 C   0  0  0  0  0  0  0  0  0  0  0  0
   -6.8680    5.5390    2.2192 C   0  0  0  0  0  0  0  0  0  0  0  0
   -6.3859    6.6873    2.8148 C   0  0  0  0  0  0  0  0  0  0  0  0
   -6.7464    7.9436    2.4778 O   0  0  0  0  0  0  0  0  0  0  0  0
   -7.6167    8.1297    1.3825 C   0  0  0  0  0  0  0  0  0  0  0  0
   -6.9164    7.9850    0.0298 C   0  0  0  0  0  0  0  0  0  0  0  0
   -7.8933    7.5515   -1.0619 C   0  0  0  0  0  0  0  0  0  0  0  0
   -8.3357    6.1905   -0.8693 N   0  0  0  0  0  0  0  0  0  0  0  0
   -9.6010    5.8315   -1.4803 C   0  0  0  0  0  0  0  0  0  0  0  0
   -9.6901    4.3179   -1.2584 C   0  0  0  0  0  0  0  0  0  0  0  0
   -8.2159    3.8588   -1.1536 C   0  0  0  0  0  0  0  0  0  0  0  0
   -7.4038    5.1530   -1.2824 C   0  0  0  0  0  0  0  0  0  0  0  0
   -5.4425    6.5899    3.8860 C   0  0  0  0  0  0  0  0  0  0  0  0
   -4.9922    7.7147    4.5040 O   0  0  0  0  0  0  0  0  0  0  0  0
   -4.0724    8.4870    3.7689 C   0  0  0  0  0  0  0  0  0  0  0  0
   -5.0246    5.3550    4.3186 C   0  0  0  0  0  0  0  0  0  0  0  0
   -2.6714    1.8475    6.6987 C   0  0  0  0  0  0  0  0  0  0  0  0
   -2.3427    3.0106    6.8691 O   0  0  0  0  0  0  0  0  0  0  0  0
   -2.5542   -2.2981    8.8764 H   0  0  0  0  0  0  0  0  0  0  0  0
   -0.9936   -3.1300    8.6073 H   0  0  0  0  0  0  0  0  0  0  0  0
   -2.3080   -3.2847    7.3951 H   0  0  0  0  0  0  0  0  0  0  0  0
   -1.2894    0.9595    8.1143 H   0  0  0  0  0  0  0  0  0  0  0  0
   -4.7576   -0.2757    7.4116 H   0  0  0  0  0  0  0  0  0  0  0  0
   -5.7728    1.0323    8.0185 H   0  0  0  0  0  0  0  0  0  0  0  0
   -5.2516   -0.1849   11.0330 H   0  0  0  0  0  0  0  0  0  0  0  0
   -6.5041    0.4518   12.9557 H   0  0  0  0  0  0  0  0  0  0  0  0
   -6.6794   -1.3141   13.1333 H   0  0  0  0  0  0  0  0  0  0  0  0
   -8.1391   -0.2812   13.1220 H   0  0  0  0  0  0  0  0  0  0  0  0
   -4.9382   -2.2147    7.1316 H   0  0  0  0  0  0  0  0  0  0  0  0
   -4.0403   -4.4766    8.5931 H   0  0  0  0  0  0  0  0  0  0  0  0
   -4.3444   -4.3447    6.8296 H   0  0  0  0  0  0  0  0  0  0  0  0
   -5.6590   -4.8315    7.9531 H   0  0  0  0  0  0  0  0  0  0  0  0
   -4.4906   -0.0545    4.4481 H   0  0  0  0  0  0  0  0  0  0  0  0
   -3.8169    3.4763    5.5434 H   0  0  0  0  0  0  0  0  0  0  0  0
   -6.8747    1.1026    1.9784 H   0  0  0  0  0  0  0  0  0  0  0  0
   -7.5882    5.5710    1.4006 H   0  0  0  0  0  0  0  0  0  0  0  0
   -8.0175    9.1465    1.5034 H   0  0  0  0  0  0  0  0  0  0  0  0
   -8.4646    7.4278    1.4441 H   0  0  0  0  0  0  0  0  0  0  0  0
   -6.1135    7.2366    0.1166 H   0  0  0  0  0  0  0  0  0  0  0  0
   -6.4297    8.9326   -0.2487 H   0  0  0  0  0  0  0  0  0  0  0  0
   -7.4328    7.6936   -2.0655 H   0  0  0  0  0  0  0  0  0  0  0  0
   -8.7792    8.2097   -1.0351 H   0  0  0  0  0  0  0  0  0  0  0  0
   -9.6056    6.0653   -2.5708 H   0  0  0  0  0  0  0  0  0  0  0  0
  -10.4313    6.3917   -1.0214 H   0  0  0  0  0  0  0  0  0  0  0  0
  -10.2397    3.8212   -2.0709 H   0  0  0  0  0  0  0  0  0  0  0  0
  -10.2238    4.1029   -0.3216 H   0  0  0  0  0  0  0  0  0  0  0  0
   -7.9410    3.1357   -1.9345 H   0  0  0  0  0  0  0  0  0  0  0  0
   -8.0135    3.3962   -0.1766 H   0  0  0  0  0  0  0  0  0  0  0  0
   -7.0749    5.3202   -2.3348 H   0  0  0  0  0  0  0  0  0  0  0  0
   -6.5019    5.1436   -0.6513 H   0  0  0  0  0  0  0  0  0  0  0  0
   -3.7792    9.3309    4.4071 H   0  0  0  0  0  0  0  0  0  0  0  0
   -4.5188    8.8774    2.8400 H   0  0  0  0  0  0  0  0  0  0  0  0
   -3.1709    7.8994    3.5189 H   0  0  0  0  0  0  0  0  0  0  0  0
   -4.3132    5.3418    5.1470 H   0  0  0  0  0  0  0  0  0  0  0  0
  1 46  1  0  0  0  0
  1 45  1  0  0  0  0
  2  1  1  0  0  0  0
  3  2  1  1  0  0  0
  3  4  1  0  0  0  0
  4 48  1  0  0  0  0
  6  5  1  0  0  0  0
  6  7  1  0  0  0  0
  7  8  1  6  0  0  0
  7  9  1  0  0  0  0
  9 51  1  0  0  0  0
  9 10  1  0  0  0  0
 10 11  1  0  0  0  0
 11 52  1  0  0  0  0
 11 54  1  0  0  0  0
 11 53  1  0  0  0  0
 12 10  2  0  0  0  0
 13  7  1  0  0  0  0
 13 16  2  0  0  0  0
 14 13  1  0  0  0  0
 15 14  1  0  0  0  0
 15 58  1  0  0  0  0
 15 56  1  0  0  0  0
 17  3  1  0  0  0  0
 18 17  2  0  0  0  0
 19 20  2  0  0  0  0
 19 17  1  0  0  0  0
 20 43  1  0  0  0  0
 21 60  1  0  0  0  0
 21 20  1  0  0  0  0
 22 21  1  6  0  0  0
 23 22  1  0  0  0  0
 24 23  2  0  0  0  0
 25 24  1  0  0  0  0
 25 27  1  0  0  0  0
 26 22  1  0  0  0  0
 26 42  1  0  0  0  0
 27 26  2  0  0  0  0
 28 27  1  0  0  0  0
 28 29  2  0  0  0  0
 29 39  1  0  0  0  0
 30 29  1  0  0  0  0
 31 64  1  0  0  0  0
 31 63  1  0  0  0  0
 31 30  1  0  0  0  0
 32 65  1  0  0  0  0
 32 31  1  0  0  0  0
 33 68  1  0  0  0  0
 33 34  1  0  0  0  0
 33 32  1  0  0  0  0
 35 36  1  0  0  0  0
 35 70  1  0  0  0  0
 35 34  1  0  0  0  0
 36 37  1  0  0  0  0
 36 72  1  0  0  0  0
 37 74  1  0  0  0  0
 38 37  1  0  0  0  0
 38 34  1  0  0  0  0
 38 76  1  0  0  0  0
 39 42  2  0  0  0  0
 39 40  1  0  0  0  0
 41 77  1  0  0  0  0
 41 40  1  0  0  0  0
 42 80  1  0  0  0  0
 43 44  2  0  0  0  0
 43  4  1  0  0  0  0
 47  1  1  0  0  0  0
 49  6  1  0  0  0  0
 50  6  1  0  0  0  0
 55 14  1  0  0  0  0
 57 15  1  0  0  0  0
 59 19  1  0  0  0  0
 61 24  1  0  0  0  0
 62 28  1  0  0  0  0
 66 32  1  0  0  0  0
 67 33  1  0  0  0  0
 69 35  1  0  0  0  0
 71 36  1  0  0  0  0
 73 37  1  0  0  0  0
 75 38  1  0  0  0  0
 78 41  1  0  0  0  0
 79 41  1  0  0  0  0
M  END
