80
-1 1
C        -1.822149   -2.604490    8.108768
O        -1.264716   -1.497191    7.446666
C        -2.130067   -0.582844    6.899198
C        -2.133565    0.699475    7.472024
S        -3.647782    0.920191    9.136564
C        -5.105926    0.216522    8.333074
C        -5.914308   -0.792348    9.158435
H        -6.921098   -0.856869    8.714182
N        -6.106003   -0.349062   10.511626
C        -7.250572   -0.609842   11.199810
C        -7.135790   -0.411099   12.699337
O        -8.283653   -0.973554   10.670086
C        -5.407044   -2.252556    9.156502
N        -5.122732   -2.791350    7.946153
C        -4.774379   -4.185315    7.826350
O        -5.377253   -2.908803   10.183408
C        -3.078678   -0.927476    5.896225
O        -3.340515   -2.084513    5.503764
C        -3.810846    0.213605    5.254787
C        -3.650277    1.501425    5.624537
N        -4.215754    2.656843    5.088519
C        -5.108384    2.828342    4.092380
N        -5.609844    1.776176    3.462496
C        -6.486682    2.002396    2.471929
N        -6.925789    3.151938    2.027872
C        -5.506851    4.167462    3.717652
C        -6.434371    4.262257    2.655615
C        -6.867953    5.538980    2.219246
C        -6.385881    6.687290    2.814838
O        -6.746394    7.943606    2.477814
C        -7.616709    8.129745    1.382454
C        -6.916440    7.984986    0.029796
C        -7.893319    7.551495   -1.061855
N        -8.335716    6.190534   -0.869253
C        -9.600981    5.831494   -1.480326
C        -9.690078    4.317862   -1.258384
C        -8.215917    3.858811   -1.153568
C        -7.403767    5.153036   -1.282373
C        -5.442538    6.589872    3.885969
O        -4.992215    7.714674    4.504039
C        -4.072405    8.487008    3.768925
C        -5.024585    5.354995    4.318581
C        -2.671425    1.847494    6.698687
O        -2.342662    3.010607    6.869054
H        -2.554193   -2.298077    8.876355
H        -0.993566   -3.130001    8.607331
H        -2.308007   -3.284713    7.395082
H        -1.289435    0.959505    8.114263
H        -4.757634   -0.275702    7.411615
H        -5.772814    1.032266    8.018529
H        -5.251650   -0.184869   11.033039
H        -6.504052    0.451796   12.955652
H        -6.679436   -1.314099   13.133262
H        -8.139104   -0.281221   13.122031
H        -4.938192   -2.214688    7.131592
H        -4.040344   -4.476568    8.593145
H        -4.344430   -4.344687    6.829550
H        -5.659047   -4.831484    7.953073
H        -4.490552   -0.054483    4.448064
H        -3.816939    3.476346    5.543368
H        -6.874653    1.102581    1.978440
H        -7.588213    5.570952    1.400639
H        -8.017523    9.146524    1.503351
H        -8.464601    7.427752    1.444058
H        -6.113529    7.236638    0.116630
H        -6.429681    8.932615   -0.248739
H        -7.432816    7.693597   -2.065544
H        -8.779196    8.209741   -1.035145
H        -9.605554    6.065300   -2.570848
H       -10.431298    6.391720   -1.021377
H       -10.239741    3.821218   -2.070924
H       -10.223849    4.102913   -0.321600
H        -7.940993    3.135671   -1.934534
H        -8.013477    3.396186   -0.176644
H        -7.074913    5.320168   -2.334773
H        -6.501862    5.143564   -0.651313
H        -3.779188    9.330897    4.407080
H        -4.518778    8.877357    2.840019
H        -3.170944    7.899427    3.518859
H        -4.313183    5.341760    5.146969
