80
-1 1
C         3.464574   -5.073671    3.407469
O         4.248330   -3.931995    3.084348
C         3.699848   -2.974147    2.317728
C         3.882428   -1.674833    2.622529
S         1.043730   -0.239048    3.250993
C        -0.485264   -0.861691    2.485219
C        -1.071748   -2.130569    3.141137
H        -2.126791   -2.237271    2.836995
N        -1.039995   -2.005330    4.566728
C        -1.848436   -2.723952    5.379052
C        -1.460234   -2.684030    6.846300
O        -2.808699   -3.363088    4.981507
C        -0.391091   -3.444853    2.704621
N        -0.549571   -3.741169    1.386870
C        -0.134589   -4.992245    0.801664
O         0.166947   -4.189819    3.490407
C         2.972694   -3.366655    1.063905
O         2.998656   -4.524944    0.667720
C         2.252766   -2.319375    0.345430
C         2.389030   -1.017426    0.694803
N         1.832668    0.089707    0.090367
C         0.812191    0.198742   -0.789543
N         0.272370   -0.887549   -1.324555
C        -0.712803   -0.716503   -2.221028
N        -1.224325    0.405832   -2.653322
C         0.325880    1.510821   -1.144839
C        -0.707143    1.548109   -2.109019
C        -1.227681    2.797094   -2.528356
C        -0.731815    3.974317   -2.005358
O        -1.168442    5.208881   -2.330254
C        -2.157755    5.339579   -3.327905
C        -1.600763    5.197576   -4.745992
C        -2.668636    4.701256   -5.719242
N        -3.027057    3.326822   -5.459617
C        -4.331786    2.900886   -5.927661
C        -4.328813    1.389790   -5.672676
C        -2.832573    0.997079   -5.715366
C        -2.097604    2.322134   -5.951246
C         0.311084    3.934922   -1.025926
O         0.768474    5.090768   -0.475434
C         1.596350    5.872389   -1.302880
C         0.814931    2.727405   -0.609643
C         3.362432   -0.600407    1.767547
O         3.797596    0.543626    1.775305
H         2.400014   -4.813690    3.519830
H         3.847346   -5.442763    4.369713
H         3.568478   -5.852473    2.639924
H         4.465006   -1.383112    3.496548
H        -0.314152   -1.060190    1.413529
H        -1.254503   -0.074831    2.537705
H        -0.188366   -1.561368    4.912538
H        -1.018421   -1.719775    7.135756
H        -0.712902   -3.471954    7.026558
H        -2.346485   -2.893067    7.458091
H        -0.891476   -3.012778    0.773797
H         0.116066   -5.674972    1.623307
H         0.761565   -4.888836    0.172001
H        -0.955136   -5.430797    0.210864
H         1.625815   -2.619850   -0.489378
H         2.191918    0.933621    0.536839
H        -1.128385   -1.641737   -2.639834
H        -2.026991    2.784642   -3.270360
H        -2.585559    6.341609   -3.179508
H        -2.964020    4.605471   -3.165406
H        -0.760317    4.486485   -4.735048
H        -1.189411    6.159262   -5.090160
H        -2.325041    4.842776   -6.768904
H        -3.574972    5.321508   -5.607134
H        -4.461123    3.111305   -7.015343
H        -5.133858    3.434200   -5.392800
H        -4.937030    0.852833   -6.414825
H        -4.751868    1.171876   -4.681643
H        -2.608116    0.269338   -6.508180
H        -2.509955    0.565213   -4.756825
H        -1.888961    2.480261   -7.035365
H        -1.134940    2.365823   -5.419191
H         1.905979    6.746048   -0.714476
H         1.063298    6.217180   -2.204092
H         2.497667    5.310849   -1.607688
H         1.589492    2.755219    0.159177
