-1 1
 OpenBabel05232414493D

113116  0  0  1  0  0  0  0  0999 V2000
    1.2661    5.0866    1.9094 O   0  0  0  0  0  0  0  0  0  0  0  0
    1.3560    5.6119    3.0234 C   0  0  0  0  0  0  0  0  0  0  0  0
    1.2857    7.0087    3.1754 N   0  0  0  0  0  0  0  0  0  0  0  0
    1.2166    7.9976    2.2090 C   0  0  0  0  0  0  0  0  0  0  0  0
    1.0757    9.3429    2.6283 C   0  0  0  0  0  0  0  0  0  0  0  0
    0.9536    9.7372    4.0745 C   0  0  0  0  0  0  0  0  0  0  0  0
    2.0321    9.4833    4.8837 N   0  0  0  0  0  0  0  0  0  0  0  0
    1.9286    9.8314    6.2941 C   0  0  0  0  0  0  0  0  0  0  0  0
    2.7321    8.8627    7.1548 C   0  0  0  0  0  0  0  0  0  0  0  0
    4.1769    8.7460    6.6848 C   0  0  0  0  0  0  0  0  0  0  0  0
    4.2179    8.3862    5.1964 C   0  0  0  0  0  0  0  0  0  0  0  0
    3.3887    9.3581    4.3673 C   0  0  0  0  0  0  0  0  0  0  0  0
    4.7964    9.9906    6.9519 O   0  0  0  0  0  0  0  0  0  0  0  0
    6.1800   10.0194    6.8097 C   0  0  0  0  0  0  0  0  0  0  0  0
   -0.0646   10.2585    4.5026 O   0  0  0  0  0  0  0  0  0  0  0  0
    0.9749   10.3521    1.6723 C   0  0  0  0  0  0  0  0  0  0  0  0
    1.0562   10.0809    0.3150 C   0  0  0  0  0  0  0  0  0  0  0  0
    1.2290    8.7538   -0.1104 C   0  0  0  0  0  0  0  0  0  0  0  0
    1.3520    8.5193   -1.4804 N   0  0  0  0  0  0  0  0  0  0  0  0
    0.9261    7.4593   -2.2416 C   0  0  0  0  0  0  0  0  0  0  0  0
    0.2006    6.3698   -1.8422 C   0  0  0  0  0  0  0  0  0  0  0  0
   -0.2021    5.3711   -2.7888 C   0  0  0  0  0  0  0  0  0  0  0  0
   -1.0617    4.2448   -2.3347 C   0  0  0  0  0  0  0  0  0  0  0  0
   -0.6667    3.4436   -1.2493 C   0  0  0  0  0  0  0  0  0  0  0  0
    0.7334    3.4840   -0.6952 C   0  0  0  0  0  0  0  0  0  0  0  0
   -1.6139    2.5627   -0.6841 C   0  0  0  0  0  0  0  0  0  0  0  0
   -1.2698    1.9623    0.5383 N   0  0  0  0  0  0  0  0  0  0  0  0
   -1.9612    1.0064    1.2429 C   0  0  0  0  0  0  0  0  0  0  0  0
   -1.5888    0.8901    2.6867 C   0  0  0  0  0  0  0  0  0  0  0  0
   -0.9882    1.9147    3.4325 C   0  0  0  0  0  0  0  0  0  0  0  0
   -0.7641    1.7761    4.7928 C   0  0  0  0  0  0  0  0  0  0  0  0
   -1.1336    0.6008    5.4845 C   0  0  0  0  0  0  0  0  0  0  0  0
   -0.9371    0.4817    6.8408 N   0  0  0  0  0  0  0  0  0  0  0  0
   -1.5203   -0.6378    7.5367 C   0  0  0  0  0  0  0  0  0  0  0  0
   -0.5983    1.6630    7.6150 C   0  0  0  0  0  0  0  0  0  0  0  0
   -1.7318   -0.4329    4.7239 C   0  0  0  0  0  0  0  0  0  0  0  0
   -1.9546   -0.2780    3.3641 C   0  0  0  0  0  0  0  0  0  0  0  0
   -2.8229    0.3012    0.7474 O   0  0  0  0  0  0  0  0  0  0  0  0
   -2.8547    2.3577   -1.3000 C   0  0  0  0  0  0  0  0  0  0  0  0
   -3.1841    3.0893   -2.4362 C   0  0  0  0  0  0  0  0  0  0  0  0
   -2.3137    4.0535   -2.9320 C   0  0  0  0  0  0  0  0  0  0  0  0
    0.1609    5.5266   -4.0888 C   0  0  0  0  0  0  0  0  0  0  0  0
    0.8865    6.6234   -4.5088 N   0  0  0  0  0  0  0  0  0  0  0  0
    1.2287    6.7339   -5.9161 C   0  0  0  0  0  0  0  0  0  0  0  0
    1.2871    7.6349   -3.6595 C   0  0  0  0  0  0  0  0  0  0  0  0
    1.8935    8.6288   -4.0571 O   0  0  0  0  0  0  0  0  0  0  0  0
    1.3070    7.7238    0.8323 C   0  0  0  0  0  0  0  0  0  0  0  0
    1.5114    4.8920    4.2539 C   0  0  0  0  0  3  0  0  0  0  0  0
    1.6781    5.5004    5.5011 C   0  0  0  0  0  3  0  0  0  0  0  0
   -0.2325    6.4907    6.3046 S   0  0  0  0  0  1  0  0  0  0  0  0
   -1.2700    5.1843    5.6124 C   0  0  0  0  0  0  0  0  0  0  0  0
   -2.7127    5.5289    5.2111 C   0  0  2  0  0  0  0  0  0  0  0  0
   -3.2037    6.0513    6.0518 H   0  0  0  0  0  0  0  0  0  0  0  0
   -3.4472    4.3244    4.8854 N   0  0  0  0  0  0  0  0  0  0  0  0
   -3.7370    3.3139    5.7293 C   0  0  0  0  0  0  0  0  0  0  0  0
   -4.4898    2.1615    5.0922 C   0  0  0  0  0  0  0  0  0  0  0  0
   -3.3981    3.2883    6.9062 O   0  0  0  0  0  0  0  0  0  0  0  0
   -2.8413    6.4144    3.9531 C   0  0  0  0  0  0  0  0  0  0  0  0
   -2.1544    7.5656    3.9478 N   0  0  0  0  0  0  0  0  0  0  0  0
   -2.2187    8.4586    2.8135 C   0  0  0  0  0  0  0  0  0  0  0  0
   -3.5677    6.0690    3.0267 O   0  0  0  0  0  0  0  0  0  0  0  0
    1.0783    7.3068    4.1260 H   0  0  0  0  0  0  0  0  0  0  0  0
    0.8666    9.8082    6.5640 H   0  0  0  0  0  0  0  0  0  0  0  0
    2.2956   10.8625    6.4503 H   0  0  0  0  0  0  0  0  0  0  0  0
    2.2557    7.8708    7.1325 H   0  0  0  0  0  0  0  0  0  0  0  0
    2.7220    9.2080    8.1990 H   0  0  0  0  0  0  0  0  0  0  0  0
    4.6945    7.9555    7.2657 H   0  0  0  0  0  0  0  0  0  0  0  0
    3.8383    7.3629    5.0605 H   0  0  0  0  0  0  0  0  0  0  0  0
    5.2531    8.3805    4.8217 H   0  0  0  0  0  0  0  0  0  0  0  0
    3.3514    9.0320    3.3217 H   0  0  0  0  0  0  0  0  0  0  0  0
    3.8729   10.3535    4.3867 H   0  0  0  0  0  0  0  0  0  0  0  0
    6.5377   10.9789    7.2097 H   0  0  0  0  0  0  0  0  0  0  0  0
    6.5108    9.9460    5.7560 H   0  0  0  0  0  0  0  0  0  0  0  0
    6.6703    9.2012    7.3749 H   0  0  0  0  0  0  0  0  0  0  0  0
    0.8254   11.3793    2.0135 H   0  0  0  0  0  0  0  0  0  0  0  0
    0.9704   10.8830   -0.4210 H   0  0  0  0  0  0  0  0  0  0  0  0
    1.6950    9.2811   -2.0584 H   0  0  0  0  0  0  0  0  0  0  0  0
   -0.1027    6.2526   -0.8016 H   0  0  0  0  0  0  0  0  0  0  0  0
    1.4172    3.9914   -1.3870 H   0  0  0  0  0  0  0  0  0  0  0  0
    1.1085    2.4571   -0.5545 H   0  0  0  0  0  0  0  0  0  0  0  0
    0.8138    4.0043    0.2736 H   0  0  0  0  0  0  0  0  0  0  0  0
   -0.5045    2.4091    1.0281 H   0  0  0  0  0  0  0  0  0  0  0  0
   -0.7129    2.8714    2.9769 H   0  0  0  0  0  0  0  0  0  0  0  0
   -0.3311    2.6180    5.3261 H   0  0  0  0  0  0  0  0  0  0  0  0
   -1.1414   -1.5971    7.1473 H   0  0  0  0  0  0  0  0  0  0  0  0
   -2.6257   -0.6554    7.4700 H   0  0  0  0  0  0  0  0  0  0  0  0
   -1.2470   -0.5860    8.5981 H   0  0  0  0  0  0  0  0  0  0  0  0
    0.3378    2.1178    7.2563 H   0  0  0  0  0  0  0  0  0  0  0  0
   -0.4342    1.3685    8.6594 H   0  0  0  0  0  0  0  0  0  0  0  0
   -1.4027    2.4188    7.5807 H   0  0  0  0  0  0  0  0  0  0  0  0
   -2.0506   -1.3585    5.2014 H   0  0  0  0  0  0  0  0  0  0  0  0
   -2.4490   -1.0682    2.7955 H   0  0  0  0  0  0  0  0  0  0  0  0
   -3.5442    1.6325   -0.8744 H   0  0  0  0  0  0  0  0  0  0  0  0
   -4.1558    2.9331   -2.9105 H   0  0  0  0  0  0  0  0  0  0  0  0
   -2.6094    4.6918   -3.7678 H   0  0  0  0  0  0  0  0  0  0  0  0
   -0.0956    4.8021   -4.8629 H   0  0  0  0  0  0  0  0  0  0  0  0
    1.8100    5.8569   -6.2367 H   0  0  0  0  0  0  0  0  0  0  0  0
    1.8261    7.6420   -6.0479 H   0  0  0  0  0  0  0  0  0  0  0  0
    0.3176    6.8044   -6.5292 H   0  0  0  0  0  0  0  0  0  0  0  0
    1.4593    6.6901    0.5374 H   0  0  0  0  0  0  0  0  0  0  0  0
    1.3793    3.8116    4.1752 H   0  0  0  0  0  0  0  0  0  0  0  0
    2.2121    6.4477    5.5723 H   0  0  0  0  0  0  0  0  0  0  0  0
    1.8592    4.8489    6.3593 H   0  0  0  0  0  0  0  0  0  0  0  0
   -1.3487    4.3774    6.3506 H   0  0  0  0  0  0  0  0  0  0  0  0
   -0.7471    4.7919    4.7200 H   0  0  0  0  0  0  0  0  0  0  0  0
   -3.8191    4.3422    3.9369 H   0  0  0  0  0  0  0  0  0  0  0  0
   -5.1757    2.4919    4.2993 H   0  0  0  0  0  0  0  0  0  0  0  0
   -5.0473    1.6286    5.8721 H   0  0  0  0  0  0  0  0  0  0  0  0
   -3.7632    1.4652    4.6459 H   0  0  0  0  0  0  0  0  0  0  0  0
   -1.4717    7.7277    4.6920 H   0  0  0  0  0  0  0  0  0  0  0  0
   -1.7553    9.4108    3.0964 H   0  0  0  0  0  0  0  0  0  0  0  0
   -3.2668    8.6191    2.5213 H   0  0  0  0  0  0  0  0  0  0  0  0
   -1.6873    8.0468    1.9391 H   0  0  0  0  0  0  0  0  0  0  0  0
  1  2  2  0  0  0  0
  2  3  1  0  0  0  0
  2 48  1  0  0  0  0
  3 62  1  0  0  0  0
  4  5  1  0  0  0  0
  4  3  1  0  0  0  0
  5  6  1  0  0  0  0
  6 15  2  0  0  0  0
  6  7  1  0  0  0  0
  7  8  1  0  0  0  0
  8 64  1  0  0  0  0
  8 63  1  0  0  0  0
  8  9  1  0  0  0  0
  9 66  1  0  0  0  0
 10 13  1  0  0  0  0
 10  9  1  0  0  0  0
 10 67  1  0  0  0  0
 11 10  1  0  0  0  0
 12 71  1  0  0  0  0
 12  7  1  0  0  0  0
 12 11  1  0  0  0  0
 14 13  1  0  0  0  0
 14 72  1  0  0  0  0
 14 74  1  0  0  0  0
 16 75  1  0  0  0  0
 16  5  2  0  0  0  0
 17 16  1  0  0  0  0
 18 17  2  0  0  0  0
 18 47  1  0  0  0  0
 19 18  1  0  0  0  0
 20 21  2  0  0  0  0
 20 19  1  0  0  0  0
 21 78  1  0  0  0  0
 22 23  1  0  0  0  0
 22 21  1  0  0  0  0
 23 24  1  0  0  0  0
 24 25  1  0  0  0  0
 24 26  2  0  0  0  0
 25 80  1  0  0  0  0
 25 81  1  0  0  0  0
 26 27  1  0  0  0  0
 27 82  1  0  0  0  0
 27 28  1  0  0  0  0
 28 29  1  0  0  0  0
 29 37  2  0  0  0  0
 29 30  1  0  0  0  0
 30 31  2  0  0  0  0
 31 84  1  0  0  0  0
 31 32  1  0  0  0  0
 32 33  1  0  0  0  0
 33 34  1  0  0  0  0
 33 35  1  0  0  0  0
 34 87  1  0  0  0  0
 35 89  1  0  0  0  0
 36 91  1  0  0  0  0
 36 32  2  0  0  0  0
 37 36  1  0  0  0  0
 38 28  2  0  0  0  0
 39 93  1  0  0  0  0
 39 26  1  0  0  0  0
 40 39  2  0  0  0  0
 41 40  1  0  0  0  0
 41 23  2  0  0  0  0
 42 22  2  0  0  0  0
 43 42  1  0  0  0  0
 43 45  1  0  0  0  0
 44 43  1  0  0  0  0
 45 20  1  0  0  0  0
 46 45  2  0  0  0  0
 47  4  2  0  0  0  0
 48 49  1  0  0  0  0
 49102  1  0  0  0  0
 49103  1  0  0  0  0
 51 50  1  0  0  0  0
 51104  1  0  0  0  0
 52 51  1  0  0  0  0
 52 53  1  1  0  0  0
 54 52  1  0  0  0  0
 54 55  1  0  0  0  0
 55 57  2  0  0  0  0
 56 55  1  0  0  0  0
 56108  1  0  0  0  0
 58 52  1  0  0  0  0
 59 58  1  0  0  0  0
 59110  1  0  0  0  0
 60111  1  0  0  0  0
 60 59  1  0  0  0  0
 61 58  2  0  0  0  0
 65  9  1  0  0  0  0
 68 11  1  0  0  0  0
 69 11  1  0  0  0  0
 70 12  1  0  0  0  0
 73 14  1  0  0  0  0
 76 17  1  0  0  0  0
 77 19  1  0  0  0  0
 79 25  1  0  0  0  0
 83 30  1  0  0  0  0
 85 34  1  0  0  0  0
 86 34  1  0  0  0  0
 88 35  1  0  0  0  0
 90 35  1  0  0  0  0
 92 37  1  0  0  0  0
 94 40  1  0  0  0  0
 95 41  1  0  0  0  0
 96 42  1  0  0  0  0
 97 44  1  0  0  0  0
 98 44  1  0  0  0  0
 99 44  1  0  0  0  0
100 47  1  0  0  0  0
101 48  1  0  0  0  0
105 51  1  0  0  0  0
106 54  1  0  0  0  0
107 56  1  0  0  0  0
109 56  1  0  0  0  0
112 60  1  0  0  0  0
113 60  1  0  0  0  0
M  END
