113
-1 1
O         1.579383   -0.798772   -0.904016
C         1.699874   -0.378229    0.268163
N         1.636914    1.044073    0.499088
C         1.649812    2.054157   -0.432383
C         1.317649    3.370856   -0.028609
C         0.823837    3.619578    1.366216
N         1.666086    4.279806    2.213093
C         1.280965    4.444891    3.608673
C         1.968418    3.394123    4.480841
C         3.480124    3.396301    4.278854
C         3.821643    3.287135    2.787729
C         3.102269    4.372660    1.988394
O         3.970544    4.598652    4.846081
C         5.351005    4.668095    5.007224
O        -0.293108    3.252311    1.716602
C         1.379085    4.424299   -0.940172
C         1.704773    4.210921   -2.273577
C         2.002967    2.905689   -2.692708
N         2.255381    2.656447   -4.054432
C         1.507933    1.798921   -4.833944
C         0.590494    0.886215   -4.395064
C        -0.157807    0.085549   -5.316160
C        -1.203725   -0.818981   -4.766047
C        -0.864574   -1.756264   -3.773844
C         0.566045   -2.116325   -3.473658
C        -1.904349   -2.385008   -3.057303
N        -1.521402   -3.117923   -1.919474
C        -2.302167   -3.941618   -1.152926
C        -1.730662   -4.276814    0.191980
C        -0.396371   -4.088250    0.563381
C         0.023561   -4.298517    1.869051
C        -0.886599   -4.668304    2.881169
N        -0.497210   -4.742738    4.206259
C        -1.512944   -4.781066    5.235907
C         0.814817   -4.260636    4.574241
C        -2.216751   -4.925659    2.484309
C        -2.614426   -4.743476    1.168187
O        -3.390188   -4.366487   -1.502979
C        -3.238782   -2.219770   -3.445385
C        -3.544259   -1.370932   -4.504810
C        -2.541409   -0.643565   -5.138835
C         0.079114    0.243013   -6.644426
N         1.006107    1.159390   -7.104805
C         1.201925    1.287495   -8.537722
C         1.742298    1.983263   -6.272679
O         2.524817    2.829138   -6.704736
C         2.021645    1.855059   -1.776933
C         1.876183   -1.144144    1.416701
C         1.984454   -0.614098    2.780297
S         0.379415    0.115058    3.538226
C        -0.815616   -1.160056    3.072416
C        -2.144866   -0.619364    2.502249
H        -2.425959    0.304071    3.033861
N        -3.199120   -1.599040    2.640454
C        -3.735517   -1.989702    3.812660
C        -4.846788   -3.019511    3.701397
O        -3.393597   -1.543903    4.899381
C        -2.050713   -0.367433    0.986349
N        -1.543675    0.795453    0.567286
C        -1.357976    1.025312   -0.850717
O        -2.449854   -1.231579    0.209645
H         1.227608    1.279524    1.399705
H         0.191308    4.352251    3.674531
H         1.577305    5.455789    3.932032
H         1.567467    2.400828    4.227665
H         1.747361    3.578166    5.542572
H         3.923592    2.536158    4.820122
H         3.500335    2.301429    2.413486
H         4.908775    3.347837    2.624029
H         3.316363    4.276445    0.918760
H         3.442101    5.368718    2.317143
H         5.575190    5.571151    5.592720
H         5.897816    4.740001    4.047488
H         5.746731    3.789625    5.555279
H         1.131820    5.432410   -0.595939
H         1.690818    5.031111   -2.994126
H         2.667019    3.401914   -4.607642
H         0.403930    0.761256   -3.328627
H         1.230801   -1.797474   -4.286800
H         0.654606   -3.209660   -3.369951
H         0.941727   -1.664788   -2.539293
H        -0.732743   -2.701431   -1.434858
H         0.349852   -3.735167   -0.153576
H         1.066284   -4.100246    2.108355
H        -2.160176   -5.666166    5.128106
H        -2.151531   -3.876961    5.245201
H        -1.026385   -4.858956    6.216651
H         1.607759   -4.826068    4.059381
H         0.961337   -4.400903    5.652666
H         0.957970   -3.187434    4.346102
H        -2.960190   -5.238989    3.215463
H        -3.651477   -4.920710    0.873709
H        -4.015519   -2.751656   -2.901119
H        -4.587248   -1.238750   -4.802859
H        -2.789635    0.094679   -5.905433
H        -0.437410   -0.336157   -7.411079
H         1.525935    0.327691   -8.966916
H         1.974011    2.045958   -8.704866
H         0.268054    1.601908   -9.027981
H         2.282931    0.845945   -2.085513
H         1.849407   -2.222908    1.268951
H         2.664723    0.248478    2.893870
H         2.321208   -1.383172    3.489084
H        -1.054429   -1.766437    3.955243
H        -0.327836   -1.792077    2.314950
H        -3.412249   -2.077230    1.766213
H        -5.790765   -2.542334    4.003556
H        -4.648317   -3.833812    4.411774
H        -4.960053   -3.433289    2.690703
H        -1.183743    1.493375    1.218718
H        -1.099239    2.080110   -1.003876
H        -2.278575    0.782495   -1.401112
H        -0.542233    0.394483   -1.241398
