-1 1
 OpenBabel05232413483D

105108  0  0  1  0  0  0  0  0999 V2000
   -0.4092    2.4945    3.8125 O   0  0  0  0  0  0  0  0  0  0  0  0
   -0.8090    1.4458    3.3506 C   0  0  0  0  0  0  0  0  0  0  0  0
   -0.3682    0.2495    3.8986 N   0  0  0  0  0  0  0  0  0  0  0  0
   -0.7027   -1.0719    3.5751 C   0  0  0  0  0  0  0  0  0  0  0  0
    0.3257   -1.9967    3.3150 C   0  0  0  0  0  0  0  0  0  0  0  0
    1.7516   -1.5195    3.3126 C   0  0  0  0  0  0  0  0  0  0  0  0
    2.4546   -1.6918    2.1611 N   0  0  0  0  0  0  0  0  0  0  0  0
    3.8632   -1.3353    2.1124 C   0  0  0  0  0  0  0  0  0  0  0  0
    4.6491   -2.5275    1.5807 C   0  0  0  0  0  0  0  0  0  0  0  0
    4.1705   -2.9570    0.3339 O   0  0  0  0  0  0  0  0  0  0  0  0
    2.8009   -3.2885    0.3480 C   0  0  0  0  0  0  0  0  0  0  0  0
    1.9520   -2.1353    0.8661 C   0  0  0  0  0  0  0  0  0  0  0  0
    2.2303   -0.9971    4.3104 O   0  0  0  0  0  0  0  0  0  0  0  0
    0.0072   -3.3364    3.0896 C   0  0  0  0  0  0  0  0  0  0  0  0
   -1.3162   -3.7570    3.0354 C   0  0  0  0  0  0  0  0  0  0  0  0
   -2.3446   -2.8256    3.1972 C   0  0  0  0  0  0  0  0  0  0  0  0
   -3.6796   -3.2187    2.9238 N   0  0  0  0  0  0  0  0  0  0  0  0
   -4.0972   -3.1113    1.6026 C   0  0  0  0  0  0  0  0  0  0  0  0
   -3.2638   -3.0623    0.5237 C   0  0  0  0  0  0  0  0  0  0  0  0
   -3.7620   -2.8526   -0.7984 C   0  0  0  0  0  0  0  0  0  0  0  0
   -2.7929   -2.6882   -1.9164 C   0  0  0  0  0  0  0  0  0  0  0  0
   -1.7647   -1.7241   -1.8218 C   0  0  0  0  0  0  0  0  0  0  0  0
   -1.6610   -0.7665   -0.6625 C   0  0  0  0  0  0  0  0  0  0  0  0
   -0.8037   -1.6673   -2.8469 C   0  0  0  0  0  0  0  0  0  0  0  0
    0.2605   -0.7363   -2.7515 N   0  0  0  0  0  0  0  0  0  0  0  0
    1.5507   -1.1516   -2.6102 C   0  0  0  0  0  0  0  0  0  0  0  0
    2.5715   -0.0684   -2.4018 C   0  0  0  0  0  0  0  0  0  0  0  0
    3.7765   -0.4197   -1.7853 C   0  0  0  0  0  0  0  0  0  0  0  0
    4.6994    0.5629   -1.4358 C   0  0  0  0  0  0  0  0  0  0  0  0
    4.4549    1.9130   -1.7095 C   0  0  0  0  0  0  0  0  0  0  0  0
    5.3852    3.0052   -1.2439 C   0  0  0  0  0  0  0  0  0  0  0  0
    6.0577    3.7698   -2.3846 C   0  0  0  0  0  0  0  0  0  0  0  0
    3.2841    2.2410   -2.4024 C   0  0  0  0  0  0  0  0  0  0  0  0
    2.3491    1.2703   -2.7406 C   0  0  0  0  0  0  0  0  0  0  0  0
    1.8677   -2.3338   -2.5875 O   0  0  0  0  0  0  0  0  0  0  0  0
   -0.8775   -2.5261   -3.9450 C   0  0  0  0  0  0  0  0  0  0  0  0
   -1.9102   -3.4505   -4.0423 C   0  0  0  0  0  0  0  0  0  0  0  0
   -2.8615   -3.5327   -3.0293 C   0  0  0  0  0  0  0  0  0  0  0  0
   -5.1100   -2.7663   -0.9601 C   0  0  0  0  0  0  0  0  0  0  0  0
   -5.9692   -2.8654    0.1149 N   0  0  0  0  0  0  0  0  0  0  0  0
   -7.4047   -2.7396   -0.0708 C   0  0  0  0  0  0  0  0  0  0  0  0
   -5.5444   -3.0058    1.4248 C   0  0  0  0  0  0  0  0  0  0  0  0
   -6.3380   -3.0171    2.3621 O   0  0  0  0  0  0  0  0  0  0  0  0
   -2.0340   -1.5004    3.5072 C   0  0  0  0  0  0  0  0  0  0  0  0
   -1.6849    1.3691    2.1477 C   0  0  0  0  0  0  0  0  0  0  0  0
   -1.9834    2.4788    1.4690 C   0  0  0  0  0  0  0  0  0  0  0  0
   -1.1182    2.3339   -2.3774 S   0  0  0  0  0  1  0  0  0  0  0  0
   -0.0717    3.8272   -2.5232 C   0  0  0  0  0  0  0  0  0  0  0  0
    0.3513    4.5044   -1.1992 C   0  0  2  0  0  0  0  0  0  0  0  0
   -0.5728    4.6974   -0.6254 H   0  0  0  0  0  0  0  0  0  0  0  0
    1.0451    5.7521   -1.4361 N   0  0  0  0  0  0  0  0  0  0  0  0
    0.4369    6.9023   -1.8041 C   0  0  0  0  0  0  0  0  0  0  0  0
    1.3482    8.1205   -1.8523 C   0  0  0  0  0  0  0  0  0  0  0  0
   -0.7465    6.9903   -2.0815 O   0  0  0  0  0  0  0  0  0  0  0  0
    1.2997    3.6781   -0.3089 C   0  0  0  0  0  0  0  0  0  0  0  0
    0.8477    2.4660    0.0312 N   0  0  0  0  0  0  0  0  0  0  0  0
    1.6232    1.5560    0.8291 C   0  0  0  0  0  0  0  0  0  0  0  0
    2.3784    4.1379    0.0665 O   0  0  0  0  0  0  0  0  0  0  0  0
    0.4585    0.3553    4.4837 H   0  0  0  0  0  0  0  0  0  0  0  0
    4.1870   -1.0524    3.1212 H   0  0  0  0  0  0  0  0  0  0  0  0
    3.9958   -0.4700    1.4398 H   0  0  0  0  0  0  0  0  0  0  0  0
    4.5932   -3.3538    2.3199 H   0  0  0  0  0  0  0  0  0  0  0  0
    5.7066   -2.2591    1.4443 H   0  0  0  0  0  0  0  0  0  0  0  0
    2.6368   -4.1834    0.9846 H   0  0  0  0  0  0  0  0  0  0  0  0
    2.5121   -3.5108   -0.6878 H   0  0  0  0  0  0  0  0  0  0  0  0
    0.9002   -2.4326    0.9302 H   0  0  0  0  0  0  0  0  0  0  0  0
    2.0171   -1.2912    0.1605 H   0  0  0  0  0  0  0  0  0  0  0  0
    0.8134   -4.0541    2.9192 H   0  0  0  0  0  0  0  0  0  0  0  0
   -1.5714   -4.7961    2.8223 H   0  0  0  0  0  0  0  0  0  0  0  0
   -4.4087   -2.9230    3.5679 H   0  0  0  0  0  0  0  0  0  0  0  0
   -2.1857   -3.1379    0.6631 H   0  0  0  0  0  0  0  0  0  0  0  0
   -0.8710   -1.0758    0.0435 H   0  0  0  0  0  0  0  0  0  0  0  0
   -2.6035   -0.7040   -0.1066 H   0  0  0  0  0  0  0  0  0  0  0  0
   -1.4111    0.2490   -1.0033 H   0  0  0  0  0  0  0  0  0  0  0  0
    0.0023    0.2629   -2.6408 H   0  0  0  0  0  0  0  0  0  0  0  0
    3.9644   -1.4648   -1.5353 H   0  0  0  0  0  0  0  0  0  0  0  0
    5.6166    0.2764   -0.9125 H   0  0  0  0  0  0  0  0  0  0  0  0
    6.1551    2.5712   -0.5859 H   0  0  0  0  0  0  0  0  0  0  0  0
    4.7885    3.6967   -0.6258 H   0  0  0  0  0  0  0  0  0  0  0  0
    6.6707    3.0989   -3.0066 H   0  0  0  0  0  0  0  0  0  0  0  0
    6.7097    4.5668   -1.9952 H   0  0  0  0  0  0  0  0  0  0  0  0
    5.3114    4.2412   -3.0423 H   0  0  0  0  0  0  0  0  0  0  0  0
    3.0711    3.2889   -2.6272 H   0  0  0  0  0  0  0  0  0  0  0  0
    1.4184    1.5698   -3.2278 H   0  0  0  0  0  0  0  0  0  0  0  0
   -0.1098   -2.4575   -4.7164 H   0  0  0  0  0  0  0  0  0  0  0  0
   -1.9660   -4.1200   -4.9035 H   0  0  0  0  0  0  0  0  0  0  0  0
   -3.6558   -4.2819   -3.0784 H   0  0  0  0  0  0  0  0  0  0  0  0
   -5.5736   -2.5801   -1.9295 H   0  0  0  0  0  0  0  0  0  0  0  0
   -7.7839   -1.8633    0.4737 H   0  0  0  0  0  0  0  0  0  0  0  0
   -7.9179   -3.6251    0.3290 H   0  0  0  0  0  0  0  0  0  0  0  0
   -7.6226   -2.6346   -1.1398 H   0  0  0  0  0  0  0  0  0  0  0  0
   -2.8394   -0.7815    3.6691 H   0  0  0  0  0  0  0  0  0  0  0  0
   -1.9935    0.3928    1.7730 H   0  0  0  0  0  0  0  0  0  0  0  0
   -1.6301    3.4470    1.8342 H   0  0  0  0  0  0  0  0  0  0  0  0
   -2.5289    2.4477    0.5223 H   0  0  0  0  0  0  0  0  0  0  0  0
   -0.6364    4.5918   -3.0734 H   0  0  0  0  0  0  0  0  0  0  0  0
    0.8397    3.6232   -3.1102 H   0  0  0  0  0  0  0  0  0  0  0  0
    1.9833    5.7606   -1.0416 H   0  0  0  0  0  0  0  0  0  0  0  0
    1.2291    8.6053   -2.8311 H   0  0  0  0  0  0  0  0  0  0  0  0
    2.4090    7.8852   -1.6885 H   0  0  0  0  0  0  0  0  0  0  0  0
    1.0156    8.8377   -1.0877 H   0  0  0  0  0  0  0  0  0  0  0  0
    0.0437    2.1247   -0.5248 H   0  0  0  0  0  0  0  0  0  0  0  0
    0.9729    0.7350    1.1641 H   0  0  0  0  0  0  0  0  0  0  0  0
    2.0227    2.0688    1.7155 H   0  0  0  0  0  0  0  0  0  0  0  0
    2.4703    1.1289    0.2645 H   0  0  0  0  0  0  0  0  0  0  0  0
  2  1  2  0  0  0  0
  2  3  1  0  0  0  0
  3 59  1  0  0  0  0
  4  3  1  0  0  0  0
  5  4  2  0  0  0  0
  6  5  1  0  0  0  0
  6 13  2  0  0  0  0
  7  6  1  0  0  0  0
  8  7  1  0  0  0  0
  8 60  1  0  0  0  0
  9  8  1  0  0  0  0
  9 62  1  0  0  0  0
 10 11  1  0  0  0  0
 10  9  1  0  0  0  0
 11 12  1  0  0  0  0
 11 64  1  0  0  0  0
 12 66  1  0  0  0  0
 12  7  1  0  0  0  0
 14  5  1  0  0  0  0
 15 14  2  0  0  0  0
 15 16  1  0  0  0  0
 16 44  2  0  0  0  0
 17 16  1  0  0  0  0
 17 70  1  0  0  0  0
 18 17  1  0  0  0  0
 19 71  1  0  0  0  0
 19 18  2  0  0  0  0
 20 19  1  0  0  0  0
 21 22  1  0  0  0  0
 21 20  1  0  0  0  0
 22 23  1  0  0  0  0
 23 73  1  0  0  0  0
 23 72  1  0  0  0  0
 24 25  1  0  0  0  0
 24 22  2  0  0  0  0
 25 75  1  0  0  0  0
 25 26  1  0  0  0  0
 26 35  2  0  0  0  0
 26 27  1  0  0  0  0
 27 28  1  0  0  0  0
 28 76  1  0  0  0  0
 28 29  2  0  0  0  0
 29 77  1  0  0  0  0
 30 29  1  0  0  0  0
 30 31  1  0  0  0  0
 31 79  1  0  0  0  0
 31 78  1  0  0  0  0
 32 81  1  0  0  0  0
 32 31  1  0  0  0  0
 33 30  2  0  0  0  0
 34 33  1  0  0  0  0
 34 27  2  0  0  0  0
 36 24  1  0  0  0  0
 37 36  2  0  0  0  0
 37 38  1  0  0  0  0
 38 21  2  0  0  0  0
 39 20  2  0  0  0  0
 39 40  1  0  0  0  0
 40 42  1  0  0  0  0
 41 40  1  0  0  0  0
 41 90  1  0  0  0  0
 41 89  1  0  0  0  0
 42 18  1  0  0  0  0
 42 43  2  0  0  0  0
 44  4  1  0  0  0  0
 44 92  1  0  0  0  0
 45  2  1  0  0  0  0
 46 94  1  0  0  0  0
 46 45  2  0  0  0  0
 48 47  1  0  0  0  0
 48 49  1  0  0  0  0
 49 50  1  1  0  0  0
 49 55  1  0  0  0  0
 51 49  1  0  0  0  0
 51 98  1  0  0  0  0
 52 51  1  0  0  0  0
 53 52  1  0  0  0  0
 53100  1  0  0  0  0
 53101  1  0  0  0  0
 54 52  2  0  0  0  0
 55 56  1  0  0  0  0
 55 58  2  0  0  0  0
 56 57  1  0  0  0  0
 57103  1  0  0  0  0
 57104  1  0  0  0  0
 61  8  1  0  0  0  0
 63  9  1  0  0  0  0
 65 11  1  0  0  0  0
 67 12  1  0  0  0  0
 68 14  1  0  0  0  0
 69 15  1  0  0  0  0
 74 23  1  0  0  0  0
 80 32  1  0  0  0  0
 82 32  1  0  0  0  0
 83 33  1  0  0  0  0
 84 34  1  0  0  0  0
 85 36  1  0  0  0  0
 86 37  1  0  0  0  0
 87 38  1  0  0  0  0
 88 39  1  0  0  0  0
 91 41  1  0  0  0  0
 93 45  1  0  0  0  0
 95 46  1  0  0  0  0
 96 48  1  0  0  0  0
 97 48  1  0  0  0  0
 99 53  1  0  0  0  0
102 56  1  0  0  0  0
105 57  1  0  0  0  0
M  END
