105
-1 1
O        -0.409215    2.494457    3.812514
C        -0.808957    1.445828    3.350597
N        -0.368212    0.249499    3.898623
C        -0.702713   -1.071944    3.575111
C         0.325660   -1.996685    3.314969
C         1.751587   -1.519452    3.312588
N         2.454606   -1.691787    2.161081
C         3.863150   -1.335333    2.112427
C         4.649051   -2.527460    1.580726
O         4.170540   -2.956995    0.333879
C         2.800917   -3.288510    0.347993
C         1.952032   -2.135299    0.866111
O         2.230311   -0.997104    4.310405
C         0.007229   -3.336372    3.089574
C        -1.316163   -3.757038    3.035417
C        -2.344623   -2.825647    3.197172
N        -3.679626   -3.218738    2.923849
C        -4.097179   -3.111340    1.602570
C        -3.263761   -3.062309    0.523654
C        -3.762044   -2.852647   -0.798415
C        -2.792932   -2.688190   -1.916394
C        -1.764653   -1.724122   -1.821800
C        -1.660994   -0.766548   -0.662542
C        -0.803739   -1.667264   -2.846884
N         0.260543   -0.736268   -2.751517
C         1.550671   -1.151628   -2.610243
C         2.571549   -0.068439   -2.401794
C         3.776518   -0.419685   -1.785287
C         4.699385    0.562874   -1.435798
C         4.454853    1.912978   -1.709527
C         5.385161    3.005199   -1.243878
C         6.057659    3.769787   -2.384625
C         3.284143    2.241031   -2.402368
C         2.349119    1.270337   -2.740629
O         1.867652   -2.333758   -2.587503
C        -0.877530   -2.526107   -3.944970
C        -1.910156   -3.450483   -4.042308
C        -2.861533   -3.532703   -3.029319
C        -5.110044   -2.766280   -0.960129
N        -5.969200   -2.865440    0.114864
C        -7.404723   -2.739611   -0.070756
C        -5.544406   -3.005802    1.424824
O        -6.338015   -3.017054    2.362134
C        -2.034046   -1.500387    3.507165
C        -1.684875    1.369091    2.147710
C        -1.983403    2.478831    1.468978
S        -1.118192    2.333887   -2.377356
C        -0.071702    3.827246   -2.523165
C         0.351284    4.504383   -1.199187
H        -0.572808    4.697409   -0.625432
N         1.045105    5.752132   -1.436131
C         0.436907    6.902318   -1.804065
C         1.348235    8.120492   -1.852267
O        -0.746484    6.990333   -2.081485
C         1.299711    3.678070   -0.308902
N         0.847678    2.465976    0.031189
C         1.623201    1.555985    0.829109
O         2.378370    4.137908    0.066508
H         0.458462    0.355276    4.483730
H         4.187015   -1.052391    3.121155
H         3.995767   -0.469961    1.439833
H         4.593193   -3.353819    2.319939
H         5.706641   -2.259140    1.444283
H         2.636803   -4.183404    0.984558
H         2.512054   -3.510822   -0.687753
H         0.900208   -2.432586    0.930238
H         2.017082   -1.291248    0.160505
H         0.813417   -4.054092    2.919170
H        -1.571446   -4.796075    2.822334
H        -4.408690   -2.923036    3.567931
H        -2.185676   -3.137884    0.663092
H        -0.871009   -1.075792    0.043470
H        -2.603476   -0.703968   -0.106640
H        -1.411059    0.249020   -1.003281
H         0.002277    0.262875   -2.640847
H         3.964437   -1.464841   -1.535305
H         5.616616    0.276384   -0.912504
H         6.155090    2.571196   -0.585866
H         4.788530    3.696745   -0.625786
H         6.670730    3.098869   -3.006605
H         6.709740    4.566821   -1.995246
H         5.311386    4.241172   -3.042276
H         3.071062    3.288890   -2.627164
H         1.418408    1.569823   -3.227836
H        -0.109832   -2.457547   -4.716428
H        -1.966040   -4.119987   -4.903507
H        -3.655751   -4.281869   -3.078403
H        -5.573588   -2.580098   -1.929524
H        -7.783925   -1.863326    0.473684
H        -7.917938   -3.625136    0.328981
H        -7.622617   -2.634610   -1.139756
H        -2.839408   -0.781526    3.669070
H        -1.993540    0.392802    1.773030
H        -1.630139    3.446995    1.834174
H        -2.528878    2.447674    0.522305
H        -0.636419    4.591811   -3.073394
H         0.839677    3.623152   -3.110202
H         1.983328    5.760586   -1.041650
H         1.229146    8.605350   -2.831053
H         2.408993    7.885184   -1.688453
H         1.015592    8.837737   -1.087708
H         0.043732    2.124699   -0.524844
H         0.972883    0.734970    1.164148
H         2.022711    2.068784    1.715521
H         2.470350    1.128919    0.264489
