-1 1
 OpenBabel05232414493D

105108  0  0  1  0  0  0  0  0999 V2000
    6.0376   -7.9194    0.9817 O   0  0  0  0  0  0  0  0  0  0  0  0
    5.3764   -8.9620    0.9036 C   0  0  0  0  0  0  0  0  0  0  0  0
    5.7642   -9.9940    1.7776 N   0  0  0  0  0  0  0  0  0  0  0  0
    5.4644  -11.3536    1.7143 C   0  0  0  0  0  0  0  0  0  0  0  0
    6.5146  -12.2889    1.6053 C   0  0  0  0  0  0  0  0  0  0  0  0
    7.9297  -11.8065    1.4478 C   0  0  0  0  0  0  0  0  0  0  0  0
    8.5866  -12.2246    0.3296 N   0  0  0  0  0  0  0  0  0  0  0  0
   10.0051  -11.9529    0.1719 C   0  0  0  0  0  0  0  0  0  0  0  0
   10.6956  -13.2409   -0.2571 C   0  0  0  0  0  0  0  0  0  0  0  0
   10.1336  -13.7728   -1.4268 O   0  0  0  0  0  0  0  0  0  0  0  0
    8.7496  -14.0071   -1.3272 C   0  0  0  0  0  0  0  0  0  0  0  0
    7.9907  -12.7613   -0.8874 C   0  0  0  0  0  0  0  0  0  0  0  0
    8.4563  -11.0937    2.2927 O   0  0  0  0  0  0  0  0  0  0  0  0
    6.2337  -13.6560    1.6203 C   0  0  0  0  0  0  0  0  0  0  0  0
    4.9233  -14.1170    1.6470 C   0  0  0  0  0  0  0  0  0  0  0  0
    3.8733  -13.1953    1.6431 C   0  0  0  0  0  0  0  0  0  0  0  0
    2.5532  -13.6631    1.3996 N   0  0  0  0  0  0  0  0  0  0  0  0
    2.1754  -13.7551    0.0680 C   0  0  0  0  0  0  0  0  0  0  0  0
    3.0441  -13.7995   -0.9839 C   0  0  0  0  0  0  0  0  0  0  0  0
    2.5875  -13.8109   -2.3379 C   0  0  0  0  0  0  0  0  0  0  0  0
    3.6026  -13.7649   -3.4270 C   0  0  0  0  0  0  0  0  0  0  0  0
    4.5864  -12.7519   -3.4222 C   0  0  0  0  0  0  0  0  0  0  0  0
    4.5151  -11.5798   -2.4835 C   0  0  0  0  0  0  0  0  0  0  0  0
    5.6504  -12.8370   -4.3439 C   0  0  0  0  0  0  0  0  0  0  0  0
    6.7026  -11.8960   -4.2739 N   0  0  0  0  0  0  0  0  0  0  0  0
    8.0282  -12.2415   -4.4065 C   0  0  0  0  0  0  0  0  0  0  0  0
    9.0240  -11.1499   -4.1517 C   0  0  0  0  0  0  0  0  0  0  0  0
   10.2911  -11.5419   -3.7054 C   0  0  0  0  0  0  0  0  0  0  0  0
   11.2441  -10.5850   -3.3729 C   0  0  0  0  0  0  0  0  0  0  0  0
   10.9669   -9.2178   -3.4959 C   0  0  0  0  0  0  0  0  0  0  0  0
   11.9799   -8.1641   -3.1225 C   0  0  0  0  0  0  0  0  0  0  0  0
   12.6956   -7.5754   -4.3402 C   0  0  0  0  0  0  0  0  0  0  0  0
    9.7124   -8.8381   -3.9865 C   0  0  0  0  0  0  0  0  0  0  0  0
    8.7482   -9.7875   -4.3084 C   0  0  0  0  0  0  0  0  0  0  0  0
    8.3923  -13.3795   -4.6543 O   0  0  0  0  0  0  0  0  0  0  0  0
    5.6724  -13.8563   -5.3041 C   0  0  0  0  0  0  0  0  0  0  0  0
    4.6611  -14.8090   -5.3345 C   0  0  0  0  0  0  0  0  0  0  0  0
    3.6405  -14.7788   -4.3894 C   0  0  0  0  0  0  0  0  0  0  0  0
    1.2450  -13.8365   -2.5528 C   0  0  0  0  0  0  0  0  0  0  0  0
    0.3523  -13.8381   -1.4994 N   0  0  0  0  0  0  0  0  0  0  0  0
   -1.0794  -13.8360   -1.7434 C   0  0  0  0  0  0  0  0  0  0  0  0
    0.7320  -13.7699   -0.1688 C   0  0  0  0  0  0  0  0  0  0  0  0
   -0.0985  -13.7069    0.7332 O   0  0  0  0  0  0  0  0  0  0  0  0
    4.1451  -11.8297    1.7260 C   0  0  0  0  0  0  0  0  0  0  0  0
    4.3237   -9.1810   -0.0458 C   0  0  0  0  0  3  0  0  0  0  0  0
    4.1340   -8.2594   -1.0499 C   0  0  0  0  0  3  0  0  0  0  0  0
    5.9097   -8.5527   -2.7889 S   0  0  0  0  0  1  0  0  0  0  0  0
    6.4425   -6.8492   -3.1230 C   0  0  0  0  0  0  0  0  0  0  0  0
    7.0569   -6.0854   -1.9275 C   0  0  2  0  0  0  0  0  0  0  0  0
    6.3626   -6.1255   -1.0756 H   0  0  0  0  0  0  0  0  0  0  0  0
    7.2990   -4.7015   -2.2809 N   0  0  0  0  0  0  0  0  0  0  0  0
    6.3393   -3.7510   -2.2896 C   0  0  0  0  0  0  0  0  0  0  0  0
    6.7998   -2.3718   -2.7364 C   0  0  0  0  0  0  0  0  0  0  0  0
    5.1819   -3.9565   -1.9663 O   0  0  0  0  0  0  0  0  0  0  0  0
    8.4124   -6.6579   -1.5199 C   0  0  0  0  0  0  0  0  0  0  0  0
    8.3929   -7.5487   -0.5288 N   0  0  0  0  0  0  0  0  0  0  0  0
    9.5671   -8.2768   -0.1255 C   0  0  0  0  0  0  0  0  0  0  0  0
    9.4365   -6.2885   -2.1018 O   0  0  0  0  0  0  0  0  0  0  0  0
    6.6648   -9.7855    2.2017 H   0  0  0  0  0  0  0  0  0  0  0  0
   10.4000  -11.5793    1.1245 H   0  0  0  0  0  0  0  0  0  0  0  0
   10.1522  -11.1787   -0.6007 H   0  0  0  0  0  0  0  0  0  0  0  0
   10.6320  -13.9778    0.5711 H   0  0  0  0  0  0  0  0  0  0  0  0
   11.7578  -13.0523   -0.4704 H   0  0  0  0  0  0  0  0  0  0  0  0
    8.5563  -14.8244   -0.6008 H   0  0  0  0  0  0  0  0  0  0  0  0
    8.4102  -14.3233   -2.3232 H   0  0  0  0  0  0  0  0  0  0  0  0
    6.9320  -12.9968   -0.7338 H   0  0  0  0  0  0  0  0  0  0  0  0
    8.0507  -11.9870   -1.6712 H   0  0  0  0  0  0  0  0  0  0  0  0
    7.0608  -14.3680    1.5601 H   0  0  0  0  0  0  0  0  0  0  0  0
    4.6953  -15.1832    1.6075 H   0  0  0  0  0  0  0  0  0  0  0  0
    1.7981  -13.3167    1.9850 H   0  0  0  0  0  0  0  0  0  0  0  0
    4.1185  -13.7819   -0.8025 H   0  0  0  0  0  0  0  0  0  0  0  0
    5.3389  -11.5667   -1.7520 H   0  0  0  0  0  0  0  0  0  0  0  0
    3.5749  -11.5592   -1.9246 H   0  0  0  0  0  0  0  0  0  0  0  0
    4.5799  -10.6278   -3.0325 H   0  0  0  0  0  0  0  0  0  0  0  0
    6.4926  -10.9686   -3.8975 H   0  0  0  0  0  0  0  0  0  0  0  0
   10.4959  -12.6050   -3.5767 H   0  0  0  0  0  0  0  0  0  0  0  0
   12.2200  -10.9047   -2.9945 H   0  0  0  0  0  0  0  0  0  0  0  0
   12.7227   -8.5994   -2.4337 H   0  0  0  0  0  0  0  0  0  0  0  0
   11.4514   -7.3632   -2.5809 H   0  0  0  0  0  0  0  0  0  0  0  0
   13.2389   -8.3528   -4.9007 H   0  0  0  0  0  0  0  0  0  0  0  0
   13.4180   -6.8009   -4.0388 H   0  0  0  0  0  0  0  0  0  0  0  0
   11.9732   -7.1115   -5.0292 H   0  0  0  0  0  0  0  0  0  0  0  0
    9.4741   -7.7754   -4.0620 H   0  0  0  0  0  0  0  0  0  0  0  0
    7.7693   -9.4481   -4.6518 H   0  0  0  0  0  0  0  0  0  0  0  0
    6.4978  -13.9049   -6.0110 H   0  0  0  0  0  0  0  0  0  0  0  0
    4.6890  -15.6007   -6.0866 H   0  0  0  0  0  0  0  0  0  0  0  0
    2.8802  -15.5634   -4.3678 H   0  0  0  0  0  0  0  0  0  0  0  0
    0.8080  -13.8249   -3.5519 H   0  0  0  0  0  0  0  0  0  0  0  0
   -1.5345  -12.9214   -1.3375 H   0  0  0  0  0  0  0  0  0  0  0  0
   -1.5521  -14.6909   -1.2401 H   0  0  0  0  0  0  0  0  0  0  0  0
   -1.2620  -13.8937   -2.8228 H   0  0  0  0  0  0  0  0  0  0  0  0
    3.3216  -11.1151    1.7588 H   0  0  0  0  0  0  0  0  0  0  0  0
    3.8528  -10.1591   -0.1188 H   0  0  0  0  0  0  0  0  0  0  0  0
    4.4820   -7.2343   -0.9224 H   0  0  0  0  0  0  0  0  0  0  0  0
    3.3374   -8.4033   -1.7800 H   0  0  0  0  0  0  0  0  0  0  0  0
    5.5771   -6.2559   -3.4546 H   0  0  0  0  0  0  0  0  0  0  0  0
    7.1775   -6.8375   -3.9464 H   0  0  0  0  0  0  0  0  0  0  0  0
    8.2475   -4.5101   -2.5872 H   0  0  0  0  0  0  0  0  0  0  0  0
    6.2371   -2.0914   -3.6385 H   0  0  0  0  0  0  0  0  0  0  0  0
    7.8763   -2.3116   -2.9487 H   0  0  0  0  0  0  0  0  0  0  0  0
    6.5427   -1.6471   -1.9513 H   0  0  0  0  0  0  0  0  0  0  0  0
    7.4992   -7.7418   -0.0608 H   0  0  0  0  0  0  0  0  0  0  0  0
    9.9402   -8.9101   -0.9472 H   0  0  0  0  0  0  0  0  0  0  0  0
    9.3118   -8.9182    0.7289 H   0  0  0  0  0  0  0  0  0  0  0  0
   10.3818   -7.5950    0.1674 H   0  0  0  0  0  0  0  0  0  0  0  0
  2  1  2  0  0  0  0
  2  3  1  0  0  0  0
  3 59  1  0  0  0  0
  4 44  1  0  0  0  0
  4  3  1  0  0  0  0
  5 14  1  0  0  0  0
  5  4  2  0  0  0  0
  6  5  1  0  0  0  0
  6 13  2  0  0  0  0
  7  6  1  0  0  0  0
  8  7  1  0  0  0  0
  8 60  1  0  0  0  0
  9  8  1  0  0  0  0
  9 62  1  0  0  0  0
 10 11  1  0  0  0  0
 10  9  1  0  0  0  0
 11 12  1  0  0  0  0
 11 64  1  0  0  0  0
 12 66  1  0  0  0  0
 12  7  1  0  0  0  0
 14 15  2  0  0  0  0
 16 15  1  0  0  0  0
 16 44  2  0  0  0  0
 17 16  1  0  0  0  0
 17 70  1  0  0  0  0
 18 17  1  0  0  0  0
 19 71  1  0  0  0  0
 19 18  2  0  0  0  0
 20 19  1  0  0  0  0
 21 22  1  0  0  0  0
 21 20  1  0  0  0  0
 22 23  1  0  0  0  0
 23 73  1  0  0  0  0
 23 72  1  0  0  0  0
 24 25  1  0  0  0  0
 24 22  2  0  0  0  0
 25 75  1  0  0  0  0
 26 25  1  0  0  0  0
 26 27  1  0  0  0  0
 27 28  1  0  0  0  0
 28 76  1  0  0  0  0
 28 29  2  0  0  0  0
 29 77  1  0  0  0  0
 30 29  1  0  0  0  0
 30 31  1  0  0  0  0
 31 79  1  0  0  0  0
 31 78  1  0  0  0  0
 32 81  1  0  0  0  0
 32 31  1  0  0  0  0
 33 30  2  0  0  0  0
 34 27  2  0  0  0  0
 34 33  1  0  0  0  0
 35 26  2  0  0  0  0
 36 24  1  0  0  0  0
 37 36  2  0  0  0  0
 37 38  1  0  0  0  0
 38 87  1  0  0  0  0
 38 21  2  0  0  0  0
 39 20  2  0  0  0  0
 39 40  1  0  0  0  0
 40 42  1  0  0  0  0
 41 40  1  0  0  0  0
 41 89  1  0  0  0  0
 41 90  1  0  0  0  0
 42 18  1  0  0  0  0
 42 43  2  0  0  0  0
 44 92  1  0  0  0  0
 45  2  1  0  0  0  0
 46 94  1  0  0  0  0
 46 45  1  0  0  0  0
 48 47  1  0  0  0  0
 48 49  1  0  0  0  0
 49 55  1  0  0  0  0
 49 50  1  1  0  0  0
 51 49  1  0  0  0  0
 52 51  1  0  0  0  0
 52 54  2  0  0  0  0
 53 52  1  0  0  0  0
 53101  1  0  0  0  0
 55 56  1  0  0  0  0
 56 57  1  0  0  0  0
 56102  1  0  0  0  0
 57105  1  0  0  0  0
 57104  1  0  0  0  0
 58 55  2  0  0  0  0
 61  8  1  0  0  0  0
 63  9  1  0  0  0  0
 65 11  1  0  0  0  0
 67 12  1  0  0  0  0
 68 14  1  0  0  0  0
 69 15  1  0  0  0  0
 74 23  1  0  0  0  0
 80 32  1  0  0  0  0
 82 32  1  0  0  0  0
 83 33  1  0  0  0  0
 84 34  1  0  0  0  0
 85 36  1  0  0  0  0
 86 37  1  0  0  0  0
 88 39  1  0  0  0  0
 91 41  1  0  0  0  0
 93 45  1  0  0  0  0
 95 46  1  0  0  0  0
 96 48  1  0  0  0  0
 97 48  1  0  0  0  0
 98 51  1  0  0  0  0
 99 53  1  0  0  0  0
100 53  1  0  0  0  0
103 57  1  0  0  0  0
M  END
