-1 1
 OpenBabel05232413483D

105109  0  0  1  0  0  0  0  0999 V2000
    1.7381   -3.3303   -0.8359 O   0  0  0  0  0  0  0  0  0  0  0  0
    0.6245   -3.3899   -1.3470 C   0  0  0  0  0  0  0  0  0  0  0  0
   -0.5082   -3.3087   -0.5999 N   0  0  0  0  0  0  0  0  0  0  0  0
   -1.8169   -3.0820   -1.0649 C   0  0  0  0  0  0  0  0  0  0  0  0
   -2.9202   -3.7626   -0.5173 C   0  0  0  0  0  0  0  0  0  0  0  0
   -2.9167   -4.6398    0.7125 C   0  0  0  0  0  0  0  0  0  0  0  0
   -1.9718   -5.6089    0.8750 N   0  0  0  0  0  0  0  0  0  0  0  0
   -1.1536   -6.2226   -0.1510 C   0  0  0  0  0  0  0  0  0  0  0  0
    0.2892   -6.3501    0.3340 C   0  0  0  0  0  0  0  0  0  0  0  0
    0.3546   -7.0288    1.5623 O   0  0  0  0  0  0  0  0  0  0  0  0
   -0.3910   -6.3580    2.5595 C   0  0  0  0  0  0  0  0  0  0  0  0
   -1.8582   -6.2545    2.1723 C   0  0  0  0  0  0  0  0  0  0  0  0
   -3.7865   -4.4529    1.5513 O   0  0  0  0  0  0  0  0  0  0  0  0
   -4.1901   -3.4330   -1.0146 C   0  0  0  0  0  0  0  0  0  0  0  0
   -4.3811   -2.4928   -2.0110 C   0  0  0  0  0  0  0  0  0  0  0  0
   -3.2821   -1.7825   -2.5270 C   0  0  0  0  0  0  0  0  0  0  0  0
   -3.5001   -0.8064   -3.4847 N   0  0  0  0  0  0  0  0  0  0  0  0
   -2.6869    0.2307   -3.8913 C   0  0  0  0  0  0  0  0  0  0  0  0
   -1.6106    0.7600   -3.2328 C   0  0  0  0  0  0  0  0  0  0  0  0
   -0.8353    1.8116   -3.8179 C   0  0  0  0  0  0  0  0  0  0  0  0
    0.4181    2.2805   -3.1636 C   0  0  0  0  0  0  0  0  0  0  0  0
    0.4138    2.8028   -1.8534 C   0  0  0  0  0  0  0  0  0  0  0  0
   -0.8611    3.0387   -1.0896 C   0  0  0  0  0  0  0  0  0  0  0  0
    1.6490    3.1501   -1.2701 C   0  0  0  0  0  0  0  0  0  0  0  0
    1.6745    3.6196    0.0623 N   0  0  0  0  0  0  0  0  0  0  0  0
    2.3598    4.7428    0.4321 C   0  0  0  0  0  0  0  0  0  0  0  0
    2.3410    5.1062    1.8946 C   0  0  0  0  0  0  0  0  0  0  0  0
    2.7983    6.3871    2.2145 C   0  0  0  0  0  0  0  0  0  0  0  0
    2.8362    6.8206    3.5335 C   0  0  0  0  0  0  0  0  0  0  0  0
    3.2750    8.0885    3.8015 O   0  0  0  0  0  0  0  0  0  0  0  0
    2.9368    8.5474    5.0846 C   0  0  0  0  0  0  0  0  0  0  0  0
    3.2409    7.4802    6.1193 C   0  0  0  0  0  0  0  0  0  0  0  0
    2.4713    6.3301    5.8721 O   0  0  0  0  0  0  0  0  0  0  0  0
    2.4298    5.9533    4.5625 C   0  0  0  0  0  0  0  0  0  0  0  0
    1.9725    4.6764    4.2430 C   0  0  0  0  0  0  0  0  0  0  0  0
    1.9231    4.2493    2.9207 C   0  0  0  0  0  0  0  0  0  0  0  0
    2.9485    5.4509   -0.3695 O   0  0  0  0  0  0  0  0  0  0  0  0
    2.8391    3.0350   -1.9955 C   0  0  0  0  0  0  0  0  0  0  0  0
    2.8221    2.5579   -3.2990 C   0  0  0  0  0  0  0  0  0  0  0  0
    1.6176    2.1679   -3.8757 C   0  0  0  0  0  0  0  0  0  0  0  0
   -1.2376    2.3075   -5.0182 C   0  0  0  0  0  0  0  0  0  0  0  0
   -2.3605    1.8328   -5.6629 N   0  0  0  0  0  0  0  0  0  0  0  0
   -2.7571    2.4472   -6.9190 C   0  0  0  0  0  0  0  0  0  0  0  0
   -3.1374    0.8045   -5.1680 C   0  0  0  0  0  0  0  0  0  0  0  0
   -4.1482    0.4016   -5.7415 O   0  0  0  0  0  0  0  0  0  0  0  0
   -2.0106   -2.0989   -2.0417 C   0  0  0  0  0  0  0  0  0  0  0  0
    0.4800   -3.6483   -2.8155 C   0  0  0  0  0  0  0  0  0  0  0  0
    1.5396   -3.5526   -3.6183 C   0  0  0  0  0  0  0  0  0  0  0  0
    0.1241    1.3103    1.9796 S   0  0  0  0  0  1  0  0  0  0  0  0
    0.9500   -0.2117    1.3924 C   0  0  0  0  0  0  0  0  0  0  0  0
    0.8775   -1.4064    2.3679 C   0  0  2  0  0  0  0  0  0  0  0  0
    1.1839   -1.0632    3.3678 H   0  0  0  0  0  0  0  0  0  0  0  0
    1.7835   -2.4481    1.9486 N   0  0  0  0  0  0  0  0  0  0  0  0
    2.1567   -3.4419    2.7943 C   0  0  0  0  0  0  0  0  0  0  0  0
    2.9584   -4.5627    2.1549 C   0  0  0  0  0  0  0  0  0  0  0  0
    1.8849   -3.4485    3.9833 O   0  0  0  0  0  0  0  0  0  0  0  0
   -0.5483   -1.9717    2.4929 C   0  0  0  0  0  0  0  0  0  0  0  0
   -1.4478   -1.1551    3.0436 N   0  0  0  0  0  0  0  0  0  0  0  0
   -2.8617   -1.4442    3.0756 C   0  0  0  0  0  0  0  0  0  0  0  0
   -0.8250   -3.1052    2.0774 O   0  0  0  0  0  0  0  0  0  0  0  0
   -0.4051   -3.3158    0.4376 H   0  0  0  0  0  0  0  0  0  0  0  0
   -1.2064   -5.6482   -1.0824 H   0  0  0  0  0  0  0  0  0  0  0  0
   -1.5459   -7.2370   -0.3605 H   0  0  0  0  0  0  0  0  0  0  0  0
    0.7451   -5.3494    0.4305 H   0  0  0  0  0  0  0  0  0  0  0  0
    0.8815   -6.9271   -0.3914 H   0  0  0  0  0  0  0  0  0  0  0  0
    0.0046   -5.3405    2.7289 H   0  0  0  0  0  0  0  0  0  0  0  0
   -0.2798   -6.9387    3.4857 H   0  0  0  0  0  0  0  0  0  0  0  0
   -2.4134   -5.6549    2.9019 H   0  0  0  0  0  0  0  0  0  0  0  0
   -2.3132   -7.2627    2.1305 H   0  0  0  0  0  0  0  0  0  0  0  0
   -5.0534   -3.9246   -0.5629 H   0  0  0  0  0  0  0  0  0  0  0  0
   -5.3883   -2.2595   -2.3634 H   0  0  0  0  0  0  0  0  0  0  0  0
   -4.3465   -0.8675   -4.0438 H   0  0  0  0  0  0  0  0  0  0  0  0
   -1.3165    0.3954   -2.2495 H   0  0  0  0  0  0  0  0  0  0  0  0
   -1.7387    3.0338   -1.7490 H   0  0  0  0  0  0  0  0  0  0  0  0
   -0.8133    4.0119   -0.5783 H   0  0  0  0  0  0  0  0  0  0  0  0
   -0.9948    2.2856   -0.2932 H   0  0  0  0  0  0  0  0  0  0  0  0
    1.1630    3.0396    0.7503 H   0  0  0  0  0  0  0  0  0  0  0  0
    3.1290    7.0532    1.4167 H   0  0  0  0  0  0  0  0  0  0  0  0
    1.8621    8.8076    5.1310 H   0  0  0  0  0  0  0  0  0  0  0  0
    3.5250    9.4568    5.2725 H   0  0  0  0  0  0  0  0  0  0  0  0
    2.9913    7.8273    7.1318 H   0  0  0  0  0  0  0  0  0  0  0  0
    4.3190    7.2341    6.0869 H   0  0  0  0  0  0  0  0  0  0  0  0
    1.6622    4.0157    5.0545 H   0  0  0  0  0  0  0  0  0  0  0  0
    1.5606    3.2349    2.7143 H   0  0  0  0  0  0  0  0  0  0  0  0
    3.7750    3.3326   -1.5242 H   0  0  0  0  0  0  0  0  0  0  0  0
    3.7553    2.4664   -3.8592 H   0  0  0  0  0  0  0  0  0  0  0  0
    1.5992    1.7485   -4.8847 H   0  0  0  0  0  0  0  0  0  0  0  0
   -0.7001    3.1074   -5.5294 H   0  0  0  0  0  0  0  0  0  0  0  0
   -1.9266    2.4100   -7.6388 H   0  0  0  0  0  0  0  0  0  0  0  0
   -3.0475    3.4961   -6.7586 H   0  0  0  0  0  0  0  0  0  0  0  0
   -3.6138    1.8893   -7.3112 H   0  0  0  0  0  0  0  0  0  0  0  0
   -1.1350   -1.5715   -2.4105 H   0  0  0  0  0  0  0  0  0  0  0  0
   -0.5013   -3.9296   -3.2054 H   0  0  0  0  0  0  0  0  0  0  0  0
    2.5088   -3.2587   -3.2063 H   0  0  0  0  0  0  0  0  0  0  0  0
    1.4656   -3.7608   -4.6878 H   0  0  0  0  0  0  0  0  0  0  0  0
    2.0202   -0.0147    1.2271 H   0  0  0  0  0  0  0  0  0  0  0  0
    0.5320   -0.5283    0.4192 H   0  0  0  0  0  0  0  0  0  0  0  0
    1.8932   -2.6130    0.9469 H   0  0  0  0  0  0  0  0  0  0  0  0
    3.8794   -4.7102    2.7361 H   0  0  0  0  0  0  0  0  0  0  0  0
    3.2040   -4.3707    1.1020 H   0  0  0  0  0  0  0  0  0  0  0  0
    2.3765   -5.4947    2.2185 H   0  0  0  0  0  0  0  0  0  0  0  0
   -1.1414   -0.1727    3.1192 H   0  0  0  0  0  0  0  0  0  0  0  0
   -3.0464   -2.4542    2.6879 H   0  0  0  0  0  0  0  0  0  0  0  0
   -3.4121   -0.7226    2.4515 H   0  0  0  0  0  0  0  0  0  0  0  0
   -3.2498   -1.3797    4.1044 H   0  0  0  0  0  0  0  0  0  0  0  0
  2  1  2  0  0  0  0
  2  3  1  0  0  0  0
  3 61  1  0  0  0  0
  4  3  1  0  0  0  0
  4  5  1  0  0  0  0
  5  6  1  0  0  0  0
  6  7  1  0  0  0  0
  6 13  2  0  0  0  0
  7 12  1  0  0  0  0
  8  9  1  0  0  0  0
  8  7  1  0  0  0  0
  9 64  1  0  0  0  0
  9 10  1  0  0  0  0
 10 11  1  0  0  0  0
 11 66  1  0  0  0  0
 11 67  1  0  0  0  0
 12 11  1  0  0  0  0
 12 68  1  0  0  0  0
 14 70  1  0  0  0  0
 14  5  2  0  0  0  0
 15 14  1  0  0  0  0
 16 46  1  0  0  0  0
 16 15  2  0  0  0  0
 17 16  1  0  0  0  0
 18 17  1  0  0  0  0
 18 19  2  0  0  0  0
 19 73  1  0  0  0  0
 20 19  1  0  0  0  0
 20 21  1  0  0  0  0
 21 22  1  0  0  0  0
 22 24  2  0  0  0  0
 22 23  1  0  0  0  0
 23 75  1  0  0  0  0
 23 76  1  0  0  0  0
 24 25  1  0  0  0  0
 25 26  1  0  0  0  0
 25 77  1  0  0  0  0
 26 27  1  0  0  0  0
 27 28  2  0  0  0  0
 27 36  1  0  0  0  0
 28 29  1  0  0  0  0
 29 30  1  0  0  0  0
 29 34  2  0  0  0  0
 30 31  1  0  0  0  0
 31 79  1  0  0  0  0
 31 80  1  0  0  0  0
 31 32  1  0  0  0  0
 32 81  1  0  0  0  0
 33 32  1  0  0  0  0
 34 33  1  0  0  0  0
 35 34  1  0  0  0  0
 35 83  1  0  0  0  0
 36 35  2  0  0  0  0
 37 26  2  0  0  0  0
 38 85  1  0  0  0  0
 38 24  1  0  0  0  0
 39 38  2  0  0  0  0
 40 39  1  0  0  0  0
 40 21  2  0  0  0  0
 41 20  2  0  0  0  0
 42 44  1  0  0  0  0
 42 41  1  0  0  0  0
 43 90  1  0  0  0  0
 43 42  1  0  0  0  0
 44 18  1  0  0  0  0
 45 44  2  0  0  0  0
 46  4  2  0  0  0  0
 47  2  1  0  0  0  0
 48 94  1  0  0  0  0
 48 47  2  0  0  0  0
 50 49  1  0  0  0  0
 50 51  1  0  0  0  0
 51 57  1  0  0  0  0
 51 52  1  1  0  0  0
 53 51  1  0  0  0  0
 53 54  1  0  0  0  0
 54 56  2  0  0  0  0
 55101  1  0  0  0  0
 55 99  1  0  0  0  0
 55 54  1  0  0  0  0
 57 58  1  0  0  0  0
 58 59  1  0  0  0  0
 58102  1  0  0  0  0
 59105  1  0  0  0  0
 60 57  2  0  0  0  0
 62  8  1  0  0  0  0
 63  8  1  0  0  0  0
 65  9  1  0  0  0  0
 69 12  1  0  0  0  0
 71 15  1  0  0  0  0
 72 17  1  0  0  0  0
 74 23  1  0  0  0  0
 78 28  1  0  0  0  0
 82 32  1  0  0  0  0
 84 36  1  0  0  0  0
 86 39  1  0  0  0  0
 87 40  1  0  0  0  0
 88 41  1  0  0  0  0
 89 43  1  0  0  0  0
 91 43  1  0  0  0  0
 92 46  1  0  0  0  0
 93 47  1  0  0  0  0
 95 48  1  0  0  0  0
 96 50  1  0  0  0  0
 97 50  1  0  0  0  0
 98 53  1  0  0  0  0
100 55  1  0  0  0  0
103 59  1  0  0  0  0
104 59  1  0  0  0  0
M  END
