105
-1 1
O         1.138928   -3.929511   -0.843909
C         0.499605   -2.873218   -0.795792
N        -0.895656   -2.999182   -0.346122
C        -2.004577   -2.983318   -1.157721
C        -3.181255   -3.700450   -0.803621
C        -3.336797   -4.538597    0.427183
N        -2.314449   -5.395768    0.780137
C        -1.460796   -6.083190   -0.188669
C        -0.141926   -6.479789    0.463148
O        -0.348468   -7.220361    1.644447
C        -1.080980   -6.468069    2.578003
C        -2.457432   -6.115358    2.036318
O        -4.338076   -4.442702    1.121588
C        -4.338917   -3.525766   -1.571757
C        -4.369168   -2.719736   -2.692828
C        -3.194816   -2.045958   -3.084565
N        -3.278647   -1.240129   -4.220377
C        -2.651994   -0.066397   -4.557549
C        -1.607477    0.570091   -3.938684
C        -1.083402    1.798954   -4.461414
C         0.138415    2.422333   -3.876656
C         0.195867    2.827995   -2.525839
C        -1.037640    2.830445   -1.658851
C         1.428150    3.282674   -2.016586
N         1.563181    3.519017   -0.629754
C         2.226899    4.582240   -0.076109
C         2.490153    4.472798    1.400483
C         2.621946    5.659250    2.122971
C         2.889081    5.627292    3.486742
O         2.981857    6.809848    4.164222
C         2.894710    6.678076    5.560784
C         3.777617    5.538946    6.033067
O         3.348203    4.326070    5.468137
C         3.062220    4.391630    4.138682
C         2.945507    3.203116    3.418798
C         2.658524    3.248115    2.059068
O         2.572530    5.559300   -0.714705
C         2.533233    3.448969   -2.858484
C         2.440106    3.117102   -4.201946
C         1.257861    2.577376   -4.700686
C        -1.665376    2.333181   -5.567328
N        -2.738558    1.725503   -6.184482
C        -3.332349    2.371013   -7.342830
C        -3.282529    0.535094   -5.750501
O        -4.243717    0.009671   -6.309578
C        -2.026777   -2.210851   -2.343747
C         0.952809   -1.581305   -1.089842
C         0.209718   -0.359537   -0.872366
S         0.515739    0.628572    0.828834
C         1.643274   -0.478920    1.694848
C         1.131575   -1.016211    3.045818
H         0.856057   -0.157598    3.680732
N         2.169009   -1.765265    3.711459
C         3.203293   -1.182278    4.352789
C         4.195022   -2.134371    4.993274
O         3.356448    0.028696    4.411480
C        -0.080053   -1.958477    2.933830
N        -1.237331   -1.358970    2.605477
C        -2.469695   -2.080916    2.402670
O         0.036962   -3.154312    3.176369
H        -0.952251   -3.675781    0.408490
H        -1.249423   -5.437449   -1.048791
H        -1.985326   -6.988975   -0.549996
H         0.457970   -5.571701    0.650946
H         0.431802   -7.112585   -0.227843
H        -0.547285   -5.533251    2.837475
H        -1.181907   -7.081048    3.486133
H        -3.012845   -5.482607    2.739756
H        -3.050998   -7.037680    1.882508
H        -5.244518   -4.041334   -1.245235
H        -5.292550   -2.584507   -3.260240
H        -4.092542   -1.386792   -4.812776
H        -1.141179    0.144662   -3.054904
H        -1.933109    3.022756   -2.265812
H        -0.960485    3.607052   -0.885658
H        -1.201129    1.873016   -1.142145
H         1.244343    2.762135   -0.018901
H         2.512190    6.620874    1.619572
H         1.848737    6.483394    5.864239
H         3.214353    7.633911    5.998868
H         3.727284    5.424714    7.124846
H         4.826696    5.744214    5.748443
H         3.094681    2.246861    3.928752
H         2.584494    2.310517    1.507707
H         3.462370    3.837046   -2.441667
H         3.306071    3.241163   -4.855806
H         1.198858    2.248196   -5.740510
H        -1.317565    3.260296   -6.024805
H        -2.580963    2.496399   -8.136402
H        -3.732655    3.358201   -7.067916
H        -4.146061    1.733936   -7.704266
H        -1.090109   -1.764492   -2.667457
H         1.976699   -1.516885   -1.466063
H        -0.877155   -0.491926   -0.831245
H         0.476357    0.430028   -1.583321
H         2.589447    0.042465    1.893984
H         1.837241   -1.317816    0.999063
H         2.016893   -2.770495    3.718890
H         5.146648   -2.064395    4.446647
H         3.860099   -3.180376    4.993836
H         4.381372   -1.804313    6.024084
H        -1.155508   -0.415734    2.228747
H        -2.284781   -3.145163    2.585866
H        -2.835777   -1.960196    1.373872
H        -3.252127   -1.738258    3.097299
