-1 1
 OpenBabel05232413483D

111115  0  0  1  0  0  0  0  0999 V2000
    2.1956    1.6276   -2.8219 O   0  0  0  0  0  0  0  0  0  0  0  0
    1.1839    0.9995   -2.5737 C   0  0  0  0  0  0  0  0  0  0  0  0
    1.2979   -0.3390   -2.2186 N   0  0  0  0  0  0  0  0  0  0  0  0
    0.4963   -1.4566   -2.4442 C   0  0  0  0  0  0  0  0  0  0  0  0
    0.9915   -2.7285   -2.0681 C   0  0  0  0  0  0  0  0  0  0  0  0
    2.2921   -2.9418   -1.3349 C   0  0  0  0  0  0  0  0  0  0  0  0
    3.4278   -2.4018   -1.8815 N   0  0  0  0  0  0  0  0  0  0  0  0
    3.6298   -2.1701   -3.3054 C   0  0  0  0  0  0  0  0  0  0  0  0
    4.5428   -0.9654   -3.5147 C   0  0  0  0  0  0  0  0  0  0  0  0
    5.7451   -1.1186   -2.8075 O   0  0  0  0  0  0  0  0  0  0  0  0
    5.5032   -1.2285   -1.4212 C   0  0  0  0  0  0  0  0  0  0  0  0
    4.6566   -2.4514   -1.1038 C   0  0  0  0  0  0  0  0  0  0  0  0
    2.3063   -3.5577   -0.2843 O   0  0  0  0  0  0  0  0  0  0  0  0
    0.1887   -3.8538   -2.2659 C   0  0  0  0  0  0  0  0  0  0  0  0
   -1.0743   -3.7678   -2.8316 C   0  0  0  0  0  0  0  0  0  0  0  0
   -1.5666   -2.5124   -3.2108 C   0  0  0  0  0  0  0  0  0  0  0  0
   -2.8667   -2.3963   -3.7223 N   0  0  0  0  0  0  0  0  0  0  0  0
   -3.8570   -1.6171   -3.1492 C   0  0  0  0  0  0  0  0  0  0  0  0
   -3.6842   -0.6041   -2.2520 C   0  0  0  0  0  0  0  0  0  0  0  0
   -4.8002    0.0762   -1.6681 C   0  0  0  0  0  0  0  0  0  0  0  0
   -4.5430    1.1725   -0.6926 C   0  0  0  0  0  0  0  0  0  0  0  0
   -3.7252    0.9562    0.4365 C   0  0  0  0  0  0  0  0  0  0  0  0
   -3.2321   -0.4125    0.8246 C   0  0  0  0  0  0  0  0  0  0  0  0
   -3.3355    2.0761    1.2025 C   0  0  0  0  0  0  0  0  0  0  0  0
   -2.3311    1.9515    2.1941 N   0  0  0  0  0  0  0  0  0  0  0  0
   -2.3990    1.1339    3.2889 C   0  0  0  0  0  0  0  0  0  0  0  0
   -1.0730    0.7733    3.8863 C   0  0  0  0  0  0  0  0  0  0  0  0
    0.0788    1.5685    3.8244 C   0  0  0  0  0  0  0  0  0  0  0  0
    1.3298    1.0403    4.1042 C   0  0  0  0  0  0  0  0  0  0  0  0
    1.4871   -0.3349    4.3875 C   0  0  0  0  0  0  0  0  0  0  0  0
    2.7230   -0.9249    4.3836 N   0  0  0  0  0  0  0  0  0  0  0  0
    3.9174   -0.2709    3.8495 C   0  0  0  0  0  0  0  0  0  0  0  0
    4.6918   -1.4166    3.2057 C   0  0  0  0  0  0  0  0  0  0  0  0
    4.3454   -2.6088    4.0965 C   0  0  0  0  0  0  0  0  0  0  0  0
    2.8703   -2.3713    4.4231 C   0  0  0  0  0  0  0  0  0  0  0  0
    0.3115   -1.0879    4.6151 C   0  0  0  0  0  0  0  0  0  0  0  0
   -0.9363   -0.5350    4.3649 C   0  0  0  0  0  0  0  0  0  0  0  0
   -3.4415    0.6195    3.6627 O   0  0  0  0  0  0  0  0  0  0  0  0
   -3.7941    3.3543    0.8821 C   0  0  0  0  0  0  0  0  0  0  0  0
   -4.6469    3.5459   -0.1989 C   0  0  0  0  0  0  0  0  0  0  0  0
   -5.0082    2.4602   -0.9890 C   0  0  0  0  0  0  0  0  0  0  0  0
   -6.0454   -0.2878   -2.0710 C   0  0  0  0  0  0  0  0  0  0  0  0
   -6.2398   -1.2921   -2.9992 N   0  0  0  0  0  0  0  0  0  0  0  0
   -7.6014   -1.6422   -3.3675 C   0  0  0  0  0  0  0  0  0  0  0  0
   -5.2071   -2.0157   -3.5674 C   0  0  0  0  0  0  0  0  0  0  0  0
   -5.3994   -2.9423   -4.3525 O   0  0  0  0  0  0  0  0  0  0  0  0
   -0.7655   -1.3788   -3.0508 C   0  0  0  0  0  0  0  0  0  0  0  0
   -0.1292    1.6990   -2.5401 C   0  0  0  0  0  0  0  0  0  0  0  0
   -0.9995    1.5908   -1.5331 C   0  0  0  0  0  0  0  0  0  0  0  0
   -0.1344    4.0179    0.8103 S   0  0  0  0  0  1  0  0  0  0  0  0
    1.4500    3.6989   -0.0640 C   0  0  0  0  0  0  0  0  0  0  0  0
    2.3428    2.6108    0.5592 C   0  0  2  0  0  0  0  0  0  0  0  0
    3.1287    2.3138   -0.1501 H   0  0  0  0  0  0  0  0  0  0  0  0
    1.5430    1.4380    0.8455 N   0  0  0  0  0  0  0  0  0  0  0  0
    1.9260    0.1533    0.7426 C   0  0  0  0  0  0  0  0  0  0  0  0
    0.8754   -0.8599    1.1395 C   0  0  0  0  0  0  0  0  0  0  0  0
    3.0234   -0.1984    0.3130 O   0  0  0  0  0  0  0  0  0  0  0  0
    3.0882    3.0420    1.8396 C   0  0  0  0  0  0  0  0  0  0  0  0
    2.4365    3.9372    2.6159 N   0  0  0  0  0  0  0  0  0  0  0  0
    2.9517    4.3889    3.8794 C   0  0  0  0  0  0  0  0  0  0  0  0
    4.1753    2.5606    2.1307 O   0  0  0  0  0  0  0  0  0  0  0  0
    2.2302   -0.5398   -1.8552 H   0  0  0  0  0  0  0  0  0  0  0  0
    2.6666   -2.0150   -3.8083 H   0  0  0  0  0  0  0  0  0  0  0  0
    4.1034   -3.0644   -3.7549 H   0  0  0  0  0  0  0  0  0  0  0  0
    4.0197   -0.0387   -3.2080 H   0  0  0  0  0  0  0  0  0  0  0  0
    4.7972   -0.8767   -4.5811 H   0  0  0  0  0  0  0  0  0  0  0  0
    4.9837   -0.3327   -1.0361 H   0  0  0  0  0  0  0  0  0  0  0  0
    6.4819   -1.3095   -0.9277 H   0  0  0  0  0  0  0  0  0  0  0  0
    4.3852   -2.4668   -0.0427 H   0  0  0  0  0  0  0  0  0  0  0  0
    5.2144   -3.3779   -1.3404 H   0  0  0  0  0  0  0  0  0  0  0  0
    0.5716   -4.8195   -1.9296 H   0  0  0  0  0  0  0  0  0  0  0  0
   -1.6989   -4.6563   -2.9431 H   0  0  0  0  0  0  0  0  0  0  0  0
   -3.2668   -3.2164   -4.1704 H   0  0  0  0  0  0  0  0  0  0  0  0
   -2.6845   -0.3070   -1.9418 H   0  0  0  0  0  0  0  0  0  0  0  0
   -3.5555   -1.1940    0.1300 H   0  0  0  0  0  0  0  0  0  0  0  0
   -3.6059   -0.6593    1.8280 H   0  0  0  0  0  0  0  0  0  0  0  0
   -2.1324   -0.4352    0.8840 H   0  0  0  0  0  0  0  0  0  0  0  0
   -1.4560    2.4378    1.9400 H   0  0  0  0  0  0  0  0  0  0  0  0
    0.0203    2.6100    3.4944 H   0  0  0  0  0  0  0  0  0  0  0  0
    2.2064    1.6793    4.0136 H   0  0  0  0  0  0  0  0  0  0  0  0
    4.4986    0.2138    4.6567 H   0  0  0  0  0  0  0  0  0  0  0  0
    3.6780    0.5084    3.1135 H   0  0  0  0  0  0  0  0  0  0  0  0
    5.7695   -1.2133    3.1377 H   0  0  0  0  0  0  0  0  0  0  0  0
    4.3076   -1.5670    2.1840 H   0  0  0  0  0  0  0  0  0  0  0  0
    4.9478   -2.5831    5.0198 H   0  0  0  0  0  0  0  0  0  0  0  0
    4.5089   -3.5829    3.6142 H   0  0  0  0  0  0  0  0  0  0  0  0
    2.5849   -2.7872    5.4051 H   0  0  0  0  0  0  0  0  0  0  0  0
    2.2187   -2.8490    3.6648 H   0  0  0  0  0  0  0  0  0  0  0  0
    0.3763   -2.1329    4.9185 H   0  0  0  0  0  0  0  0  0  0  0  0
   -1.8383   -1.1421    4.4688 H   0  0  0  0  0  0  0  0  0  0  0  0
   -3.4451    4.1981    1.4790 H   0  0  0  0  0  0  0  0  0  0  0  0
   -4.9958    4.5499   -0.4492 H   0  0  0  0  0  0  0  0  0  0  0  0
   -5.6200    2.6091   -1.8821 H   0  0  0  0  0  0  0  0  0  0  0  0
   -6.9513    0.1754   -1.6777 H   0  0  0  0  0  0  0  0  0  0  0  0
   -8.1651   -1.9726   -2.4825 H   0  0  0  0  0  0  0  0  0  0  0  0
   -7.5539   -2.4583   -4.0960 H   0  0  0  0  0  0  0  0  0  0  0  0
   -8.1106   -0.7761   -3.8154 H   0  0  0  0  0  0  0  0  0  0  0  0
   -1.1361   -0.4194   -3.4006 H   0  0  0  0  0  0  0  0  0  0  0  0
   -0.2355    2.4878   -3.2895 H   0  0  0  0  0  0  0  0  0  0  0  0
   -0.8548    0.8582   -0.7340 H   0  0  0  0  0  0  0  0  0  0  0  0
   -1.8650    2.2500   -1.4456 H   0  0  0  0  0  0  0  0  0  0  0  0
    2.0361    4.6294   -0.1186 H   0  0  0  0  0  0  0  0  0  0  0  0
    1.2397    3.3994   -1.0994 H   0  0  0  0  0  0  0  0  0  0  0  0
    0.6149    1.6689    1.1987 H   0  0  0  0  0  0  0  0  0  0  0  0
    0.3709   -1.2299    0.2342 H   0  0  0  0  0  0  0  0  0  0  0  0
    0.1218   -0.4472    1.8223 H   0  0  0  0  0  0  0  0  0  0  0  0
    1.3691   -1.7236    1.6009 H   0  0  0  0  0  0  0  0  0  0  0  0
    1.4937    4.2243    2.3080 H   0  0  0  0  0  0  0  0  0  0  0  0
    2.2925    4.0901    4.7125 H   0  0  0  0  0  0  0  0  0  0  0  0
    3.0563    5.4858    3.9022 H   0  0  0  0  0  0  0  0  0  0  0  0
    3.9394    3.9340    4.0313 H   0  0  0  0  0  0  0  0  0  0  0  0
  1  2  2  0  0  0  0
  2 48  1  0  0  0  0
  2  3  1  0  0  0  0
  3 62  1  0  0  0  0
  4  3  1  0  0  0  0
  4  5  1  0  0  0  0
  5  6  1  0  0  0  0
  6 13  2  0  0  0  0
  7  6  1  0  0  0  0
  7 12  1  0  0  0  0
  8  7  1  0  0  0  0
  9  8  1  0  0  0  0
  9 65  1  0  0  0  0
  9 10  1  0  0  0  0
 10 11  1  0  0  0  0
 11 12  1  0  0  0  0
 11 67  1  0  0  0  0
 11 68  1  0  0  0  0
 12 69  1  0  0  0  0
 14  5  2  0  0  0  0
 14 71  1  0  0  0  0
 15 14  1  0  0  0  0
 16 47  1  0  0  0  0
 16 15  2  0  0  0  0
 17 16  1  0  0  0  0
 17 18  1  0  0  0  0
 18 19  2  0  0  0  0
 19 74  1  0  0  0  0
 19 20  1  0  0  0  0
 20 21  1  0  0  0  0
 21 22  1  0  0  0  0
 22 23  1  0  0  0  0
 22 24  2  0  0  0  0
 23 77  1  0  0  0  0
 23 76  1  0  0  0  0
 24 25  1  0  0  0  0
 25 26  1  0  0  0  0
 26 38  2  0  0  0  0
 26 27  1  0  0  0  0
 27 37  1  0  0  0  0
 28 27  2  0  0  0  0
 28 29  1  0  0  0  0
 29 30  2  0  0  0  0
 30 36  1  0  0  0  0
 31 30  1  0  0  0  0
 31 35  1  0  0  0  0
 32 31  1  0  0  0  0
 32 81  1  0  0  0  0
 33 32  1  0  0  0  0
 33 34  1  0  0  0  0
 34 35  1  0  0  0  0
 34 85  1  0  0  0  0
 35 87  1  0  0  0  0
 36 89  1  0  0  0  0
 37 90  1  0  0  0  0
 37 36  2  0  0  0  0
 39 24  1  0  0  0  0
 39 91  1  0  0  0  0
 40 39  2  0  0  0  0
 41 21  2  0  0  0  0
 41 40  1  0  0  0  0
 42 94  1  0  0  0  0
 42 20  2  0  0  0  0
 43 42  1  0  0  0  0
 44 43  1  0  0  0  0
 44 95  1  0  0  0  0
 45 18  1  0  0  0  0
 45 43  1  0  0  0  0
 46 45  2  0  0  0  0
 47  4  2  0  0  0  0
 48 49  2  0  0  0  0
 49101  1  0  0  0  0
 49100  1  0  0  0  0
 51 52  1  0  0  0  0
 51 50  1  0  0  0  0
 52 53  1  6  0  0  0
 52 54  1  0  0  0  0
 52 58  1  0  0  0  0
 54104  1  0  0  0  0
 55 54  1  0  0  0  0
 55 56  1  0  0  0  0
 56107  1  0  0  0  0
 56106  1  0  0  0  0
 57 55  2  0  0  0  0
 58 61  2  0  0  0  0
 58 59  1  0  0  0  0
 59 60  1  0  0  0  0
 60110  1  0  0  0  0
 60111  1  0  0  0  0
 60109  1  0  0  0  0
 63  8  1  0  0  0  0
 64  8  1  0  0  0  0
 66  9  1  0  0  0  0
 70 12  1  0  0  0  0
 72 15  1  0  0  0  0
 73 17  1  0  0  0  0
 75 23  1  0  0  0  0
 78 25  1  0  0  0  0
 79 28  1  0  0  0  0
 80 29  1  0  0  0  0
 82 32  1  0  0  0  0
 83 33  1  0  0  0  0
 84 33  1  0  0  0  0
 86 34  1  0  0  0  0
 88 35  1  0  0  0  0
 92 40  1  0  0  0  0
 93 41  1  0  0  0  0
 96 44  1  0  0  0  0
 97 44  1  0  0  0  0
 98 47  1  0  0  0  0
 99 48  1  0  0  0  0
102 51  1  0  0  0  0
103 51  1  0  0  0  0
105 56  1  0  0  0  0
108 59  1  0  0  0  0
M  END
