111
-1 1
O         2.195596    1.627639   -2.821881
C         1.183923    0.999499   -2.573697
N         1.297948   -0.339039   -2.218637
C         0.496341   -1.456632   -2.444174
C         0.991518   -2.728509   -2.068096
C         2.292078   -2.941804   -1.334913
N         3.427766   -2.401817   -1.881505
C         3.629827   -2.170091   -3.305411
C         4.542813   -0.965442   -3.514681
O         5.745100   -1.118624   -2.807472
C         5.503177   -1.228545   -1.421235
C         4.656628   -2.451441   -1.103808
O         2.306329   -3.557671   -0.284278
C         0.188671   -3.853766   -2.265894
C        -1.074309   -3.767810   -2.831556
C        -1.566612   -2.512376   -3.210768
N        -2.866672   -2.396309   -3.722275
C        -3.857031   -1.617126   -3.149213
C        -3.684188   -0.604072   -2.252029
C        -4.800164    0.076170   -1.668147
C        -4.543038    1.172455   -0.692631
C        -3.725249    0.956243    0.436512
C        -3.232121   -0.412452    0.824551
C        -3.335543    2.076149    1.202549
N        -2.331097    1.951511    2.194074
C        -2.399047    1.133927    3.288950
C        -1.072987    0.773263    3.886335
C         0.078813    1.568476    3.824354
C         1.329811    1.040273    4.104213
C         1.487090   -0.334902    4.387519
N         2.722987   -0.924898    4.383629
C         3.917415   -0.270895    3.849550
C         4.691826   -1.416638    3.205717
C         4.345355   -2.608770    4.096509
C         2.870268   -2.371337    4.423074
C         0.311523   -1.087880    4.615110
C        -0.936306   -0.535006    4.364940
O        -3.441547    0.619495    3.662701
C        -3.794127    3.354307    0.882101
C        -4.646927    3.545927   -0.198892
C        -5.008207    2.460193   -0.988994
C        -6.045355   -0.287780   -2.071010
N        -6.239815   -1.292068   -2.999209
C        -7.601425   -1.642220   -3.367537
C        -5.207138   -2.015709   -3.567361
O        -5.399383   -2.942270   -4.352535
C        -0.765487   -1.378756   -3.050838
C        -0.129175    1.699048   -2.540110
C        -0.999514    1.590781   -1.533054
S        -0.134364    4.017874    0.810333
C         1.450020    3.698888   -0.063976
C         2.342750    2.610812    0.559191
H         3.128672    2.313811   -0.150061
N         1.542996    1.438044    0.845531
C         1.925998    0.153285    0.742642
C         0.875437   -0.859945    1.139515
O         3.023373   -0.198411    0.312999
C         3.088247    3.042049    1.839617
N         2.436478    3.937191    2.615879
C         2.951730    4.388874    3.879444
O         4.175339    2.560576    2.130685
H         2.230200   -0.539780   -1.855244
H         2.666607   -2.015018   -3.808281
H         4.103405   -3.064393   -3.754907
H         4.019743   -0.038693   -3.207966
H         4.797169   -0.876698   -4.581105
H         4.983694   -0.332747   -1.036143
H         6.481856   -1.309498   -0.927677
H         4.385184   -2.466769   -0.042749
H         5.214426   -3.377908   -1.340370
H         0.571608   -4.819477   -1.929558
H        -1.698919   -4.656277   -2.943110
H        -3.266839   -3.216446   -4.170374
H        -2.684487   -0.306961   -1.941774
H        -3.555478   -1.194044    0.130008
H        -3.605924   -0.659306    1.828028
H        -2.132404   -0.435182    0.883991
H        -1.456046    2.437754    1.939981
H         0.020317    2.609957    3.494389
H         2.206416    1.679317    4.013618
H         4.498589    0.213768    4.656672
H         3.678044    0.508447    3.113478
H         5.769522   -1.213273    3.137661
H         4.307631   -1.567031    2.183970
H         4.947811   -2.583077    5.019774
H         4.508932   -3.582865    3.614172
H         2.584908   -2.787167    5.405118
H         2.218726   -2.848969    3.664844
H         0.376296   -2.132940    4.918526
H        -1.838267   -1.142111    4.468846
H        -3.445103    4.198070    1.478982
H        -4.995811    4.549881   -0.449223
H        -5.620040    2.609133   -1.882150
H        -6.951343    0.175418   -1.677722
H        -8.165056   -1.972638   -2.482491
H        -7.553932   -2.458326   -4.096022
H        -8.110554   -0.776115   -3.815367
H        -1.136074   -0.419370   -3.400644
H        -0.235485    2.487781   -3.289465
H        -0.854776    0.858171   -0.733997
H        -1.865007    2.250048   -1.445605
H         2.036102    4.629400   -0.118566
H         1.239681    3.399390   -1.099360
H         0.614877    1.668940    1.198714
H         0.370937   -1.229921    0.234209
H         0.121776   -0.447240    1.822344
H         1.369121   -1.723622    1.600910
H         1.493659    4.224327    2.307987
H         2.292540    4.090053    4.712508
H         3.056341    5.485817    3.902170
H         3.939401    3.933955    4.031301
