-1 1
 OpenBabel05192410563D

111116  0  0  1  0  0  0  0  0999 V2000
    1.9143    0.9525   -3.9433 O   0  0  0  0  0  0  0  0  0  0  0  0
    1.1135    0.8901   -3.0035 C   0  0  0  0  0  0  0  0  0  0  0  0
    1.2232   -0.3068   -2.1433 N   0  0  0  0  0  0  0  0  0  0  0  0
    0.5046   -1.4474   -2.4458 C   0  0  0  0  0  0  0  0  0  0  0  0
    1.0217   -2.7468   -2.2075 C   0  0  0  0  0  0  0  0  0  0  0  0
    2.3792   -3.0157   -1.6275 C   0  0  0  0  0  0  0  0  0  0  0  0
    3.4573   -2.3632   -2.1764 N   0  0  0  0  0  0  0  0  0  0  0  0
    3.5402   -1.9802   -3.5842 C   0  0  0  0  0  0  0  0  0  0  0  0
    4.5136   -0.8226   -3.7597 C   0  0  0  0  0  0  0  0  0  0  0  0
    5.7665   -1.1019   -3.1825 O   0  0  0  0  0  0  0  0  0  0  0  0
    5.6330   -1.3465   -1.8046 C   0  0  0  0  0  0  0  0  0  0  0  0
    4.7472   -2.5507   -1.5314 C   0  0  0  0  0  0  0  0  0  0  0  0
    2.5126   -3.7816   -0.6844 O   0  0  0  0  0  0  0  0  0  0  0  0
    0.1988   -3.8578   -2.4221 C   0  0  0  0  0  0  0  0  0  0  0  0
   -1.0974   -3.7394   -2.8979 C   0  0  0  0  0  0  0  0  0  0  0  0
   -1.6044   -2.4569   -3.1670 C   0  0  0  0  0  0  0  0  0  0  0  0
   -2.9312   -2.3213   -3.6047 N   0  0  0  0  0  0  0  0  0  0  0  0
   -3.8794   -1.4944   -3.0480 C   0  0  0  0  0  0  0  0  0  0  0  0
   -3.6664   -0.4415   -2.2017 C   0  0  0  0  0  0  0  0  0  0  0  0
   -4.7583    0.2658   -1.6063 C   0  0  0  0  0  0  0  0  0  0  0  0
   -4.4776    1.3604   -0.6367 C   0  0  0  0  0  0  0  0  0  0  0  0
   -3.6285    1.1491    0.4700 C   0  0  0  0  0  0  0  0  0  0  0  0
   -3.0672   -0.2042    0.8238 C   0  0  0  0  0  0  0  0  0  0  0  0
   -3.2932    2.2573    1.2742 C   0  0  0  0  0  0  0  0  0  0  0  0
   -2.2976    2.1144    2.2834 N   0  0  0  0  0  0  0  0  0  0  0  0
   -2.4301    1.2957    3.3775 C   0  0  0  0  0  0  0  0  0  0  0  0
   -1.1277    0.8548    3.9662 C   0  0  0  0  0  0  0  0  0  0  0  0
    0.0355    1.6340    3.9772 C   0  0  0  0  0  0  0  0  0  0  0  0
    1.2684    1.0918    4.3033 C   0  0  0  0  0  0  0  0  0  0  0  0
    1.3961   -0.2937    4.5585 C   0  0  0  0  0  0  0  0  0  0  0  0
    2.6224   -0.8911    4.6279 N   0  0  0  0  0  0  0  0  0  0  0  0
    3.8646   -0.2281    4.2349 C   0  0  0  0  0  0  0  0  0  0  0  0
    4.7335   -1.3752    3.7247 C   0  0  0  0  0  0  0  0  0  0  0  0
    4.2783   -2.5599    4.5764 C   0  0  0  0  0  0  0  0  0  0  0  0
    2.7710   -2.3360    4.6974 C   0  0  0  0  0  0  0  0  0  0  0  0
    0.2032   -1.0453    4.6831 C   0  0  0  0  0  0  0  0  0  0  0  0
   -1.0272   -0.4726    4.3937 C   0  0  0  0  0  0  0  0  0  0  0  0
   -3.5066    0.8763    3.7614 O   0  0  0  0  0  0  0  0  0  0  0  0
   -3.8193    3.5210    1.0179 C   0  0  0  0  0  0  0  0  0  0  0  0
   -4.6895    3.7109   -0.0511 C   0  0  0  0  0  0  0  0  0  0  0  0
   -5.0035    2.6371   -0.8764 C   0  0  0  0  0  0  0  0  0  0  0  0
   -6.0219   -0.0882   -1.9588 C   0  0  0  0  0  0  0  0  0  0  0  0
   -6.2570   -1.1140   -2.8527 N   0  0  0  0  0  0  0  0  0  0  0  0
   -7.6324   -1.4468   -3.1812 C   0  0  0  0  0  0  0  0  0  0  0  0
   -5.2513   -1.8766   -3.4194 C   0  0  0  0  0  0  0  0  0  0  0  0
   -5.4840   -2.8204   -4.1713 O   0  0  0  0  0  0  0  0  0  0  0  0
   -0.7986   -1.3399   -2.9710 C   0  0  0  0  0  0  0  0  0  0  0  0
    0.1063    1.8064   -2.6709 C   0  0  0  0  0  3  0  0  0  0  0  0
   -0.6598    1.8064   -1.4442 C   0  0  0  0  0  0  0  0  0  0  0  0
   -0.0281    3.1365   -0.0949 S   0  0  0  0  0  0  0  0  0  0  0  0
    1.7644    2.9867   -0.3199 C   0  0  0  0  0  0  0  0  0  0  0  0
    2.5168    2.2043    0.7642 C   0  0  2  0  0  0  0  0  0  0  0  0
    3.4991    1.8974    0.3768 H   0  0  0  0  0  0  0  0  0  0  0  0
    1.8284    0.9872    1.1156 N   0  0  0  0  0  0  0  0  0  0  0  0
    2.3246   -0.2628    0.9193 C   0  0  0  0  0  0  0  0  0  0  0  0
    1.3305   -1.3684    1.1777 C   0  0  0  0  0  0  0  0  0  0  0  0
    3.4721   -0.4659    0.5491 O   0  0  0  0  0  0  0  0  0  0  0  0
    2.8397    3.0020    2.0405 C   0  0  0  0  0  0  0  0  0  0  0  0
    1.9644    3.9823    2.3816 N   0  0  0  0  0  0  0  0  0  0  0  0
    2.1091    4.7601    3.5855 C   0  0  0  0  0  0  0  0  0  0  0  0
    3.8219    2.7376    2.7156 O   0  0  0  0  0  0  0  0  0  0  0  0
    2.1980   -0.5019   -1.9304 H   0  0  0  0  0  0  0  0  0  0  0  0
    2.5594   -1.6698   -3.9636 H   0  0  0  0  0  0  0  0  0  0  0  0
    3.8886   -2.8496   -4.1752 H   0  0  0  0  0  0  0  0  0  0  0  0
    4.0655    0.0940   -3.3351 H   0  0  0  0  0  0  0  0  0  0  0  0
    4.6737   -0.6380   -4.8308 H   0  0  0  0  0  0  0  0  0  0  0  0
    5.1988   -0.4703   -1.2867 H   0  0  0  0  0  0  0  0  0  0  0  0
    6.6418   -1.5244   -1.4038 H   0  0  0  0  0  0  0  0  0  0  0  0
    4.5774   -2.6620   -0.4547 H   0  0  0  0  0  0  0  0  0  0  0  0
    5.2309   -3.4728   -1.9087 H   0  0  0  0  0  0  0  0  0  0  0  0
    0.6050   -4.8437   -2.1851 H   0  0  0  0  0  0  0  0  0  0  0  0
   -1.7287   -4.6202   -3.0331 H   0  0  0  0  0  0  0  0  0  0  0  0
   -3.3602   -3.1245   -4.0552 H   0  0  0  0  0  0  0  0  0  0  0  0
   -2.6553   -0.1419   -1.9389 H   0  0  0  0  0  0  0  0  0  0  0  0
   -3.3933   -0.9903    0.1368 H   0  0  0  0  0  0  0  0  0  0  0  0
   -3.3931   -0.4799    1.8362 H   0  0  0  0  0  0  0  0  0  0  0  0
   -1.9657   -0.1898    0.8242 H   0  0  0  0  0  0  0  0  0  0  0  0
   -1.3563    2.3172    1.9423 H   0  0  0  0  0  0  0  0  0  0  0  0
   -0.0134    2.6908    3.7028 H   0  0  0  0  0  0  0  0  0  0  0  0
    2.1558    1.7238    4.2867 H   0  0  0  0  0  0  0  0  0  0  0  0
    4.3285    0.2849    5.0987 H   0  0  0  0  0  0  0  0  0  0  0  0
    3.6991    0.5327    3.4594 H   0  0  0  0  0  0  0  0  0  0  0  0
    5.8076   -1.1603    3.8112 H   0  0  0  0  0  0  0  0  0  0  0  0
    4.5085   -1.5495    2.6605 H   0  0  0  0  0  0  0  0  0  0  0  0
    4.7473   -2.5171    5.5735 H   0  0  0  0  0  0  0  0  0  0  0  0
    4.5172   -3.5371    4.1340 H   0  0  0  0  0  0  0  0  0  0  0  0
    2.3604   -2.7442    5.6370 H   0  0  0  0  0  0  0  0  0  0  0  0
    2.2287   -2.8222    3.8630 H   0  0  0  0  0  0  0  0  0  0  0  0
    0.2448   -2.1018    4.9474 H   0  0  0  0  0  0  0  0  0  0  0  0
   -1.9375   -1.0745    4.4381 H   0  0  0  0  0  0  0  0  0  0  0  0
   -3.5236    4.3505    1.6622 H   0  0  0  0  0  0  0  0  0  0  0  0
   -5.0979    4.7021   -0.2590 H   0  0  0  0  0  0  0  0  0  0  0  0
   -5.6395    2.7874   -1.7520 H   0  0  0  0  0  0  0  0  0  0  0  0
   -6.9094    0.3931   -1.5456 H   0  0  0  0  0  0  0  0  0  0  0  0
   -8.1881   -1.7224   -2.2725 H   0  0  0  0  0  0  0  0  0  0  0  0
   -7.6168   -2.2962   -3.8721 H   0  0  0  0  0  0  0  0  0  0  0  0
   -8.1295   -0.5905   -3.6608 H   0  0  0  0  0  0  0  0  0  0  0  0
   -1.1545   -0.3463   -3.2369 H   0  0  0  0  0  0  0  0  0  0  0  0
    0.0057    2.6559   -3.3516 H   0  0  0  0  0  0  0  0  0  0  0  0
   -0.6223    0.8508   -0.9059 H   0  0  0  0  0  0  0  0  0  0  0  0
   -1.6955    2.1622   -1.5257 H   0  0  0  0  0  0  0  0  0  0  0  0
    2.1994    3.9901   -0.4330 H   0  0  0  0  0  0  0  0  0  0  0  0
    1.8768    2.4800   -1.2955 H   0  0  0  0  0  0  0  0  0  0  0  0
    0.8455    1.0846    1.3465 H   0  0  0  0  0  0  0  0  0  0  0  0
    0.6350   -1.4162    0.3252 H   0  0  0  0  0  0  0  0  0  0  0  0
    0.7461   -1.1823    2.0901 H   0  0  0  0  0  0  0  0  0  0  0  0
    1.8505   -2.3315    1.2328 H   0  0  0  0  0  0  0  0  0  0  0  0
    1.1256    4.0935    1.8198 H   0  0  0  0  0  0  0  0  0  0  0  0
    1.4150    4.4295    4.3777 H   0  0  0  0  0  0  0  0  0  0  0  0
    1.9278    5.8264    3.3845 H   0  0  0  0  0  0  0  0  0  0  0  0
    3.1345    4.6294    3.9534 H   0  0  0  0  0  0  0  0  0  0  0  0
  1  2  2  0  0  0  0
  2 48  1  0  0  0  0
  2  3  1  0  0  0  0
  3 62  1  0  0  0  0
  4  5  1  0  0  0  0
  4  3  1  0  0  0  0
  5  6  1  0  0  0  0
  6 13  2  0  0  0  0
  7  6  1  0  0  0  0
  7 12  1  0  0  0  0
  8  7  1  0  0  0  0
  9  8  1  0  0  0  0
  9 65  1  0  0  0  0
  9 10  1  0  0  0  0
 10 11  1  0  0  0  0
 11 12  1  0  0  0  0
 11 68  1  0  0  0  0
 11 67  1  0  0  0  0
 12 69  1  0  0  0  0
 14  5  2  0  0  0  0
 14 71  1  0  0  0  0
 15 14  1  0  0  0  0
 16 47  1  0  0  0  0
 16 15  2  0  0  0  0
 17 16  1  0  0  0  0
 17 18  1  0  0  0  0
 18 19  2  0  0  0  0
 19 74  1  0  0  0  0
 19 20  1  0  0  0  0
 20 21  1  0  0  0  0
 21 22  1  0  0  0  0
 22 23  1  0  0  0  0
 22 24  2  0  0  0  0
 23 77  1  0  0  0  0
 23 76  1  0  0  0  0
 24 25  1  0  0  0  0
 25 26  1  0  0  0  0
 26 38  2  0  0  0  0
 26 27  1  0  0  0  0
 27 28  2  0  0  0  0
 27 37  1  0  0  0  0
 28 29  1  0  0  0  0
 29 30  2  0  0  0  0
 30 31  1  0  0  0  0
 30 36  1  0  0  0  0
 31 35  1  0  0  0  0
 32 31  1  0  0  0  0
 32 81  1  0  0  0  0
 33 83  1  0  0  0  0
 33 32  1  0  0  0  0
 33 34  1  0  0  0  0
 34 35  1  0  0  0  0
 34 85  1  0  0  0  0
 35 87  1  0  0  0  0
 36 89  1  0  0  0  0
 37 90  1  0  0  0  0
 37 36  2  0  0  0  0
 39 24  1  0  0  0  0
 39 91  1  0  0  0  0
 40 39  2  0  0  0  0
 41 21  2  0  0  0  0
 41 40  1  0  0  0  0
 42 20  2  0  0  0  0
 42 94  1  0  0  0  0
 43 42  1  0  0  0  0
 44 43  1  0  0  0  0
 44 95  1  0  0  0  0
 45 18  1  0  0  0  0
 45 43  1  0  0  0  0
 46 45  2  0  0  0  0
 47  4  2  0  0  0  0
 48 49  1  0  0  0  0
 49100  1  0  0  0  0
 49 50  1  0  0  0  0
 51 50  1  0  0  0  0
 51 52  1  0  0  0  0
 52 53  1  6  0  0  0
 52 54  1  0  0  0  0
 52 58  1  0  0  0  0
 54104  1  0  0  0  0
 55 54  1  0  0  0  0
 55 56  1  0  0  0  0
 56107  1  0  0  0  0
 56106  1  0  0  0  0
 57 55  2  0  0  0  0
 58 59  1  0  0  0  0
 58 61  2  0  0  0  0
 59 60  1  0  0  0  0
 60111  1  0  0  0  0
 60109  1  0  0  0  0
 63  8  1  0  0  0  0
 64  8  1  0  0  0  0
 66  9  1  0  0  0  0
 70 12  1  0  0  0  0
 72 15  1  0  0  0  0
 73 17  1  0  0  0  0
 75 23  1  0  0  0  0
 78 25  1  0  0  0  0
 79 28  1  0  0  0  0
 80 29  1  0  0  0  0
 82 32  1  0  0  0  0
 84 33  1  0  0  0  0
 86 34  1  0  0  0  0
 88 35  1  0  0  0  0
 92 40  1  0  0  0  0
 93 41  1  0  0  0  0
 96 44  1  0  0  0  0
 97 44  1  0  0  0  0
 98 47  1  0  0  0  0
 99 48  1  0  0  0  0
101 49  1  0  0  0  0
102 51  1  0  0  0  0
103 51  1  0  0  0  0
105 56  1  0  0  0  0
108 59  1  0  0  0  0
110 60  1  0  0  0  0
M  END
