98
-1 1
O        -4.355209    0.870219   -1.335626
C        -5.061228    0.701418   -0.310244
N        -6.249955   -0.067146   -0.489147
C        -6.582191   -1.123008    0.454711
C        -7.876770   -1.844966    0.050886
C        -7.714335   -2.761187   -1.169472
C        -6.528410   -3.724008   -1.030517
C        -5.271348   -2.924813   -0.713274
C        -5.448496   -2.154307    0.595918
N        -4.043193   -3.723612   -0.753937
C        -2.885258   -2.943280   -0.849089
C        -1.869388   -2.968699    0.063427
C        -0.743256   -2.089236   -0.027017
C         0.301942   -2.082836    1.028194
C         1.682927   -1.943141    0.747523
C         2.209272   -1.818175   -0.655201
C         2.580956   -1.927274    1.832161
N         3.981858   -1.815835    1.609613
C         4.595530   -0.698150    1.103501
C         6.084361   -0.790960    0.956982
C         6.804772    0.401721    0.836887
C         8.182268    0.405102    0.686432
C         8.911085   -0.806007    0.633519
N        10.281518   -0.811846    0.487412
C        10.992365    0.432153    0.319155
C        10.987869   -2.064181    0.381792
C         8.176508   -2.009268    0.725814
C         6.796225   -1.991870    0.883676
O         3.987988    0.306853    0.792738
C         2.143706   -2.066081    3.150308
C         0.789191   -2.221291    3.415289
C        -0.116011   -2.219535    2.361991
C        -0.764207   -1.161324   -1.033552
N        -1.756614   -1.129741   -1.961685
C        -1.806933   -0.063222   -2.956318
C        -2.791660   -2.059040   -2.021192
O        -3.552476   -2.080581   -2.976471
C        -4.773278    1.198586    0.968236
C        -3.533860    1.913493    1.207064
S        -3.437506    3.795804    0.615499
C        -2.753744    3.545274   -1.061112
C        -1.229493    3.747030   -1.174411
H        -0.867295    3.289301   -2.103758
N        -0.532233    3.104830   -0.079917
C         0.340210    2.076808   -0.211337
C         0.788365    1.456465    1.092251
O         0.716091    1.648356   -1.295970
C        -0.835231    5.228429   -1.275409
N        -1.157729    5.974527   -0.182357
C        -0.920269    7.391430   -0.118813
O        -0.282943    5.687376   -2.259020
H        -6.246339   -0.380680   -1.455723
H        -6.752061   -0.652379    1.435318
H        -8.664849   -1.098103   -0.134963
H        -8.204363   -2.457964    0.909380
H        -7.560113   -2.147875   -2.074243
H        -8.648335   -3.321687   -1.340256
H        -6.375520   -4.292781   -1.960597
H        -6.726930   -4.456520   -0.223879
H        -5.157805   -2.193992   -1.523727
H        -4.525144   -1.617339    0.863188
H        -5.674971   -2.862454    1.417416
H        -3.990144   -4.347095    0.047667
H        -1.939391   -3.661025    0.908237
H         1.566072   -2.349943   -1.368052
H         3.227935   -2.224682   -0.723511
H         2.254770   -0.760258   -0.960883
H         4.567554   -2.480503    2.096785
H         6.248652    1.341136    0.858219
H         8.693257    1.363267    0.601157
H        10.669365    0.983097   -0.583006
H        12.065524    0.228012    0.220130
H        10.860451    1.102834    1.186140
H        10.678149   -2.651237   -0.502703
H        10.836765   -2.697800    1.273399
H        12.063900   -1.870246    0.293997
H         8.679025   -2.973241    0.658233
H         6.269751   -2.949459    0.914397
H         2.874641   -2.032178    3.961849
H         0.435636   -2.315697    4.444293
H        -1.184761   -2.293338    2.572790
H        -0.013964   -0.375577   -1.134559
H        -1.006035    0.654276   -2.740017
H        -2.792253    0.417920   -2.871260
H        -1.687861   -0.481402   -3.965569
H        -5.536503    1.179368    1.749824
H        -2.676269    1.494066    0.658582
H        -3.277733    2.013674    2.271576
H        -3.266670    4.227163   -1.754943
H        -3.039770    2.516801   -1.339795
H        -0.920010    3.293912    0.840376
H         0.132800    0.599304    1.312657
H         0.725848    2.158811    1.935516
H         1.815987    1.082837    0.989350
H        -1.740107    5.531719    0.528464
H        -1.861203    7.966927   -0.130169
H        -0.329707    7.671389   -1.000819
H        -0.358059    7.664636    0.789138
