102
-1 1
O        -1.697462   -5.853235    1.148163
C        -1.820935   -4.644079    1.031755
N        -0.800484   -3.753296    1.223739
C         0.480111   -4.080797    1.683839
C         1.153951   -5.287620    1.396904
C         0.740211   -6.258974    0.343883
O         0.278028   -5.608652   -0.732083
C        -0.239887   -6.374675   -1.797506
O         0.932220   -7.447613    0.371131
C         2.378962   -5.541302    2.023388
C         3.019427   -4.586506    2.800191
C         2.411318   -3.336574    2.981088
N         3.088915   -2.301359    3.638569
C         3.341357   -1.067185    3.071375
C         2.803362   -0.574942    1.914729
C         3.192818    0.700304    1.403098
C         2.651290    1.129191    0.079390
C         1.554310    2.004773   -0.026218
C         0.913783    2.610989    1.187882
C         1.052057    2.271056   -1.316753
N        -0.106638    3.062343   -1.503126
C        -0.235929    4.362398   -1.129561
C        -1.612301    4.953865   -1.310913
C        -1.739492    6.335652   -1.172431
C        -2.978130    6.958573   -1.304644
C        -4.136637    6.219154   -1.570732
C        -5.523350    6.861517   -1.717594
C        -6.466055    6.285281   -0.645034
C        -5.477381    8.385454   -1.548202
C        -6.082785    6.548971   -3.117755
C        -3.995928    4.829269   -1.698105
C        -2.762671    4.199335   -1.571149
O         0.680788    5.029013   -0.679608
C         1.609299    1.670898   -2.447436
C         2.688734    0.805139   -2.325896
C         3.207460    0.541860   -1.063698
C         4.081066    1.436898    2.117651
N         4.617200    0.964191    3.299474
C         5.568754    1.798798    4.012212
C         4.328854   -0.284106    3.822828
O         4.870521   -0.716262    4.839536
C         1.125220   -3.126589    2.481552
C        -3.160207   -4.090872    0.657592
C        -3.604532   -2.843374    0.822790
S        -1.005595   -0.477542    1.453451
C        -1.685365    0.123616   -0.127143
C        -1.337542   -0.747790   -1.344584
H        -1.980146   -1.647529   -1.350598
N         0.043554   -1.193393   -1.263499
C         0.504266   -2.310669   -1.857812
C         1.857273   -2.800112   -1.407598
O        -0.121142   -2.907760   -2.738847
C        -1.598824    0.000312   -2.670499
N        -1.526892   -0.778709   -3.763079
C        -1.642024   -0.256806   -5.098992
O        -1.868263    1.201020   -2.728074
H        -1.004299   -2.730817    1.222018
H         0.494754   -7.115805   -2.146443
H        -0.470404   -5.652245   -2.589268
H        -1.150192   -6.900008   -1.471237
H         2.858749   -6.501837    1.823421
H         4.009819   -4.779586    3.218319
H         3.781042   -2.543222    4.341367
H         2.044744   -1.135970    1.371967
H         1.158196    2.043490    2.092236
H        -0.180318    2.607347    1.085652
H         1.232407    3.658554    1.300922
H        -0.865579    2.580306   -1.993882
H        -0.839474    6.912363   -0.950703
H        -3.027190    8.042020   -1.190844
H        -6.080037    6.490293    0.365190
H        -6.579201    5.195854   -0.743859
H        -7.468129    6.736515   -0.729720
H        -5.108863    8.674162   -0.552036
H        -6.489750    8.803444   -1.662325
H        -4.833792    8.860961   -2.304154
H        -6.184537    5.466581   -3.284074
H        -5.419618    6.947090   -3.901166
H        -7.078766    7.003599   -3.245374
H        -4.872007    4.207487   -1.897689
H        -2.715480    3.112896   -1.677929
H         1.170677    1.889871   -3.423091
H         3.119016    0.331677   -3.210981
H         4.048333   -0.146113   -0.946218
H         4.419337    2.425129    1.803332
H         6.469967    1.965112    3.402619
H         5.846958    1.279492    4.935285
H         5.114605    2.770768    4.253727
H         0.606292   -2.192461    2.698229
H        -3.816704   -4.875718    0.269698
H        -4.631472   -2.591669    0.541922
H        -2.977119   -2.039754    1.235805
H        -1.319310    1.142724   -0.311481
H        -2.783654    0.198802   -0.085811
H         0.498554   -0.871980   -0.404679
H         2.538356   -2.796315   -2.270707
H         1.733601   -3.837742   -1.071354
H         2.291090   -2.197683   -0.600455
H        -1.173120   -1.732463   -3.605074
H        -0.660952   -0.201566   -5.600819
H        -2.062269    0.755359   -5.045265
H        -2.304731   -0.890311   -5.708146
