102
-1 1
O        -1.114117   -4.155512    4.113051
C        -1.400939   -3.807977    2.963563
N        -0.619097   -4.421646    1.867808
C         0.721762   -4.450715    1.786709
C         1.444535   -5.104511    0.737092
C         0.846676   -5.737037   -0.453954
O        -0.491707   -5.579692   -0.556043
C        -1.087886   -5.999031   -1.771728
O         1.470497   -6.301699   -1.327034
C         2.854308   -5.061296    0.732787
C         3.573717   -4.335230    1.656737
C         2.860895   -3.629825    2.647829
N         3.562080   -2.689858    3.461217
C         3.525320   -1.368891    3.087149
C         3.105384   -0.913854    1.865597
C         3.073496    0.482188    1.566468
C         2.581581    0.928726    0.233854
C         1.461718    1.778008    0.097302
C         0.684762    2.257530    1.291667
C         1.055623    2.128602   -1.207486
N        -0.089026    2.929944   -1.427896
C        -0.250070    4.198626   -0.957129
C        -1.591106    4.829198   -1.234561
C        -1.724426    6.192151   -0.970542
C        -2.935281    6.847413   -1.179578
C        -4.059992    6.160483   -1.651565
C        -5.416228    6.839627   -1.888187
C        -6.478470    6.175792   -0.992516
C        -5.379185    8.337813   -1.560857
C        -5.814041    6.678716   -3.367034
C        -3.914388    4.788436   -1.905064
C        -2.708215    4.126898   -1.702762
O         0.616681    4.800404   -0.348412
C         1.707700    1.615137   -2.330801
C         2.787939    0.754861   -2.181599
C         3.222504    0.420829   -0.904232
C         3.491498    1.352776    2.523214
N         3.926772    0.911096    3.755405
C         4.334576    1.898261    4.740098
C         3.969313   -0.426045    4.121191
O         4.331641   -0.794721    5.234294
C         1.490921   -3.721893    2.742175
C        -2.392226   -2.933167    2.518141
C        -2.426965   -2.314209    1.181612
S        -1.426708   -0.708886    1.160794
C        -1.843621   -0.008667   -0.458761
C        -1.376991   -0.827393   -1.663682
H        -2.006447   -1.728108   -1.762461
N        -0.006179   -1.279267   -1.510079
C         0.465336   -2.385299   -2.126086
C         1.861978   -2.807519   -1.754725
O        -0.191806   -2.983634   -2.980436
C        -1.535584   -0.021561   -2.972450
N        -1.459945   -0.769962   -4.085583
C        -1.473758   -0.202531   -5.409386
O        -1.719428    1.194665   -2.993766
H        -1.126695   -4.830236    1.096171
H        -0.740771   -5.362356   -2.598334
H        -2.168910   -5.876562   -1.633942
H        -0.846237   -7.049395   -1.986451
H         3.360342   -5.589291   -0.077525
H         4.660964   -4.260315    1.615034
H         3.596801   -2.823161    4.467411
H         2.743456   -1.624839    1.123380
H         0.779274    1.560232    2.132319
H        -0.382614    2.350752    1.047487
H         1.024333    3.256743    1.602943
H        -0.779834    2.516759   -2.059334
H        -0.853188    6.728047   -0.589316
H        -2.990144    7.914279   -0.961189
H        -6.208855    6.271345    0.070350
H        -6.587825    5.104101   -1.213990
H        -7.461006    6.651771   -1.142964
H        -5.126288    8.518809   -0.505060
H        -6.368740    8.783571   -1.746330
H        -4.649907    8.874758   -2.186638
H        -5.905169    5.620520   -3.652651
H        -5.063101    7.140429   -4.026505
H        -6.785301    7.162786   -3.559183
H        -4.765493    4.206842   -2.267169
H        -2.656721    3.056576   -1.915427
H         1.345808    1.898909   -3.321001
H         3.295354    0.351417   -3.060794
H         4.074753   -0.249756   -0.771052
H         3.496538    2.433645    2.378291
H         5.174340    2.497370    4.357616
H         4.645117    1.361988    5.643001
H         3.495764    2.567802    4.981767
H         0.955476   -3.182629    3.523193
H        -3.016387   -2.491373    3.299604
H        -3.438291   -2.009756    0.862644
H        -1.985767   -2.945101    0.395415
H        -1.392097    0.991240   -0.492727
H        -2.931960    0.136909   -0.541043
H         0.513121   -0.891595   -0.725552
H         2.011530   -3.853032   -2.047770
H         2.052435   -2.698105   -0.678870
H         2.578556   -2.174156   -2.298443
H        -1.180356   -1.747484   -3.945012
H        -0.467379   -0.199998   -5.860154
H        -1.828659    0.833344   -5.342562
H        -2.146414   -0.772531   -6.067452
