102
-1 1
O         7.122856   -5.810486  -13.240420
C         6.722089   -5.739402  -14.395687
N         7.501807   -6.315863  -15.447827
C         8.860837   -6.397615  -15.519524
C         9.531047   -7.133953  -16.540287
C         8.884279   -7.788501  -17.704177
O         7.587787   -7.455054  -17.867656
C         6.958531   -7.871587  -19.070501
O         9.454847   -8.496825  -18.500464
C        10.937501   -7.146678  -16.575797
C        11.700836   -6.391289  -15.707685
C        11.039612   -5.607426  -14.748500
N        11.780867   -4.643030  -14.005068
C        11.691417   -3.323480  -14.392784
C        11.233182   -2.888256  -15.607001
C        11.146003   -1.493614  -15.908471
C        10.617985   -1.058501  -17.231864
C         9.490382   -0.216676  -17.349132
C         8.725415    0.260969  -16.147066
C         9.062656    0.131554  -18.647699
N         7.924306    0.946173  -18.851173
C         7.789067    2.216688  -18.380092
C         6.457419    2.873017  -18.646501
C         6.350731    4.235300  -18.367157
C         5.152432    4.916404  -18.565639
C         4.013874    4.256475  -19.042893
C         2.670399    4.964134  -19.268941
C         1.597039    4.310638  -18.378996
C         2.736609    6.457487  -18.924490
C         2.266693    4.828262  -20.748688
C         4.132759    2.885025  -19.312372
C         5.326280    2.197704  -19.120412
O         8.671024    2.805860  -17.779718
C         9.692358   -0.386642  -19.781198
C        10.779863   -1.240748  -19.650194
C        11.243625   -1.562161  -18.379995
C        11.554678   -0.609680  -14.959824
N        12.030282   -1.032258  -13.736423
C        12.419738   -0.029008  -12.760196
C        12.125269   -2.365107  -13.370532
O        12.522858   -2.721696  -12.264406
C         9.663992   -5.655141  -14.619756
C         5.498567   -5.132652  -14.832976
C         5.300512   -4.625723  -16.117726
S         6.341207   -2.561776  -16.303033
C         5.934467   -1.882014  -17.938919
C         6.450664   -2.711490  -19.122378
H         5.808136   -3.599255  -19.259924
N         7.801990   -3.182114  -18.873913
C         8.303269   -4.295582  -19.444312
C         9.629210   -4.762194  -18.903822
O         7.735592   -4.879180  -20.372403
C         6.401927   -1.911059  -20.441958
N         6.534309   -2.667137  -21.546189
C         6.638033   -2.101955  -22.866479
O         6.251128   -0.690633  -20.485783
H         7.000808   -6.637212  -16.264336
H         7.339998   -7.276770  -19.913021
H         5.889275   -7.671775  -18.934067
H         7.131987   -8.940751  -19.252159
H        11.408124   -7.733715  -17.366242
H        12.788158   -6.351334  -15.781834
H        11.865712   -4.749373  -12.997893
H        10.883172   -3.610727  -16.344498
H         8.845812   -0.425030  -15.301103
H         7.652213    0.315813  -16.375158
H         9.048105    1.272153  -15.856047
H         7.222722    0.548828  -19.481747
H         7.233670    4.748873  -17.982042
H         5.118416    5.981617  -18.334886
H         1.870467    4.388760  -17.315682
H         1.467535    3.243727  -18.612224
H         0.623297    4.806768  -18.522190
H         2.995297    6.621239  -17.867279
H         1.755354    6.924315  -19.102640
H         3.474992    6.987418  -19.545573
H         2.155527    3.775342  -21.046352
H         3.025199    5.283308  -21.404153
H         1.304285    5.332724  -20.933414
H         3.270107    2.323795  -19.679424
H         5.357097    1.129593  -19.347369
H         9.310353   -0.107627  -20.765301
H        11.271868   -1.646165  -20.537228
H        12.108463   -2.219798  -18.261312
H        11.517925    0.470358  -15.106005
H        13.225566    0.603155  -13.161612
H        12.771614   -0.552005  -11.864715
H        11.559925    0.605978  -12.500235
H         9.167720   -5.050071  -13.862937
H         4.857827   -4.784128  -14.019683
H         4.309810   -4.247721  -16.381336
H         5.846330   -5.050657  -16.964404
H         6.360728   -0.871017  -18.001612
H         4.846206   -1.764915  -18.061788
H         8.181651   -2.880647  -17.973153
H         9.851015   -5.763074  -19.290787
H         9.624281   -4.781897  -17.805324
H        10.416265   -4.065425  -19.225329
H         6.801846   -3.644408  -21.381795
H         7.680261   -2.099779  -23.227889
H         6.280142   -1.065399  -22.832870
H         6.025591   -2.672358  -23.580791
