-1 1
 OpenBabel05192410563D

102105  0  0  1  0  0  0  0  0999 V2000
   -1.1141   -4.1555    4.1131 O   0  0  0  0  0  0  0  0  0  0  0  0
   -1.4009   -3.8080    2.9636 C   0  0  0  0  0  0  0  0  0  0  0  0
   -0.6191   -4.4216    1.8678 N   0  0  0  0  0  0  0  0  0  0  0  0
    0.7218   -4.4507    1.7867 C   0  0  0  0  0  0  0  0  0  0  0  0
    1.4445   -5.1045    0.7371 C   0  0  0  0  0  0  0  0  0  0  0  0
    0.8467   -5.7370   -0.4540 C   0  0  0  0  0  0  0  0  0  0  0  0
   -0.4917   -5.5797   -0.5560 O   0  0  0  0  0  0  0  0  0  0  0  0
   -1.0879   -5.9990   -1.7717 C   0  0  0  0  0  0  0  0  0  0  0  0
    1.4705   -6.3017   -1.3270 O   0  0  0  0  0  0  0  0  0  0  0  0
    2.8543   -5.0613    0.7328 C   0  0  0  0  0  0  0  0  0  0  0  0
    3.5737   -4.3352    1.6567 C   0  0  0  0  0  0  0  0  0  0  0  0
    2.8609   -3.6298    2.6478 C   0  0  0  0  0  0  0  0  0  0  0  0
    3.5621   -2.6899    3.4612 N   0  0  0  0  0  0  0  0  0  0  0  0
    3.5253   -1.3689    3.0871 C   0  0  0  0  0  0  0  0  0  0  0  0
    3.1054   -0.9139    1.8656 C   0  0  0  0  0  0  0  0  0  0  0  0
    3.0735    0.4822    1.5665 C   0  0  0  0  0  0  0  0  0  0  0  0
    2.5816    0.9287    0.2339 C   0  0  0  0  0  0  0  0  0  0  0  0
    1.4617    1.7780    0.0973 C   0  0  0  0  0  0  0  0  0  0  0  0
    0.6848    2.2575    1.2917 C   0  0  0  0  0  0  0  0  0  0  0  0
    1.0556    2.1286   -1.2075 C   0  0  0  0  0  0  0  0  0  0  0  0
   -0.0890    2.9299   -1.4279 N   0  0  0  0  0  0  0  0  0  0  0  0
   -0.2501    4.1986   -0.9571 C   0  0  0  0  0  0  0  0  0  0  0  0
   -1.5911    4.8292   -1.2346 C   0  0  0  0  0  0  0  0  0  0  0  0
   -1.7244    6.1922   -0.9705 C   0  0  0  0  0  0  0  0  0  0  0  0
   -2.9353    6.8474   -1.1796 C   0  0  0  0  0  0  0  0  0  0  0  0
   -4.0600    6.1605   -1.6516 C   0  0  0  0  0  0  0  0  0  0  0  0
   -5.4162    6.8396   -1.8882 C   0  0  0  0  0  0  0  0  0  0  0  0
   -6.4785    6.1758   -0.9925 C   0  0  0  0  0  0  0  0  0  0  0  0
   -5.3792    8.3378   -1.5609 C   0  0  0  0  0  0  0  0  0  0  0  0
   -5.8140    6.6787   -3.3670 C   0  0  0  0  0  0  0  0  0  0  0  0
   -3.9144    4.7884   -1.9051 C   0  0  0  0  0  0  0  0  0  0  0  0
   -2.7082    4.1269   -1.7028 C   0  0  0  0  0  0  0  0  0  0  0  0
    0.6167    4.8004   -0.3484 O   0  0  0  0  0  0  0  0  0  0  0  0
    1.7077    1.6151   -2.3308 C   0  0  0  0  0  0  0  0  0  0  0  0
    2.7879    0.7549   -2.1816 C   0  0  0  0  0  0  0  0  0  0  0  0
    3.2225    0.4208   -0.9042 C   0  0  0  0  0  0  0  0  0  0  0  0
    3.4915    1.3528    2.5232 C   0  0  0  0  0  0  0  0  0  0  0  0
    3.9268    0.9111    3.7554 N   0  0  0  0  0  0  0  0  0  0  0  0
    4.3346    1.8983    4.7401 C   0  0  0  0  0  0  0  0  0  0  0  0
    3.9693   -0.4260    4.1212 C   0  0  0  0  0  0  0  0  0  0  0  0
    4.3316   -0.7947    5.2343 O   0  0  0  0  0  0  0  0  0  0  0  0
    1.4909   -3.7219    2.7422 C   0  0  0  0  0  0  0  0  0  0  0  0
   -2.3922   -2.9332    2.5181 C   0  0  0  0  0  3  0  0  0  0  0  0
   -2.4270   -2.3142    1.1816 C   0  0  0  0  0  0  0  0  0  0  0  0
   -1.4267   -0.7089    1.1608 S   0  0  0  0  0  0  0  0  0  0  0  0
   -1.8436   -0.0087   -0.4588 C   0  0  0  0  0  0  0  0  0  0  0  0
   -1.3770   -0.8274   -1.6637 C   0  0  2  0  0  0  0  0  0  0  0  0
   -2.0064   -1.7281   -1.7625 H   0  0  0  0  0  0  0  0  0  0  0  0
   -0.0062   -1.2793   -1.5101 N   0  0  0  0  0  0  0  0  0  0  0  0
    0.4653   -2.3853   -2.1261 C   0  0  0  0  0  0  0  0  0  0  0  0
    1.8620   -2.8075   -1.7547 C   0  0  0  0  0  0  0  0  0  0  0  0
   -0.1918   -2.9836   -2.9804 O   0  0  0  0  0  0  0  0  0  0  0  0
   -1.5356   -0.0216   -2.9724 C   0  0  0  0  0  0  0  0  0  0  0  0
   -1.4599   -0.7700   -4.0856 N   0  0  0  0  0  0  0  0  0  0  0  0
   -1.4738   -0.2025   -5.4094 C   0  0  0  0  0  0  0  0  0  0  0  0
   -1.7194    1.1947   -2.9938 O   0  0  0  0  0  0  0  0  0  0  0  0
   -1.1267   -4.8302    1.0962 H   0  0  0  0  0  0  0  0  0  0  0  0
   -0.7408   -5.3624   -2.5983 H   0  0  0  0  0  0  0  0  0  0  0  0
   -2.1689   -5.8766   -1.6339 H   0  0  0  0  0  0  0  0  0  0  0  0
   -0.8462   -7.0494   -1.9865 H   0  0  0  0  0  0  0  0  0  0  0  0
    3.3603   -5.5893   -0.0775 H   0  0  0  0  0  0  0  0  0  0  0  0
    4.6610   -4.2603    1.6150 H   0  0  0  0  0  0  0  0  0  0  0  0
    3.5968   -2.8232    4.4674 H   0  0  0  0  0  0  0  0  0  0  0  0
    2.7435   -1.6248    1.1234 H   0  0  0  0  0  0  0  0  0  0  0  0
    0.7793    1.5602    2.1323 H   0  0  0  0  0  0  0  0  0  0  0  0
   -0.3826    2.3508    1.0475 H   0  0  0  0  0  0  0  0  0  0  0  0
    1.0243    3.2567    1.6029 H   0  0  0  0  0  0  0  0  0  0  0  0
   -0.7798    2.5168   -2.0593 H   0  0  0  0  0  0  0  0  0  0  0  0
   -0.8532    6.7280   -0.5893 H   0  0  0  0  0  0  0  0  0  0  0  0
   -2.9901    7.9143   -0.9612 H   0  0  0  0  0  0  0  0  0  0  0  0
   -6.2089    6.2713    0.0703 H   0  0  0  0  0  0  0  0  0  0  0  0
   -6.5878    5.1041   -1.2140 H   0  0  0  0  0  0  0  0  0  0  0  0
   -7.4610    6.6518   -1.1430 H   0  0  0  0  0  0  0  0  0  0  0  0
   -5.1263    8.5188   -0.5051 H   0  0  0  0  0  0  0  0  0  0  0  0
   -6.3687    8.7836   -1.7463 H   0  0  0  0  0  0  0  0  0  0  0  0
   -4.6499    8.8748   -2.1866 H   0  0  0  0  0  0  0  0  0  0  0  0
   -5.9052    5.6205   -3.6527 H   0  0  0  0  0  0  0  0  0  0  0  0
   -5.0631    7.1404   -4.0265 H   0  0  0  0  0  0  0  0  0  0  0  0
   -6.7853    7.1628   -3.5592 H   0  0  0  0  0  0  0  0  0  0  0  0
   -4.7655    4.2068   -2.2672 H   0  0  0  0  0  0  0  0  0  0  0  0
   -2.6567    3.0566   -1.9154 H   0  0  0  0  0  0  0  0  0  0  0  0
    1.3458    1.8989   -3.3210 H   0  0  0  0  0  0  0  0  0  0  0  0
    3.2954    0.3514   -3.0608 H   0  0  0  0  0  0  0  0  0  0  0  0
    4.0748   -0.2498   -0.7711 H   0  0  0  0  0  0  0  0  0  0  0  0
    3.4965    2.4336    2.3783 H   0  0  0  0  0  0  0  0  0  0  0  0
    5.1743    2.4974    4.3576 H   0  0  0  0  0  0  0  0  0  0  0  0
    4.6451    1.3620    5.6430 H   0  0  0  0  0  0  0  0  0  0  0  0
    3.4958    2.5678    4.9818 H   0  0  0  0  0  0  0  0  0  0  0  0
    0.9555   -3.1826    3.5232 H   0  0  0  0  0  0  0  0  0  0  0  0
   -3.0164   -2.4914    3.2996 H   0  0  0  0  0  0  0  0  0  0  0  0
   -3.4383   -2.0098    0.8626 H   0  0  0  0  0  0  0  0  0  0  0  0
   -1.9858   -2.9451    0.3954 H   0  0  0  0  0  0  0  0  0  0  0  0
   -1.3921    0.9912   -0.4927 H   0  0  0  0  0  0  0  0  0  0  0  0
   -2.9320    0.1369   -0.5410 H   0  0  0  0  0  0  0  0  0  0  0  0
    0.5131   -0.8916   -0.7256 H   0  0  0  0  0  0  0  0  0  0  0  0
    2.0115   -3.8530   -2.0478 H   0  0  0  0  0  0  0  0  0  0  0  0
    2.0524   -2.6981   -0.6789 H   0  0  0  0  0  0  0  0  0  0  0  0
    2.5786   -2.1742   -2.2984 H   0  0  0  0  0  0  0  0  0  0  0  0
   -1.1804   -1.7475   -3.9450 H   0  0  0  0  0  0  0  0  0  0  0  0
   -0.4674   -0.2000   -5.8602 H   0  0  0  0  0  0  0  0  0  0  0  0
   -1.8287    0.8333   -5.3426 H   0  0  0  0  0  0  0  0  0  0  0  0
   -2.1464   -0.7725   -6.0675 H   0  0  0  0  0  0  0  0  0  0  0  0
  2  1  2  0  0  0  0
  3  2  1  0  0  0  0
  4  3  1  0  0  0  0
  4 42  1  0  0  0  0
  5  4  2  0  0  0  0
  6  5  1  0  0  0  0
  7  6  1  0  0  0  0
  8 59  1  0  0  0  0
  8  7  1  0  0  0  0
  9  6  2  0  0  0  0
 10  5  1  0  0  0  0
 10 11  2  0  0  0  0
 11 12  1  0  0  0  0
 12 42  2  0  0  0  0
 12 13  1  0  0  0  0
 13 63  1  0  0  0  0
 14 13  1  0  0  0  0
 14 40  1  0  0  0  0
 15 14  2  0  0  0  0
 16 15  1  0  0  0  0
 16 37  2  0  0  0  0
 17 16  1  0  0  0  0
 18 17  1  0  0  0  0
 18 19  1  0  0  0  0
 19 67  1  0  0  0  0
 19 65  1  0  0  0  0
 20 18  2  0  0  0  0
 21 20  1  0  0  0  0
 21 22  1  0  0  0  0
 22 33  2  0  0  0  0
 23 24  1  0  0  0  0
 23 22  1  0  0  0  0
 24 69  1  0  0  0  0
 25 24  2  0  0  0  0
 25 70  1  0  0  0  0
 26 25  1  0  0  0  0
 27 26  1  0  0  0  0
 27 29  1  0  0  0  0
 27 28  1  0  0  0  0
 28 71  1  0  0  0  0
 29 74  1  0  0  0  0
 30 27  1  0  0  0  0
 31 32  1  0  0  0  0
 31 26  2  0  0  0  0
 32 23  2  0  0  0  0
 34 35  2  0  0  0  0
 34 20  1  0  0  0  0
 35 36  1  0  0  0  0
 36 84  1  0  0  0  0
 36 17  2  0  0  0  0
 37 38  1  0  0  0  0
 38 40  1  0  0  0  0
 38 39  1  0  0  0  0
 39 88  1  0  0  0  0
 39 87  1  0  0  0  0
 40 41  2  0  0  0  0
 42 89  1  0  0  0  0
 43  2  1  0  0  0  0
 43 90  1  0  0  0  0
 44 43  1  0  0  0  0
 45 44  1  0  0  0  0
 46 45  1  0  0  0  0
 47 48  1  6  0  0  0
 47 49  1  0  0  0  0
 47 46  1  0  0  0  0
 49 95  1  0  0  0  0
 50 51  1  0  0  0  0
 50 49  1  0  0  0  0
 51 97  1  0  0  0  0
 52 50  2  0  0  0  0
 53 47  1  0  0  0  0
 54 99  1  0  0  0  0
 54 53  1  0  0  0  0
 55101  1  0  0  0  0
 55 54  1  0  0  0  0
 56 53  2  0  0  0  0
 57  3  1  0  0  0  0
 58  8  1  0  0  0  0
 60  8  1  0  0  0  0
 61 10  1  0  0  0  0
 62 11  1  0  0  0  0
 64 15  1  0  0  0  0
 66 19  1  0  0  0  0
 68 21  1  0  0  0  0
 72 28  1  0  0  0  0
 73 28  1  0  0  0  0
 75 29  1  0  0  0  0
 76 29  1  0  0  0  0
 77 30  1  0  0  0  0
 78 30  1  0  0  0  0
 79 30  1  0  0  0  0
 80 31  1  0  0  0  0
 81 32  1  0  0  0  0
 82 34  1  0  0  0  0
 83 35  1  0  0  0  0
 85 37  1  0  0  0  0
 86 39  1  0  0  0  0
 91 44  1  0  0  0  0
 92 44  1  0  0  0  0
 93 46  1  0  0  0  0
 94 46  1  0  0  0  0
 96 51  1  0  0  0  0
 98 51  1  0  0  0  0
100 55  1  0  0  0  0
102 55  1  0  0  0  0
M  END
