-1 1
 OpenBabel05232413483D

102104  0  0  1  0  0  0  0  0999 V2000
   -1.6975   -5.8532    1.1482 O   0  0  0  0  0  0  0  0  0  0  0  0
   -1.8209   -4.6441    1.0318 C   0  0  0  0  0  0  0  0  0  0  0  0
   -0.8005   -3.7533    1.2237 N   0  0  0  0  0  0  0  0  0  0  0  0
    0.4801   -4.0808    1.6838 C   0  0  0  0  0  0  0  0  0  0  0  0
    1.1540   -5.2876    1.3969 C   0  0  0  0  0  0  0  0  0  0  0  0
    0.7402   -6.2590    0.3439 C   0  0  0  0  0  0  0  0  0  0  0  0
    0.2780   -5.6087   -0.7321 O   0  0  0  0  0  0  0  0  0  0  0  0
   -0.2399   -6.3747   -1.7975 C   0  0  0  0  0  0  0  0  0  0  0  0
    0.9322   -7.4476    0.3711 O   0  0  0  0  0  0  0  0  0  0  0  0
    2.3790   -5.5413    2.0234 C   0  0  0  0  0  0  0  0  0  0  0  0
    3.0194   -4.5865    2.8002 C   0  0  0  0  0  0  0  0  0  0  0  0
    2.4113   -3.3366    2.9811 C   0  0  0  0  0  0  0  0  0  0  0  0
    3.0889   -2.3014    3.6386 N   0  0  0  0  0  0  0  0  0  0  0  0
    3.3414   -1.0672    3.0714 C   0  0  0  0  0  0  0  0  0  0  0  0
    2.8034   -0.5749    1.9147 C   0  0  0  0  0  0  0  0  0  0  0  0
    3.1928    0.7003    1.4031 C   0  0  0  0  0  0  0  0  0  0  0  0
    2.6513    1.1292    0.0794 C   0  0  0  0  0  0  0  0  0  0  0  0
    1.5543    2.0048   -0.0262 C   0  0  0  0  0  0  0  0  0  0  0  0
    0.9138    2.6110    1.1879 C   0  0  0  0  0  0  0  0  0  0  0  0
    1.0521    2.2711   -1.3168 C   0  0  0  0  0  0  0  0  0  0  0  0
   -0.1066    3.0623   -1.5031 N   0  0  0  0  0  0  0  0  0  0  0  0
   -0.2359    4.3624   -1.1296 C   0  0  0  0  0  0  0  0  0  0  0  0
   -1.6123    4.9539   -1.3109 C   0  0  0  0  0  0  0  0  0  0  0  0
   -1.7395    6.3357   -1.1724 C   0  0  0  0  0  0  0  0  0  0  0  0
   -2.9781    6.9586   -1.3046 C   0  0  0  0  0  0  0  0  0  0  0  0
   -4.1366    6.2192   -1.5707 C   0  0  0  0  0  0  0  0  0  0  0  0
   -5.5233    6.8615   -1.7176 C   0  0  0  0  0  0  0  0  0  0  0  0
   -6.4661    6.2853   -0.6450 C   0  0  0  0  0  0  0  0  0  0  0  0
   -5.4774    8.3855   -1.5482 C   0  0  0  0  0  0  0  0  0  0  0  0
   -6.0828    6.5490   -3.1178 C   0  0  0  0  0  0  0  0  0  0  0  0
   -3.9959    4.8293   -1.6981 C   0  0  0  0  0  0  0  0  0  0  0  0
   -2.7627    4.1993   -1.5711 C   0  0  0  0  0  0  0  0  0  0  0  0
    0.6808    5.0290   -0.6796 O   0  0  0  0  0  0  0  0  0  0  0  0
    1.6093    1.6709   -2.4474 C   0  0  0  0  0  0  0  0  0  0  0  0
    2.6887    0.8051   -2.3259 C   0  0  0  0  0  0  0  0  0  0  0  0
    3.2075    0.5419   -1.0637 C   0  0  0  0  0  0  0  0  0  0  0  0
    4.0811    1.4369    2.1177 C   0  0  0  0  0  0  0  0  0  0  0  0
    4.6172    0.9642    3.2995 N   0  0  0  0  0  0  0  0  0  0  0  0
    5.5688    1.7988    4.0122 C   0  0  0  0  0  0  0  0  0  0  0  0
    4.3289   -0.2841    3.8228 C   0  0  0  0  0  0  0  0  0  0  0  0
    4.8705   -0.7163    4.8395 O   0  0  0  0  0  0  0  0  0  0  0  0
    1.1252   -3.1266    2.4816 C   0  0  0  0  0  0  0  0  0  0  0  0
   -3.1602   -4.0909    0.6576 C   0  0  0  0  0  0  0  0  0  0  0  0
   -3.6045   -2.8434    0.8228 C   0  0  0  0  0  0  0  0  0  0  0  0
   -1.0056   -0.4775    1.4535 S   0  0  0  0  0  1  0  0  0  0  0  0
   -1.6854    0.1236   -0.1271 C   0  0  0  0  0  0  0  0  0  0  0  0
   -1.3375   -0.7478   -1.3446 C   0  0  2  0  0  0  0  0  0  0  0  0
   -1.9801   -1.6475   -1.3506 H   0  0  0  0  0  0  0  0  0  0  0  0
    0.0436   -1.1934   -1.2635 N   0  0  0  0  0  0  0  0  0  0  0  0
    0.5043   -2.3107   -1.8578 C   0  0  0  0  0  0  0  0  0  0  0  0
    1.8573   -2.8001   -1.4076 C   0  0  0  0  0  0  0  0  0  0  0  0
   -0.1211   -2.9078   -2.7388 O   0  0  0  0  0  0  0  0  0  0  0  0
   -1.5988    0.0003   -2.6705 C   0  0  0  0  0  0  0  0  0  0  0  0
   -1.5269   -0.7787   -3.7631 N   0  0  0  0  0  0  0  0  0  0  0  0
   -1.6420   -0.2568   -5.0990 C   0  0  0  0  0  0  0  0  0  0  0  0
   -1.8683    1.2010   -2.7281 O   0  0  0  0  0  0  0  0  0  0  0  0
   -1.0043   -2.7308    1.2220 H   0  0  0  0  0  0  0  0  0  0  0  0
    0.4948   -7.1158   -2.1464 H   0  0  0  0  0  0  0  0  0  0  0  0
   -0.4704   -5.6522   -2.5893 H   0  0  0  0  0  0  0  0  0  0  0  0
   -1.1502   -6.9000   -1.4712 H   0  0  0  0  0  0  0  0  0  0  0  0
    2.8587   -6.5018    1.8234 H   0  0  0  0  0  0  0  0  0  0  0  0
    4.0098   -4.7796    3.2183 H   0  0  0  0  0  0  0  0  0  0  0  0
    3.7810   -2.5432    4.3414 H   0  0  0  0  0  0  0  0  0  0  0  0
    2.0447   -1.1360    1.3720 H   0  0  0  0  0  0  0  0  0  0  0  0
    1.1582    2.0435    2.0922 H   0  0  0  0  0  0  0  0  0  0  0  0
   -0.1803    2.6073    1.0857 H   0  0  0  0  0  0  0  0  0  0  0  0
    1.2324    3.6586    1.3009 H   0  0  0  0  0  0  0  0  0  0  0  0
   -0.8656    2.5803   -1.9939 H   0  0  0  0  0  0  0  0  0  0  0  0
   -0.8395    6.9124   -0.9507 H   0  0  0  0  0  0  0  0  0  0  0  0
   -3.0272    8.0420   -1.1908 H   0  0  0  0  0  0  0  0  0  0  0  0
   -6.0800    6.4903    0.3652 H   0  0  0  0  0  0  0  0  0  0  0  0
   -6.5792    5.1959   -0.7439 H   0  0  0  0  0  0  0  0  0  0  0  0
   -7.4681    6.7365   -0.7297 H   0  0  0  0  0  0  0  0  0  0  0  0
   -5.1089    8.6742   -0.5520 H   0  0  0  0  0  0  0  0  0  0  0  0
   -6.4897    8.8034   -1.6623 H   0  0  0  0  0  0  0  0  0  0  0  0
   -4.8338    8.8610   -2.3042 H   0  0  0  0  0  0  0  0  0  0  0  0
   -6.1845    5.4666   -3.2841 H   0  0  0  0  0  0  0  0  0  0  0  0
   -5.4196    6.9471   -3.9012 H   0  0  0  0  0  0  0  0  0  0  0  0
   -7.0788    7.0036   -3.2454 H   0  0  0  0  0  0  0  0  0  0  0  0
   -4.8720    4.2075   -1.8977 H   0  0  0  0  0  0  0  0  0  0  0  0
   -2.7155    3.1129   -1.6779 H   0  0  0  0  0  0  0  0  0  0  0  0
    1.1707    1.8899   -3.4231 H   0  0  0  0  0  0  0  0  0  0  0  0
    3.1190    0.3317   -3.2110 H   0  0  0  0  0  0  0  0  0  0  0  0
    4.0483   -0.1461   -0.9462 H   0  0  0  0  0  0  0  0  0  0  0  0
    4.4193    2.4251    1.8033 H   0  0  0  0  0  0  0  0  0  0  0  0
    6.4700    1.9651    3.4026 H   0  0  0  0  0  0  0  0  0  0  0  0
    5.8470    1.2795    4.9353 H   0  0  0  0  0  0  0  0  0  0  0  0
    5.1146    2.7708    4.2537 H   0  0  0  0  0  0  0  0  0  0  0  0
    0.6063   -2.1925    2.6982 H   0  0  0  0  0  0  0  0  0  0  0  0
   -3.8167   -4.8757    0.2697 H   0  0  0  0  0  0  0  0  0  0  0  0
   -4.6315   -2.5917    0.5419 H   0  0  0  0  0  0  0  0  0  0  0  0
   -2.9771   -2.0398    1.2358 H   0  0  0  0  0  0  0  0  0  0  0  0
   -1.3193    1.1427   -0.3115 H   0  0  0  0  0  0  0  0  0  0  0  0
   -2.7837    0.1988   -0.0858 H   0  0  0  0  0  0  0  0  0  0  0  0
    0.4986   -0.8720   -0.4047 H   0  0  0  0  0  0  0  0  0  0  0  0
    2.5384   -2.7963   -2.2707 H   0  0  0  0  0  0  0  0  0  0  0  0
    1.7336   -3.8377   -1.0714 H   0  0  0  0  0  0  0  0  0  0  0  0
    2.2911   -2.1977   -0.6005 H   0  0  0  0  0  0  0  0  0  0  0  0
   -1.1731   -1.7325   -3.6051 H   0  0  0  0  0  0  0  0  0  0  0  0
   -0.6610   -0.2016   -5.6008 H   0  0  0  0  0  0  0  0  0  0  0  0
   -2.0623    0.7554   -5.0453 H   0  0  0  0  0  0  0  0  0  0  0  0
   -2.3047   -0.8903   -5.7081 H   0  0  0  0  0  0  0  0  0  0  0  0
  2  1  2  0  0  0  0
  2  3  1  0  0  0  0
  3  4  1  0  0  0  0
  4 42  1  0  0  0  0
  5  4  2  0  0  0  0
  5 10  1  0  0  0  0
  6  9  2  0  0  0  0
  6  5  1  0  0  0  0
  7  6  1  0  0  0  0
  8 60  1  0  0  0  0
  8  7  1  0  0  0  0
 10 11  2  0  0  0  0
 11 12  1  0  0  0  0
 11 62  1  0  0  0  0
 12 13  1  0  0  0  0
 13 63  1  0  0  0  0
 14 13  1  0  0  0  0
 14 40  1  0  0  0  0
 15 14  2  0  0  0  0
 16 15  1  0  0  0  0
 16 37  2  0  0  0  0
 17 16  1  0  0  0  0
 18 17  1  0  0  0  0
 18 19  1  0  0  0  0
 19 67  1  0  0  0  0
 19 65  1  0  0  0  0
 20 18  2  0  0  0  0
 21 20  1  0  0  0  0
 21 22  1  0  0  0  0
 22 33  2  0  0  0  0
 23 24  1  0  0  0  0
 23 22  1  0  0  0  0
 24 69  1  0  0  0  0
 25 70  1  0  0  0  0
 25 24  2  0  0  0  0
 26 25  1  0  0  0  0
 27 26  1  0  0  0  0
 27 29  1  0  0  0  0
 27 28  1  0  0  0  0
 28 71  1  0  0  0  0
 29 74  1  0  0  0  0
 30 27  1  0  0  0  0
 31 32  1  0  0  0  0
 31 26  2  0  0  0  0
 32 23  2  0  0  0  0
 34 35  2  0  0  0  0
 34 20  1  0  0  0  0
 35 36  1  0  0  0  0
 36 84  1  0  0  0  0
 36 17  2  0  0  0  0
 37 38  1  0  0  0  0
 38 40  1  0  0  0  0
 38 39  1  0  0  0  0
 39 88  1  0  0  0  0
 39 87  1  0  0  0  0
 40 41  2  0  0  0  0
 42 89  1  0  0  0  0
 42 12  2  0  0  0  0
 43 44  2  0  0  0  0
 43  2  1  0  0  0  0
 44 92  1  0  0  0  0
 46 94  1  0  0  0  0
 46 45  1  0  0  0  0
 47 48  1  1  0  0  0
 47 49  1  0  0  0  0
 47 46  1  0  0  0  0
 49 95  1  0  0  0  0
 50 51  1  0  0  0  0
 50 49  1  0  0  0  0
 51 97  1  0  0  0  0
 51 98  1  0  0  0  0
 52 50  2  0  0  0  0
 53 47  1  0  0  0  0
 54 99  1  0  0  0  0
 54 53  1  0  0  0  0
 55101  1  0  0  0  0
 55 54  1  0  0  0  0
 56 53  2  0  0  0  0
 57  3  1  0  0  0  0
 58  8  1  0  0  0  0
 59  8  1  0  0  0  0
 61 10  1  0  0  0  0
 64 15  1  0  0  0  0
 66 19  1  0  0  0  0
 68 21  1  0  0  0  0
 72 28  1  0  0  0  0
 73 28  1  0  0  0  0
 75 29  1  0  0  0  0
 76 29  1  0  0  0  0
 77 30  1  0  0  0  0
 78 30  1  0  0  0  0
 79 30  1  0  0  0  0
 80 31  1  0  0  0  0
 81 32  1  0  0  0  0
 82 34  1  0  0  0  0
 83 35  1  0  0  0  0
 85 37  1  0  0  0  0
 86 39  1  0  0  0  0
 90 43  1  0  0  0  0
 91 44  1  0  0  0  0
 93 46  1  0  0  0  0
 96 51  1  0  0  0  0
100 55  1  0  0  0  0
102 55  1  0  0  0  0
M  END
