106
-1 1
O         4.580615    1.368296    2.286404
C         3.424782    1.706097    2.113823
N         2.519481    0.743099    1.660130
C         1.222023    0.922896    1.143522
C         0.954915    0.617968   -0.202688
C         2.025479    0.076130   -1.117309
N         3.073886    0.894881   -1.393757
C         4.190290    0.395461   -2.176804
C         4.360114    1.242216   -3.430472
O         4.487284    2.602586   -3.113066
C         3.381565    3.106320   -2.384442
C         3.165296    2.322234   -1.098322
O         1.929000   -1.061811   -1.554851
C        -0.351848    0.729875   -0.675421
C        -1.380701    1.189670    0.138629
C        -1.122053    1.486851    1.484180
N        -2.122490    1.928163    2.355792
C        -3.394064    1.436945    2.501043
C        -4.009015    0.453977    1.772393
C        -5.344931    0.037091    2.079126
C        -6.018288   -1.015021    1.268807
C        -5.435749   -2.283492    1.083795
C        -4.158524   -2.684299    1.783011
C        -6.088352   -3.213320    0.243089
N        -5.438675   -4.440303    0.017680
C        -5.902527   -5.565112   -0.612713
C        -4.881638   -6.635412   -0.764644
S        -5.430191   -8.215439   -1.201413
C        -3.819440   -8.830179   -1.215637
C        -3.484130  -10.255896   -1.550655
C        -2.047382  -10.575602   -1.124026
C        -1.081080   -9.468372   -1.548685
C        -1.416572   -8.141021   -0.863593
C        -2.895274   -7.857121   -0.912671
C        -3.513036   -6.599289   -0.655315
O        -7.039612   -5.716315   -1.018384
C        -7.322039   -2.910637   -0.344322
C        -7.897069   -1.665666   -0.116796
C        -7.248992   -0.719816    0.667827
C        -5.995857    0.648903    3.105721
N        -5.390681    1.636652    3.850788
C        -6.085174    2.263500    4.963255
C        -4.100641    2.071214    3.626477
O        -3.578746    2.923891    4.336494
C         0.179363    1.335704    1.975056
C         2.925484    3.081084    2.309083
C         3.793813    4.089820    2.471447
S         4.704693    5.550503   -0.160360
C         6.150762    4.485372   -0.499224
C         7.300631    5.229388   -1.195443
H         8.168234    4.558210   -1.317206
N         7.726758    6.330997   -0.379356
C         8.992018    6.807539   -0.378396
C         9.146178    8.166911    0.283147
O         9.943825    6.218258   -0.863551
C         6.950908    5.747270   -2.607633
N         6.340177    4.852882   -3.428635
C         5.866821    5.270670   -4.722103
O         7.258424    6.862879   -2.985752
H         3.012415   -0.088259    1.349466
H         3.993753   -0.653436   -2.430349
H         5.107315    0.457409   -1.565077
H         3.487980    1.086253   -4.097766
H         5.269562    0.948435   -3.974262
H         2.472503    3.054352   -3.017129
H         3.607089    4.153071   -2.121019
H         2.252673    2.677353   -0.605937
H         4.004027    2.515667   -0.410098
H        -0.557301    0.480035   -1.718556
H        -2.376506    1.342632   -0.277214
H        -1.853890    2.529431    3.130673
H        -3.487337   -0.030489    0.948222
H        -3.899103   -1.980797    2.581925
H        -3.295044   -2.717724    1.095642
H        -4.258783   -3.677731    2.249825
H        -4.500347   -4.504787    0.384530
H        -3.593064  -10.410613   -2.638659
H        -4.193877  -10.946670   -1.068695
H        -1.741224  -11.541405   -1.553537
H        -2.009072  -10.689502   -0.026873
H        -1.138929   -9.340193   -2.643533
H        -0.043840   -9.755589   -1.319888
H        -0.858097   -7.314406   -1.330177
H        -1.089127   -8.172963    0.190792
H        -2.939155   -5.697323   -0.430047
H        -7.813280   -3.655642   -0.965183
H        -8.857140   -1.427156   -0.579518
H        -7.681495    0.273264    0.805713
H        -7.012519    0.383064    3.396718
H        -7.102273    1.859932    5.026683
H        -6.124049    3.351887    4.819442
H        -5.549258    2.072972    5.903691
H         0.387319    1.514417    3.031632
H         1.858087    3.283727    2.211927
H         4.866505    3.895708    2.526365
H         3.465232    5.122790    2.573608
H         5.871031    3.610821   -1.112722
H         6.554104    4.069554    0.439056
H         6.951228    6.897525   -0.040034
H         8.455577    8.301149    1.128356
H         8.924790    8.941230   -0.467377
H        10.183205    8.287250    0.620241
H         5.928147    4.007825   -3.047331
H         5.129861    6.088840   -4.644838
H         5.391508    4.412428   -5.216252
H         6.696761    5.635026   -5.347324
