-1 1
 OpenBabel05192410563D

106111  0  0  1  0  0  0  0  0999 V2000
    4.1696    1.4194    1.2690 O   0  0  0  0  0  0  0  0  0  0  0  0
    3.0133    1.8938    1.2731 C   0  0  0  0  0  0  0  0  0  0  0  0
    2.0234    0.9419    0.7891 N   0  0  0  0  0  0  0  0  0  0  0  0
    0.7393    1.1779    0.3421 C   0  0  0  0  0  0  0  0  0  0  0  0
    0.3410    0.7992   -0.9635 C   0  0  0  0  0  0  0  0  0  0  0  0
    1.3038    0.2167   -1.9640 C   0  0  0  0  0  0  0  0  0  0  0  0
    2.4026    0.9708   -2.2824 N   0  0  0  0  0  0  0  0  0  0  0  0
    3.4932    0.3748   -3.0303 C   0  0  0  0  0  0  0  0  0  0  0  0
    3.9798    1.3308   -4.1096 C   0  0  0  0  0  0  0  0  0  0  0  0
    4.3053    2.5943   -3.5783 O   0  0  0  0  0  0  0  0  0  0  0  0
    3.1992    3.1853   -2.9201 C   0  0  0  0  0  0  0  0  0  0  0  0
    2.7030    2.3062   -1.7877 C   0  0  0  0  0  0  0  0  0  0  0  0
    1.0937   -0.8691   -2.4844 O   0  0  0  0  0  0  0  0  0  0  0  0
   -0.9952    0.9305   -1.3443 C   0  0  0  0  0  0  0  0  0  0  0  0
   -1.9385    1.5047   -0.5016 C   0  0  0  0  0  0  0  0  0  0  0  0
   -1.5456    1.9133    0.7823 C   0  0  0  0  0  0  0  0  0  0  0  0
   -2.4758    2.4732    1.6797 N   0  0  0  0  0  0  0  0  0  0  0  0
   -3.6409    1.8808    2.0890 C   0  0  0  0  0  0  0  0  0  0  0  0
   -4.2255    0.7555    1.5708 C   0  0  0  0  0  0  0  0  0  0  0  0
   -5.4287    0.2209    2.1331 C   0  0  0  0  0  0  0  0  0  0  0  0
   -6.0487   -1.0058    1.5622 C   0  0  0  0  0  0  0  0  0  0  0  0
   -5.3011   -2.1854    1.3778 C   0  0  0  0  0  0  0  0  0  0  0  0
   -3.8758   -2.3149    1.8615 C   0  0  0  0  0  0  0  0  0  0  0  0
   -5.9197   -3.2877    0.7457 C   0  0  0  0  0  0  0  0  0  0  0  0
   -5.1142   -4.4126    0.4913 N   0  0  0  0  0  0  0  0  0  0  0  0
   -5.4676   -5.6490    0.0214 C   0  0  0  0  0  0  0  0  0  0  0  0
   -4.3075   -6.5375   -0.2562 C   0  0  0  0  0  0  0  0  0  0  0  0
   -4.6119   -8.2254   -0.4740 S   0  0  0  0  0  0  0  0  0  0  0  0
   -2.9415   -8.5448   -0.7616 C   0  0  0  0  0  0  0  0  0  0  0  0
   -2.4031   -9.9154   -1.0602 C   0  0  0  0  0  0  0  0  0  0  0  0
   -0.8790   -9.9310   -0.8998 C   0  0  0  0  0  0  0  0  0  0  0  0
   -0.2353   -8.7192   -1.5761 C   0  0  0  0  0  0  0  0  0  0  0  0
   -0.6928   -7.4096   -0.9289 C   0  0  0  0  0  0  0  0  0  0  0  0
   -2.1829   -7.3987   -0.7085 C   0  0  0  0  0  0  0  0  0  0  0  0
   -2.9746   -6.2499   -0.4185 C   0  0  0  0  0  0  0  0  0  0  0  0
   -6.6106   -6.0266   -0.1590 O   0  0  0  0  0  0  0  0  0  0  0  0
   -7.2694   -3.2455    0.3789 C   0  0  0  0  0  0  0  0  0  0  0  0
   -8.0005   -2.0861    0.6121 C   0  0  0  0  0  0  0  0  0  0  0  0
   -7.3966   -0.9713    1.1803 C   0  0  0  0  0  0  0  0  0  0  0  0
   -5.9987    0.8721    3.1836 C   0  0  0  0  0  0  0  0  0  0  0  0
   -5.4322    2.0142    3.7077 N   0  0  0  0  0  0  0  0  0  0  0  0
   -6.0340    2.6889    4.8447 C   0  0  0  0  0  0  0  0  0  0  0  0
   -4.2599    2.5698    3.2326 C   0  0  0  0  0  0  0  0  0  0  0  0
   -3.7696    3.5659    3.7531 O   0  0  0  0  0  0  0  0  0  0  0  0
   -0.2249    1.7459    1.1925 C   0  0  0  0  0  0  0  0  0  0  0  0
    2.6282    3.1918    1.5834 C   0  0  0  0  0  3  0  0  0  0  0  0
    3.6672    4.1876    1.8805 C   0  0  0  0  0  0  0  0  0  0  0  0
    4.5213    5.0389    0.4009 S   0  0  0  0  0  0  0  0  0  0  0  0
    5.6882    3.7447   -0.1475 C   0  0  0  0  0  0  0  0  0  0  0  0
    7.0173    4.3324   -0.6267 C   0  0  2  0  0  0  0  0  0  0  0  0
    7.6836    3.5031   -0.9144 H   0  0  0  0  0  0  0  0  0  0  0  0
    7.6685    5.0581    0.4267 N   0  0  0  0  0  0  0  0  0  0  0  0
    9.0161    5.2365    0.4427 C   0  0  0  0  0  0  0  0  0  0  0  0
    9.4967    6.3040    1.4073 C   0  0  0  0  0  0  0  0  0  0  0  0
    9.7820    4.6005   -0.2578 O   0  0  0  0  0  0  0  0  0  0  0  0
    6.8621    5.2358   -1.8713 C   0  0  0  0  0  0  0  0  0  0  0  0
    6.2765    4.6506   -2.9448 N   0  0  0  0  0  0  0  0  0  0  0  0
    6.0175    5.4001   -4.1478 C   0  0  0  0  0  0  0  0  0  0  0  0
    7.2485    6.3900   -1.8887 O   0  0  0  0  0  0  0  0  0  0  0  0
    2.5336    0.2229    0.2888 H   0  0  0  0  0  0  0  0  0  0  0  0
    3.1380   -0.5660   -3.4691 H   0  0  0  0  0  0  0  0  0  0  0  0
    4.3273    0.1539   -2.3381 H   0  0  0  0  0  0  0  0  0  0  0  0
    3.1955    1.4444   -4.8846 H   0  0  0  0  0  0  0  0  0  0  0  0
    4.8879    0.9384   -4.5890 H   0  0  0  0  0  0  0  0  0  0  0  0
    2.3894    3.3676   -3.6540 H   0  0  0  0  0  0  0  0  0  0  0  0
    3.5403    4.1485   -2.5138 H   0  0  0  0  0  0  0  0  0  0  0  0
    1.8175    2.7623   -1.3324 H   0  0  0  0  0  0  0  0  0  0  0  0
    3.4757    2.2413   -1.0076 H   0  0  0  0  0  0  0  0  0  0  0  0
   -1.2853    0.6068   -2.3468 H   0  0  0  0  0  0  0  0  0  0  0  0
   -2.9627    1.6643   -0.8407 H   0  0  0  0  0  0  0  0  0  0  0  0
   -2.1389    3.1666    2.3417 H   0  0  0  0  0  0  0  0  0  0  0  0
   -3.7676    0.2469    0.7235 H   0  0  0  0  0  0  0  0  0  0  0  0
   -3.6102   -1.5120    2.5577 H   0  0  0  0  0  0  0  0  0  0  0  0
   -3.1438   -2.2703    1.0361 H   0  0  0  0  0  0  0  0  0  0  0  0
   -3.7267   -3.2661    2.3977 H   0  0  0  0  0  0  0  0  0  0  0  0
   -4.1303   -4.2864    0.6801 H   0  0  0  0  0  0  0  0  0  0  0  0
   -2.6718  -10.1967   -2.0938 H   0  0  0  0  0  0  0  0  0  0  0  0
   -2.8688  -10.6684   -0.4049 H   0  0  0  0  0  0  0  0  0  0  0  0
   -0.4738  -10.8663   -1.3149 H   0  0  0  0  0  0  0  0  0  0  0  0
   -0.6251   -9.9239    0.1743 H   0  0  0  0  0  0  0  0  0  0  0  0
   -0.5105   -8.7152   -2.6452 H   0  0  0  0  0  0  0  0  0  0  0  0
    0.8617   -8.7939   -1.5338 H   0  0  0  0  0  0  0  0  0  0  0  0
   -0.3965   -6.5484   -1.5479 H   0  0  0  0  0  0  0  0  0  0  0  0
   -0.1830   -7.2753    0.0416 H   0  0  0  0  0  0  0  0  0  0  0  0
   -2.5537   -5.2429   -0.3691 H   0  0  0  0  0  0  0  0  0  0  0  0
   -7.7243   -4.1201   -0.0796 H   0  0  0  0  0  0  0  0  0  0  0  0
   -9.0527   -2.0492    0.3212 H   0  0  0  0  0  0  0  0  0  0  0  0
   -7.9604   -0.0455    1.3130 H   0  0  0  0  0  0  0  0  0  0  0  0
   -6.9092    0.5210    3.6702 H   0  0  0  0  0  0  0  0  0  0  0  0
   -6.9538    2.1650    5.1298 H   0  0  0  0  0  0  0  0  0  0  0  0
   -6.2639    3.7326    4.5891 H   0  0  0  0  0  0  0  0  0  0  0  0
   -5.3353    2.7039    5.6930 H   0  0  0  0  0  0  0  0  0  0  0  0
    0.0756    2.0146    2.2063 H   0  0  0  0  0  0  0  0  0  0  0  0
    1.6103    3.5402    1.4046 H   0  0  0  0  0  0  0  0  0  0  0  0
    4.5068    3.7608    2.4493 H   0  0  0  0  0  0  0  0  0  0  0  0
    3.2831    5.0625    2.4264 H   0  0  0  0  0  0  0  0  0  0  0  0
    5.2397    3.1460   -0.9508 H   0  0  0  0  0  0  0  0  0  0  0  0
    5.8424    3.0495    0.6883 H   0  0  0  0  0  0  0  0  0  0  0  0
    7.0698    5.7160    0.9170 H   0  0  0  0  0  0  0  0  0  0  0  0
    8.9045    6.3244    2.3336 H   0  0  0  0  0  0  0  0  0  0  0  0
    9.4003    7.2839    0.9149 H   0  0  0  0  0  0  0  0  0  0  0  0
   10.5534    6.1269    1.6406 H   0  0  0  0  0  0  0  0  0  0  0  0
    5.9025    3.7075   -2.8987 H   0  0  0  0  0  0  0  0  0  0  0  0
    5.4729    6.3311   -3.9240 H   0  0  0  0  0  0  0  0  0  0  0  0
    5.4091    4.7777   -4.8167 H   0  0  0  0  0  0  0  0  0  0  0  0
    6.9511    5.6800   -4.6630 H   0  0  0  0  0  0  0  0  0  0  0  0
  1  2  2  0  0  0  0
  2 46  1  0  0  0  0
  3  2  1  0  0  0  0
  4  3  1  0  0  0  0
  4 45  1  0  0  0  0
  5  4  2  0  0  0  0
  6  5  1  0  0  0  0
  7  6  1  0  0  0  0
  7 12  1  0  0  0  0
  8 62  1  0  0  0  0
  8  7  1  0  0  0  0
  9 10  1  0  0  0  0
  9  8  1  0  0  0  0
 10 11  1  0  0  0  0
 11 66  1  0  0  0  0
 11 12  1  0  0  0  0
 12 67  1  0  0  0  0
 12 68  1  0  0  0  0
 13  6  2  0  0  0  0
 14  5  1  0  0  0  0
 14 15  2  0  0  0  0
 15 16  1  0  0  0  0
 16 45  2  0  0  0  0
 16 17  1  0  0  0  0
 17 18  1  0  0  0  0
 17 71  1  0  0  0  0
 18 43  1  0  0  0  0
 19 18  2  0  0  0  0
 19 20  1  0  0  0  0
 20 40  2  0  0  0  0
 21 20  1  0  0  0  0
 22 21  1  0  0  0  0
 22 23  1  0  0  0  0
 23 75  1  0  0  0  0
 23 73  1  0  0  0  0
 24 22  2  0  0  0  0
 25 76  1  0  0  0  0
 25 24  1  0  0  0  0
 26 25  1  0  0  0  0
 27 26  1  0  0  0  0
 28 27  1  0  0  0  0
 29 34  2  0  0  0  0
 29 28  1  0  0  0  0
 30 31  1  0  0  0  0
 30 29  1  0  0  0  0
 30 78  1  0  0  0  0
 31 80  1  0  0  0  0
 32 82  1  0  0  0  0
 32 33  1  0  0  0  0
 32 31  1  0  0  0  0
 33 34  1  0  0  0  0
 33 84  1  0  0  0  0
 34 35  1  0  0  0  0
 35 85  1  0  0  0  0
 35 27  2  0  0  0  0
 36 26  2  0  0  0  0
 37 38  2  0  0  0  0
 37 24  1  0  0  0  0
 38 39  1  0  0  0  0
 39 88  1  0  0  0  0
 39 21  2  0  0  0  0
 40 89  1  0  0  0  0
 40 41  1  0  0  0  0
 41 42  1  0  0  0  0
 42 90  1  0  0  0  0
 42 92  1  0  0  0  0
 43 41  1  0  0  0  0
 43 44  2  0  0  0  0
 45 93  1  0  0  0  0
 46 47  1  0  0  0  0
 47 96  1  0  0  0  0
 47 95  1  0  0  0  0
 48 47  1  0  0  0  0
 49 48  1  0  0  0  0
 49 98  1  0  0  0  0
 50 51  1  6  0  0  0
 50 49  1  0  0  0  0
 50 52  1  0  0  0  0
 52 53  1  0  0  0  0
 52 99  1  0  0  0  0
 53 54  1  0  0  0  0
 54102  1  0  0  0  0
 54100  1  0  0  0  0
 55 53  2  0  0  0  0
 56 50  1  0  0  0  0
 57103  1  0  0  0  0
 57 56  1  0  0  0  0
 58104  1  0  0  0  0
 58 57  1  0  0  0  0
 59 56  2  0  0  0  0
 60  3  1  0  0  0  0
 61  8  1  0  0  0  0
 63  9  1  0  0  0  0
 64  9  1  0  0  0  0
 65 11  1  0  0  0  0
 69 14  1  0  0  0  0
 70 15  1  0  0  0  0
 72 19  1  0  0  0  0
 74 23  1  0  0  0  0
 77 30  1  0  0  0  0
 79 31  1  0  0  0  0
 81 32  1  0  0  0  0
 83 33  1  0  0  0  0
 86 37  1  0  0  0  0
 87 38  1  0  0  0  0
 91 42  1  0  0  0  0
 94 46  1  0  0  0  0
 97 49  1  0  0  0  0
101 54  1  0  0  0  0
105 58  1  0  0  0  0
106 58  1  0  0  0  0
M  END
