106
-1 1
O         4.169573    1.419428    1.268963
C         3.013283    1.893788    1.273124
N         2.023391    0.941947    0.789129
C         0.739264    1.177948    0.342092
C         0.341017    0.799153   -0.963487
C         1.303824    0.216698   -1.964022
N         2.402592    0.970840   -2.282448
C         3.493181    0.374781   -3.030283
C         3.979781    1.330821   -4.109619
O         4.305335    2.594281   -3.578282
C         3.199232    3.185346   -2.920065
C         2.703002    2.306228   -1.787707
O         1.093709   -0.869129   -2.484374
C        -0.995207    0.930521   -1.344339
C        -1.938452    1.504725   -0.501553
C        -1.545584    1.913325    0.782350
N        -2.475810    2.473162    1.679680
C        -3.640943    1.880838    2.088954
C        -4.225468    0.755506    1.570765
C        -5.428655    0.220940    2.133149
C        -6.048697   -1.005807    1.562172
C        -5.301108   -2.185385    1.377758
C        -3.875800   -2.314869    1.861495
C        -5.919749   -3.287706    0.745672
N        -5.114152   -4.412557    0.491342
C        -5.467568   -5.648989    0.021424
C        -4.307479   -6.537520   -0.256232
S        -4.611924   -8.225362   -0.473994
C        -2.941480   -8.544820   -0.761566
C        -2.403076   -9.915379   -1.060237
C        -0.879018   -9.930968   -0.899770
C        -0.235264   -8.719231   -1.576132
C        -0.692782   -7.409592   -0.928859
C        -2.182909   -7.398677   -0.708528
C        -2.974606   -6.249928   -0.418490
O        -6.610557   -6.026595   -0.158969
C        -7.269440   -3.245472    0.378857
C        -8.000498   -2.086053    0.612085
C        -7.396596   -0.971254    1.180299
C        -5.998743    0.872139    3.183629
N        -5.432218    2.014182    3.707719
C        -6.034032    2.688914    4.844701
C        -4.259946    2.569844    3.232620
O        -3.769576    3.565870    3.753068
C        -0.224939    1.745900    1.192497
C         2.628176    3.191751    1.583427
C         3.667230    4.187588    1.880543
S         4.521256    5.038938    0.400857
C         5.688194    3.744701   -0.147455
C         7.017335    4.332408   -0.626700
H         7.683612    3.503090   -0.914372
N         7.668519    5.058093    0.426726
C         9.016064    5.236454    0.442660
C         9.496717    6.304040    1.407294
O         9.781975    4.600534   -0.257770
C         6.862101    5.235758   -1.871263
N         6.276549    4.650563   -2.944813
C         6.017458    5.400098   -4.147810
O         7.248482    6.390038   -1.888717
H         2.533579    0.222892    0.288837
H         3.137958   -0.566024   -3.469094
H         4.327340    0.153892   -2.338115
H         3.195512    1.444368   -4.884594
H         4.887868    0.938400   -4.589013
H         2.389354    3.367588   -3.653963
H         3.540340    4.148533   -2.513807
H         1.817452    2.762345   -1.332383
H         3.475731    2.241268   -1.007601
H        -1.285267    0.606776   -2.346756
H        -2.962681    1.664281   -0.840745
H        -2.138945    3.166621    2.341674
H        -3.767599    0.246881    0.723460
H        -3.610244   -1.511954    2.557690
H        -3.143812   -2.270289    1.036132
H        -3.726690   -3.266129    2.397707
H        -4.130316   -4.286449    0.680128
H        -2.671842  -10.196728   -2.093848
H        -2.868794  -10.668355   -0.404879
H        -0.473794  -10.866257   -1.314870
H        -0.625143   -9.923881    0.174320
H        -0.510469   -8.715235   -2.645197
H         0.861714   -8.793884   -1.533763
H        -0.396542   -6.548421   -1.547927
H        -0.182969   -7.275339    0.041595
H        -2.553737   -5.242926   -0.369095
H        -7.724342   -4.120086   -0.079616
H        -9.052656   -2.049242    0.321167
H        -7.960426   -0.045547    1.312972
H        -6.909227    0.520968    3.670162
H        -6.953837    2.165002    5.129756
H        -6.263864    3.732602    4.589061
H        -5.335306    2.703868    5.693012
H         0.075572    2.014642    2.206332
H         1.610258    3.540215    1.404574
H         4.506791    3.760798    2.449309
H         3.283087    5.062481    2.426444
H         5.239737    3.145996   -0.950784
H         5.842420    3.049465    0.688325
H         7.069803    5.715951    0.916966
H         8.904507    6.324377    2.333559
H         9.400301    7.283932    0.914925
H        10.553377    6.126912    1.640601
H         5.902468    3.707536   -2.898654
H         5.472902    6.331079   -3.924039
H         5.409112    4.777683   -4.816714
H         6.951103    5.680002   -4.663003
