-1 1
 OpenBabel05192410563D

107111  0  0  1  0  0  0  0  0999 V2000
    0.5946    0.1949   -1.5273 O   0  0  0  0  0  0  0  0  0  0  0  0
   -0.2441    0.9596   -0.9522 C   0  0  0  0  0  0  0  0  0  0  0  0
   -0.2990    0.8302    0.5067 N   0  0  0  0  0  0  0  0  0  0  0  0
   -1.1027   -0.0363    1.2092 C   0  0  0  0  0  0  0  0  0  0  0  0
   -2.3170   -0.6125    0.7514 C   0  0  0  0  0  0  0  0  0  0  0  0
   -2.8745   -0.5837   -0.6529 C   0  0  0  0  0  0  0  0  0  0  0  0
   -2.2271   -1.3369   -1.5874 N   0  0  0  0  0  0  0  0  0  0  0  0
   -2.8122   -1.3786   -2.9162 C   0  0  0  0  0  0  0  0  0  0  0  0
   -1.7384   -1.6488   -3.9552 C   0  0  0  0  0  0  0  0  0  0  0  0
   -1.0278   -2.8203   -3.6508 O   0  0  0  0  0  0  0  0  0  0  0  0
   -0.3327   -2.6529   -2.4368 C   0  0  0  0  0  0  0  0  0  0  0  0
   -1.2781   -2.3960   -1.2706 C   0  0  0  0  0  0  0  0  0  0  0  0
   -3.9302   -0.0214   -0.8967 O   0  0  0  0  0  0  0  0  0  0  0  0
   -3.0814   -1.3782    1.6408 C   0  0  0  0  0  0  0  0  0  0  0  0
   -2.6309   -1.7524    2.9025 C   0  0  0  0  0  0  0  0  0  0  0  0
   -1.3684   -1.3066    3.3014 C   0  0  0  0  0  0  0  0  0  0  0  0
   -0.6586   -1.8945    4.3744 N   0  0  0  0  0  0  0  0  0  0  0  0
    0.3721   -2.7609    4.0455 C   0  0  0  0  0  0  0  0  0  0  0  0
    0.8002   -3.0001    2.7705 C   0  0  0  0  0  0  0  0  0  0  0  0
    1.9512   -3.7928    2.4917 C   0  0  0  0  0  0  0  0  0  0  0  0
    2.3891   -3.9028    1.0734 C   0  0  0  0  0  0  0  0  0  0  0  0
    2.5940   -2.7379    0.3003 C   0  0  0  0  0  0  0  0  0  0  0  0
    2.5879   -1.3516    0.8893 C   0  0  0  0  0  0  0  0  0  0  0  0
    2.8540   -2.8711   -1.0762 C   0  0  0  0  0  0  0  0  0  0  0  0
    3.0041   -1.6995   -1.8519 N   0  0  0  0  0  0  0  0  0  0  0  0
    4.0270   -1.5431   -2.7530 C   0  0  0  0  0  0  0  0  0  0  0  0
    4.1532   -0.2111   -3.4397 C   0  0  0  0  0  0  0  0  0  0  0  0
    3.1904    0.8145   -3.3827 C   0  0  0  0  0  0  0  0  0  0  0  0
    3.4187    2.0202   -4.0430 C   0  0  0  0  0  0  0  0  0  0  0  0
    2.5679    3.0601   -4.0573 O   0  0  0  0  0  0  0  0  0  0  0  0
    1.3399    2.9097   -3.3898 C   0  0  0  0  0  0  0  0  0  0  0  0
    4.6210    2.2131   -4.7712 C   0  0  0  0  0  0  0  0  0  0  0  0
    4.7545    3.4140   -5.3739 O   0  0  0  0  0  0  0  0  0  0  0  0
    5.9112    3.6666   -6.1126 C   0  0  0  0  0  0  0  0  0  0  0  0
    5.5611    1.1890   -4.8256 C   0  0  0  0  0  0  0  0  0  0  0  0
    5.3236   -0.0169   -4.1649 C   0  0  0  0  0  0  0  0  0  0  0  0
    4.8380   -2.4275   -2.9710 O   0  0  0  0  0  0  0  0  0  0  0  0
    2.9766   -4.1391   -1.6554 C   0  0  0  0  0  0  0  0  0  0  0  0
    2.8276   -5.2772   -0.8730 C   0  0  0  0  0  0  0  0  0  0  0  0
    2.5210   -5.1620    0.4804 C   0  0  0  0  0  0  0  0  0  0  0  0
    2.5744   -4.3913    3.5427 C   0  0  0  0  0  0  0  0  0  0  0  0
    2.0978   -4.2401    4.8305 N   0  0  0  0  0  0  0  0  0  0  0  0
    2.7417   -4.9212    5.9398 C   0  0  0  0  0  0  0  0  0  0  0  0
    1.0059   -3.4514    5.1670 C   0  0  0  0  0  0  0  0  0  0  0  0
    0.6056   -3.3730    6.3246 O   0  0  0  0  0  0  0  0  0  0  0  0
   -0.6820   -0.3954    2.5070 C   0  0  0  0  0  0  0  0  0  0  0  0
   -1.0616    1.9162   -1.4956 C   0  0  0  0  0  3  0  0  0  0  0  0
   -1.6563    3.0622   -0.7469 C   0  0  0  0  0  0  0  0  0  0  0  0
   -3.4548    3.4270   -0.9946 S   0  0  0  0  0  0  0  0  0  0  0  0
   -4.2483    2.6275    0.4294 C   0  0  0  0  0  0  0  0  0  0  0  0
   -4.3593    3.5017    1.6834 C   0  0  2  0  0  0  0  0  0  0  0  0
   -4.9848    2.9742    2.4216 H   0  0  0  0  0  0  0  0  0  0  0  0
   -5.0159    4.7440    1.3840 N   0  0  0  0  0  0  0  0  0  0  0  0
   -5.7208    5.4200    2.3343 C   0  0  0  0  0  0  0  0  0  0  0  0
   -6.0082    6.8681    1.9892 C   0  0  0  0  0  0  0  0  0  0  0  0
   -6.0903    4.9122    3.3759 O   0  0  0  0  0  0  0  0  0  0  0  0
   -3.0065    3.7865    2.3674 C   0  0  0  0  0  0  0  0  0  0  0  0
   -2.3322    2.6872    2.7938 N   0  0  0  0  0  0  0  0  0  0  0  0
   -1.0241    2.7820    3.3916 C   0  0  0  0  0  0  0  0  0  0  0  0
   -2.5981    4.9212    2.5292 O   0  0  0  0  0  0  0  0  0  0  0  0
    0.6264    0.9091    0.9138 H   0  0  0  0  0  0  0  0  0  0  0  0
   -3.3079   -0.4170   -3.0996 H   0  0  0  0  0  0  0  0  0  0  0  0
   -3.5854   -2.1701   -2.9677 H   0  0  0  0  0  0  0  0  0  0  0  0
   -1.0500   -0.7824   -4.0012 H   0  0  0  0  0  0  0  0  0  0  0  0
   -2.2001   -1.7872   -4.9440 H   0  0  0  0  0  0  0  0  0  0  0  0
    0.3568   -1.7965   -2.5078 H   0  0  0  0  0  0  0  0  0  0  0  0
    0.2401   -3.5716   -2.2502 H   0  0  0  0  0  0  0  0  0  0  0  0
   -0.6782   -2.1130   -0.3970 H   0  0  0  0  0  0  0  0  0  0  0  0
   -1.8293   -3.3249   -1.0239 H   0  0  0  0  0  0  0  0  0  0  0  0
   -4.0388   -1.7616    1.2791 H   0  0  0  0  0  0  0  0  0  0  0  0
   -3.1993   -2.4495    3.5204 H   0  0  0  0  0  0  0  0  0  0  0  0
   -1.1346   -2.1236    5.2403 H   0  0  0  0  0  0  0  0  0  0  0  0
    0.2830   -2.5435    1.9293 H   0  0  0  0  0  0  0  0  0  0  0  0
    1.7017   -0.7943    0.5502 H   0  0  0  0  0  0  0  0  0  0  0  0
    3.4637   -0.7916    0.5279 H   0  0  0  0  0  0  0  0  0  0  0  0
    2.6083   -1.3639    1.9852 H   0  0  0  0  0  0  0  0  0  0  0  0
    2.3386   -0.9395   -1.6754 H   0  0  0  0  0  0  0  0  0  0  0  0
    2.2532    0.6777   -2.8302 H   0  0  0  0  0  0  0  0  0  0  0  0
    1.4697    2.7286   -2.3112 H   0  0  0  0  0  0  0  0  0  0  0  0
    0.7603    2.0657   -3.7961 H   0  0  0  0  0  0  0  0  0  0  0  0
    0.7822    3.8425   -3.5373 H   0  0  0  0  0  0  0  0  0  0  0  0
    6.8216    3.6151   -5.4879 H   0  0  0  0  0  0  0  0  0  0  0  0
    5.8149    4.6841   -6.5127 H   0  0  0  0  0  0  0  0  0  0  0  0
    6.0261    2.9622   -6.9566 H   0  0  0  0  0  0  0  0  0  0  0  0
    6.4889    1.3182   -5.3834 H   0  0  0  0  0  0  0  0  0  0  0  0
    6.0493   -0.8298   -4.2021 H   0  0  0  0  0  0  0  0  0  0  0  0
    3.1957   -4.2184   -2.7184 H   0  0  0  0  0  0  0  0  0  0  0  0
    2.9226   -6.2644   -1.3306 H   0  0  0  0  0  0  0  0  0  0  0  0
    2.3473   -6.0549    1.0859 H   0  0  0  0  0  0  0  0  0  0  0  0
    3.4765   -4.9943    3.4317 H   0  0  0  0  0  0  0  0  0  0  0  0
    3.6300   -5.4491    5.5736 H   0  0  0  0  0  0  0  0  0  0  0  0
    2.0495   -5.6386    6.4038 H   0  0  0  0  0  0  0  0  0  0  0  0
    3.0308   -4.1964    6.7132 H   0  0  0  0  0  0  0  0  0  0  0  0
    0.2927   -0.0465    2.8560 H   0  0  0  0  0  0  0  0  0  0  0  0
   -1.0956    1.9660   -2.5868 H   0  0  0  0  0  0  0  0  0  0  0  0
   -1.1865    4.0133   -1.0518 H   0  0  0  0  0  0  0  0  0  0  0  0
   -1.4836    2.9606    0.3316 H   0  0  0  0  0  0  0  0  0  0  0  0
   -3.7437    1.6736    0.6208 H   0  0  0  0  0  0  0  0  0  0  0  0
   -5.2593    2.3590    0.0951 H   0  0  0  0  0  0  0  0  0  0  0  0
   -4.5774    5.2725    0.6355 H   0  0  0  0  0  0  0  0  0  0  0  0
   -5.1146    7.4646    2.2290 H   0  0  0  0  0  0  0  0  0  0  0  0
   -6.8473    7.2233    2.5989 H   0  0  0  0  0  0  0  0  0  0  0  0
   -6.2339    7.0020    0.9214 H   0  0  0  0  0  0  0  0  0  0  0  0
   -2.6731    1.7671    2.5416 H   0  0  0  0  0  0  0  0  0  0  0  0
   -0.9301    2.0709    4.2243 H   0  0  0  0  0  0  0  0  0  0  0  0
   -0.8934    3.8053    3.7647 H   0  0  0  0  0  0  0  0  0  0  0  0
   -0.2290    2.5730    2.6562 H   0  0  0  0  0  0  0  0  0  0  0  0
  1  2  2  0  0  0  0
  2  3  1  0  0  0  0
  3 61  1  0  0  0  0
  3  4  1  0  0  0  0
  4 46  1  0  0  0  0
  5  4  2  0  0  0  0
  5 14  1  0  0  0  0
  6  5  1  0  0  0  0
  7 12  1  0  0  0  0
  7  6  1  0  0  0  0
  8  7  1  0  0  0  0
  9 10  1  0  0  0  0
  9  8  1  0  0  0  0
 10 11  1  0  0  0  0
 11 67  1  0  0  0  0
 11 12  1  0  0  0  0
 12 69  1  0  0  0  0
 12 68  1  0  0  0  0
 13  6  2  0  0  0  0
 14 15  2  0  0  0  0
 15 16  1  0  0  0  0
 15 71  1  0  0  0  0
 16 17  1  0  0  0  0
 17 72  1  0  0  0  0
 18 17  1  0  0  0  0
 18 44  1  0  0  0  0
 19 18  2  0  0  0  0
 20 19  1  0  0  0  0
 20 41  2  0  0  0  0
 21 20  1  0  0  0  0
 22 23  1  0  0  0  0
 22 21  2  0  0  0  0
 23 76  1  0  0  0  0
 24 22  1  0  0  0  0
 25 77  1  0  0  0  0
 25 24  1  0  0  0  0
 26 25  1  0  0  0  0
 27 28  1  0  0  0  0
 27 26  1  0  0  0  0
 28 78  1  0  0  0  0
 29 28  2  0  0  0  0
 30 29  1  0  0  0  0
 30 31  1  0  0  0  0
 31 79  1  0  0  0  0
 32 29  1  0  0  0  0
 33 32  1  0  0  0  0
 34 82  1  0  0  0  0
 34 33  1  0  0  0  0
 35 32  2  0  0  0  0
 35 36  1  0  0  0  0
 36 27  2  0  0  0  0
 37 26  2  0  0  0  0
 38 24  2  0  0  0  0
 38 39  1  0  0  0  0
 39 40  2  0  0  0  0
 40 21  1  0  0  0  0
 40 89  1  0  0  0  0
 41 42  1  0  0  0  0
 42 44  1  0  0  0  0
 42 43  1  0  0  0  0
 43 92  1  0  0  0  0
 43 93  1  0  0  0  0
 44 45  2  0  0  0  0
 46 94  1  0  0  0  0
 46 16  2  0  0  0  0
 47  2  1  0  0  0  0
 47 48  1  0  0  0  0
 48 97  1  0  0  0  0
 49 48  1  0  0  0  0
 49 50  1  0  0  0  0
 50 98  1  0  0  0  0
 50 51  1  0  0  0  0
 51 57  1  0  0  0  0
 51 52  1  1  0  0  0
 53 51  1  0  0  0  0
 53 54  1  0  0  0  0
 54 56  2  0  0  0  0
 55101  1  0  0  0  0
 55 54  1  0  0  0  0
 55102  1  0  0  0  0
 57 60  2  0  0  0  0
 57 58  1  0  0  0  0
 58 59  1  0  0  0  0
 59106  1  0  0  0  0
 59105  1  0  0  0  0
 62  8  1  0  0  0  0
 63  8  1  0  0  0  0
 64  9  1  0  0  0  0
 65  9  1  0  0  0  0
 66 11  1  0  0  0  0
 70 14  1  0  0  0  0
 73 19  1  0  0  0  0
 74 23  1  0  0  0  0
 75 23  1  0  0  0  0
 80 31  1  0  0  0  0
 81 31  1  0  0  0  0
 83 34  1  0  0  0  0
 84 34  1  0  0  0  0
 85 35  1  0  0  0  0
 86 36  1  0  0  0  0
 87 38  1  0  0  0  0
 88 39  1  0  0  0  0
 90 41  1  0  0  0  0
 91 43  1  0  0  0  0
 95 47  1  0  0  0  0
 96 48  1  0  0  0  0
 99 50  1  0  0  0  0
100 53  1  0  0  0  0
103 55  1  0  0  0  0
104 58  1  0  0  0  0
107 59  1  0  0  0  0
M  END
