-1 1
 OpenBabel05232414493D

107110  0  0  1  0  0  0  0  0999 V2000
    1.6041   -7.4010  -10.0679 O   0  0  0  0  0  0  0  0  0  0  0  0
    0.7825   -7.3295   -9.1471 C   0  0  0  0  0  0  0  0  0  0  0  0
    1.0313   -8.1367   -8.0121 N   0  0  0  0  0  0  0  0  0  0  0  0
    0.1424   -8.8736   -7.2306 C   0  0  0  0  0  0  0  0  0  0  0  0
   -1.0758   -9.3998   -7.7087 C   0  0  0  0  0  0  0  0  0  0  0  0
   -1.4933   -9.3934   -9.1573 C   0  0  0  0  0  0  0  0  0  0  0  0
   -0.5733   -9.9240  -10.0401 N   0  0  0  0  0  0  0  0  0  0  0  0
   -0.8806   -9.8957  -11.4565 C   0  0  0  0  0  0  0  0  0  0  0  0
    0.3952   -9.6172  -12.2355 C   0  0  0  0  0  0  0  0  0  0  0  0
    1.4016  -10.5663  -11.9387 O   0  0  0  0  0  0  0  0  0  0  0  0
    1.7231  -10.5613  -10.5653 C   0  0  0  0  0  0  0  0  0  0  0  0
    0.4962  -10.8475   -9.7081 C   0  0  0  0  0  0  0  0  0  0  0  0
   -2.5846   -9.0197   -9.5295 O   0  0  0  0  0  0  0  0  0  0  0  0
   -1.8980  -10.1026   -6.8266 C   0  0  0  0  0  0  0  0  0  0  0  0
   -1.4744  -10.4598   -5.5491 C   0  0  0  0  0  0  0  0  0  0  0  0
   -0.2068  -10.0581   -5.1227 C   0  0  0  0  0  0  0  0  0  0  0  0
    0.3885  -10.5520   -3.9435 N   0  0  0  0  0  0  0  0  0  0  0  0
    1.5262  -11.3223   -4.0084 C   0  0  0  0  0  0  0  0  0  0  0  0
    2.1584  -11.6932   -5.1634 C   0  0  0  0  0  0  0  0  0  0  0  0
    3.3955  -12.4049   -5.1442 C   0  0  0  0  0  0  0  0  0  0  0  0
    4.0536  -12.7299   -6.4406 C   0  0  0  0  0  0  0  0  0  0  0  0
    4.4009  -11.7135   -7.3574 C   0  0  0  0  0  0  0  0  0  0  0  0
    4.2752  -10.2467   -7.0435 C   0  0  0  0  0  0  0  0  0  0  0  0
    4.9097  -12.0974   -8.6126 C   0  0  0  0  0  0  0  0  0  0  0  0
    5.2356  -11.1090   -9.5778 N   0  0  0  0  0  0  0  0  0  0  0  0
    6.2877  -10.2322   -9.4499 C   0  0  0  0  0  0  0  0  0  0  0  0
    6.4377   -9.2586  -10.5768 C   0  0  0  0  0  0  0  0  0  0  0  0
    5.3405   -8.8160  -11.3394 C   0  0  0  0  0  0  0  0  0  0  0  0
    5.5182   -7.9138  -12.3832 C   0  0  0  0  0  0  0  0  0  0  0  0
    4.5399   -7.4327  -13.1568 O   0  0  0  0  0  0  0  0  0  0  0  0
    3.2079   -7.8067  -12.8717 C   0  0  0  0  0  0  0  0  0  0  0  0
    6.8277   -7.4414  -12.6735 C   0  0  0  0  0  0  0  0  0  0  0  0
    6.9169   -6.5781  -13.7035 O   0  0  0  0  0  0  0  0  0  0  0  0
    8.1635   -6.0311  -14.0180 C   0  0  0  0  0  0  0  0  0  0  0  0
    7.9029   -7.8697  -11.9001 C   0  0  0  0  0  0  0  0  0  0  0  0
    7.7077   -8.7695  -10.8485 C   0  0  0  0  0  0  0  0  0  0  0  0
    7.0436  -10.2580   -8.4983 O   0  0  0  0  0  0  0  0  0  0  0  0
    5.0734  -13.4427   -8.9464 C   0  0  0  0  0  0  0  0  0  0  0  0
    4.7435  -14.4344   -8.0304 C   0  0  0  0  0  0  0  0  0  0  0  0
    4.2378  -14.0746   -6.7857 C   0  0  0  0  0  0  0  0  0  0  0  0
    3.9042  -12.7710   -3.9369 C   0  0  0  0  0  0  0  0  0  0  0  0
    3.2389  -12.4725   -2.7649 N   0  0  0  0  0  0  0  0  0  0  0  0
    3.7720  -12.8977   -1.4821 C   0  0  0  0  0  0  0  0  0  0  0  0
    2.0466  -11.7682   -2.7131 C   0  0  0  0  0  0  0  0  0  0  0  0
    1.4720  -11.5560   -1.6511 O   0  0  0  0  0  0  0  0  0  0  0  0
    0.5446   -9.2033   -5.9311 C   0  0  0  0  0  0  0  0  0  0  0  0
   -0.3226   -6.4203   -9.1039 C   0  0  0  0  0  3  0  0  0  0  0  0
   -0.8241   -5.8804   -7.9352 C   0  0  0  0  0  3  0  0  0  0  0  0
   -3.0469   -6.5732   -6.9731 S   0  0  0  0  0  1  0  0  0  0  0  0
   -2.6468   -7.0109   -5.2517 C   0  0  0  0  0  0  0  0  0  0  0  0
   -2.2651   -5.8272   -4.3407 C   0  0  2  0  0  0  0  0  0  0  0  0
   -2.2338   -6.1648   -3.2904 H   0  0  0  0  0  0  0  0  0  0  0  0
   -3.2578   -4.8007   -4.4432 N   0  0  0  0  0  0  0  0  0  0  0  0
   -3.4740   -3.8896   -3.4660 C   0  0  0  0  0  0  0  0  0  0  0  0
   -4.3428   -2.7161   -3.8820 C   0  0  0  0  0  0  0  0  0  0  0  0
   -3.0114   -3.9847   -2.3415 O   0  0  0  0  0  0  0  0  0  0  0  0
   -0.8693   -5.2494   -4.6479 C   0  0  0  0  0  0  0  0  0  0  0  0
    0.1452   -6.1609   -4.5601 N   0  0  0  0  0  0  0  0  0  0  0  0
    1.4983   -5.8504   -4.9438 C   0  0  0  0  0  0  0  0  0  0  0  0
   -0.6828   -4.0814   -4.9219 O   0  0  0  0  0  0  0  0  0  0  0  0
    2.0094   -8.3877   -7.9229 H   0  0  0  0  0  0  0  0  0  0  0  0
   -1.6304   -9.1140  -11.6304 H   0  0  0  0  0  0  0  0  0  0  0  0
   -1.3176  -10.8629  -11.7745 H   0  0  0  0  0  0  0  0  0  0  0  0
    0.7432   -8.6005  -11.9805 H   0  0  0  0  0  0  0  0  0  0  0  0
    0.2085   -9.6825  -13.3173 H   0  0  0  0  0  0  0  0  0  0  0  0
    2.1406   -9.5791  -10.2772 H   0  0  0  0  0  0  0  0  0  0  0  0
    2.4708  -11.3531  -10.4049 H   0  0  0  0  0  0  0  0  0  0  0  0
    0.7565  -10.7806   -8.6457 H   0  0  0  0  0  0  0  0  0  0  0  0
    0.1559  -11.8845   -9.9009 H   0  0  0  0  0  0  0  0  0  0  0  0
   -2.8697  -10.4371   -7.1946 H   0  0  0  0  0  0  0  0  0  0  0  0
   -2.0947  -11.0917   -4.9109 H   0  0  0  0  0  0  0  0  0  0  0  0
   -0.1352  -10.6267   -3.0785 H   0  0  0  0  0  0  0  0  0  0  0  0
    1.7307  -11.4201   -6.1275 H   0  0  0  0  0  0  0  0  0  0  0  0
    3.8000   -9.7169   -7.8843 H   0  0  0  0  0  0  0  0  0  0  0  0
    5.2786   -9.8112   -6.9249 H   0  0  0  0  0  0  0  0  0  0  0  0
    3.7042  -10.0567   -6.1290 H   0  0  0  0  0  0  0  0  0  0  0  0
    4.8051  -11.1897  -10.4908 H   0  0  0  0  0  0  0  0  0  0  0  0
    4.3305   -9.1390  -11.0855 H   0  0  0  0  0  0  0  0  0  0  0  0
    2.8845   -7.4660  -11.8738 H   0  0  0  0  0  0  0  0  0  0  0  0
    3.0684   -8.8998  -12.9401 H   0  0  0  0  0  0  0  0  0  0  0  0
    2.5858   -7.3210  -13.6331 H   0  0  0  0  0  0  0  0  0  0  0  0
    8.5862   -5.4572  -13.1740 H   0  0  0  0  0  0  0  0  0  0  0  0
    8.0044   -5.3509  -14.8639 H   0  0  0  0  0  0  0  0  0  0  0  0
    8.8917   -6.8068  -14.3170 H   0  0  0  0  0  0  0  0  0  0  0  0
    8.9085   -7.5033  -12.1066 H   0  0  0  0  0  0  0  0  0  0  0  0
    8.5454   -9.0984  -10.2320 H   0  0  0  0  0  0  0  0  0  0  0  0
    5.4750  -13.6989   -9.9292 H   0  0  0  0  0  0  0  0  0  0  0  0
    4.8720  -15.4873   -8.2898 H   0  0  0  0  0  0  0  0  0  0  0  0
    3.9429  -14.8448   -6.0693 H   0  0  0  0  0  0  0  0  0  0  0  0
    4.8547  -13.2949   -3.8302 H   0  0  0  0  0  0  0  0  0  0  0  0
    4.7487  -13.3712   -1.6355 H   0  0  0  0  0  0  0  0  0  0  0  0
    3.0866  -13.6082   -0.9981 H   0  0  0  0  0  0  0  0  0  0  0  0
    3.8778  -12.0336   -0.8120 H   0  0  0  0  0  0  0  0  0  0  0  0
    1.5083   -8.8385   -5.5681 H   0  0  0  0  0  0  0  0  0  0  0  0
   -0.6001   -5.9939  -10.0697 H   0  0  0  0  0  0  0  0  0  0  0  0
   -1.3111   -4.9093   -7.9563 H   0  0  0  0  0  0  0  0  0  0  0  0
   -0.3625   -6.1478   -6.9865 H   0  0  0  0  0  0  0  0  0  0  0  0
   -1.8452   -7.7650   -5.2328 H   0  0  0  0  0  0  0  0  0  0  0  0
   -3.5289   -7.4959   -4.8039 H   0  0  0  0  0  0  0  0  0  0  0  0
   -3.5823   -4.6509   -5.3988 H   0  0  0  0  0  0  0  0  0  0  0  0
   -3.6942   -1.9495   -4.3331 H   0  0  0  0  0  0  0  0  0  0  0  0
   -4.8220   -2.2910   -2.9915 H   0  0  0  0  0  0  0  0  0  0  0  0
   -5.1042   -3.0005   -4.6225 H   0  0  0  0  0  0  0  0  0  0  0  0
   -0.1037   -7.1364   -4.4590 H   0  0  0  0  0  0  0  0  0  0  0  0
    2.2173   -6.2220   -4.1968 H   0  0  0  0  0  0  0  0  0  0  0  0
    1.5845   -4.7586   -5.0114 H   0  0  0  0  0  0  0  0  0  0  0  0
    1.7533   -6.2787   -5.9295 H   0  0  0  0  0  0  0  0  0  0  0  0
  1  2  2  0  0  0  0
  2 47  1  0  0  0  0
  2  3  1  0  0  0  0
  3 61  1  0  0  0  0
  3  4  1  0  0  0  0
  4 46  1  0  0  0  0
  5  4  2  0  0  0  0
  5 14  1  0  0  0  0
  6  5  1  0  0  0  0
  7 12  1  0  0  0  0
  7  6  1  0  0  0  0
  8  7  1  0  0  0  0
  9 64  1  0  0  0  0
  9 10  1  0  0  0  0
  9  8  1  0  0  0  0
 10 11  1  0  0  0  0
 11 67  1  0  0  0  0
 11 66  1  0  0  0  0
 11 12  1  0  0  0  0
 12 68  1  0  0  0  0
 13  6  2  0  0  0  0
 14 15  2  0  0  0  0
 15 16  1  0  0  0  0
 15 71  1  0  0  0  0
 16 17  1  0  0  0  0
 17 72  1  0  0  0  0
 18 17  1  0  0  0  0
 18 44  1  0  0  0  0
 19 20  1  0  0  0  0
 19 18  2  0  0  0  0
 20 41  2  0  0  0  0
 21 20  1  0  0  0  0
 22 23  1  0  0  0  0
 22 21  2  0  0  0  0
 23 75  1  0  0  0  0
 23 76  1  0  0  0  0
 24 22  1  0  0  0  0
 25 26  1  0  0  0  0
 25 24  1  0  0  0  0
 26 37  2  0  0  0  0
 27 26  1  0  0  0  0
 28 78  1  0  0  0  0
 28 27  2  0  0  0  0
 29 28  1  0  0  0  0
 30 31  1  0  0  0  0
 30 29  1  0  0  0  0
 31 79  1  0  0  0  0
 32 29  2  0  0  0  0
 32 35  1  0  0  0  0
 33 32  1  0  0  0  0
 34 33  1  0  0  0  0
 34 82  1  0  0  0  0
 35 36  2  0  0  0  0
 36 27  1  0  0  0  0
 36 86  1  0  0  0  0
 38 24  2  0  0  0  0
 38 39  1  0  0  0  0
 39 40  2  0  0  0  0
 40 21  1  0  0  0  0
 40 89  1  0  0  0  0
 41 90  1  0  0  0  0
 41 42  1  0  0  0  0
 42 44  1  0  0  0  0
 42 43  1  0  0  0  0
 43 92  1  0  0  0  0
 43 93  1  0  0  0  0
 44 45  2  0  0  0  0
 46 94  1  0  0  0  0
 46 16  2  0  0  0  0
 47 48  1  0  0  0  0
 48 97  1  0  0  0  0
 49 50  1  0  0  0  0
 50 98  1  0  0  0  0
 50 99  1  0  0  0  0
 50 51  1  0  0  0  0
 51 52  1  1  0  0  0
 53 51  1  0  0  0  0
 53 54  1  0  0  0  0
 54 56  2  0  0  0  0
 55 54  1  0  0  0  0
 55102  1  0  0  0  0
 57 58  1  0  0  0  0
 57 51  1  0  0  0  0
 58104  1  0  0  0  0
 59 58  1  0  0  0  0
 59105  1  0  0  0  0
 60 57  2  0  0  0  0
 62  8  1  0  0  0  0
 63  8  1  0  0  0  0
 65  9  1  0  0  0  0
 69 12  1  0  0  0  0
 70 14  1  0  0  0  0
 73 19  1  0  0  0  0
 74 23  1  0  0  0  0
 77 25  1  0  0  0  0
 80 31  1  0  0  0  0
 81 31  1  0  0  0  0
 83 34  1  0  0  0  0
 84 34  1  0  0  0  0
 85 35  1  0  0  0  0
 87 38  1  0  0  0  0
 88 39  1  0  0  0  0
 91 43  1  0  0  0  0
 95 47  1  0  0  0  0
 96 48  1  0  0  0  0
100 53  1  0  0  0  0
101 55  1  0  0  0  0
103 55  1  0  0  0  0
106 59  1  0  0  0  0
107 59  1  0  0  0  0
M  END
