107
-1 1
O         0.594575    0.194878   -1.527290
C        -0.244086    0.959553   -0.952172
N        -0.298999    0.830185    0.506706
C        -1.102736   -0.036316    1.209155
C        -2.317007   -0.612452    0.751357
C        -2.874531   -0.583679   -0.652899
N        -2.227110   -1.336899   -1.587361
C        -2.812184   -1.378603   -2.916166
C        -1.738431   -1.648845   -3.955205
O        -1.027807   -2.820319   -3.650775
C        -0.332712   -2.652865   -2.436761
C        -1.278123   -2.396030   -1.270630
O        -3.930234   -0.021372   -0.896747
C        -3.081407   -1.378176    1.640816
C        -2.630940   -1.752354    2.902514
C        -1.368430   -1.306595    3.301395
N        -0.658644   -1.894461    4.374401
C         0.372064   -2.760904    4.045487
C         0.800191   -3.000143    2.770529
C         1.951195   -3.792763    2.491670
C         2.389148   -3.902802    1.073354
C         2.593968   -2.737893    0.300321
C         2.587903   -1.351637    0.889335
C         2.853989   -2.871058   -1.076231
N         3.004065   -1.699521   -1.851921
C         4.027035   -1.543084   -2.752987
C         4.153163   -0.211132   -3.439652
C         3.190400    0.814454   -3.382724
C         3.418716    2.020183   -4.042957
O         2.567861    3.060100   -4.057313
C         1.339930    2.909745   -3.389820
C         4.621043    2.213057   -4.771163
O         4.754547    3.413994   -5.373932
C         5.911155    3.666561   -6.112555
C         5.561104    1.189031   -4.825595
C         5.323586   -0.016941   -4.164882
O         4.838001   -2.427476   -2.971040
C         2.976574   -4.139069   -1.655382
C         2.827565   -5.277174   -0.873044
C         2.520980   -5.162034    0.480395
C         2.574433   -4.391265    3.542734
N         2.097815   -4.240064    4.830525
C         2.741695   -4.921241    5.939804
C         1.005924   -3.451416    5.167046
O         0.605557   -3.372971    6.324575
C        -0.681968   -0.395357    2.506982
C        -1.061618    1.916237   -1.495553
C        -1.656298    3.062186   -0.746903
S        -3.454793    3.427014   -0.994562
C        -4.248339    2.627463    0.429368
C        -4.359285    3.501733    1.683425
H        -4.984830    2.974201    2.421574
N        -5.015864    4.743960    1.384030
C        -5.720751    5.420030    2.334310
C        -6.008227    6.868100    1.989158
O        -6.090304    4.912166    3.375926
C        -3.006485    3.786487    2.367415
N        -2.332183    2.687210    2.793842
C        -1.024072    2.781984    3.391604
O        -2.598068    4.921157    2.529209
H         0.626402    0.909134    0.913807
H        -3.307939   -0.417042   -3.099637
H        -3.585379   -2.170063   -2.967684
H        -1.050003   -0.782438   -4.001160
H        -2.200144   -1.787248   -4.943984
H         0.356763   -1.796506   -2.507770
H         0.240121   -3.571555   -2.250175
H        -0.678193   -2.113044   -0.397032
H        -1.829344   -3.324941   -1.023902
H        -4.038769   -1.761627    1.279073
H        -3.199284   -2.449528    3.520445
H        -1.134639   -2.123633    5.240343
H         0.283046   -2.543463    1.929297
H         1.701700   -0.794333    0.550216
H         3.463744   -0.791564    0.527922
H         2.608261   -1.363919    1.985187
H         2.338558   -0.939548   -1.675405
H         2.253164    0.677718   -2.830218
H         1.469741    2.728586   -2.311177
H         0.760259    2.065708   -3.796138
H         0.782157    3.842465   -3.537260
H         6.821639    3.615148   -5.487921
H         5.814943    4.684062   -6.512660
H         6.026098    2.962223   -6.956606
H         6.488880    1.318174   -5.383433
H         6.049338   -0.829769   -4.202140
H         3.195704   -4.218430   -2.718423
H         2.922618   -6.264429   -1.330633
H         2.347317   -6.054891    1.085932
H         3.476465   -4.994263    3.431681
H         3.630044   -5.449099    5.573640
H         2.049493   -5.638634    6.403824
H         3.030816   -4.196449    6.713212
H         0.292665   -0.046458    2.855981
H        -1.095567    1.966002   -2.586831
H        -1.186550    4.013259   -1.051833
H        -1.483607    2.960604    0.331605
H        -3.743712    1.673634    0.620835
H        -5.259271    2.359019    0.095091
H        -4.577366    5.272493    0.635505
H        -5.114558    7.464638    2.228969
H        -6.847256    7.223291    2.598936
H        -6.233910    7.001953    0.921351
H        -2.673092    1.767070    2.541590
H        -0.930120    2.070940    4.224292
H        -0.893442    3.805313    3.764686
H        -0.228987    2.572959    2.656227
