-1 1
 OpenBabel05192410563D

 95 98  0  0  1  0  0  0  0  0999 V2000
    3.5118    3.0875   -0.4736 O   0  0  0  0  0  0  0  0  0  0  0  0
    3.6786    4.1094    0.2312 C   0  0  0  0  0  0  0  0  0  0  0  0
    2.4842    4.7377    0.7655 N   0  0  0  0  0  0  0  0  0  0  0  0
    2.1795    6.0913    0.3387 C   0  0  0  0  0  0  0  0  0  0  0  0
    1.4376    6.1316   -1.0024 C   0  0  0  0  0  0  0  0  0  0  0  0
    0.1777    5.2695   -0.9587 C   0  0  0  0  0  0  0  0  0  0  0  0
    0.5235    3.8542   -0.5065 C   0  0  1  0  0  0  0  0  0  0  0  0
    1.3172    3.8921    0.8093 C   0  0  0  0  0  0  0  0  0  0  0  0
   -0.6718    3.0252   -0.3233 N   0  0  0  0  0  0  0  0  0  0  0  0
   -0.9259    1.8775   -1.0300 C   0  0  0  0  0  0  0  0  0  0  0  0
   -1.4285    0.7380   -0.4497 C   0  0  0  0  0  0  0  0  0  0  0  0
   -1.7734   -0.4202   -1.2141 C   0  0  0  0  0  0  0  0  0  0  0  0
   -2.2658   -1.6548   -0.5461 C   0  0  0  0  0  0  0  0  0  0  0  0
   -3.4721   -2.2829   -0.9257 C   0  0  0  0  0  0  0  0  0  0  0  0
   -4.3911   -1.6839   -1.9555 C   0  0  0  0  0  0  0  0  0  0  0  0
   -3.8297   -3.4768   -0.2698 C   0  0  0  0  0  0  0  0  0  0  0  0
   -5.0266   -4.1600   -0.6082 N   0  0  0  0  0  0  0  0  0  0  0  0
   -5.3017   -4.6828   -1.8504 C   0  0  0  0  0  0  0  0  0  0  0  0
   -6.6138   -5.3980   -1.9623 C   0  0  0  0  0  0  0  0  0  0  0  0
   -6.7812   -6.3026   -3.0158 C   0  0  0  0  0  0  0  0  0  0  0  0
   -7.9663   -6.9983   -3.1935 C   0  0  0  0  0  0  0  0  0  0  0  0
   -9.0618   -6.8044   -2.3194 C   0  0  0  0  0  0  0  0  0  0  0  0
  -10.2419   -7.4935   -2.4864 N   0  0  0  0  0  0  0  0  0  0  0  0
  -11.3495   -7.2514   -1.5949 C   0  0  0  0  0  0  0  0  0  0  0  0
  -10.3925   -8.4066   -3.5932 C   0  0  0  0  0  0  0  0  0  0  0  0
   -8.8987   -5.8682   -1.2735 C   0  0  0  0  0  0  0  0  0  0  0  0
   -7.6999   -5.1869   -1.1070 C   0  0  0  0  0  0  0  0  0  0  0  0
   -4.5433   -4.5812   -2.7938 O   0  0  0  0  0  0  0  0  0  0  0  0
   -3.0511   -3.9964    0.7665 C   0  0  0  0  0  0  0  0  0  0  0  0
   -1.8946   -3.3386    1.1674 C   0  0  0  0  0  0  0  0  0  0  0  0
   -1.5020   -2.1826    0.5038 C   0  0  0  0  0  0  0  0  0  0  0  0
   -1.5512   -0.3847   -2.5563 C   0  0  0  0  0  0  0  0  0  0  0  0
   -1.0454    0.7381   -3.1632 N   0  0  0  0  0  0  0  0  0  0  0  0
   -0.8446    0.7710   -4.6012 C   0  0  0  0  0  0  0  0  0  0  0  0
   -0.7509    1.9244   -2.4944 C   0  0  0  0  0  0  0  0  0  0  0  0
   -0.3877    2.9037   -3.1287 O   0  0  0  0  0  0  0  0  0  0  0  0
    4.9064    4.6911    0.5749 C   0  0  0  0  0  3  0  0  0  0  0  0
    5.1293    5.6195    1.6922 C   0  0  0  0  0  0  0  0  0  0  0  0
    5.4118    4.8510    3.4216 S   0  0  0  0  0  0  0  0  0  0  0  0
    7.0767    4.1339    3.2364 C   0  0  0  0  0  0  0  0  0  0  0  0
    7.1588    2.6851    3.7583 C   0  0  2  0  0  0  0  0  0  0  0  0
    6.4451    2.5867    4.5964 H   0  0  0  0  0  0  0  0  0  0  0  0
    8.4838    2.3394    4.2221 N   0  0  0  0  0  0  0  0  0  0  0  0
    9.0214    2.8095    5.3697 C   0  0  0  0  0  0  0  0  0  0  0  0
   10.3595    2.1949    5.7516 C   0  0  0  0  0  0  0  0  0  0  0  0
    8.5014    3.6685    6.0615 O   0  0  0  0  0  0  0  0  0  0  0  0
    6.8096    1.6094    2.7050 C   0  0  0  0  0  0  0  0  0  0  0  0
    5.7421    1.8369    1.9356 N   0  0  0  0  0  0  0  0  0  0  0  0
    5.3731    0.9467    0.8554 C   0  0  0  0  0  0  0  0  0  0  0  0
    7.5143    0.6063    2.6047 O   0  0  0  0  0  0  0  0  0  0  0  0
    3.1164    6.6569    0.2584 H   0  0  0  0  0  0  0  0  0  0  0  0
    1.5577    6.5858    1.1128 H   0  0  0  0  0  0  0  0  0  0  0  0
    2.1140    5.7518   -1.7865 H   0  0  0  0  0  0  0  0  0  0  0  0
    1.1867    7.1738   -1.2648 H   0  0  0  0  0  0  0  0  0  0  0  0
   -0.3181    5.2172   -1.9389 H   0  0  0  0  0  0  0  0  0  0  0  0
   -0.5464    5.7024   -0.2411 H   0  0  0  0  0  0  0  0  0  0  0  0
    1.1845    3.3850   -1.2460 H   0  0  0  0  0  0  0  0  0  0  0  0
    1.6327    2.8713    1.0647 H   0  0  0  0  0  0  0  0  0  0  0  0
    0.6435    4.2610    1.6141 H   0  0  0  0  0  0  0  0  0  0  0  0
   -0.9517    2.9567    0.6492 H   0  0  0  0  0  0  0  0  0  0  0  0
   -1.5703    0.7146    0.6346 H   0  0  0  0  0  0  0  0  0  0  0  0
   -4.2198   -2.1287   -2.9470 H   0  0  0  0  0  0  0  0  0  0  0  0
   -4.2499   -0.5982   -2.0268 H   0  0  0  0  0  0  0  0  0  0  0  0
   -5.4397   -1.8901   -1.6948 H   0  0  0  0  0  0  0  0  0  0  0  0
   -5.5567   -4.5354    0.1670 H   0  0  0  0  0  0  0  0  0  0  0  0
   -5.9472   -6.4491   -3.7051 H   0  0  0  0  0  0  0  0  0  0  0  0
   -8.0406   -7.6970   -4.0259 H   0  0  0  0  0  0  0  0  0  0  0  0
  -11.7062   -6.2062   -1.6417 H   0  0  0  0  0  0  0  0  0  0  0  0
  -11.0887   -7.4699   -0.5443 H   0  0  0  0  0  0  0  0  0  0  0  0
  -12.1883   -7.9024   -1.8694 H   0  0  0  0  0  0  0  0  0  0  0  0
  -10.2848   -7.9021   -4.5704 H   0  0  0  0  0  0  0  0  0  0  0  0
  -11.3913   -8.8585   -3.5595 H   0  0  0  0  0  0  0  0  0  0  0  0
   -9.6543   -9.2271   -3.5561 H   0  0  0  0  0  0  0  0  0  0  0  0
   -9.7173   -5.6548   -0.5875 H   0  0  0  0  0  0  0  0  0  0  0  0
   -7.6348   -4.4486   -0.3033 H   0  0  0  0  0  0  0  0  0  0  0  0
   -3.3575   -4.9278    1.2493 H   0  0  0  0  0  0  0  0  0  0  0  0
   -1.2856   -3.7415    1.9792 H   0  0  0  0  0  0  0  0  0  0  0  0
   -0.5758   -1.6772    0.7865 H   0  0  0  0  0  0  0  0  0  0  0  0
   -1.7461   -1.2382   -3.2065 H   0  0  0  0  0  0  0  0  0  0  0  0
   -1.0462   -0.2236   -5.0164 H   0  0  0  0  0  0  0  0  0  0  0  0
    0.1874    1.0703   -4.8287 H   0  0  0  0  0  0  0  0  0  0  0  0
   -1.5111    1.5119   -5.0662 H   0  0  0  0  0  0  0  0  0  0  0  0
    5.7816    4.2744    0.0676 H   0  0  0  0  0  0  0  0  0  0  0  0
    4.2737    6.2677    1.9252 H   0  0  0  0  0  0  0  0  0  0  0  0
    6.0055    6.2716    1.5518 H   0  0  0  0  0  0  0  0  0  0  0  0
    7.7853    4.7405    3.8143 H   0  0  0  0  0  0  0  0  0  0  0  0
    7.3615    4.1753    2.1730 H   0  0  0  0  0  0  0  0  0  0  0  0
    8.8395    1.4944    3.7777 H   0  0  0  0  0  0  0  0  0  0  0  0
   11.0918    3.0046    5.8780 H   0  0  0  0  0  0  0  0  0  0  0  0
   10.7394    1.4729    5.0159 H   0  0  0  0  0  0  0  0  0  0  0  0
   10.2500    1.6972    6.7260 H   0  0  0  0  0  0  0  0  0  0  0  0
    5.2592    2.7362    1.9874 H   0  0  0  0  0  0  0  0  0  0  0  0
    6.2760    0.5901    0.3376 H   0  0  0  0  0  0  0  0  0  0  0  0
    4.7270    1.5097    0.1637 H   0  0  0  0  0  0  0  0  0  0  0  0
    4.8361    0.0611    1.2354 H   0  0  0  0  0  0  0  0  0  0  0  0
  1  2  2  0  0  0  0
  2 37  1  0  0  0  0
  2  3  1  0  0  0  0
  3  8  1  0  0  0  0
  4  3  1  0  0  0  0
  4 52  1  0  0  0  0
  5  6  1  0  0  0  0
  5  4  1  0  0  0  0
  6  7  1  0  0  0  0
  6 56  1  0  0  0  0
  7 57  1  6  0  0  0
  7  9  1  0  0  0  0
  7  8  1  0  0  0  0
  8 58  1  0  0  0  0
  8 59  1  0  0  0  0
  9 60  1  0  0  0  0
 10 11  2  0  0  0  0
 10  9  1  0  0  0  0
 11 61  1  0  0  0  0
 12 13  1  0  0  0  0
 12 11  1  0  0  0  0
 13 31  1  0  0  0  0
 14 13  2  0  0  0  0
 14 16  1  0  0  0  0
 15 64  1  0  0  0  0
 15 14  1  0  0  0  0
 16 29  2  0  0  0  0
 17 16  1  0  0  0  0
 17 65  1  0  0  0  0
 18 17  1  0  0  0  0
 19 18  1  0  0  0  0
 19 27  1  0  0  0  0
 20 19  2  0  0  0  0
 21 20  1  0  0  0  0
 21 22  2  0  0  0  0
 22 26  1  0  0  0  0
 23 22  1  0  0  0  0
 23 24  1  0  0  0  0
 24 69  1  0  0  0  0
 25 72  1  0  0  0  0
 25 73  1  0  0  0  0
 25 23  1  0  0  0  0
 26 27  2  0  0  0  0
 26 74  1  0  0  0  0
 27 75  1  0  0  0  0
 28 18  2  0  0  0  0
 29 30  1  0  0  0  0
 29 76  1  0  0  0  0
 30 77  1  0  0  0  0
 31 78  1  0  0  0  0
 31 30  2  0  0  0  0
 32 12  2  0  0  0  0
 33 32  1  0  0  0  0
 33 35  1  0  0  0  0
 34 33  1  0  0  0  0
 35 10  1  0  0  0  0
 36 35  2  0  0  0  0
 37 38  1  0  0  0  0
 38 84  1  0  0  0  0
 38 39  1  0  0  0  0
 40 39  1  0  0  0  0
 40 41  1  0  0  0  0
 40 86  1  0  0  0  0
 41 43  1  0  0  0  0
 41 42  1  1  0  0  0
 43 44  1  0  0  0  0
 44 45  1  0  0  0  0
 44 46  2  0  0  0  0
 45 89  1  0  0  0  0
 45 91  1  0  0  0  0
 47 41  1  0  0  0  0
 48 92  1  0  0  0  0
 48 47  1  0  0  0  0
 49 95  1  0  0  0  0
 49 48  1  0  0  0  0
 50 47  2  0  0  0  0
 51  4  1  0  0  0  0
 53  5  1  0  0  0  0
 54  5  1  0  0  0  0
 55  6  1  0  0  0  0
 62 15  1  0  0  0  0
 63 15  1  0  0  0  0
 66 20  1  0  0  0  0
 67 21  1  0  0  0  0
 68 24  1  0  0  0  0
 70 24  1  0  0  0  0
 71 25  1  0  0  0  0
 79 32  1  0  0  0  0
 80 34  1  0  0  0  0
 81 34  1  0  0  0  0
 82 34  1  0  0  0  0
 83 37  1  0  0  0  0
 85 38  1  0  0  0  0
 87 40  1  0  0  0  0
 88 43  1  0  0  0  0
 90 45  1  0  0  0  0
 93 49  1  0  0  0  0
 94 49  1  0  0  0  0
M  END
