-1 1
 OpenBabel05232414493D

 95 98  0  0  1  0  0  0  0  0999 V2000
    4.5674   10.1211    3.0935 O   0  0  0  0  0  0  0  0  0  0  0  0
    4.0272   11.0205    3.7517 C   0  0  0  0  0  0  0  0  0  0  0  0
    2.6995   10.7966    4.2018 N   0  0  0  0  0  0  0  0  0  0  0  0
    1.6761   11.8192    4.1279 C   0  0  0  0  0  0  0  0  0  0  0  0
    0.7869   11.6409    2.8927 C   0  0  0  0  0  0  0  0  0  0  0  0
    0.2110   10.2296    2.8169 C   0  0  0  0  0  0  0  0  0  0  0  0
    1.3359    9.1936    2.8851 C   0  0  1  0  0  0  0  0  0  0  0  0
    2.1991    9.4491    4.1265 C   0  0  0  0  0  0  0  0  0  0  0  0
    0.8447    7.8220    2.9671 N   0  0  0  0  0  0  0  0  0  0  0  0
    0.0454    7.1527    2.0826 C   0  0  0  0  0  0  0  0  0  0  0  0
   -0.7463    6.0971    2.4796 C   0  0  0  0  0  0  0  0  0  0  0  0
   -1.5340    5.3384    1.5616 C   0  0  0  0  0  0  0  0  0  0  0  0
   -2.3239    4.1656    2.0241 C   0  0  0  0  0  0  0  0  0  0  0  0
   -3.7068    4.0432    1.7656 C   0  0  0  0  0  0  0  0  0  0  0  0
   -4.4954    5.1414    1.1053 C   0  0  0  0  0  0  0  0  0  0  0  0
   -4.3578    2.8710    2.1974 C   0  0  0  0  0  0  0  0  0  0  0  0
   -5.7435    2.6835    1.9599 N   0  0  0  0  0  0  0  0  0  0  0  0
   -6.3170    2.6250    0.7101 C   0  0  0  0  0  0  0  0  0  0  0  0
   -7.7951    2.3844    0.6986 C   0  0  0  0  0  0  0  0  0  0  0  0
   -8.3722    1.8985   -0.4794 C   0  0  0  0  0  0  0  0  0  0  0  0
   -9.7334    1.6586   -0.5754 C   0  0  0  0  0  0  0  0  0  0  0  0
  -10.5959    1.9139    0.5169 C   0  0  0  0  0  0  0  0  0  0  0  0
  -11.9487    1.6763    0.4320 N   0  0  0  0  0  0  0  0  0  0  0  0
  -12.8045    1.9774    1.5536 C   0  0  0  0  0  0  0  0  0  0  0  0
  -12.5197    1.1941   -0.8023 C   0  0  0  0  0  0  0  0  0  0  0  0
  -10.0130    2.4315    1.6958 C   0  0  0  0  0  0  0  0  0  0  0  0
   -8.6451    2.6576    1.7752 C   0  0  0  0  0  0  0  0  0  0  0  0
   -5.6782    2.7549   -0.3149 O   0  0  0  0  0  0  0  0  0  0  0  0
   -3.6772    1.8853    2.9148 C   0  0  0  0  0  0  0  0  0  0  0  0
   -2.3293    2.0445    3.2125 C   0  0  0  0  0  0  0  0  0  0  0  0
   -1.6589    3.1731    2.7568 C   0  0  0  0  0  0  0  0  0  0  0  0
   -1.5012    5.6951    0.2488 C   0  0  0  0  0  0  0  0  0  0  0  0
   -0.7363    6.7546   -0.1745 N   0  0  0  0  0  0  0  0  0  0  0  0
   -0.7026    7.1201   -1.5802 C   0  0  0  0  0  0  0  0  0  0  0  0
    0.0736    7.5252    0.6549 C   0  0  0  0  0  0  0  0  0  0  0  0
    0.7309    8.4384    0.1746 O   0  0  0  0  0  0  0  0  0  0  0  0
    4.6708   12.2513    4.1165 C   0  0  0  0  0  3  0  0  0  0  0  0
    4.4184   12.9741    5.2946 C   0  0  0  0  0  0  0  0  0  0  0  0
    5.3375   12.2223    7.1922 S   0  0  0  0  0  0  0  0  0  0  0  0
    6.9192   13.1261    7.1929 C   0  0  0  0  0  0  0  0  0  0  0  0
    8.1755   12.2310    7.2208 C   0  0  2  0  0  0  0  0  0  0  0  0
    8.0042   11.4438    7.9760 H   0  0  0  0  0  0  0  0  0  0  0  0
    9.3647   12.9780    7.5680 N   0  0  0  0  0  0  0  0  0  0  0  0
    9.6574   13.4056    8.8145 C   0  0  0  0  0  0  0  0  0  0  0  0
   11.0212   14.0663    8.9619 C   0  0  0  0  0  0  0  0  0  0  0  0
    8.9051   13.2995    9.7687 O   0  0  0  0  0  0  0  0  0  0  0  0
    8.5048   11.5567    5.8723 C   0  0  0  0  0  0  0  0  0  0  0  0
    7.5148   10.8688    5.2945 N   0  0  0  0  0  0  0  0  0  0  0  0
    7.6728   10.2419    4.0021 C   0  0  0  0  0  0  0  0  0  0  0  0
    9.6290   11.6672    5.3844 O   0  0  0  0  0  0  0  0  0  0  0  0
    2.1609   12.8003    4.0884 H   0  0  0  0  0  0  0  0  0  0  0  0
    1.0497   11.7892    5.0421 H   0  0  0  0  0  0  0  0  0  0  0  0
    1.3962   11.8331    1.9935 H   0  0  0  0  0  0  0  0  0  0  0  0
   -0.0228   12.3896    2.9030 H   0  0  0  0  0  0  0  0  0  0  0  0
   -0.3671   10.0908    1.8904 H   0  0  0  0  0  0  0  0  0  0  0  0
   -0.4762   10.0590    3.6681 H   0  0  0  0  0  0  0  0  0  0  0  0
    1.9801    9.2960    2.0032 H   0  0  0  0  0  0  0  0  0  0  0  0
    3.0559    8.7645    4.1208 H   0  0  0  0  0  0  0  0  0  0  0  0
    1.5813    9.2458    5.0293 H   0  0  0  0  0  0  0  0  0  0  0  0
    0.7403    7.4955    3.9212 H   0  0  0  0  0  0  0  0  0  0  0  0
   -0.7806    5.8334    3.5409 H   0  0  0  0  0  0  0  0  0  0  0  0
   -4.6054    4.9576    0.0262 H   0  0  0  0  0  0  0  0  0  0  0  0
   -4.0147    6.1167    1.2509 H   0  0  0  0  0  0  0  0  0  0  0  0
   -5.5123    5.1805    1.5226 H   0  0  0  0  0  0  0  0  0  0  0  0
   -6.2745    2.2811    2.7208 H   0  0  0  0  0  0  0  0  0  0  0  0
   -7.7181    1.7119   -1.3335 H   0  0  0  0  0  0  0  0  0  0  0  0
  -10.1294    1.2731   -1.5141 H   0  0  0  0  0  0  0  0  0  0  0  0
  -12.7925    3.0513    1.8148 H   0  0  0  0  0  0  0  0  0  0  0  0
  -12.5171    1.4092    2.4557 H   0  0  0  0  0  0  0  0  0  0  0  0
  -13.8381    1.7058    1.3073 H   0  0  0  0  0  0  0  0  0  0  0  0
  -12.3618    1.8974   -1.6399 H   0  0  0  0  0  0  0  0  0  0  0  0
  -13.6011    1.0625   -0.6766 H   0  0  0  0  0  0  0  0  0  0  0  0
  -12.0976    0.2179   -1.0993 H   0  0  0  0  0  0  0  0  0  0  0  0
  -10.6313    2.6758    2.5585 H   0  0  0  0  0  0  0  0  0  0  0  0
   -8.2483    3.0910    2.6970 H   0  0  0  0  0  0  0  0  0  0  0  0
   -4.2147    0.9875    3.2302 H   0  0  0  0  0  0  0  0  0  0  0  0
   -1.7965    1.2769    3.7775 H   0  0  0  0  0  0  0  0  0  0  0  0
   -0.5914    3.2928    2.9552 H   0  0  0  0  0  0  0  0  0  0  0  0
   -2.0552    5.1598   -0.5225 H   0  0  0  0  0  0  0  0  0  0  0  0
   -1.3807    6.4644   -2.1390 H   0  0  0  0  0  0  0  0  0  0  0  0
    0.3188    7.0273   -1.9754 H   0  0  0  0  0  0  0  0  0  0  0  0
   -1.0066    8.1685   -1.7061 H   0  0  0  0  0  0  0  0  0  0  0  0
    5.6191   12.4199    3.5991 H   0  0  0  0  0  0  0  0  0  0  0  0
    3.4201   12.9437    5.7376 H   0  0  0  0  0  0  0  0  0  0  0  0
    4.8809   13.9627    5.3885 H   0  0  0  0  0  0  0  0  0  0  0  0
    6.9650   13.7577    8.0902 H   0  0  0  0  0  0  0  0  0  0  0  0
    6.9688   13.7887    6.3102 H   0  0  0  0  0  0  0  0  0  0  0  0
   10.0763   12.9322    6.8404 H   0  0  0  0  0  0  0  0  0  0  0  0
   10.8723   15.0981    9.3114 H   0  0  0  0  0  0  0  0  0  0  0  0
   11.6088   14.0809    8.0335 H   0  0  0  0  0  0  0  0  0  0  0  0
   11.5843   13.5347    9.7421 H   0  0  0  0  0  0  0  0  0  0  0  0
    6.5841   10.9319    5.7208 H   0  0  0  0  0  0  0  0  0  0  0  0
    8.2644   10.8909    3.3392 H   0  0  0  0  0  0  0  0  0  0  0  0
    6.6779   10.0756    3.5631 H   0  0  0  0  0  0  0  0  0  0  0  0
    8.2083    9.2805    4.0873 H   0  0  0  0  0  0  0  0  0  0  0  0
  1  2  2  0  0  0  0
  2 37  1  0  0  0  0
  2  3  1  0  0  0  0
  4  3  1  0  0  0  0
  4 52  1  0  0  0  0
  5 54  1  0  0  0  0
  5  4  1  0  0  0  0
  6  7  1  0  0  0  0
  6  5  1  0  0  0  0
  6 56  1  0  0  0  0
  7 57  1  6  0  0  0
  7  9  1  0  0  0  0
  7  8  1  0  0  0  0
  8  3  1  0  0  0  0
  8 59  1  0  0  0  0
  9 60  1  0  0  0  0
 10 11  2  0  0  0  0
 10  9  1  0  0  0  0
 11 61  1  0  0  0  0
 12 13  1  0  0  0  0
 12 11  1  0  0  0  0
 13 31  1  0  0  0  0
 14 13  2  0  0  0  0
 14 16  1  0  0  0  0
 15 63  1  0  0  0  0
 15 64  1  0  0  0  0
 15 14  1  0  0  0  0
 16 29  2  0  0  0  0
 17 16  1  0  0  0  0
 17 65  1  0  0  0  0
 18 17  1  0  0  0  0
 19 18  1  0  0  0  0
 19 27  1  0  0  0  0
 20 19  2  0  0  0  0
 21 20  1  0  0  0  0
 21 22  2  0  0  0  0
 22 26  1  0  0  0  0
 23 22  1  0  0  0  0
 23 24  1  0  0  0  0
 24 68  1  0  0  0  0
 24 69  1  0  0  0  0
 25 72  1  0  0  0  0
 25 23  1  0  0  0  0
 26 27  2  0  0  0  0
 26 74  1  0  0  0  0
 27 75  1  0  0  0  0
 28 18  2  0  0  0  0
 29 30  1  0  0  0  0
 29 76  1  0  0  0  0
 30 77  1  0  0  0  0
 31 78  1  0  0  0  0
 31 30  2  0  0  0  0
 32 12  2  0  0  0  0
 33 32  1  0  0  0  0
 33 35  1  0  0  0  0
 34 33  1  0  0  0  0
 35 10  1  0  0  0  0
 36 35  2  0  0  0  0
 37 38  1  0  0  0  0
 38 85  1  0  0  0  0
 38 84  1  0  0  0  0
 38 39  1  0  0  0  0
 39 40  1  0  0  0  0
 40 41  1  0  0  0  0
 40 86  1  0  0  0  0
 41 43  1  0  0  0  0
 41 42  1  1  0  0  0
 43 44  1  0  0  0  0
 44 45  1  0  0  0  0
 44 46  2  0  0  0  0
 45 89  1  0  0  0  0
 45 91  1  0  0  0  0
 47 41  1  0  0  0  0
 48 92  1  0  0  0  0
 48 47  1  0  0  0  0
 49 95  1  0  0  0  0
 49 48  1  0  0  0  0
 50 47  2  0  0  0  0
 51  4  1  0  0  0  0
 53  5  1  0  0  0  0
 55  6  1  0  0  0  0
 58  8  1  0  0  0  0
 62 15  1  0  0  0  0
 66 20  1  0  0  0  0
 67 21  1  0  0  0  0
 70 24  1  0  0  0  0
 71 25  1  0  0  0  0
 73 25  1  0  0  0  0
 79 32  1  0  0  0  0
 80 34  1  0  0  0  0
 81 34  1  0  0  0  0
 82 34  1  0  0  0  0
 83 37  1  0  0  0  0
 87 40  1  0  0  0  0
 88 43  1  0  0  0  0
 90 45  1  0  0  0  0
 93 49  1  0  0  0  0
 94 49  1  0  0  0  0
M  END
