107
-1 1
O         2.275910   -6.741006   -1.563069
C         2.944856   -5.757849   -1.894577
N         2.673673   -5.088051   -3.103428
C         2.406106   -5.675511   -4.316853
C         2.285825   -4.868499   -5.482618
C         2.337260   -3.379492   -5.381221
N         1.650166   -2.693523   -6.346827
C         1.673834   -1.271683   -6.435833
C         0.383275   -0.561662   -6.738500
C         0.998149   -0.461722   -5.370586
O         2.930878   -2.778840   -4.495156
C         2.175312   -5.490630   -6.735409
C         2.150674   -6.869014   -6.873264
C         2.223394   -7.659859   -5.720033
N         2.275820   -9.074589   -5.841630
C         3.512710   -9.699602   -5.849338
C         4.694416   -9.141748   -6.253444
C         5.916807   -9.880738   -6.166951
C         7.229240   -9.250068   -6.469268
C         8.269065   -9.943759   -7.134839
C         8.058478  -11.280029   -7.796311
C         9.527898   -9.322085   -7.213657
N        10.625166   -9.984646   -7.829286
C        11.162322  -11.165686   -7.386231
C        12.377277  -11.634111   -8.143043
C        12.652268  -11.278961   -9.467946
C        13.787877  -11.763778  -10.107213
C        14.690931  -12.617443   -9.455950
C        15.934853  -13.122400  -10.200643
C        16.789372  -11.917264  -10.635028
C        16.801920  -14.036694   -9.325838
C        15.494139  -13.918541  -11.442958
C        14.395263  -12.975754   -8.135065
C        13.254784  -12.500741   -7.492345
O        10.712742  -11.803272   -6.456589
C         9.742702   -8.031881   -6.722414
C         8.693649   -7.328341   -6.148423
C         7.450643   -7.938018   -6.025206
C         5.856500  -11.144883   -5.655685
N         4.674807  -11.730406   -5.298239
C         4.675538  -13.022372   -4.630372
C         3.465511  -11.073533   -5.349419
O         2.419947  -11.598686   -4.965683
C         2.320755   -7.074327   -4.465995
C         4.061662   -5.243397   -1.140128
C         5.066486   -4.461701   -1.669716
S         6.700492   -5.906352   -2.977805
C         5.589537   -7.319980   -2.958994
C         6.076285   -8.599453   -2.266021
H         6.338354   -8.374812   -1.218688
N         7.242667   -9.121536   -2.918878
C         8.136028   -9.957085   -2.339095
C         9.197830  -10.482943   -3.291506
O         8.097500  -10.281540   -1.165834
C         4.961563   -9.672349   -2.243849
N         3.757194   -9.278294   -1.772531
C         2.635911  -10.186798   -1.734012
O         5.157369  -10.816231   -2.629242
H         3.010199   -4.130800   -3.189088
H         1.118610   -3.213643   -7.029974
H         2.590411   -0.846746   -6.861915
H        -0.514109   -1.177179   -6.846701
H         0.420919    0.305147   -7.402375
H         0.532604   -1.018812   -4.555590
H         1.473694    0.474288   -5.071044
H         2.153900   -4.874484   -7.638078
H         2.091506   -7.346808   -7.851844
H         1.624423   -9.605098   -5.266260
H         4.710576   -8.112828   -6.618929
H         7.004138  -11.429530   -8.060704
H         8.381267  -12.107980   -7.147828
H         8.664560  -11.344738   -8.712479
H        11.220184   -9.409003   -8.410617
H        11.961324  -10.640956  -10.024774
H        13.964735  -11.471766  -11.145095
H        17.108604  -11.328449   -9.761496
H        16.237501  -11.245519  -11.308986
H        17.691509  -12.258156  -11.167865
H        17.167690  -13.516344   -8.427607
H        17.681554  -14.371384   -9.896808
H        16.253762  -14.935378   -9.004586
H        14.908987  -13.300328  -12.139644
H        14.872426  -14.780158  -11.155441
H        16.373642  -14.296074  -11.988805
H        15.057571  -13.642238   -7.582443
H        13.024128  -12.797886   -6.467493
H        10.742870   -7.595224   -6.782147
H         8.834379   -6.325783   -5.741030
H         6.661165   -7.381914   -5.515767
H         6.749054  -11.737408   -5.461680
H         4.571820  -12.854477   -3.549337
H         5.623827  -13.532097   -4.838255
H         3.833496  -13.622557   -4.994895
H         2.403145   -7.703451   -3.582171
H         4.195066   -5.714480   -0.162954
H         5.867323   -4.109363   -1.020165
H         4.928868   -3.890577   -2.587850
H         5.241772   -7.586777   -3.972479
H         4.691129   -6.985376   -2.419025
H         7.363191   -8.891111   -3.894934
H         8.929919  -11.507322   -3.591059
H        10.158886  -10.532443   -2.763536
H         9.308266   -9.880295   -4.204659
H         3.567985   -8.315206   -1.499829
H         1.744909   -9.612922   -1.447613
H         2.793469  -10.995261   -1.000472
H         2.465367  -10.657802   -2.714815
