-1 1
 OpenBabel05232413483D

107110  0  0  1  0  0  0  0  0999 V2000
   -6.3425    1.0444    3.9660 O   0  0  0  0  0  0  0  0  0  0  0  0
   -6.3856    2.2420    3.7305 C   0  0  0  0  0  0  0  0  0  0  0  0
   -6.0150    2.8272    2.5614 N   0  0  0  0  0  0  0  0  0  0  0  0
   -5.3846    2.2692    1.4439 C   0  0  0  0  0  0  0  0  0  0  0  0
   -4.8025    3.1763    0.5239 C   0  0  0  0  0  0  0  0  0  0  0  0
   -4.6693    4.6250    0.8785 C   0  0  0  0  0  0  0  0  0  0  0  0
   -3.5191    5.1987    0.4906 N   0  0  0  0  0  0  0  0  0  0  0  0
   -3.2164    6.5469    0.8535 C   0  0  0  0  0  0  0  0  0  0  0  0
   -2.1712    6.8294    1.9003 C   0  0  0  0  0  0  0  0  0  0  0  0
   -1.8955    7.1236    0.4474 C   0  0  0  0  0  0  0  0  0  0  0  0
   -5.5436    5.2323    1.5163 O   0  0  0  0  0  0  0  0  0  0  0  0
   -4.2601    2.6699   -0.6556 C   0  0  0  0  0  0  0  0  0  0  0  0
   -4.2032    1.3039   -0.8995 C   0  0  0  0  0  0  0  0  0  0  0  0
   -4.6126    0.4066    0.0937 C   0  0  0  0  0  0  0  0  0  0  0  0
   -4.3673   -0.9691   -0.0068 N   0  0  0  0  0  0  0  0  0  0  0  0
   -3.0799   -1.4920   -0.1419 C   0  0  0  0  0  0  0  0  0  0  0  0
   -2.0612   -1.0158   -0.9162 C   0  0  0  0  0  0  0  0  0  0  0  0
   -0.7424   -1.5615   -0.8230 C   0  0  0  0  0  0  0  0  0  0  0  0
    0.3965   -0.9125   -1.5219 C   0  0  0  0  0  0  0  0  0  0  0  0
    1.4687   -1.6422   -2.0871 C   0  0  0  0  0  0  0  0  0  0  0  0
    1.4515   -3.1424   -2.2168 C   0  0  0  0  0  0  0  0  0  0  0  0
    2.5654   -0.9177   -2.5898 C   0  0  0  0  0  0  0  0  0  0  0  0
    3.6953   -1.5966   -3.1247 N   0  0  0  0  0  0  0  0  0  0  0  0
    4.4976   -2.4437   -2.4063 C   0  0  0  0  0  0  0  0  0  0  0  0
    5.6863   -2.9840   -3.1576 C   0  0  0  0  0  0  0  0  0  0  0  0
    5.7359   -3.1062   -4.5504 C   0  0  0  0  0  0  0  0  0  0  0  0
    6.8631   -3.6306   -5.1731 C   0  0  0  0  0  0  0  0  0  0  0  0
    7.9808   -4.0525   -4.4375 C   0  0  0  0  0  0  0  0  0  0  0  0
    9.2051   -4.6199   -5.1697 C   0  0  0  0  0  0  0  0  0  0  0  0
    9.7595   -3.5533   -6.1321 C   0  0  0  0  0  0  0  0  0  0  0  0
   10.3242   -5.0220   -4.2007 C   0  0  0  0  0  0  0  0  0  0  0  0
    8.7853   -5.8682   -5.9678 C   0  0  0  0  0  0  0  0  0  0  0  0
    7.9114   -3.9377   -3.0438 C   0  0  0  0  0  0  0  0  0  0  0  0
    6.7817   -3.4215   -2.4138 C   0  0  0  0  0  0  0  0  0  0  0  0
    4.2889   -2.7517   -1.2508 O   0  0  0  0  0  0  0  0  0  0  0  0
    2.5745    0.4780   -2.6150 C   0  0  0  0  0  0  0  0  0  0  0  0
    1.4778    1.1821   -2.1354 C   0  0  0  0  0  0  0  0  0  0  0  0
    0.4077    0.4883   -1.5858 C   0  0  0  0  0  0  0  0  0  0  0  0
   -0.5506   -2.5920    0.0477 C   0  0  0  0  0  0  0  0  0  0  0  0
   -1.5775   -3.1454    0.7583 N   0  0  0  0  0  0  0  0  0  0  0  0
   -1.2826   -4.0903    1.8223 C   0  0  0  0  0  0  0  0  0  0  0  0
   -2.8603   -2.6420    0.7370 C   0  0  0  0  0  0  0  0  0  0  0  0
   -3.7541   -3.1123    1.4421 O   0  0  0  0  0  0  0  0  0  0  0  0
   -5.2581    0.8952    1.2399 C   0  0  0  0  0  0  0  0  0  0  0  0
   -6.8615    3.1954    4.7868 C   0  0  0  0  0  0  0  0  0  0  0  0
   -6.6192    4.5072    4.8250 C   0  0  0  0  0  0  0  0  0  0  0  0
   -0.8000    3.4320    0.3286 S   0  0  0  0  0  1  0  0  0  0  0  0
   -1.5910    2.1284    1.3324 C   0  0  0  0  0  0  0  0  0  0  0  0
   -0.6689    1.3774    2.3191 C   0  0  2  0  0  0  0  0  0  0  0  0
   -0.4395    2.0258    3.1862 H   0  0  0  0  0  0  0  0  0  0  0  0
    0.5373    0.9933    1.6478 N   0  0  0  0  0  0  0  0  0  0  0  0
    1.5641    0.3518    2.2572 C   0  0  0  0  0  0  0  0  0  0  0  0
    2.7158    0.0053    1.3297 C   0  0  0  0  0  0  0  0  0  0  0  0
    1.5545    0.0400    3.4355 O   0  0  0  0  0  0  0  0  0  0  0  0
   -1.4284    0.1392    2.8230 C   0  0  0  0  0  0  0  0  0  0  0  0
   -2.4780    0.4122    3.6368 N   0  0  0  0  0  0  0  0  0  0  0  0
   -3.3880   -0.6168    4.0851 C   0  0  0  0  0  0  0  0  0  0  0  0
   -1.1639   -0.9977    2.4744 O   0  0  0  0  0  0  0  0  0  0  0  0
   -6.1505    3.8383    2.4461 H   0  0  0  0  0  0  0  0  0  0  0  0
   -2.7050    4.5934    0.2387 H   0  0  0  0  0  0  0  0  0  0  0  0
   -4.0976    7.1921    0.8395 H   0  0  0  0  0  0  0  0  0  0  0  0
   -1.6523    5.9608    2.3159 H   0  0  0  0  0  0  0  0  0  0  0  0
   -2.3425    7.6599    2.5905 H   0  0  0  0  0  0  0  0  0  0  0  0
   -1.1951    6.4487   -0.0534 H   0  0  0  0  0  0  0  0  0  0  0  0
   -1.8709    8.1624    0.1078 H   0  0  0  0  0  0  0  0  0  0  0  0
   -3.8483    3.3617   -1.3914 H   0  0  0  0  0  0  0  0  0  0  0  0
   -3.8081    0.9418   -1.8460 H   0  0  0  0  0  0  0  0  0  0  0  0
   -4.8555   -1.5272    0.6931 H   0  0  0  0  0  0  0  0  0  0  0  0
   -2.2208   -0.1726   -1.5833 H   0  0  0  0  0  0  0  0  0  0  0  0
    0.4233   -3.5250   -2.2474 H   0  0  0  0  0  0  0  0  0  0  0  0
    1.9846   -3.6283   -1.3860 H   0  0  0  0  0  0  0  0  0  0  0  0
    1.9673   -3.4461   -3.1401 H   0  0  0  0  0  0  0  0  0  0  0  0
    4.0939   -1.2010   -3.9660 H   0  0  0  0  0  0  0  0  0  0  0  0
    4.8770   -2.8196   -5.1623 H   0  0  0  0  0  0  0  0  0  0  0  0
    6.8616   -3.7192   -6.2621 H   0  0  0  0  0  0  0  0  0  0  0  0
   10.0586   -2.6476   -5.5825 H   0  0  0  0  0  0  0  0  0  0  0  0
    9.0165   -3.2573   -6.8873 H   0  0  0  0  0  0  0  0  0  0  0  0
   10.6430   -3.9391   -6.6654 H   0  0  0  0  0  0  0  0  0  0  0  0
   10.6825   -4.1640   -3.6117 H   0  0  0  0  0  0  0  0  0  0  0  0
   11.1814   -5.4172   -4.7671 H   0  0  0  0  0  0  0  0  0  0  0  0
    9.9978   -5.8075   -3.5023 H   0  0  0  0  0  0  0  0  0  0  0  0
    8.0177   -5.6345   -6.7203 H   0  0  0  0  0  0  0  0  0  0  0  0
    8.3756   -6.6407   -5.2993 H   0  0  0  0  0  0  0  0  0  0  0  0
    9.6525   -6.2956   -6.4964 H   0  0  0  0  0  0  0  0  0  0  0  0
    8.7474   -4.2572   -2.4214 H   0  0  0  0  0  0  0  0  0  0  0  0
    6.7295   -3.3507   -1.3256 H   0  0  0  0  0  0  0  0  0  0  0  0
    3.4524    1.0019   -3.0020 H   0  0  0  0  0  0  0  0  0  0  0  0
    1.4572    2.2738   -2.1333 H   0  0  0  0  0  0  0  0  0  0  0  0
   -0.4088    1.0768   -1.1589 H   0  0  0  0  0  0  0  0  0  0  0  0
    0.4361   -2.9991    0.2625 H   0  0  0  0  0  0  0  0  0  0  0  0
   -1.1992   -3.5352    2.7688 H   0  0  0  0  0  0  0  0  0  0  0  0
   -0.3359   -4.5988    1.6032 H   0  0  0  0  0  0  0  0  0  0  0  0
   -2.0967   -4.8194    1.9004 H   0  0  0  0  0  0  0  0  0  0  0  0
   -5.6163    0.2119    2.0083 H   0  0  0  0  0  0  0  0  0  0  0  0
   -7.3931    2.6935    5.6001 H   0  0  0  0  0  0  0  0  0  0  0  0
   -6.9745    5.1143    5.6617 H   0  0  0  0  0  0  0  0  0  0  0  0
   -6.0625    5.0290    4.0389 H   0  0  0  0  0  0  0  0  0  0  0  0
   -2.0310    1.3687    0.6670 H   0  0  0  0  0  0  0  0  0  0  0  0
   -2.4293    2.5503    1.9085 H   0  0  0  0  0  0  0  0  0  0  0  0
    0.6924    1.4721    0.7637 H   0  0  0  0  0  0  0  0  0  0  0  0
    2.5010   -0.9454    0.8168 H   0  0  0  0  0  0  0  0  0  0  0  0
    3.6309   -0.1197    1.9213 H   0  0  0  0  0  0  0  0  0  0  0  0
    2.8697    0.7648    0.5492 H   0  0  0  0  0  0  0  0  0  0  0  0
   -2.6683    1.3747    3.8773 H   0  0  0  0  0  0  0  0  0  0  0  0
   -4.3557   -0.1642    4.3366 H   0  0  0  0  0  0  0  0  0  0  0  0
   -2.9957   -1.1561    4.9644 H   0  0  0  0  0  0  0  0  0  0  0  0
   -3.5411   -1.3541    3.2835 H   0  0  0  0  0  0  0  0  0  0  0  0
  2  1  2  0  0  0  0
  2 45  1  0  0  0  0
  3  2  1  0  0  0  0
  4  3  1  0  0  0  0
  5  6  1  0  0  0  0
  5  4  2  0  0  0  0
  6 11  2  0  0  0  0
  7  8  1  0  0  0  0
  7  6  1  0  0  0  0
  8  9  1  0  0  0  0
  9 62  1  0  0  0  0
  9 63  1  0  0  0  0
 10  8  1  0  0  0  0
 10  9  1  0  0  0  0
 12  5  1  0  0  0  0
 13 12  2  0  0  0  0
 13 14  1  0  0  0  0
 14 44  2  0  0  0  0
 15 14  1  0  0  0  0
 15 68  1  0  0  0  0
 16 15  1  0  0  0  0
 16 42  1  0  0  0  0
 17 18  1  0  0  0  0
 17 16  2  0  0  0  0
 18 39  2  0  0  0  0
 19 18  1  0  0  0  0
 20 19  2  0  0  0  0
 21 20  1  0  0  0  0
 21 71  1  0  0  0  0
 22 20  1  0  0  0  0
 23 22  1  0  0  0  0
 23 24  1  0  0  0  0
 24 35  2  0  0  0  0
 25 34  1  0  0  0  0
 25 24  1  0  0  0  0
 26 25  2  0  0  0  0
 27 26  1  0  0  0  0
 27 28  2  0  0  0  0
 28 33  1  0  0  0  0
 29 28  1  0  0  0  0
 29 31  1  0  0  0  0
 30 76  1  0  0  0  0
 30 29  1  0  0  0  0
 31 79  1  0  0  0  0
 31 81  1  0  0  0  0
 32 83  1  0  0  0  0
 32 29  1  0  0  0  0
 33 85  1  0  0  0  0
 33 34  2  0  0  0  0
 34 86  1  0  0  0  0
 36 22  2  0  0  0  0
 36 37  1  0  0  0  0
 37 88  1  0  0  0  0
 37 38  2  0  0  0  0
 38 19  1  0  0  0  0
 38 89  1  0  0  0  0
 39 90  1  0  0  0  0
 39 40  1  0  0  0  0
 40 41  1  0  0  0  0
 41 93  1  0  0  0  0
 41 91  1  0  0  0  0
 42 40  1  0  0  0  0
 42 43  2  0  0  0  0
 44  4  1  0  0  0  0
 44 94  1  0  0  0  0
 45 46  2  0  0  0  0
 45 95  1  0  0  0  0
 46 96  1  0  0  0  0
 47 48  1  0  0  0  0
 48 99  1  0  0  0  0
 48 49  1  0  0  0  0
 49 55  1  0  0  0  0
 49 50  1  1  0  0  0
 51 52  1  0  0  0  0
 51 49  1  0  0  0  0
 52 54  2  0  0  0  0
 53102  1  0  0  0  0
 53 52  1  0  0  0  0
 55 56  1  0  0  0  0
 56104  1  0  0  0  0
 56 57  1  0  0  0  0
 57105  1  0  0  0  0
 57106  1  0  0  0  0
 58 55  2  0  0  0  0
 59  3  1  0  0  0  0
 60  7  1  0  0  0  0
 61  8  1  0  0  0  0
 64 10  1  0  0  0  0
 65 10  1  0  0  0  0
 66 12  1  0  0  0  0
 67 13  1  0  0  0  0
 69 17  1  0  0  0  0
 70 21  1  0  0  0  0
 72 21  1  0  0  0  0
 73 23  1  0  0  0  0
 74 26  1  0  0  0  0
 75 27  1  0  0  0  0
 77 30  1  0  0  0  0
 78 30  1  0  0  0  0
 80 31  1  0  0  0  0
 82 32  1  0  0  0  0
 84 32  1  0  0  0  0
 87 36  1  0  0  0  0
 92 41  1  0  0  0  0
 97 46  1  0  0  0  0
 98 48  1  0  0  0  0
100 51  1  0  0  0  0
101 53  1  0  0  0  0
103 53  1  0  0  0  0
107 57  1  0  0  0  0
M  END
