-1 1
 OpenBabel05232414493D

103106  0  0  1  0  0  0  0  0999 V2000
    3.7586   -7.4435   -4.9891 O   0  0  0  0  0  0  0  0  0  0  0  0
    3.6374   -7.9837   -6.0893 C   0  0  0  0  0  0  0  0  0  0  0  0
    2.4433   -8.6910   -6.3852 N   0  0  0  0  0  0  0  0  0  0  0  0
    1.8543   -9.6564   -5.5779 C   0  0  0  0  0  0  0  0  0  0  0  0
    0.8438  -10.5033   -6.1080 C   0  0  0  0  0  0  0  0  0  0  0  0
    0.2974  -10.4179   -7.4921 C   0  0  0  0  0  0  0  0  0  0  0  0
    0.0759   -9.1533   -8.0272 N   0  0  0  0  0  0  0  0  0  0  0  0
   -0.3917   -9.0718   -9.4012 C   0  0  0  0  0  0  0  0  0  0  0  0
   -1.9008   -8.8659   -9.4337 C   0  0  0  0  0  0  0  0  0  0  0  0
   -2.2764   -7.7350   -8.6846 O   0  0  0  0  0  0  0  0  0  0  0  0
   -1.8586   -7.8317   -7.3456 C   0  0  0  0  0  0  0  0  0  0  0  0
   -0.3483   -8.0110   -7.2270 C   0  0  0  0  0  0  0  0  0  0  0  0
    0.0670  -11.4172   -8.1545 O   0  0  0  0  0  0  0  0  0  0  0  0
    0.4333  -11.6026   -5.3410 C   0  0  0  0  0  0  0  0  0  0  0  0
    0.9475  -11.8788   -4.0879 C   0  0  0  0  0  0  0  0  0  0  0  0
    1.9241  -11.0200   -3.5504 C   0  0  0  0  0  0  0  0  0  0  0  0
    2.5991  -11.2647   -2.3607 N   0  0  0  0  0  0  0  0  0  0  0  0
    2.6137  -12.4919   -1.6891 C   0  0  0  0  0  0  0  0  0  0  0  0
    3.7892  -13.1743   -1.5268 C   0  0  0  0  0  0  0  0  0  0  0  0
    3.8643  -14.3736   -0.7533 C   0  0  0  0  0  0  0  0  0  0  0  0
    5.1419  -15.1239   -0.6224 C   0  0  0  0  0  0  0  0  0  0  0  0
    5.6121  -15.6004    0.6225 C   0  0  0  0  0  0  0  0  0  0  0  0
    4.9300  -15.2677    1.9230 C   0  0  0  0  0  0  0  0  0  0  0  0
    6.7982  -16.3577    0.6304 C   0  0  0  0  0  0  0  0  0  0  0  0
    7.3273  -16.8657    1.8490 N   0  0  0  0  0  0  0  0  0  0  0  0
    6.6871  -17.7531    2.6735 C   0  0  0  0  0  0  0  0  0  0  0  0
    7.4769  -18.1635    3.8918 C   0  0  0  0  0  0  0  0  0  0  0  0
    8.4253  -17.3158    4.4821 C   0  0  0  0  0  0  0  0  0  0  0  0
    9.1219  -17.7331    5.6199 C   0  0  0  0  0  0  0  0  0  0  0  0
   10.0424  -16.9829    6.2634 O   0  0  0  0  0  0  0  0  0  0  0  0
   10.3353  -15.7014    5.7782 C   0  0  0  0  0  0  0  0  0  0  0  0
    8.8679  -19.0014    6.1603 C   0  0  0  0  0  0  0  0  0  0  0  0
    7.9177  -19.8282    5.5757 C   0  0  0  0  0  0  0  0  0  0  0  0
    7.2107  -19.4133    4.4465 C   0  0  0  0  0  0  0  0  0  0  0  0
    5.5745  -18.1887    2.4623 O   0  0  0  0  0  0  0  0  0  0  0  0
    7.5261  -16.5835   -0.5390 C   0  0  0  0  0  0  0  0  0  0  0  0
    7.0853  -16.0493   -1.7433 C   0  0  0  0  0  0  0  0  0  0  0  0
    5.8953  -15.3326   -1.7861 C   0  0  0  0  0  0  0  0  0  0  0  0
    2.7011  -14.8424   -0.2167 C   0  0  0  0  0  0  0  0  0  0  0  0
    1.5152  -14.1811   -0.3722 N   0  0  0  0  0  0  0  0  0  0  0  0
    0.2987  -14.6893    0.2358 C   0  0  0  0  0  0  0  0  0  0  0  0
    1.3797  -12.9699   -1.0655 C   0  0  0  0  0  0  0  0  0  0  0  0
    0.2891  -12.4210   -1.1121 O   0  0  0  0  0  0  0  0  0  0  0  0
    2.3221   -9.8943   -4.2819 C   0  0  0  0  0  0  0  0  0  0  0  0
    4.6276   -7.9513   -7.1268 C   0  0  0  0  0  3  0  0  0  0  0  0
    4.6854   -8.7929   -8.2425 C   0  0  0  0  0  3  0  0  0  0  0  0
    5.7316  -10.8410   -7.9974 S   0  0  0  0  0  1  0  0  0  0  0  0
    4.5906  -11.5998   -6.7916 C   0  0  0  0  0  0  0  0  0  0  0  0
    5.0970  -11.6269   -5.3351 C   0  0  2  0  0  0  0  0  0  0  0  0
    4.2531  -11.8745   -4.6761 H   0  0  0  0  0  0  0  0  0  0  0  0
    5.6260  -10.3317   -4.9821 N   0  0  0  0  0  0  0  0  0  0  0  0
    5.7683   -9.8972   -3.7147 C   0  0  0  0  0  0  0  0  0  0  0  0
    6.3461   -8.5099   -3.5752 C   0  0  0  0  0  0  0  0  0  0  0  0
    5.4319  -10.5713   -2.7419 O   0  0  0  0  0  0  0  0  0  0  0  0
    6.1098  -12.7576   -5.1193 C   0  0  0  0  0  0  0  0  0  0  0  0
    7.3455  -12.5153   -5.6201 N   0  0  0  0  0  0  0  0  0  0  0  0
    8.3834  -13.5108   -5.6235 C   0  0  0  0  0  0  0  0  0  0  0  0
    5.8003  -13.7997   -4.5618 O   0  0  0  0  0  0  0  0  0  0  0  0
    2.2402   -8.7959   -7.3707 H   0  0  0  0  0  0  0  0  0  0  0  0
   -0.1171   -9.9983   -9.9190 H   0  0  0  0  0  0  0  0  0  0  0  0
    0.1050   -8.2160   -9.8901 H   0  0  0  0  0  0  0  0  0  0  0  0
   -2.3937   -9.7758   -9.0361 H   0  0  0  0  0  0  0  0  0  0  0  0
   -2.2528   -8.7021  -10.4629 H   0  0  0  0  0  0  0  0  0  0  0  0
   -2.3600   -8.6879   -6.8479 H   0  0  0  0  0  0  0  0  0  0  0  0
   -2.1749   -6.9078   -6.8400 H   0  0  0  0  0  0  0  0  0  0  0  0
   -0.0703   -8.1549   -6.1772 H   0  0  0  0  0  0  0  0  0  0  0  0
    0.1687   -7.1061   -7.5877 H   0  0  0  0  0  0  0  0  0  0  0  0
   -0.3055  -12.2752   -5.7817 H   0  0  0  0  0  0  0  0  0  0  0  0
    0.6033  -12.7494   -3.5349 H   0  0  0  0  0  0  0  0  0  0  0  0
    3.5205  -10.8231   -2.3488 H   0  0  0  0  0  0  0  0  0  0  0  0
    4.6886  -12.7703   -2.0010 H   0  0  0  0  0  0  0  0  0  0  0  0
    5.6763  -15.1471    2.7222 H   0  0  0  0  0  0  0  0  0  0  0  0
    4.3539  -14.3375    1.8417 H   0  0  0  0  0  0  0  0  0  0  0  0
    4.2561  -16.0764    2.2436 H   0  0  0  0  0  0  0  0  0  0  0  0
    8.3280  -16.7780    1.9693 H   0  0  0  0  0  0  0  0  0  0  0  0
    8.5841  -16.3189    4.0702 H   0  0  0  0  0  0  0  0  0  0  0  0
    9.4486  -15.0437    5.7917 H   0  0  0  0  0  0  0  0  0  0  0  0
   10.7383  -15.7330    4.7506 H   0  0  0  0  0  0  0  0  0  0  0  0
   11.0983  -15.2795    6.4436 H   0  0  0  0  0  0  0  0  0  0  0  0
    9.4250  -19.3069    7.0476 H   0  0  0  0  0  0  0  0  0  0  0  0
    7.7220  -20.8113    6.0096 H   0  0  0  0  0  0  0  0  0  0  0  0
    6.4487  -20.0418    3.9839 H   0  0  0  0  0  0  0  0  0  0  0  0
    8.4406  -17.1808   -0.4927 H   0  0  0  0  0  0  0  0  0  0  0  0
    7.6565  -16.2040   -2.6608 H   0  0  0  0  0  0  0  0  0  0  0  0
    5.5558  -14.9181   -2.7389 H   0  0  0  0  0  0  0  0  0  0  0  0
    2.6561  -15.7738    0.3495 H   0  0  0  0  0  0  0  0  0  0  0  0
    0.5110  -15.6475    0.7249 H   0  0  0  0  0  0  0  0  0  0  0  0
   -0.4782  -14.8231   -0.5296 H   0  0  0  0  0  0  0  0  0  0  0  0
   -0.0894  -13.9712    0.9721 H   0  0  0  0  0  0  0  0  0  0  0  0
    3.0703   -9.2182   -3.8731 H   0  0  0  0  0  0  0  0  0  0  0  0
    5.4806   -7.3030   -6.9076 H   0  0  0  0  0  0  0  0  0  0  0  0
    5.3668   -8.5205   -9.0519 H   0  0  0  0  0  0  0  0  0  0  0  0
    3.7819   -9.2911   -8.6061 H   0  0  0  0  0  0  0  0  0  0  0  0
    4.3511  -12.6283   -7.0965 H   0  0  0  0  0  0  0  0  0  0  0  0
    3.6449  -11.0402   -6.8019 H   0  0  0  0  0  0  0  0  0  0  0  0
    5.8535   -9.7145   -5.7620 H   0  0  0  0  0  0  0  0  0  0  0  0
    6.5551   -8.3159   -2.5169 H   0  0  0  0  0  0  0  0  0  0  0  0
    5.6049   -7.7886   -3.9603 H   0  0  0  0  0  0  0  0  0  0  0  0
    7.2686   -8.4080   -4.1661 H   0  0  0  0  0  0  0  0  0  0  0  0
    7.4203  -11.7182   -6.2510 H   0  0  0  0  0  0  0  0  0  0  0  0
    8.4687  -14.0186   -6.5995 H   0  0  0  0  0  0  0  0  0  0  0  0
    8.1369  -14.2646   -4.8649 H   0  0  0  0  0  0  0  0  0  0  0  0
    9.3570  -13.0596   -5.3781 H   0  0  0  0  0  0  0  0  0  0  0  0
  2  1  2  0  0  0  0
  3  2  1  0  0  0  0
  3  4  1  0  0  0  0
  4 44  1  0  0  0  0
  5  4  2  0  0  0  0
  5 14  1  0  0  0  0
  6  5  1  0  0  0  0
  7  6  1  0  0  0  0
  7 12  1  0  0  0  0
  8  7  1  0  0  0  0
  9  8  1  0  0  0  0
  9 62  1  0  0  0  0
  9 10  1  0  0  0  0
 10 11  1  0  0  0  0
 11 12  1  0  0  0  0
 11 64  1  0  0  0  0
 11 65  1  0  0  0  0
 12 66  1  0  0  0  0
 13  6  2  0  0  0  0
 14 15  2  0  0  0  0
 15 16  1  0  0  0  0
 15 69  1  0  0  0  0
 16 17  1  0  0  0  0
 17 70  1  0  0  0  0
 17 18  1  0  0  0  0
 18 19  2  0  0  0  0
 18 42  1  0  0  0  0
 19 20  1  0  0  0  0
 20 21  1  0  0  0  0
 20 39  2  0  0  0  0
 21 22  1  0  0  0  0
 22 24  2  0  0  0  0
 22 23  1  0  0  0  0
 23 74  1  0  0  0  0
 23 72  1  0  0  0  0
 24 25  1  0  0  0  0
 25 75  1  0  0  0  0
 25 26  1  0  0  0  0
 26 27  1  0  0  0  0
 27 34  2  0  0  0  0
 27 28  1  0  0  0  0
 28 29  2  0  0  0  0
 29 32  1  0  0  0  0
 29 30  1  0  0  0  0
 31 77  1  0  0  0  0
 31 30  1  0  0  0  0
 31 79  1  0  0  0  0
 32 80  1  0  0  0  0
 33 81  1  0  0  0  0
 33 32  2  0  0  0  0
 34 33  1  0  0  0  0
 35 26  2  0  0  0  0
 36 83  1  0  0  0  0
 36 24  1  0  0  0  0
 37 36  2  0  0  0  0
 38 37  1  0  0  0  0
 38 21  2  0  0  0  0
 39 86  1  0  0  0  0
 40 39  1  0  0  0  0
 40 41  1  0  0  0  0
 41 87  1  0  0  0  0
 41 89  1  0  0  0  0
 42 40  1  0  0  0  0
 43 42  2  0  0  0  0
 44 90  1  0  0  0  0
 44 16  2  0  0  0  0
 45 91  1  0  0  0  0
 45  2  1  0  0  0  0
 46 45  1  0  0  0  0
 47 48  1  0  0  0  0
 48 49  1  0  0  0  0
 49 55  1  0  0  0  0
 49 51  1  0  0  0  0
 49 50  1  1  0  0  0
 51 52  1  0  0  0  0
 52 53  1  0  0  0  0
 52 54  2  0  0  0  0
 53 97  1  0  0  0  0
 55 58  2  0  0  0  0
 56 55  1  0  0  0  0
 57 56  1  0  0  0  0
 57103  1  0  0  0  0
 57102  1  0  0  0  0
 59  3  1  0  0  0  0
 60  8  1  0  0  0  0
 61  8  1  0  0  0  0
 63  9  1  0  0  0  0
 67 12  1  0  0  0  0
 68 14  1  0  0  0  0
 71 19  1  0  0  0  0
 73 23  1  0  0  0  0
 76 28  1  0  0  0  0
 78 31  1  0  0  0  0
 82 34  1  0  0  0  0
 84 37  1  0  0  0  0
 85 38  1  0  0  0  0
 88 41  1  0  0  0  0
 92 46  1  0  0  0  0
 93 46  1  0  0  0  0
 94 48  1  0  0  0  0
 95 48  1  0  0  0  0
 96 51  1  0  0  0  0
 98 53  1  0  0  0  0
 99 53  1  0  0  0  0
100 56  1  0  0  0  0
101 57  1  0  0  0  0
M  END
