-1 1
 OpenBabel05232413483D

103106  0  0  1  0  0  0  0  0999 V2000
   -1.5708    5.6531   -2.3354 O   0  0  0  0  0  0  0  0  0  0  0  0
   -1.1037    5.0602   -3.2979 C   0  0  0  0  0  0  0  0  0  0  0  0
   -1.4442    3.7864   -3.6287 N   0  0  0  0  0  0  0  0  0  0  0  0
   -2.2123    2.9356   -2.7947 C   0  0  0  0  0  0  0  0  0  0  0  0
   -3.2481    2.1575   -3.3393 C   0  0  0  0  0  0  0  0  0  0  0  0
   -3.7310    2.2336   -4.7565 C   0  0  0  0  0  0  0  0  0  0  0  0
   -3.9286    3.4749   -5.3157 N   0  0  0  0  0  0  0  0  0  0  0  0
   -4.2907    3.5615   -6.7171 C   0  0  0  0  0  0  0  0  0  0  0  0
   -5.6935    4.1363   -6.8582 C   0  0  0  0  0  0  0  0  0  0  0  0
   -5.8118    5.3730   -6.1971 O   0  0  0  0  0  0  0  0  0  0  0  0
   -5.4977    5.2666   -4.8306 C   0  0  0  0  0  0  0  0  0  0  0  0
   -4.0874    4.7297   -4.6063 C   0  0  0  0  0  0  0  0  0  0  0  0
   -3.9665    1.2136   -5.3841 O   0  0  0  0  0  0  0  0  0  0  0  0
   -3.7799    1.1358   -2.5426 C   0  0  0  0  0  0  0  0  0  0  0  0
   -3.3357    0.8882   -1.2525 C   0  0  0  0  0  0  0  0  0  0  0  0
   -2.3283    1.6968   -0.6990 C   0  0  0  0  0  0  0  0  0  0  0  0
   -1.7228    1.4800    0.5387 N   0  0  0  0  0  0  0  0  0  0  0  0
   -1.6707    0.2341    1.1807 C   0  0  0  0  0  0  0  0  0  0  0  0
   -0.4633   -0.3801    1.3789 C   0  0  0  0  0  0  0  0  0  0  0  0
   -0.3440   -1.6010    2.1106 C   0  0  0  0  0  0  0  0  0  0  0  0
    0.9767   -2.2687    2.2592 C   0  0  0  0  0  0  0  0  0  0  0  0
    1.4271   -2.7960    3.4911 C   0  0  0  0  0  0  0  0  0  0  0  0
    0.6639   -2.6109    4.7760 C   0  0  0  0  0  0  0  0  0  0  0  0
    2.6685   -3.4585    3.5055 C   0  0  0  0  0  0  0  0  0  0  0  0
    3.1824   -4.0116    4.7112 N   0  0  0  0  0  0  0  0  0  0  0  0
    2.5791   -4.9995    5.4437 C   0  0  0  0  0  0  0  0  0  0  0  0
    3.3494   -5.4364    6.6654 C   0  0  0  0  0  0  0  0  0  0  0  0
    4.2094   -4.5664    7.3511 C   0  0  0  0  0  0  0  0  0  0  0  0
    4.8908   -5.0108    8.4878 C   0  0  0  0  0  0  0  0  0  0  0  0
    5.7285   -4.2435    9.2187 O   0  0  0  0  0  0  0  0  0  0  0  0
    5.9473   -2.9151    8.8309 C   0  0  0  0  0  0  0  0  0  0  0  0
    4.7103   -6.3281    8.9318 C   0  0  0  0  0  0  0  0  0  0  0  0
    3.8468   -7.1778    8.2531 C   0  0  0  0  0  0  0  0  0  0  0  0
    3.1551   -6.7373    7.1243 C   0  0  0  0  0  0  0  0  0  0  0  0
    1.5115   -5.4990    5.1553 O   0  0  0  0  0  0  0  0  0  0  0  0
    3.4656   -3.5404    2.3616 C   0  0  0  0  0  0  0  0  0  0  0  0
    3.0388   -2.9566    1.1760 C   0  0  0  0  0  0  0  0  0  0  0  0
    1.7964   -2.3365    1.1248 C   0  0  0  0  0  0  0  0  0  0  0  0
   -1.4985   -2.1587    2.5766 C   0  0  0  0  0  0  0  0  0  0  0  0
   -2.7147   -1.5621    2.3920 N   0  0  0  0  0  0  0  0  0  0  0  0
   -3.9225   -2.1652    2.9273 C   0  0  0  0  0  0  0  0  0  0  0  0
   -2.8965   -0.3384    1.7337 C   0  0  0  0  0  0  0  0  0  0  0  0
   -4.0175    0.1441    1.6572 O   0  0  0  0  0  0  0  0  0  0  0  0
   -1.8232    2.7467   -1.4744 C   0  0  0  0  0  0  0  0  0  0  0  0
   -0.1249    5.7562   -4.1924 C   0  0  0  0  0  0  0  0  0  0  0  0
    0.7041    5.1851   -5.0687 C   0  0  0  0  0  0  0  0  0  0  0  0
    0.4482    1.4876   -5.1706 S   0  0  0  0  0  1  0  0  0  0  0  0
   -0.0699    0.4417   -3.7504 C   0  0  0  0  0  0  0  0  0  0  0  0
    0.8528    0.5420   -2.5088 C   0  0  2  0  0  0  0  0  0  0  0  0
    0.3115    0.2216   -1.6078 H   0  0  0  0  0  0  0  0  0  0  0  0
    1.2760    1.9142   -2.3299 N   0  0  0  0  0  0  0  0  0  0  0  0
    1.3478    2.5757   -1.1671 C   0  0  0  0  0  0  0  0  0  0  0  0
    1.6972    4.0461   -1.2872 C   0  0  0  0  0  0  0  0  0  0  0  0
    1.1167    2.0727   -0.0668 O   0  0  0  0  0  0  0  0  0  0  0  0
    2.0668   -0.3926   -2.6272 C   0  0  0  0  0  0  0  0  0  0  0  0
    2.8043   -0.2001   -3.7440 N   0  0  0  0  0  0  0  0  0  0  0  0
    3.9391   -1.0173   -4.0759 C   0  0  0  0  0  0  0  0  0  0  0  0
    2.3283   -1.2337   -1.7766 O   0  0  0  0  0  0  0  0  0  0  0  0
   -0.9561    3.2862   -4.3907 H   0  0  0  0  0  0  0  0  0  0  0  0
   -4.2313    2.5550   -7.1483 H   0  0  0  0  0  0  0  0  0  0  0  0
   -3.5697    4.2206   -7.2331 H   0  0  0  0  0  0  0  0  0  0  0  0
   -6.4242    3.4098   -6.4471 H   0  0  0  0  0  0  0  0  0  0  0  0
   -5.9389    4.3123   -7.9159 H   0  0  0  0  0  0  0  0  0  0  0  0
   -6.2221    4.5963   -4.3227 H   0  0  0  0  0  0  0  0  0  0  0  0
   -5.5952    6.2721   -4.3964 H   0  0  0  0  0  0  0  0  0  0  0  0
   -3.9083    4.6030   -3.5324 H   0  0  0  0  0  0  0  0  0  0  0  0
   -3.3516    5.4617   -4.9831 H   0  0  0  0  0  0  0  0  0  0  0  0
   -4.5481    0.4959   -2.9809 H   0  0  0  0  0  0  0  0  0  0  0  0
   -3.7736    0.0798   -0.6716 H   0  0  0  0  0  0  0  0  0  0  0  0
   -0.8048    1.9262    0.5636 H   0  0  0  0  0  0  0  0  0  0  0  0
    0.4296    0.0978    0.9628 H   0  0  0  0  0  0  0  0  0  0  0  0
    1.3616   -2.4917    5.6182 H   0  0  0  0  0  0  0  0  0  0  0  0
    0.0209   -1.7227    4.7314 H   0  0  0  0  0  0  0  0  0  0  0  0
    0.0424   -3.4892    5.0071 H   0  0  0  0  0  0  0  0  0  0  0  0
    4.1682   -3.8616    4.8826 H   0  0  0  0  0  0  0  0  0  0  0  0
    4.3098   -3.5349    7.0125 H   0  0  0  0  0  0  0  0  0  0  0  0
    5.0162   -2.3221    8.8497 H   0  0  0  0  0  0  0  0  0  0  0  0
    6.3897   -2.8490    7.8212 H   0  0  0  0  0  0  0  0  0  0  0  0
    6.6529   -2.4880    9.5538 H   0  0  0  0  0  0  0  0  0  0  0  0
    5.2540   -6.6540    9.8202 H   0  0  0  0  0  0  0  0  0  0  0  0
    3.7077   -8.2000    8.6122 H   0  0  0  0  0  0  0  0  0  0  0  0
    2.4601   -7.3849    6.5882 H   0  0  0  0  0  0  0  0  0  0  0  0
    4.4233   -4.0653    2.4147 H   0  0  0  0  0  0  0  0  0  0  0  0
    3.6525   -2.9858    0.2742 H   0  0  0  0  0  0  0  0  0  0  0  0
    1.4827   -1.8956    0.1753 H   0  0  0  0  0  0  0  0  0  0  0  0
   -1.5125   -3.1134    3.1038 H   0  0  0  0  0  0  0  0  0  0  0  0
   -3.6718   -3.1263    3.3917 H   0  0  0  0  0  0  0  0  0  0  0  0
   -4.6561   -2.3172    2.1238 H   0  0  0  0  0  0  0  0  0  0  0  0
   -4.3847   -1.4999    3.6701 H   0  0  0  0  0  0  0  0  0  0  0  0
   -1.0445    3.3831   -1.0629 H   0  0  0  0  0  0  0  0  0  0  0  0
   -0.1080    6.8359   -4.0155 H   0  0  0  0  0  0  0  0  0  0  0  0
    1.4045    5.7984   -5.6427 H   0  0  0  0  0  0  0  0  0  0  0  0
    0.7329    4.0995   -5.2336 H   0  0  0  0  0  0  0  0  0  0  0  0
   -0.1136   -0.6138   -4.0594 H   0  0  0  0  0  0  0  0  0  0  0  0
   -1.0863    0.7152   -3.4424 H   0  0  0  0  0  0  0  0  0  0  0  0
    1.3562    2.4073   -3.2277 H   0  0  0  0  0  0  0  0  0  0  0  0
    2.3978    4.3074   -0.4833 H   0  0  0  0  0  0  0  0  0  0  0  0
    0.7859    4.6488   -1.1463 H   0  0  0  0  0  0  0  0  0  0  0  0
    2.1293    4.3063   -2.2629 H   0  0  0  0  0  0  0  0  0  0  0  0
    2.4001    0.4256   -4.4552 H   0  0  0  0  0  0  0  0  0  0  0  0
    3.7179   -1.7088   -4.9068 H   0  0  0  0  0  0  0  0  0  0  0  0
    4.2081   -1.6117   -3.1932 H   0  0  0  0  0  0  0  0  0  0  0  0
    4.8016   -0.3962   -4.3664 H   0  0  0  0  0  0  0  0  0  0  0  0
  2  1  2  0  0  0  0
  3  2  1  0  0  0  0
  3  4  1  0  0  0  0
  4 44  1  0  0  0  0
  5  4  2  0  0  0  0
  5 14  1  0  0  0  0
  6  5  1  0  0  0  0
  7  6  1  0  0  0  0
  7 12  1  0  0  0  0
  8  7  1  0  0  0  0
  9  8  1  0  0  0  0
  9 62  1  0  0  0  0
  9 10  1  0  0  0  0
 10 11  1  0  0  0  0
 11 12  1  0  0  0  0
 11 65  1  0  0  0  0
 11 64  1  0  0  0  0
 12 66  1  0  0  0  0
 13  6  2  0  0  0  0
 14 15  2  0  0  0  0
 15 16  1  0  0  0  0
 15 69  1  0  0  0  0
 16 17  1  0  0  0  0
 17 70  1  0  0  0  0
 17 18  1  0  0  0  0
 18 19  2  0  0  0  0
 18 42  1  0  0  0  0
 19 20  1  0  0  0  0
 20 21  1  0  0  0  0
 20 39  2  0  0  0  0
 21 22  1  0  0  0  0
 22 24  2  0  0  0  0
 22 23  1  0  0  0  0
 23 74  1  0  0  0  0
 23 72  1  0  0  0  0
 24 25  1  0  0  0  0
 25 75  1  0  0  0  0
 25 26  1  0  0  0  0
 26 27  1  0  0  0  0
 27 34  2  0  0  0  0
 27 28  1  0  0  0  0
 28 29  2  0  0  0  0
 29 32  1  0  0  0  0
 29 30  1  0  0  0  0
 31 77  1  0  0  0  0
 31 30  1  0  0  0  0
 31 79  1  0  0  0  0
 32 80  1  0  0  0  0
 33 81  1  0  0  0  0
 33 32  2  0  0  0  0
 34 33  1  0  0  0  0
 35 26  2  0  0  0  0
 36 83  1  0  0  0  0
 36 24  1  0  0  0  0
 37 36  2  0  0  0  0
 38 37  1  0  0  0  0
 38 21  2  0  0  0  0
 39 86  1  0  0  0  0
 40 39  1  0  0  0  0
 40 41  1  0  0  0  0
 41 87  1  0  0  0  0
 41 89  1  0  0  0  0
 42 40  1  0  0  0  0
 43 42  2  0  0  0  0
 44 90  1  0  0  0  0
 44 16  2  0  0  0  0
 45 91  1  0  0  0  0
 45  2  1  0  0  0  0
 46 45  2  0  0  0  0
 47 48  1  0  0  0  0
 48 95  1  0  0  0  0
 48 49  1  0  0  0  0
 49 51  1  0  0  0  0
 49 50  1  1  0  0  0
 51 52  1  0  0  0  0
 52 54  2  0  0  0  0
 53 52  1  0  0  0  0
 53 98  1  0  0  0  0
 53 97  1  0  0  0  0
 55 49  1  0  0  0  0
 55 58  2  0  0  0  0
 56 55  1  0  0  0  0
 57 56  1  0  0  0  0
 57102  1  0  0  0  0
 59  3  1  0  0  0  0
 60  8  1  0  0  0  0
 61  8  1  0  0  0  0
 63  9  1  0  0  0  0
 67 12  1  0  0  0  0
 68 14  1  0  0  0  0
 71 19  1  0  0  0  0
 73 23  1  0  0  0  0
 76 28  1  0  0  0  0
 78 31  1  0  0  0  0
 82 34  1  0  0  0  0
 84 37  1  0  0  0  0
 85 38  1  0  0  0  0
 88 41  1  0  0  0  0
 92 46  1  0  0  0  0
 93 46  1  0  0  0  0
 94 48  1  0  0  0  0
 96 51  1  0  0  0  0
 99 53  1  0  0  0  0
100 56  1  0  0  0  0
101 57  1  0  0  0  0
103 57  1  0  0  0  0
M  END
