103
-1 1
O        -0.329932    5.305173   -2.436014
C        -0.430752    4.606382   -3.461225
N        -1.733562    4.027172   -3.735927
C        -2.332129    3.086113   -2.925777
C        -3.364688    2.244711   -3.427562
C        -3.917689    2.315475   -4.808364
N        -4.143851    3.574267   -5.352822
C        -4.632461    3.646278   -6.719175
C        -6.138309    3.877736   -6.727877
O        -6.482410    5.023377   -5.986616
C        -6.041381    4.936884   -4.653739
C        -4.532643    4.733904   -4.560231
O        -4.154299    1.309892   -5.460918
C        -3.786661    1.166086   -2.638362
C        -3.276324    0.910437   -1.379622
C        -2.293044    1.773510   -0.858286
N        -1.656562    1.551041    0.362269
C        -1.646135    0.317991    1.028678
C        -0.475986   -0.373349    1.185615
C        -0.408618   -1.589573    1.931960
C         0.865076   -2.351348    2.026192
C         1.367244   -2.835782    3.254565
C         0.712146   -2.517627    4.572159
C         2.555258   -3.589498    3.226616
N         3.116256   -4.103788    4.428123
C         2.499077   -5.000085    5.260780
C         3.318059   -5.415243    6.457756
C         4.275979   -4.567240    7.032149
C         4.999615   -4.988754    8.151361
O         5.930843   -4.238604    8.779145
C         6.206517   -2.952274    8.296800
C         4.763162   -6.261712    8.688829
C         3.803735   -7.088888    8.120179
C         3.069747   -6.669797    7.009984
O         1.383922   -5.439121    5.071540
C         3.253146   -3.806042    2.037051
C         2.777525   -3.270373    0.846651
C         1.584572   -2.557725    0.840986
C        -1.572948   -2.057870    2.465418
N        -2.752811   -1.382302    2.326980
C        -3.971216   -1.888344    2.933182
C        -2.882653   -0.160404    1.648569
O        -3.969275    0.395398    1.614124
C        -1.868433    2.867488   -1.618087
C         0.589392    4.287012   -4.366343
C         0.529148    3.302288   -5.468233
S         1.331615    1.606499   -5.179351
C         0.310721    0.945639   -3.822407
C         0.930040    1.011613   -2.417362
H         0.139069    0.728909   -1.704796
N         1.419227    2.335276   -2.118445
C         1.559555    2.767798   -0.841166
C         1.996265    4.204038   -0.700490
O         1.355982    2.035854    0.125262
C         1.999661   -0.073958   -2.259124
N         3.275781    0.352719   -2.380691
C         4.408971   -0.527204   -2.307958
O         1.689383   -1.242825   -2.081378
H        -1.971471    3.942763   -4.715135
H        -4.383034    2.707742   -7.228174
H        -4.130308    4.486852   -7.228824
H        -6.639045    2.980845   -6.310609
H        -6.505896    4.034813   -7.752819
H        -6.547742    4.095526   -4.136254
H        -6.333517    5.872496   -4.155035
H        -4.234933    4.600729   -3.514641
H        -4.007263    5.625089   -4.942225
H        -4.536493    0.495192   -3.063045
H        -3.638466    0.061366   -0.805388
H        -0.747056    2.006188    0.413603
H         0.430757    0.043347    0.736997
H         1.474157   -2.399720    5.356789
H         0.129023   -1.590127    4.511044
H         0.049765   -3.333518    4.898725
H         4.119127   -4.012449    4.525557
H         4.421150   -3.566976    6.623164
H         5.316939   -2.299511    8.333870
H         6.587467   -2.974665    7.260489
H         6.981533   -2.530902    8.948492
H         5.341234   -6.570455    9.561506
H         3.622060   -8.075622    8.551954
H         2.300169   -7.298664    6.560433
H         4.170571   -4.400285    2.056508
H         3.319686   -3.419546   -0.088936
H         1.214964   -2.153961   -0.105177
H        -1.623815   -2.999308    3.014614
H        -3.765350   -2.855226    3.407768
H        -4.752473   -2.004164    2.169436
H        -4.349606   -1.177441    3.681361
H        -1.114450    3.552356   -1.231027
H         1.525471    4.838882   -4.232424
H         1.081450    3.627107   -6.364708
H        -0.492264    3.057517   -5.795200
H         0.081743   -0.105183   -4.043918
H        -0.642717    1.489031   -3.817700
H         1.318935    3.046925   -2.860166
H         2.018842    4.467422    0.363403
H         1.294518    4.855157   -1.256068
H         3.000688    4.333350   -1.132458
H         3.400220    1.341788   -2.560292
H         5.031115   -0.451745   -3.213553
H         4.028292   -1.553440   -2.224801
H         5.037587   -0.312360   -1.427930
