-1 1
 OpenBabel05192410563D

 76 79  0  0  1  0  0  0  0  0999 V2000
   -2.3310   -1.4050    1.4103 O   0  0  0  0  0  0  0  0  0  0  0  0
   -1.2409   -1.2904    0.7996 C   0  0  0  0  0  0  0  0  0  0  0  0
   -0.1098   -2.0439    1.3707 N   0  0  0  0  0  0  0  0  0  0  0  0
    0.6402   -1.4495    2.4800 C   0  0  2  0  0  0  0  0  0  0  0  0
    0.7818   -2.2174    3.2546 H   0  0  0  0  0  0  0  0  0  0  0  0
    0.0350   -0.1711    3.0774 C   0  0  0  0  0  0  0  0  0  0  0  0
    0.5817    0.8853    2.2342 N   0  0  0  0  0  0  0  0  0  0  0  0
    1.8553    0.4851    1.6531 C   0  0  0  0  0  0  0  0  0  0  0  0
    2.0399   -0.9710    2.0706 C   0  0  1  0  0  0  0  0  0  0  0  0
    2.4950   -1.6130    1.3018 H   0  0  0  0  0  0  0  0  0  0  0  0
    2.8559   -1.0098    3.2025 F   0  0  0  0  0  0  0  0  0  0  0  0
   -0.2210    1.7949    1.6134 C   0  0  0  0  0  0  0  0  0  0  0  0
    0.3627    2.5219    0.6277 N   0  0  0  0  0  0  0  0  0  0  0  0
   -0.3746    3.3723   -0.0677 C   0  0  1  0  0  3  0  0  0  0  0  0
    0.1680    4.1017   -1.0831 N   0  0  0  0  0  0  0  0  0  0  0  0
    1.4445    3.9732   -1.6174 C   0  0  0  0  0  0  0  0  0  0  0  0
    2.4957    3.1617   -1.2243 C   0  0  0  0  0  0  0  0  0  0  0  0
    3.5146    3.4214   -2.0884 N   0  0  0  0  0  0  0  0  0  0  0  0
    4.7778    2.7302   -2.1545 C   0  0  0  0  0  0  0  0  0  0  0  0
    3.1992    4.3279   -3.0057 N   0  0  0  0  0  0  0  0  0  0  0  0
    1.9491    4.6814   -2.7346 C   0  0  0  0  0  0  0  0  0  0  0  0
   -1.4875    1.8844    2.0223 N   0  0  0  0  0  2  0  0  0  0  0  0
   -2.2098    2.7166    1.2820 C   0  0  0  0  0  0  0  0  0  0  0  0
   -1.7460    3.5128    0.2354 C   0  0  0  0  0  0  0  0  0  0  0  0
   -2.7669    4.2427   -0.3336 N   0  0  0  0  0  0  0  0  0  0  0  0
   -3.8177    3.8818    0.3480 C   0  0  0  0  0  0  0  0  0  0  0  0
   -3.5597    2.9700    1.3492 N   0  0  0  0  0  0  0  0  0  0  0  0
   -4.5597    2.2184    2.1087 C   0  0  0  0  0  0  0  0  0  0  0  0
   -4.7409    0.8216    1.5154 C   0  0  0  0  0  0  0  0  0  0  0  0
   -4.2125    2.1932    3.5945 C   0  0  0  0  0  0  0  0  0  0  0  0
   -1.0232   -0.6038   -0.3882 C   0  0  0  0  0  3  0  0  0  0  0  0
    0.2309   -0.5135   -1.1772 C   0  0  0  0  0  0  0  0  0  0  0  0
    0.1914   -1.3481   -2.8643 S   0  0  0  0  0  0  0  0  0  0  0  0
    1.1231   -2.8711   -2.5312 C   0  0  0  0  0  0  0  0  0  0  0  0
    0.6908   -3.7104   -1.3128 C   0  0  2  0  0  0  0  0  0  0  0  0
    0.6731   -3.0684   -0.4148 H   0  0  0  0  0  0  0  0  0  0  0  0
    1.6379   -4.7810   -1.0918 N   0  0  0  0  0  0  0  0  0  0  0  0
    2.8287   -4.5980   -0.4868 C   0  0  0  0  0  0  0  0  0  0  0  0
    3.6464   -5.8588   -0.2614 C   0  0  0  0  0  0  0  0  0  0  0  0
    3.2479   -3.5052   -0.1348 O   0  0  0  0  0  0  0  0  0  0  0  0
   -0.6829   -4.3772   -1.4567 C   0  0  0  0  0  0  0  0  0  0  0  0
   -1.7243   -3.5685   -1.2310 N   0  0  0  0  0  0  0  0  0  0  0  0
   -3.0940   -4.0081   -1.2348 C   0  0  0  0  0  0  0  0  0  0  0  0
   -0.7723   -5.5749   -1.7232 O   0  0  0  0  0  0  0  0  0  0  0  0
   -0.5648   -2.8757    1.7379 H   0  0  0  0  0  0  0  0  0  0  0  0
    0.3667   -0.0413    4.1221 H   0  0  0  0  0  0  0  0  0  0  0  0
   -1.0597   -0.1704    3.0342 H   0  0  0  0  0  0  0  0  0  0  0  0
    2.6997    1.0870    2.0292 H   0  0  0  0  0  0  0  0  0  0  0  0
    1.8213    0.5900    0.5622 H   0  0  0  0  0  0  0  0  0  0  0  0
   -0.4890    4.6910   -1.5776 H   0  0  0  0  0  0  0  0  0  0  0  0
    2.5665    2.4494   -0.4112 H   0  0  0  0  0  0  0  0  0  0  0  0
    5.0493    2.3702   -1.1537 H   0  0  0  0  0  0  0  0  0  0  0  0
    5.5434    3.4299   -2.5119 H   0  0  0  0  0  0  0  0  0  0  0  0
    4.7250    1.8705   -2.8402 H   0  0  0  0  0  0  0  0  0  0  0  0
    1.4422    5.4319   -3.3406 H   0  0  0  0  0  0  0  0  0  0  0  0
   -4.8341    4.2411    0.1783 H   0  0  0  0  0  0  0  0  0  0  0  0
   -5.4962    2.7888    1.9799 H   0  0  0  0  0  0  0  0  0  0  0  0
   -3.8161    0.2169    1.5597 H   0  0  0  0  0  0  0  0  0  0  0  0
   -5.0482    0.8945    0.4606 H   0  0  0  0  0  0  0  0  0  0  0  0
   -5.5303    0.2836    2.0633 H   0  0  0  0  0  0  0  0  0  0  0  0
   -3.2705    1.6503    3.7505 H   0  0  0  0  0  0  0  0  0  0  0  0
   -5.0139    1.6880    4.1540 H   0  0  0  0  0  0  0  0  0  0  0  0
   -4.0990    3.2145    3.9889 H   0  0  0  0  0  0  0  0  0  0  0  0
   -1.8830   -0.0372   -0.7607 H   0  0  0  0  0  0  0  0  0  0  0  0
    1.0865   -0.9677   -0.6606 H   0  0  0  0  0  0  0  0  0  0  0  0
    0.5060    0.5251   -1.4217 H   0  0  0  0  0  0  0  0  0  0  0  0
    2.1797   -2.6111   -2.3724 H   0  0  0  0  0  0  0  0  0  0  0  0
    1.0543   -3.4803   -3.4462 H   0  0  0  0  0  0  0  0  0  0  0  0
    1.2804   -5.7016   -1.3346 H   0  0  0  0  0  0  0  0  0  0  0  0
    3.1873   -6.7628   -0.6847 H   0  0  0  0  0  0  0  0  0  0  0  0
    3.7831   -5.9952    0.8210 H   0  0  0  0  0  0  0  0  0  0  0  0
    4.6427   -5.7137   -0.7018 H   0  0  0  0  0  0  0  0  0  0  0  0
   -1.5451   -2.5773   -1.0147 H   0  0  0  0  0  0  0  0  0  0  0  0
   -3.6073   -3.7481   -2.1760 H   0  0  0  0  0  0  0  0  0  0  0  0
   -3.6196   -3.5234   -0.3995 H   0  0  0  0  0  0  0  0  0  0  0  0
   -3.1232   -5.0997   -1.1153 H   0  0  0  0  0  0  0  0  0  0  0  0
  2  3  1  0  0  0  0
  2  1  2  0  0  0  0
  3 45  1  0  0  0  0
  3  4  1  0  0  0  0
  4  6  1  0  0  0  0
  4  5  1  1  0  0  0
  6 46  1  0  0  0  0
  7  6  1  0  0  0  0
  8 48  1  0  0  0  0
  8  9  1  0  0  0  0
  8  7  1  0  0  0  0
  9 10  1  6  0  0  0
  9  4  1  0  0  0  0
  9 11  1  0  0  0  0
 12 22  1  0  0  0  0
 12  7  1  0  0  0  0
 13 12  2  0  0  0  0
 14 15  1  6  0  0  0
 14 24  1  0  0  0  0
 14 13  1  0  0  0  0
 16 17  2  0  0  0  0
 16 15  1  0  0  0  0
 17 51  1  0  0  0  0
 18 17  1  0  0  0  0
 19 18  1  0  0  0  0
 19 52  1  0  0  0  0
 20 21  2  0  0  0  0
 20 18  1  0  0  0  0
 21 16  1  0  0  0  0
 23 27  1  0  0  0  0
 23 22  1  0  0  0  0
 24 23  2  0  0  0  0
 25 24  1  0  0  0  0
 25 26  2  0  0  0  0
 26 27  1  0  0  0  0
 27 28  1  0  0  0  0
 28 30  1  0  0  0  0
 29 58  1  0  0  0  0
 29 60  1  0  0  0  0
 29 28  1  0  0  0  0
 30 61  1  0  0  0  0
 30 63  1  0  0  0  0
 30 62  1  0  0  0  0
 31  2  1  0  0  0  0
 32 65  1  0  0  0  0
 32 31  1  0  0  0  0
 33 34  1  0  0  0  0
 33 32  1  0  0  0  0
 34 67  1  0  0  0  0
 34 35  1  0  0  0  0
 35 37  1  0  0  0  0
 35 36  1  1  0  0  0
 37 38  1  0  0  0  0
 38 39  1  0  0  0  0
 38 40  2  0  0  0  0
 39 71  1  0  0  0  0
 41 35  1  0  0  0  0
 41 42  1  0  0  0  0
 42 73  1  0  0  0  0
 43 42  1  0  0  0  0
 43 76  1  0  0  0  0
 43 75  1  0  0  0  0
 44 41  2  0  0  0  0
 47  6  1  0  0  0  0
 49  8  1  0  0  0  0
 50 15  1  0  0  0  0
 53 19  1  0  0  0  0
 54 19  1  0  0  0  0
 55 21  1  0  0  0  0
 56 26  1  0  0  0  0
 57 28  1  0  0  0  0
 59 29  1  0  0  0  0
 64 31  1  0  0  0  0
 66 32  1  0  0  0  0
 68 34  1  0  0  0  0
 69 37  1  0  0  0  0
 70 39  1  0  0  0  0
 72 39  1  0  0  0  0
 74 43  1  0  0  0  0
M  END
