-1 1
 OpenBabel05232414493D

 76 78  0  0  1  0  0  0  0  0999 V2000
    8.9742   -0.5940  -12.4776 O   0  0  0  0  0  0  0  0  0  0  0  0
   10.1293   -0.4993  -12.9067 C   0  0  0  0  0  0  0  0  0  0  0  0
   11.1354   -1.3138  -12.2691 N   0  0  0  0  0  0  0  0  0  0  0  0
   11.9994   -0.7467  -11.2326 C   0  0  2  0  0  0  0  0  0  0  0  0
   12.1811   -1.5471  -10.5022 H   0  0  0  0  0  0  0  0  0  0  0  0
   11.4561    0.5155  -10.5429 C   0  0  0  0  0  0  0  0  0  0  0  0
   12.0050    1.6033  -11.3372 N   0  0  0  0  0  0  0  0  0  0  0  0
   13.2337    1.2077  -12.0082 C   0  0  0  0  0  0  0  0  0  0  0  0
   13.3860   -0.2781  -11.7000 C   0  0  1  0  0  0  0  0  0  0  0  0
   13.7965   -0.8796  -12.5244 H   0  0  0  0  0  0  0  0  0  0  0  0
   14.2466   -0.4159  -10.6095 F   0  0  0  0  0  0  0  0  0  0  0  0
   11.2333    2.6154  -11.8211 C   0  0  0  0  0  0  0  0  0  0  0  0
   11.8414    3.4423  -12.7062 N   0  0  0  0  0  0  0  0  0  0  0  0
   11.1432    4.4199  -13.2609 C   0  0  1  0  0  3  0  0  0  0  0  0
   11.7135    5.2597  -14.1666 N   0  0  0  0  0  0  0  0  0  0  0  0
   12.9880    5.1633  -14.7147 C   0  0  0  0  0  0  0  0  0  0  0  0
   13.9907    4.2377  -14.4778 C   0  0  0  0  0  0  0  0  0  0  0  0
   15.0306    4.5980  -15.2778 N   0  0  0  0  0  0  0  0  0  0  0  0
   16.2632    3.8723  -15.4608 C   0  0  0  0  0  0  0  0  0  0  0  0
   14.7728    5.6740  -16.0114 N   0  0  0  0  0  0  0  0  0  0  0  0
   13.5402    6.0378  -15.6810 C   0  0  0  0  0  0  0  0  0  0  0  0
    9.9712    2.6949  -11.3932 N   0  0  0  0  0  2  0  0  0  0  0  0
    9.2878    3.6679  -11.9887 C   0  0  0  0  0  0  0  0  0  0  0  0
    9.7831    4.5850  -12.9139 C   0  0  0  0  0  0  0  0  0  0  0  0
    8.7983    5.4456  -13.3461 N   0  0  0  0  0  0  0  0  0  0  0  0
    7.7367    5.0458  -12.7043 C   0  0  0  0  0  0  0  0  0  0  0  0
    7.9556    3.9802  -11.8571 N   0  0  0  0  0  0  0  0  0  0  0  0
    6.9333    3.1952  -11.1661 C   0  0  0  0  0  0  0  0  0  0  0  0
    6.6948    1.8719  -11.8926 C   0  0  0  0  0  0  0  0  0  0  0  0
    7.2904    3.0108   -9.6936 C   0  0  0  0  0  0  0  0  0  0  0  0
   10.5218    0.3391  -13.9935 C   0  0  0  0  0  3  0  0  0  0  0  0
   11.6780    0.2062  -14.7543 C   0  0  0  0  0  3  0  0  0  0  0  0
   11.4756   -1.2464  -16.6531 S   0  0  0  0  0  1  0  0  0  0  0  0
   12.4665   -2.6852  -16.1176 C   0  0  0  0  0  0  0  0  0  0  0  0
   12.2076   -3.1928  -14.6855 C   0  0  2  0  0  0  0  0  0  0  0  0
   12.2471   -2.3390  -13.9922 H   0  0  0  0  0  0  0  0  0  0  0  0
   13.2091   -4.1500  -14.2663 N   0  0  0  0  0  0  0  0  0  0  0  0
   14.3997   -3.7630  -13.7649 C   0  0  0  0  0  0  0  0  0  0  0  0
   15.2632   -4.8743  -13.1931 C   0  0  0  0  0  0  0  0  0  0  0  0
   14.7879   -2.6027  -13.7624 O   0  0  0  0  0  0  0  0  0  0  0  0
   10.8438   -3.8399  -14.4192 C   0  0  0  0  0  0  0  0  0  0  0  0
    9.7904   -3.0722  -14.7346 N   0  0  0  0  0  0  0  0  0  0  0  0
    8.4323   -3.3924  -14.3823 C   0  0  0  0  0  0  0  0  0  0  0  0
   10.7641   -4.9467  -13.8888 O   0  0  0  0  0  0  0  0  0  0  0  0
   10.6088   -2.0748  -11.8491 H   0  0  0  0  0  0  0  0  0  0  0  0
   11.8210    0.5739   -9.5025 H   0  0  0  0  0  0  0  0  0  0  0  0
   10.3609    0.5602  -10.5397 H   0  0  0  0  0  0  0  0  0  0  0  0
   14.1156    1.7547  -11.6357 H   0  0  0  0  0  0  0  0  0  0  0  0
   13.1433    1.3893  -13.0868 H   0  0  0  0  0  0  0  0  0  0  0  0
   11.0888    5.9553  -14.5531 H   0  0  0  0  0  0  0  0  0  0  0  0
   14.0160    3.3843  -13.8109 H   0  0  0  0  0  0  0  0  0  0  0  0
   16.4788    3.2891  -14.5565 H   0  0  0  0  0  0  0  0  0  0  0  0
   17.0743    4.5901  -15.6354 H   0  0  0  0  0  0  0  0  0  0  0  0
   16.1963    3.1866  -16.3193 H   0  0  0  0  0  0  0  0  0  0  0  0
   13.0799    6.9133  -16.1383 H   0  0  0  0  0  0  0  0  0  0  0  0
    6.7409    5.4825  -12.7962 H   0  0  0  0  0  0  0  0  0  0  0  0
    6.0171    3.8072  -11.2286 H   0  0  0  0  0  0  0  0  0  0  0  0
    7.5984    1.2415  -11.9179 H   0  0  0  0  0  0  0  0  0  0  0  0
    6.3846    2.0563  -12.9320 H   0  0  0  0  0  0  0  0  0  0  0  0
    5.8941    1.3068  -11.3915 H   0  0  0  0  0  0  0  0  0  0  0  0
    8.2161    2.4264   -9.6016 H   0  0  0  0  0  0  0  0  0  0  0  0
    6.4786    2.4777   -9.1768 H   0  0  0  0  0  0  0  0  0  0  0  0
    7.4399    3.9837   -9.2017 H   0  0  0  0  0  0  0  0  0  0  0  0
    9.7368    1.0154  -14.3417 H   0  0  0  0  0  0  0  0  0  0  0  0
   12.5255   -0.3711  -14.3820 H   0  0  0  0  0  0  0  0  0  0  0  0
   11.9572    1.0172  -15.4278 H   0  0  0  0  0  0  0  0  0  0  0  0
   13.5331   -2.4200  -16.1557 H   0  0  0  0  0  0  0  0  0  0  0  0
   12.3073   -3.5127  -16.8285 H   0  0  0  0  0  0  0  0  0  0  0  0
   12.8273   -5.0685  -14.0524 H   0  0  0  0  0  0  0  0  0  0  0  0
   14.8376   -5.8773  -13.3342 H   0  0  0  0  0  0  0  0  0  0  0  0
   15.4045   -4.6869  -12.1187 H   0  0  0  0  0  0  0  0  0  0  0  0
   16.2533   -4.8275  -13.6672 H   0  0  0  0  0  0  0  0  0  0  0  0
    9.9902   -2.2166  -15.2697 H   0  0  0  0  0  0  0  0  0  0  0  0
    7.8009   -3.5051  -15.2786 H   0  0  0  0  0  0  0  0  0  0  0  0
    8.0170   -2.5937  -13.7466 H   0  0  0  0  0  0  0  0  0  0  0  0
    8.4299   -4.3404  -13.8291 H   0  0  0  0  0  0  0  0  0  0  0  0
  2  1  2  0  0  0  0
  2  3  1  0  0  0  0
  3 45  1  0  0  0  0
  3  4  1  0  0  0  0
  4  6  1  0  0  0  0
  4  5  1  1  0  0  0
  6 47  1  0  0  0  0
  6 46  1  0  0  0  0
  7  6  1  0  0  0  0
  8  9  1  0  0  0  0
  8 48  1  0  0  0  0
  8  7  1  0  0  0  0
  9 10  1  6  0  0  0
  9  4  1  0  0  0  0
  9 11  1  0  0  0  0
 12 22  1  0  0  0  0
 12  7  1  0  0  0  0
 13 12  2  0  0  0  0
 14 15  1  6  0  0  0
 14 24  1  0  0  0  0
 14 13  1  0  0  0  0
 16 17  2  0  0  0  0
 16 15  1  0  0  0  0
 17 51  1  0  0  0  0
 18 17  1  0  0  0  0
 19 18  1  0  0  0  0
 19 52  1  0  0  0  0
 20 21  2  0  0  0  0
 20 18  1  0  0  0  0
 21 16  1  0  0  0  0
 23 27  1  0  0  0  0
 23 22  1  0  0  0  0
 24 23  2  0  0  0  0
 25 24  1  0  0  0  0
 25 26  2  0  0  0  0
 26 27  1  0  0  0  0
 27 28  1  0  0  0  0
 28 30  1  0  0  0  0
 29 60  1  0  0  0  0
 29 28  1  0  0  0  0
 30 61  1  0  0  0  0
 30 63  1  0  0  0  0
 30 62  1  0  0  0  0
 31  2  1  0  0  0  0
 32 65  1  0  0  0  0
 32 31  1  0  0  0  0
 33 34  1  0  0  0  0
 34 35  1  0  0  0  0
 35 41  1  0  0  0  0
 35 37  1  0  0  0  0
 35 36  1  1  0  0  0
 37 69  1  0  0  0  0
 37 38  1  0  0  0  0
 38 40  2  0  0  0  0
 38 39  1  0  0  0  0
 39 71  1  0  0  0  0
 41 44  2  0  0  0  0
 42 41  1  0  0  0  0
 42 43  1  0  0  0  0
 43 76  1  0  0  0  0
 43 75  1  0  0  0  0
 49  8  1  0  0  0  0
 50 15  1  0  0  0  0
 53 19  1  0  0  0  0
 54 19  1  0  0  0  0
 55 21  1  0  0  0  0
 56 26  1  0  0  0  0
 57 28  1  0  0  0  0
 58 29  1  0  0  0  0
 59 29  1  0  0  0  0
 64 31  1  0  0  0  0
 66 32  1  0  0  0  0
 67 34  1  0  0  0  0
 68 34  1  0  0  0  0
 70 39  1  0  0  0  0
 72 39  1  0  0  0  0
 73 42  1  0  0  0  0
 74 43  1  0  0  0  0
M  END
