76
-1 1
O        -2.798900   -1.097708   -0.385475
C        -1.579421   -1.046303   -0.351558
N        -0.854237   -1.951415    0.382529
C         0.281464   -1.754815    1.266638
H         0.438375   -2.734771    1.735550
C         0.040537   -0.634603    2.291209
N         0.545355    0.543308    1.608806
C         1.683079    0.197561    0.770539
C         1.642297   -1.330759    0.685357
H         1.874429   -1.737540   -0.307736
F         2.593437   -1.831093    1.574021
C        -0.191299    1.672212    1.407530
N         0.416679    2.642247    0.684422
C        -0.247573    3.754834    0.404841
N         0.324265    4.742553   -0.328654
C         1.579565    4.729237   -0.930720
C         2.569998    3.761020   -0.907502
N         3.592121    4.253411   -1.657727
C         4.811771    3.565973   -2.007053
N         3.333660    5.453166   -2.163177
C         2.118799    5.764178   -1.730967
N        -1.428910    1.706194    1.908635
C        -2.078735    2.827566    1.598448
C        -1.574569    3.903815    0.870950
N        -2.521656    4.889645    0.711156
C        -3.570624    4.411616    1.319198
N        -3.376929    3.169748    1.886363
C        -4.397882    2.317958    2.496069
C        -4.736394    1.146402    1.575659
C        -3.970910    1.875171    3.893113
C        -0.851229   -0.065419   -1.209984
C        -0.001453   -0.442751   -2.167586
S         0.254300   -4.094315   -3.954244
C         1.071495   -5.008745   -2.590727
C         0.783073   -4.411484   -1.202109
H         0.898255   -3.320117   -1.312341
N         1.681985   -4.872606   -0.163699
C         2.947400   -4.416647   -0.025176
C         3.674174   -4.898418    1.218808
O         3.479880   -3.652361   -0.813886
C        -0.637537   -4.634258   -0.668850
N        -1.615487   -4.465100   -1.556787
C        -3.006832   -4.527537   -1.193238
O        -0.830872   -4.902353    0.525778
H        -1.450250   -2.701334    0.726350
H         0.619944   -0.821140    3.211877
H        -1.016045   -0.509372    2.549453
H         2.644628    0.505076    1.213771
H         1.582314    0.665918   -0.214936
H        -0.270945    5.541707   -0.505229
H         2.601581    2.796199   -0.415583
H         5.013365    2.785829   -1.262384
H         5.638522    4.287158   -2.013844
H         4.732259    3.099455   -3.000479
H         1.662795    6.717069   -1.998119
H        -4.537692    4.910436    1.398011
H        -5.286776    2.964098    2.590140
H        -3.862717    0.501876    1.400800
H        -5.082622    1.507595    0.596540
H        -5.535802    0.535141    2.020073
H        -3.067204    1.253095    3.832486
H        -4.774493    1.288824    4.362320
H        -3.754419    2.745074    4.530794
H        -1.176154    0.975585   -1.116585
H         0.261054   -1.492274   -2.358335
H         0.417598    0.297565   -2.855168
H         2.161527   -4.960984   -2.723463
H         0.783285   -6.075016   -2.587874
H         1.215825   -5.337353    0.610184
H         3.210884   -5.782683    1.678885
H         3.678582   -4.071694    1.943583
H         4.715419   -5.122476    0.952671
H        -1.312147   -4.240298   -2.534367
H        -3.597411   -4.821417   -2.072233
H        -3.376258   -3.549863   -0.836845
H        -3.154997   -5.267678   -0.393574
