76
-1 1
O         8.974217   -0.594028  -12.477586
C        10.129305   -0.499301  -12.906687
N        11.135373   -1.313834  -12.269137
C        11.999355   -0.746651  -11.232627
H        12.181069   -1.547126  -10.502152
C        11.456111    0.515550  -10.542863
N        12.005039    1.603345  -11.337165
C        13.233708    1.207684  -12.008172
C        13.385985   -0.278093  -11.700011
H        13.796534   -0.879622  -12.524428
F        14.246634   -0.415892  -10.609463
C        11.233330    2.615426  -11.821062
N        11.841393    3.442320  -12.706161
C        11.143225    4.419857  -13.260929
N        11.713455    5.259737  -14.166570
C        12.988022    5.163330  -14.714671
C        13.990688    4.237660  -14.477798
N        15.030624    4.598041  -15.277766
C        16.263160    3.872298  -15.460810
N        14.772769    5.674047  -16.011440
C        13.540166    6.037809  -15.680972
N         9.971161    2.694940  -11.393200
C         9.287769    3.667867  -11.988697
C         9.783146    4.584994  -12.913923
N         8.798297    5.445616  -13.346090
C         7.736668    5.045800  -12.704340
N         7.955641    3.980177  -11.857125
C         6.933259    3.195220  -11.166085
C         6.694801    1.871938  -11.892564
C         7.290434    3.010751   -9.693575
C        10.521829    0.339130  -13.993508
C        11.677960    0.206151  -14.754273
S        11.475609   -1.246425  -16.653146
C        12.466531   -2.685185  -16.117577
C        12.207649   -3.192838  -14.685530
H        12.247129   -2.338967  -13.992240
N        13.209133   -4.150010  -14.266338
C        14.399717   -3.763015  -13.764921
C        15.263167   -4.874283  -13.193052
O        14.787867   -2.602748  -13.762440
C        10.843797   -3.839852  -14.419230
N         9.790360   -3.072189  -14.734623
C         8.432347   -3.392358  -14.382268
O        10.764118   -4.946720  -13.888844
H        10.608831   -2.074839  -11.849097
H        11.821008    0.573926   -9.502526
H        10.360907    0.560153  -10.539730
H        14.115571    1.754742  -11.635733
H        13.143339    1.389252  -13.086840
H        11.088770    5.955328  -14.553123
H        14.016017    3.384287  -13.810918
H        16.478752    3.289102  -14.556486
H        17.074304    4.590096  -15.635420
H        16.196335    3.186635  -16.319276
H        13.079943    6.913278  -16.138275
H         6.740909    5.482482  -12.796185
H         6.017053    3.807195  -11.228596
H         7.598431    1.241514  -11.917940
H         6.384556    2.056313  -12.932038
H         5.894145    1.306797  -11.391456
H         8.216073    2.426354   -9.601575
H         6.478630    2.477729   -9.176807
H         7.439914    3.983686   -9.201742
H         9.736789    1.015430  -14.341741
H        12.525535   -0.371143  -14.382038
H        11.957196    1.017162  -15.427768
H        13.533060   -2.419983  -16.155704
H        12.307278   -3.512723  -16.828486
H        12.827301   -5.068457  -14.052390
H        14.837581   -5.877281  -13.334214
H        15.404540   -4.686948  -12.118719
H        16.253306   -4.827453  -13.667237
H         9.990223   -2.216627  -15.269712
H         7.800872   -3.505058  -15.278615
H         8.017030   -2.593680  -13.746553
H         8.429883   -4.340431  -13.829077
