-1 1
 OpenBabel05232414493D

 79 82  0  0  1  0  0  0  0  0999 V2000
   -4.3919   -0.1015   -8.2753 O   0  0  0  0  0  0  0  0  0  0  0  0
   -4.1183   -0.3039   -9.4669 C   0  0  0  0  0  0  0  0  0  0  0  0
   -3.2248    0.6484  -10.0982 N   0  0  0  0  0  0  0  0  0  0  0  0
   -3.8385    1.4783  -11.1146 C   0  0  2  0  0  0  0  0  0  0  0  0
   -4.3261    0.8259  -11.8514 H   0  0  0  0  0  0  0  0  0  0  0  0
   -2.8259    2.4108  -11.8021 C   0  0  0  0  0  0  0  0  0  0  0  0
   -3.1905    3.7502  -11.3642 N   0  0  0  0  0  0  0  0  0  0  0  0
   -4.1953    3.7372  -10.3193 C   0  0  0  0  0  0  0  0  0  0  0  0
   -4.9144    2.4205  -10.5480 C   0  0  1  0  0  0  0  0  0  0  0  0
   -5.3852    2.0027   -9.6471 H   0  0  0  0  0  0  0  0  0  0  0  0
   -5.9181    2.6261  -11.4956 F   0  0  0  0  0  0  0  0  0  0  0  0
   -2.6769    4.8708  -11.9197 C   0  0  0  0  0  0  0  0  0  0  0  0
   -3.0699    6.0502  -11.3708 N   0  0  0  0  0  0  0  0  0  0  0  0
   -2.6180    7.1820  -11.8875 C   0  0  1  0  0  3  0  0  0  0  0  0
   -2.9839    8.3839  -11.3699 N   0  0  0  0  0  0  0  0  0  0  0  0
   -3.8173    8.6185  -10.2805 C   0  0  0  0  0  0  0  0  0  0  0  0
   -4.1921    9.9046   -9.8104 C   0  0  0  0  0  0  0  0  0  0  0  0
   -3.7877   11.2302  -10.3697 C   0  0  0  0  0  0  0  0  0  0  0  0
   -4.9963    9.7986   -8.7590 N   0  0  0  0  0  0  0  0  0  0  0  0
   -5.1509    8.4947   -8.5486 N   0  0  0  0  0  0  0  0  0  0  0  0
   -5.9316    8.0298   -7.4302 C   0  0  0  0  0  0  0  0  0  0  0  0
   -4.4567    7.7307   -9.4342 C   0  0  0  0  0  0  0  0  0  0  0  0
   -1.8403    4.7084  -12.9540 N   0  0  0  0  0  2  0  0  0  0  0  0
   -1.4075    5.8660  -13.4518 C   0  0  0  0  0  0  0  0  0  0  0  0
   -1.7361    7.1402  -12.9926 C   0  0  0  0  0  0  0  0  0  0  0  0
   -1.1128    8.1196  -13.7322 N   0  0  0  0  0  0  0  0  0  0  0  0
   -0.4290    7.4489  -14.6166 C   0  0  0  0  0  0  0  0  0  0  0  0
   -0.5537    6.0803  -14.5070 N   0  0  0  0  0  0  0  0  0  0  0  0
    0.0447    5.0780  -15.3887 C   0  0  0  0  0  0  0  0  0  0  0  0
    0.8772    4.0805  -14.5870 C   0  0  0  0  0  0  0  0  0  0  0  0
   -1.0197    4.4015  -16.2476 C   0  0  0  0  0  0  0  0  0  0  0  0
   -4.5681   -1.3786  -10.2689 C   0  0  0  0  0  3  0  0  0  0  0  0
   -4.0406   -1.7084  -11.5539 C   0  0  0  0  0  0  0  0  0  0  0  0
   -5.0748   -1.0356  -13.2495 S   0  0  0  0  0  0  0  0  0  0  0  0
   -3.6609   -0.9647  -14.3953 C   0  0  0  0  0  0  0  0  0  0  0  0
   -3.9598   -0.2305  -15.7152 C   0  0  2  0  0  0  0  0  0  0  0  0
   -4.9511   -0.5670  -16.0697 H   0  0  0  0  0  0  0  0  0  0  0  0
   -2.9694   -0.5204  -16.7274 N   0  0  0  0  0  0  0  0  0  0  0  0
   -2.9149   -1.6888  -17.4078 C   0  0  0  0  0  0  0  0  0  0  0  0
   -1.8644   -1.7445  -18.5060 C   0  0  0  0  0  0  0  0  0  0  0  0
   -3.6282   -2.6460  -17.1649 O   0  0  0  0  0  0  0  0  0  0  0  0
   -3.9819    1.3069  -15.5957 C   0  0  0  0  0  0  0  0  0  0  0  0
   -4.7666    1.8286  -14.6426 N   0  0  0  0  0  0  0  0  0  0  0  0
   -4.8702    3.2580  -14.4515 C   0  0  0  0  0  0  0  0  0  0  0  0
   -3.3096    1.9978  -16.3581 O   0  0  0  0  0  0  0  0  0  0  0  0
   -2.8588    1.2205   -9.3378 H   0  0  0  0  0  0  0  0  0  0  0  0
   -2.8655    2.3457  -12.8978 H   0  0  0  0  0  0  0  0  0  0  0  0
   -1.7990    2.1507  -11.4959 H   0  0  0  0  0  0  0  0  0  0  0  0
   -4.8762    4.5929  -10.4143 H   0  0  0  0  0  0  0  0  0  0  0  0
   -3.7426    3.7642   -9.3102 H   0  0  0  0  0  0  0  0  0  0  0  0
   -2.5854    9.1875  -11.8388 H   0  0  0  0  0  0  0  0  0  0  0  0
   -2.6946   11.3696  -10.3365 H   0  0  0  0  0  0  0  0  0  0  0  0
   -4.2530   12.0331   -9.7833 H   0  0  0  0  0  0  0  0  0  0  0  0
   -4.1052   11.3419  -11.4194 H   0  0  0  0  0  0  0  0  0  0  0  0
   -5.3880    8.1652   -6.4825 H   0  0  0  0  0  0  0  0  0  0  0  0
   -6.1538    6.9640   -7.5657 H   0  0  0  0  0  0  0  0  0  0  0  0
   -6.8735    8.5919   -7.3836 H   0  0  0  0  0  0  0  0  0  0  0  0
   -4.4568    6.6472   -9.4203 H   0  0  0  0  0  0  0  0  0  0  0  0
    0.2008    7.8858  -15.3931 H   0  0  0  0  0  0  0  0  0  0  0  0
    0.7196    5.6511  -16.0467 H   0  0  0  0  0  0  0  0  0  0  0  0
    0.2316    3.5202  -13.8962 H   0  0  0  0  0  0  0  0  0  0  0  0
    1.6525    4.5969  -14.0017 H   0  0  0  0  0  0  0  0  0  0  0  0
    1.3678    3.3695  -15.2678 H   0  0  0  0  0  0  0  0  0  0  0  0
   -1.7187    3.8075  -15.6428 H   0  0  0  0  0  0  0  0  0  0  0  0
   -0.5478    3.7185  -16.9689 H   0  0  0  0  0  0  0  0  0  0  0  0
   -1.6002    5.1473  -16.8102 H   0  0  0  0  0  0  0  0  0  0  0  0
   -5.3131   -2.0303   -9.8070 H   0  0  0  0  0  0  0  0  0  0  0  0
   -4.0582   -2.7727  -11.8131 H   0  0  0  0  0  0  0  0  0  0  0  0
   -3.0656   -1.2536  -11.7763 H   0  0  0  0  0  0  0  0  0  0  0  0
   -3.3667   -1.9893  -14.6617 H   0  0  0  0  0  0  0  0  0  0  0  0
   -2.8035   -0.4808  -13.8941 H   0  0  0  0  0  0  0  0  0  0  0  0
   -2.4887    0.3107  -17.0635 H   0  0  0  0  0  0  0  0  0  0  0  0
   -1.3444   -0.7906  -18.6695 H   0  0  0  0  0  0  0  0  0  0  0  0
   -2.3508   -2.0618  -19.4388 H   0  0  0  0  0  0  0  0  0  0  0  0
   -1.1259   -2.5154  -18.2426 H   0  0  0  0  0  0  0  0  0  0  0  0
   -5.2139    1.1846  -13.9823 H   0  0  0  0  0  0  0  0  0  0  0  0
   -3.8744    3.7259  -14.4675 H   0  0  0  0  0  0  0  0  0  0  0  0
   -5.3312    3.4436  -13.4758 H   0  0  0  0  0  0  0  0  0  0  0  0
   -5.4789    3.7264  -15.2422 H   0  0  0  0  0  0  0  0  0  0  0  0
  2  1  2  0  0  0  0
  3  2  1  0  0  0  0
  3 46  1  0  0  0  0
  4  5  1  6  0  0  0
  4  9  1  0  0  0  0
  4  3  1  0  0  0  0
  6 48  1  0  0  0  0
  6  7  1  0  0  0  0
  6  4  1  0  0  0  0
  7  8  1  0  0  0  0
  8 50  1  0  0  0  0
  9  8  1  0  0  0  0
  9 10  1  1  0  0  0
 11  9  1  0  0  0  0
 12 13  2  0  0  0  0
 12  7  1  0  0  0  0
 14 13  1  0  0  0  0
 14 15  1  1  0  0  0
 15 16  1  0  0  0  0
 16 17  1  0  0  0  0
 16 22  2  0  0  0  0
 17 19  2  0  0  0  0
 18 52  1  0  0  0  0
 18 17  1  0  0  0  0
 18 53  1  0  0  0  0
 19 20  1  0  0  0  0
 20 21  1  0  0  0  0
 21 57  1  0  0  0  0
 21 55  1  0  0  0  0
 22 58  1  0  0  0  0
 22 20  1  0  0  0  0
 23 12  1  0  0  0  0
 24 25  2  0  0  0  0
 24 23  1  0  0  0  0
 25 14  1  0  0  0  0
 26 25  1  0  0  0  0
 27 28  1  0  0  0  0
 27 26  2  0  0  0  0
 28 24  1  0  0  0  0
 29 30  1  0  0  0  0
 29 28  1  0  0  0  0
 30 62  1  0  0  0  0
 30 61  1  0  0  0  0
 31 64  1  0  0  0  0
 31 29  1  0  0  0  0
 32 67  1  0  0  0  0
 32  2  1  0  0  0  0
 33 32  1  0  0  0  0
 34 33  1  0  0  0  0
 35 71  1  0  0  0  0
 35 34  1  0  0  0  0
 36 37  1  6  0  0  0
 36 42  1  0  0  0  0
 36 35  1  0  0  0  0
 38 36  1  0  0  0  0
 39 41  2  0  0  0  0
 39 38  1  0  0  0  0
 40 75  1  0  0  0  0
 40 39  1  0  0  0  0
 42 43  1  0  0  0  0
 43 44  1  0  0  0  0
 43 76  1  0  0  0  0
 44 78  1  0  0  0  0
 45 42  2  0  0  0  0
 47  6  1  0  0  0  0
 49  8  1  0  0  0  0
 51 15  1  0  0  0  0
 54 18  1  0  0  0  0
 56 21  1  0  0  0  0
 59 27  1  0  0  0  0
 60 29  1  0  0  0  0
 63 30  1  0  0  0  0
 65 31  1  0  0  0  0
 66 31  1  0  0  0  0
 68 33  1  0  0  0  0
 69 33  1  0  0  0  0
 70 35  1  0  0  0  0
 72 38  1  0  0  0  0
 73 40  1  0  0  0  0
 74 40  1  0  0  0  0
 77 44  1  0  0  0  0
 79 44  1  0  0  0  0
M  END
