79
-1 1
O         1.053417   -3.267200    3.390454
C         0.026482   -3.234486    2.731221
N        -0.088237   -2.386247    1.664451
C        -1.276524   -1.938101    0.956881
H        -1.835686   -2.766014    0.490315
C        -0.877731   -0.915803   -0.099802
N        -0.727533    0.310682    0.672693
C        -1.437679    0.257137    1.936927
C        -2.157666   -1.086053    1.880030
H        -2.313392   -1.544635    2.867771
F        -3.394551   -0.913520    1.290348
C        -0.019813    1.389388    0.257185
N         0.005966    2.437121    1.120605
C         0.696961    3.518418    0.792895
N         0.749800    4.593446    1.622803
C         0.143432    4.729726    2.867393
C         0.236044    5.881118    3.693083
C         0.978817    7.146184    3.408090
N        -0.456839    5.706734    4.812362
N        -0.991247    4.491816    4.724697
C        -1.750484    3.955330    5.825099
C        -0.657807    3.850112    3.572529
N         0.580896    1.312201   -0.934479
C         1.281034    2.408498   -1.228135
C         1.392935    3.551926   -0.436294
N         2.192474    4.501674   -1.029200
C         2.554606    3.939727   -2.148778
N         2.044293    2.674448   -2.339148
C         2.297173    1.806648   -3.492639
C         2.983410    0.514427   -3.059450
C         1.014256    1.554257   -4.276995
C        -1.114085   -4.129141    3.101261
C        -1.931978   -4.786106    2.275226
S        -2.252578   -4.440361   -1.410889
C        -0.432209   -4.308180   -1.555755
C         0.102061   -3.852528   -2.931949
H        -0.336862   -4.527255   -3.688093
N         1.546353   -3.920317   -3.003609
C         2.248580   -5.063109   -3.167719
C         3.756054   -4.874572   -3.271482
O         1.748798   -6.173806   -3.204352
C        -0.258722   -2.407159   -3.311357
N        -1.560298   -2.101697   -3.263461
C        -2.021870   -0.769210   -3.547514
O         0.612544   -1.600684   -3.646053
H         0.754344   -1.835564    1.531494
H        -1.679625   -0.830821   -0.847658
H         0.047691   -1.169041   -0.634892
H        -2.164593    1.077904    2.039758
H        -0.741753    0.307428    2.792099
H         1.308885    5.365680    1.282980
H         2.057014    6.961873    3.271717
H         0.853747    7.842515    4.247395
H         0.607705    7.638456    2.494224
H        -1.089958    3.609625    6.635451
H        -2.352050    3.109175    5.469530
H        -2.417579    4.733783    6.217376
H        -0.994371    2.851376    3.320601
H         3.204662    4.390519   -2.900122
H         2.993351    2.385791   -4.122898
H         2.300579   -0.087480   -2.445259
H         3.901904    0.731177   -2.493445
H         3.240569   -0.083686   -3.945080
H         0.330951    0.926666   -3.691230
H         1.243156    1.000862   -5.198613
H         0.524976    2.504062   -4.540611
H        -1.143959   -4.319276    4.179285
H        -2.662006   -5.487846    2.690124
H        -1.924905   -4.693923    1.178826
H         0.015688   -5.296932   -1.382717
H        -0.013223   -3.631189   -0.788928
H         1.983581   -3.015263   -3.154038
H         4.060778   -3.829651   -3.425240
H         4.130977   -5.494505   -4.097064
H         4.217918   -5.244096   -2.343865
H        -2.162958   -2.792454   -2.761274
H        -1.554562   -0.019120   -2.885773
H        -3.110260   -0.733858   -3.405854
H        -1.790507   -0.479906   -4.585609
