76
-1 1
O         0.331168   -4.059554    2.042509
C        -0.766458   -3.672083    1.679873
N        -0.942760   -2.391823    1.228510
C        -2.159299   -1.615205    1.098851
H        -3.024235   -2.225194    1.380944
C        -2.038583   -0.313752    1.896802
N        -1.180931    0.474097    1.029368
C        -1.290678    0.066033   -0.367915
C        -2.299390   -1.074877   -0.327473
H        -2.157261   -1.846796   -1.100425
F        -3.590120   -0.563471   -0.451126
C        -0.239851    1.336760    1.493827
N         0.659068    1.776114    0.581619
C         1.614151    2.615746    0.968264
N         2.553818    3.069918    0.116724
C         2.789649    2.720281   -1.216659
C         2.087927    1.903117   -2.090987
N         2.783771    1.931377   -3.255152
C         2.489076    1.166434   -4.447248
N         3.870061    2.691672   -3.199198
C         3.891561    3.184696   -1.968492
N        -0.290055    1.643722    2.797988
C         0.677541    2.487870    3.150663
C         1.653225    3.032802    2.325900
N         2.495965    3.862687    3.030379
C         2.036608    3.820741    4.250199
N         0.929504    3.008181    4.396822
C         0.183999    2.687930    5.606020
C         1.012174    1.809570    6.541324
C        -0.335408    3.952434    6.284555
C        -1.941095   -4.596254    1.701145
C        -2.775869   -4.772760    0.675831
S        -1.882213   -4.067085   -2.734924
C        -0.582147   -3.445575   -3.872427
C         0.027064   -2.096651   -3.469646
H         0.871204   -1.853832   -4.134492
N         0.579851   -2.165708   -2.133279
C         1.847238   -1.784844   -1.826617
C         2.204009   -1.876517   -0.356162
O         2.633461   -1.343562   -2.648262
C        -0.907003   -0.872341   -3.573271
N        -2.219732   -1.126939   -3.717352
C        -3.202741   -0.074412   -3.757116
O        -0.447451    0.267242   -3.524017
H        -0.079503   -1.855400    1.253821
H        -1.575391   -0.450085    2.881845
H        -3.028203    0.154187    2.035446
H        -0.325504   -0.275508   -0.766723
H        -1.632514    0.878646   -1.025197
H         3.232276    3.689124    0.542440
H         1.172231    1.328377   -1.991332
H         3.140809    0.284313   -4.493744
H         2.646184    1.808718   -5.323917
H         1.446604    0.829786   -4.387901
H         4.688232    3.858554   -1.651891
H         2.457461    4.361830    5.098116
H        -0.673895    2.101862    5.242253
H         1.900492    2.348514    6.907600
H         1.349823    0.903183    6.019261
H         0.414410    1.505134    7.413421
H         0.491010    4.572818    6.666221
H        -0.977279    3.688937    7.138120
H        -0.924321    4.557468    5.580662
H        -1.977774   -5.240179    2.585292
H        -2.675428   -4.205052   -0.257256
H        -3.545510   -5.548426    0.710001
H        -0.977592   -3.350554   -4.897216
H         0.245093   -4.171023   -3.916776
H         0.021573   -2.707692   -1.473391
H         1.897730   -0.929774    0.121929
H         3.293445   -1.957082   -0.261810
H         1.723304   -2.718196    0.164640
H        -2.518856   -2.096111   -3.507030
H        -3.992291   -0.320042   -4.483202
H        -2.709926    0.859234   -4.057854
H        -3.669873    0.077669   -2.770510
