-1 1
 OpenBabel05192410563D

 76 79  0  0  1  0  0  0  0  0999 V2000
   -1.3263   -3.7824    1.6102 O   0  0  0  0  0  0  0  0  0  0  0  0
   -1.6176   -3.1440    0.5835 C   0  0  0  0  0  0  0  0  0  0  0  0
   -0.5413   -2.3324    0.0254 N   0  0  0  0  0  0  0  0  0  0  0  0
   -0.7211   -0.9025   -0.0279 C   0  0  1  0  0  0  0  0  0  0  0  0
   -1.7988   -0.6871   -0.0905 H   0  0  0  0  0  0  0  0  0  0  0  0
   -0.1537   -0.1447    1.1824 C   0  0  0  0  0  0  0  0  0  0  0  0
    0.0966    1.1916    0.6713 N   0  0  0  0  0  0  0  0  0  0  0  0
    0.0394    1.2698   -0.7758 C   0  0  0  0  0  0  0  0  0  0  0  0
   -0.0505   -0.1943   -1.2055 C   0  0  2  0  0  0  0  0  0  0  0  0
    0.9465   -0.6327   -1.3815 H   0  0  0  0  0  0  0  0  0  0  0  0
   -0.7627   -0.3043   -2.3748 F   0  0  0  0  0  0  0  0  0  0  0  0
    0.3765    2.2458    1.4688 C   0  0  0  0  0  0  0  0  0  0  0  0
    0.5508    3.4390    0.8432 N   0  0  0  0  0  0  0  0  0  0  0  0
    0.8345    4.5105    1.5653 C   0  0  1  0  0  3  0  0  0  0  0  0
    1.0221    5.7288    0.9896 N   0  0  0  0  0  0  0  0  0  0  0  0
    0.9504    6.0642   -0.3592 C   0  0  0  0  0  0  0  0  0  0  0  0
    1.2326    7.3125   -0.8887 C   0  0  0  0  0  0  0  0  0  0  0  0
    1.0470    7.2097   -2.2326 N   0  0  0  0  0  0  0  0  0  0  0  0
    1.1302    8.2672   -3.2077 C   0  0  0  0  0  0  0  0  0  0  0  0
    0.6590    5.9948   -2.5986 N   0  0  0  0  0  0  0  0  0  0  0  0
    0.5958    5.2765   -1.4846 C   0  0  0  0  0  0  0  0  0  0  0  0
    0.4565    2.0115    2.7867 N   0  0  0  0  0  2  0  0  0  0  0  0
    0.7318    3.1127    3.4777 C   0  0  0  0  0  0  0  0  0  0  0  0
    0.9444    4.3915    2.9710 C   0  0  0  0  0  0  0  0  0  0  0  0
    1.2220    5.2879    3.9789 N   0  0  0  0  0  0  0  0  0  0  0  0
    1.1777    4.5648    5.0642 C   0  0  0  0  0  0  0  0  0  0  0  0
    0.8757    3.2368    4.8372 N   0  0  0  0  0  0  0  0  0  0  0  0
    0.8074    2.1172    5.7721 C   0  0  0  0  0  0  0  0  0  0  0  0
    2.1412    1.3751    5.8146 C   0  0  0  0  0  0  0  0  0  0  0  0
    0.3363    2.5703    7.1481 C   0  0  0  0  0  0  0  0  0  0  0  0
   -2.8418   -3.1489   -0.1041 C   0  0  0  0  0  3  0  0  0  0  0  0
   -3.1043   -2.6135   -1.4381 C   0  0  0  0  0  0  0  0  0  0  0  0
   -2.3740   -3.5875   -2.9740 S   0  0  0  0  0  0  0  0  0  0  0  0
   -2.2154   -5.2742   -2.3266 C   0  0  0  0  0  0  0  0  0  0  0  0
   -0.7850   -5.8224   -2.3779 C   0  0  2  0  0  0  0  0  0  0  0  0
   -0.8079   -6.8870   -2.0841 H   0  0  0  0  0  0  0  0  0  0  0  0
    0.0547   -5.1811   -1.4060 N   0  0  0  0  0  0  0  0  0  0  0  0
    0.7492   -5.9048   -0.4873 C   0  0  0  0  0  0  0  0  0  0  0  0
    1.4670   -5.0794    0.5579 C   0  0  0  0  0  0  0  0  0  0  0  0
    0.7668   -7.1247   -0.4773 O   0  0  0  0  0  0  0  0  0  0  0  0
   -0.1043   -5.8295   -3.7612 C   0  0  0  0  0  0  0  0  0  0  0  0
   -0.9485   -5.8421   -4.8392 N   0  0  0  0  0  0  0  0  0  0  0  0
   -0.4337   -5.7715   -6.1824 C   0  0  0  0  0  0  0  0  0  0  0  0
    1.1015   -5.9074   -3.8785 O   0  0  0  0  0  0  0  0  0  0  0  0
    0.2751   -2.5556    0.5896 H   0  0  0  0  0  0  0  0  0  0  0  0
    0.7824   -0.6139    1.5405 H   0  0  0  0  0  0  0  0  0  0  0  0
   -0.8473   -0.1287    2.0338 H   0  0  0  0  0  0  0  0  0  0  0  0
    0.9170    1.7919   -1.1842 H   0  0  0  0  0  0  0  0  0  0  0  0
   -0.8612    1.8053   -1.1255 H   0  0  0  0  0  0  0  0  0  0  0  0
    1.2380    6.4686    1.6454 H   0  0  0  0  0  0  0  0  0  0  0  0
    1.5498    8.2394   -0.4166 H   0  0  0  0  0  0  0  0  0  0  0  0
    1.8924    8.9962   -2.9010 H   0  0  0  0  0  0  0  0  0  0  0  0
    0.1642    8.7832   -3.3255 H   0  0  0  0  0  0  0  0  0  0  0  0
    1.4171    7.8260   -4.1697 H   0  0  0  0  0  0  0  0  0  0  0  0
    0.3124    4.2295   -1.4942 H   0  0  0  0  0  0  0  0  0  0  0  0
    1.3472    4.9425    6.0719 H   0  0  0  0  0  0  0  0  0  0  0  0
    0.0541    1.4388    5.3422 H   0  0  0  0  0  0  0  0  0  0  0  0
    2.9397    2.0294    6.1991 H   0  0  0  0  0  0  0  0  0  0  0  0
    2.4163    1.0354    4.8063 H   0  0  0  0  0  0  0  0  0  0  0  0
    2.0688    0.4919    6.4664 H   0  0  0  0  0  0  0  0  0  0  0  0
    1.0868    3.2031    7.6477 H   0  0  0  0  0  0  0  0  0  0  0  0
    0.1695    1.6915    7.7868 H   0  0  0  0  0  0  0  0  0  0  0  0
   -0.6072    3.1314    7.0817 H   0  0  0  0  0  0  0  0  0  0  0  0
   -3.6124   -3.7701    0.3596 H   0  0  0  0  0  0  0  0  0  0  0  0
   -2.6676   -1.6363   -1.6775 H   0  0  0  0  0  0  0  0  0  0  0  0
   -4.1806   -2.5703   -1.6492 H   0  0  0  0  0  0  0  0  0  0  0  0
   -2.9136   -5.9586   -2.8341 H   0  0  0  0  0  0  0  0  0  0  0  0
   -2.5102   -5.2148   -1.2633 H   0  0  0  0  0  0  0  0  0  0  0  0
   -0.0225   -4.1684   -1.3092 H   0  0  0  0  0  0  0  0  0  0  0  0
    1.9941   -4.2272    0.1025 H   0  0  0  0  0  0  0  0  0  0  0  0
    2.1825   -5.7206    1.0861 H   0  0  0  0  0  0  0  0  0  0  0  0
    0.7080   -4.6937    1.2617 H   0  0  0  0  0  0  0  0  0  0  0  0
   -1.8941   -5.5124   -4.6897 H   0  0  0  0  0  0  0  0  0  0  0  0
    0.5913   -6.1632   -6.1744 H   0  0  0  0  0  0  0  0  0  0  0  0
   -0.4003   -4.7355   -6.5622 H   0  0  0  0  0  0  0  0  0  0  0  0
   -1.0481   -6.3767   -6.8669 H   0  0  0  0  0  0  0  0  0  0  0  0
  2  1  2  0  0  0  0
  3  2  1  0  0  0  0
  3 45  1  0  0  0  0
  4  5  1  6  0  0  0
  4  3  1  0  0  0  0
  4  6  1  0  0  0  0
  6 46  1  0  0  0  0
  6 47  1  0  0  0  0
  7  6  1  0  0  0  0
  7 12  1  0  0  0  0
  8  7  1  0  0  0  0
  9 10  1  6  0  0  0
  9  8  1  0  0  0  0
  9  4  1  0  0  0  0
 11  9  1  0  0  0  0
 12 22  1  0  0  0  0
 13 12  2  0  0  0  0
 13 14  1  0  0  0  0
 14 15  1  1  0  0  0
 14 24  1  0  0  0  0
 15 50  1  0  0  0  0
 16 15  1  0  0  0  0
 17 51  1  0  0  0  0
 17 16  2  0  0  0  0
 18 17  1  0  0  0  0
 19 52  1  0  0  0  0
 19 18  1  0  0  0  0
 20 18  1  0  0  0  0
 20 21  2  0  0  0  0
 21 16  1  0  0  0  0
 22 23  1  0  0  0  0
 23 27  1  0  0  0  0
 24 23  2  0  0  0  0
 24 25  1  0  0  0  0
 25 26  2  0  0  0  0
 26 56  1  0  0  0  0
 27 26  1  0  0  0  0
 27 28  1  0  0  0  0
 28 29  1  0  0  0  0
 28 30  1  0  0  0  0
 29 58  1  0  0  0  0
 29 60  1  0  0  0  0
 30 61  1  0  0  0  0
 30 62  1  0  0  0  0
 31 64  1  0  0  0  0
 31  2  1  0  0  0  0
 32 31  1  0  0  0  0
 33 34  1  0  0  0  0
 33 32  1  0  0  0  0
 34 68  1  0  0  0  0
 35 34  1  0  0  0  0
 35 36  1  1  0  0  0
 35 37  1  0  0  0  0
 37 69  1  0  0  0  0
 37 38  1  0  0  0  0
 38 40  2  0  0  0  0
 38 39  1  0  0  0  0
 39 71  1  0  0  0  0
 39 72  1  0  0  0  0
 41 35  1  0  0  0  0
 42 73  1  0  0  0  0
 42 41  1  0  0  0  0
 43 74  1  0  0  0  0
 43 42  1  0  0  0  0
 44 41  2  0  0  0  0
 48  8  1  0  0  0  0
 49  8  1  0  0  0  0
 53 19  1  0  0  0  0
 54 19  1  0  0  0  0
 55 21  1  0  0  0  0
 57 28  1  0  0  0  0
 59 29  1  0  0  0  0
 63 30  1  0  0  0  0
 65 32  1  0  0  0  0
 66 32  1  0  0  0  0
 67 34  1  0  0  0  0
 70 39  1  0  0  0  0
 75 43  1  0  0  0  0
 76 43  1  0  0  0  0
M  END
