76
-1 1
O        -1.326324   -3.782394    1.610239
C        -1.617575   -3.144030    0.583452
N        -0.541350   -2.332436    0.025397
C        -0.721137   -0.902478   -0.027932
H        -1.798791   -0.687059   -0.090525
C        -0.153742   -0.144690    1.182384
N         0.096636    1.191601    0.671336
C         0.039373    1.269772   -0.775792
C        -0.050537   -0.194294   -1.205496
H         0.946504   -0.632737   -1.381545
F        -0.762706   -0.304298   -2.374850
C         0.376537    2.245821    1.468756
N         0.550800    3.439039    0.843209
C         0.834455    4.510525    1.565348
N         1.022069    5.728803    0.989562
C         0.950433    6.064199   -0.359175
C         1.232590    7.312462   -0.888736
N         1.046987    7.209718   -2.232583
C         1.130166    8.267233   -3.207732
N         0.659008    5.994759   -2.598637
C         0.595786    5.276549   -1.484575
N         0.456453    2.011539    2.786660
C         0.731807    3.112747    3.477703
C         0.944413    4.391460    2.970955
N         1.222010    5.287919    3.978901
C         1.177665    4.564838    5.064248
N         0.875691    3.236811    4.837194
C         0.807356    2.117213    5.772145
C         2.141158    1.375077    5.814585
C         0.336255    2.570283    7.148087
C        -2.841774   -3.148935   -0.104090
C        -3.104344   -2.613491   -1.438087
S        -2.373998   -3.587468   -2.974017
C        -2.215365   -5.274216   -2.326592
C        -0.785020   -5.822449   -2.377927
H        -0.807926   -6.887018   -2.084057
N         0.054737   -5.181064   -1.405954
C         0.749233   -5.904777   -0.487311
C         1.466981   -5.079357    0.557888
O         0.766797   -7.124744   -0.477337
C        -0.104254   -5.829456   -3.761152
N        -0.948498   -5.842108   -4.839201
C        -0.433730   -5.771497   -6.182437
O         1.101533   -5.907396   -3.878483
H         0.275074   -2.555646    0.589557
H         0.782415   -0.613933    1.540467
H        -0.847311   -0.128714    2.033821
H         0.917046    1.791904   -1.184199
H        -0.861245    1.805259   -1.125530
H         1.237984    6.468624    1.645420
H         1.549844    8.239427   -0.416634
H         1.892372    8.996159   -2.901041
H         0.164162    8.783183   -3.325454
H         1.417091    7.826048   -4.169713
H         0.312444    4.229467   -1.494191
H         1.347170    4.942550    6.071929
H         0.054089    1.438799    5.342185
H         2.939725    2.029432    6.199067
H         2.416263    1.035371    4.806329
H         2.068842    0.491942    6.466434
H         1.086793    3.203083    7.647721
H         0.169469    1.691486    7.786832
H        -0.607157    3.131416    7.081666
H        -3.612358   -3.770094    0.359585
H        -2.667575   -1.636340   -1.677500
H        -4.180649   -2.570250   -1.649169
H        -2.913558   -5.958559   -2.834130
H        -2.510226   -5.214755   -1.263282
H        -0.022508   -4.168378   -1.309159
H         1.994135   -4.227163    0.102516
H         2.182486   -5.720636    1.086064
H         0.707982   -4.693662    1.261729
H        -1.894065   -5.512434   -4.689719
H         0.591326   -6.163171   -6.174441
H        -0.400273   -4.735452   -6.562240
H        -1.048128   -6.376737   -6.866894
