-1 1
 OpenBabel05232413483D

 76 78  0  0  1  0  0  0  0  0999 V2000
    0.3312   -4.0596    2.0425 O   0  0  0  0  0  0  0  0  0  0  0  0
   -0.7665   -3.6721    1.6799 C   0  0  0  0  0  0  0  0  0  0  0  0
   -0.9428   -2.3918    1.2285 N   0  0  0  0  0  0  0  0  0  0  0  0
   -2.1593   -1.6152    1.0989 C   0  0  1  0  0  0  0  0  0  0  0  0
   -3.0242   -2.2252    1.3809 H   0  0  0  0  0  0  0  0  0  0  0  0
   -2.0386   -0.3138    1.8968 C   0  0  0  0  0  0  0  0  0  0  0  0
   -1.1809    0.4741    1.0294 N   0  0  0  0  0  0  0  0  0  0  0  0
   -1.2907    0.0660   -0.3679 C   0  0  0  0  0  0  0  0  0  0  0  0
   -2.2994   -1.0749   -0.3275 C   0  0  2  0  0  0  0  0  0  0  0  0
   -2.1573   -1.8468   -1.1004 H   0  0  0  0  0  0  0  0  0  0  0  0
   -3.5901   -0.5635   -0.4511 F   0  0  0  0  0  0  0  0  0  0  0  0
   -0.2399    1.3368    1.4938 C   0  0  0  0  0  0  0  0  0  0  0  0
    0.6591    1.7761    0.5816 N   0  0  0  0  0  0  0  0  0  0  0  0
    1.6142    2.6157    0.9683 C   0  0  2  0  0  3  0  0  0  0  0  0
    2.5538    3.0699    0.1167 N   0  0  0  0  0  0  0  0  0  0  0  0
    2.7896    2.7203   -1.2167 C   0  0  0  0  0  0  0  0  0  0  0  0
    2.0879    1.9031   -2.0910 C   0  0  0  0  0  0  0  0  0  0  0  0
    2.7838    1.9314   -3.2552 N   0  0  0  0  0  0  0  0  0  0  0  0
    2.4891    1.1664   -4.4472 C   0  0  0  0  0  0  0  0  0  0  0  0
    3.8701    2.6917   -3.1992 N   0  0  0  0  0  0  0  0  0  0  0  0
    3.8916    3.1847   -1.9685 C   0  0  0  0  0  0  0  0  0  0  0  0
   -0.2901    1.6437    2.7980 N   0  0  0  0  0  2  0  0  0  0  0  0
    0.6775    2.4879    3.1507 C   0  0  0  0  0  0  0  0  0  0  0  0
    1.6532    3.0328    2.3259 C   0  0  0  0  0  0  0  0  0  0  0  0
    2.4960    3.8627    3.0304 N   0  0  0  0  0  0  0  0  0  0  0  0
    2.0366    3.8207    4.2502 C   0  0  0  0  0  0  0  0  0  0  0  0
    0.9295    3.0082    4.3968 N   0  0  0  0  0  0  0  0  0  0  0  0
    0.1840    2.6879    5.6060 C   0  0  0  0  0  0  0  0  0  0  0  0
    1.0122    1.8096    6.5413 C   0  0  0  0  0  0  0  0  0  0  0  0
   -0.3354    3.9524    6.2846 C   0  0  0  0  0  0  0  0  0  0  0  0
   -1.9411   -4.5963    1.7011 C   0  0  0  0  0  0  0  0  0  0  0  0
   -2.7759   -4.7728    0.6758 C   0  0  0  0  0  0  0  0  0  0  0  0
   -1.8822   -4.0671   -2.7349 S   0  0  0  0  0  1  0  0  0  0  0  0
   -0.5821   -3.4456   -3.8724 C   0  0  0  0  0  0  0  0  0  0  0  0
    0.0271   -2.0967   -3.4696 C   0  0  2  0  0  0  0  0  0  0  0  0
    0.8712   -1.8538   -4.1345 H   0  0  0  0  0  0  0  0  0  0  0  0
    0.5799   -2.1657   -2.1333 N   0  0  0  0  0  0  0  0  0  0  0  0
    1.8472   -1.7848   -1.8266 C   0  0  0  0  0  0  0  0  0  0  0  0
    2.2040   -1.8765   -0.3562 C   0  0  0  0  0  0  0  0  0  0  0  0
    2.6335   -1.3436   -2.6483 O   0  0  0  0  0  0  0  0  0  0  0  0
   -0.9070   -0.8723   -3.5733 C   0  0  0  0  0  0  0  0  0  0  0  0
   -2.2197   -1.1269   -3.7174 N   0  0  0  0  0  0  0  0  0  0  0  0
   -3.2027   -0.0744   -3.7571 C   0  0  0  0  0  0  0  0  0  0  0  0
   -0.4475    0.2672   -3.5240 O   0  0  0  0  0  0  0  0  0  0  0  0
   -0.0795   -1.8554    1.2538 H   0  0  0  0  0  0  0  0  0  0  0  0
   -1.5754   -0.4501    2.8818 H   0  0  0  0  0  0  0  0  0  0  0  0
   -3.0282    0.1542    2.0354 H   0  0  0  0  0  0  0  0  0  0  0  0
   -0.3255   -0.2755   -0.7667 H   0  0  0  0  0  0  0  0  0  0  0  0
   -1.6325    0.8786   -1.0252 H   0  0  0  0  0  0  0  0  0  0  0  0
    3.2323    3.6891    0.5424 H   0  0  0  0  0  0  0  0  0  0  0  0
    1.1722    1.3284   -1.9913 H   0  0  0  0  0  0  0  0  0  0  0  0
    3.1408    0.2843   -4.4937 H   0  0  0  0  0  0  0  0  0  0  0  0
    2.6462    1.8087   -5.3239 H   0  0  0  0  0  0  0  0  0  0  0  0
    1.4466    0.8298   -4.3879 H   0  0  0  0  0  0  0  0  0  0  0  0
    4.6882    3.8586   -1.6519 H   0  0  0  0  0  0  0  0  0  0  0  0
    2.4575    4.3618    5.0981 H   0  0  0  0  0  0  0  0  0  0  0  0
   -0.6739    2.1019    5.2423 H   0  0  0  0  0  0  0  0  0  0  0  0
    1.9005    2.3485    6.9076 H   0  0  0  0  0  0  0  0  0  0  0  0
    1.3498    0.9032    6.0193 H   0  0  0  0  0  0  0  0  0  0  0  0
    0.4144    1.5051    7.4134 H   0  0  0  0  0  0  0  0  0  0  0  0
    0.4910    4.5728    6.6662 H   0  0  0  0  0  0  0  0  0  0  0  0
   -0.9773    3.6889    7.1381 H   0  0  0  0  0  0  0  0  0  0  0  0
   -0.9243    4.5575    5.5807 H   0  0  0  0  0  0  0  0  0  0  0  0
   -1.9778   -5.2402    2.5853 H   0  0  0  0  0  0  0  0  0  0  0  0
   -2.6754   -4.2051   -0.2573 H   0  0  0  0  0  0  0  0  0  0  0  0
   -3.5455   -5.5484    0.7100 H   0  0  0  0  0  0  0  0  0  0  0  0
   -0.9776   -3.3506   -4.8972 H   0  0  0  0  0  0  0  0  0  0  0  0
    0.2451   -4.1710   -3.9168 H   0  0  0  0  0  0  0  0  0  0  0  0
    0.0216   -2.7077   -1.4734 H   0  0  0  0  0  0  0  0  0  0  0  0
    1.8977   -0.9298    0.1219 H   0  0  0  0  0  0  0  0  0  0  0  0
    3.2934   -1.9571   -0.2618 H   0  0  0  0  0  0  0  0  0  0  0  0
    1.7233   -2.7182    0.1646 H   0  0  0  0  0  0  0  0  0  0  0  0
   -2.5189   -2.0961   -3.5070 H   0  0  0  0  0  0  0  0  0  0  0  0
   -3.9923   -0.3200   -4.4832 H   0  0  0  0  0  0  0  0  0  0  0  0
   -2.7099    0.8592   -4.0579 H   0  0  0  0  0  0  0  0  0  0  0  0
   -3.6699    0.0777   -2.7705 H   0  0  0  0  0  0  0  0  0  0  0  0
  2 31  1  0  0  0  0
  2  1  2  0  0  0  0
  3 45  1  0  0  0  0
  3  2  1  0  0  0  0
  4  3  1  0  0  0  0
  4  5  1  1  0  0  0
  4  6  1  0  0  0  0
  6 47  1  0  0  0  0
  6 46  1  0  0  0  0
  7 12  1  0  0  0  0
  7  6  1  0  0  0  0
  8  9  1  0  0  0  0
  8  7  1  0  0  0  0
  9 10  1  6  0  0  0
  9  4  1  0  0  0  0
 11  9  1  0  0  0  0
 12 22  1  0  0  0  0
 13 14  1  0  0  0  0
 13 12  2  0  0  0  0
 14 15  1  1  0  0  0
 14 24  1  0  0  0  0
 15 50  1  0  0  0  0
 16 15  1  0  0  0  0
 17 51  1  0  0  0  0
 17 16  2  0  0  0  0
 18 20  1  0  0  0  0
 18 17  1  0  0  0  0
 19 54  1  0  0  0  0
 19 18  1  0  0  0  0
 20 21  2  0  0  0  0
 21 55  1  0  0  0  0
 21 16  1  0  0  0  0
 22 23  1  0  0  0  0
 23 27  1  0  0  0  0
 24 25  1  0  0  0  0
 24 23  2  0  0  0  0
 25 26  2  0  0  0  0
 26 27  1  0  0  0  0
 26 56  1  0  0  0  0
 27 28  1  0  0  0  0
 28 30  1  0  0  0  0
 28 29  1  0  0  0  0
 29 58  1  0  0  0  0
 29 60  1  0  0  0  0
 30 61  1  0  0  0  0
 30 62  1  0  0  0  0
 31 64  1  0  0  0  0
 32 66  1  0  0  0  0
 32 31  2  0  0  0  0
 34 35  1  0  0  0  0
 34 33  1  0  0  0  0
 35 36  1  6  0  0  0
 35 37  1  0  0  0  0
 37 38  1  0  0  0  0
 37 69  1  0  0  0  0
 38 39  1  0  0  0  0
 39 71  1  0  0  0  0
 39 70  1  0  0  0  0
 39 72  1  0  0  0  0
 40 38  2  0  0  0  0
 41 44  2  0  0  0  0
 41 35  1  0  0  0  0
 42 41  1  0  0  0  0
 42 73  1  0  0  0  0
 43 42  1  0  0  0  0
 43 76  1  0  0  0  0
 48  8  1  0  0  0  0
 49  8  1  0  0  0  0
 52 19  1  0  0  0  0
 53 19  1  0  0  0  0
 57 28  1  0  0  0  0
 59 29  1  0  0  0  0
 63 30  1  0  0  0  0
 65 32  1  0  0  0  0
 67 34  1  0  0  0  0
 68 34  1  0  0  0  0
 74 43  1  0  0  0  0
 75 43  1  0  0  0  0
M  END
