77
-1 1
O       -13.177750    2.057813    6.968461
C       -12.490480    2.597102    6.099686
N       -11.065464    2.680359    6.328969
C       -10.544230    3.943945    6.821655
H       -10.576492    4.713458    6.036949
C        -9.145053    3.706215    7.381073
N        -9.440636    3.065618    8.662465
C       -10.725673    3.521064    9.184175
C       -11.274885    4.429372    8.085505
H       -12.369566    4.388043    8.005554
F       -10.911039    5.747839    8.337594
C        -8.906557    1.861405    9.010386
N        -9.378679    1.302411   10.151325
C        -8.903889    0.124577   10.541544
N        -9.373247   -0.462343   11.670177
C       -10.388194    0.012090   12.492946
C       -10.845334   -0.647424   13.660181
O       -10.333191   -1.807576   14.101279
C       -10.927148   -2.347753   15.255584
N       -11.823252    0.006747   14.254524
N       -12.015837    1.095834   13.496014
C       -13.062381    2.024763   13.827489
C       -11.180457    1.142906   12.424418
N        -7.989537    1.339204    8.192419
C        -7.537301    0.161901    8.608991
C        -7.911742   -0.519724    9.763892
N        -7.268069   -1.734767    9.850362
C        -6.533752   -1.775434    8.771622
N        -6.648733   -0.659891    7.971655
C        -6.053658   -0.394444    6.670686
C        -4.964972    0.665377    6.732811
C       -12.980265    3.153320    4.878248
C       -12.186649    3.565410    3.809546
S       -11.650866    1.846132    2.304609
C       -11.116445    0.713939    3.613925
C        -9.608366    0.555844    3.951261
H        -9.154758   -0.056032    3.151716
N        -9.471213   -0.175631    5.193477
C        -9.572898   -1.522319    5.276165
C        -9.438426   -2.097539    6.674807
O        -9.752562   -2.240497    4.306145
C        -8.714471    1.800590    4.078637
N        -8.871205    2.752294    3.145468
C        -8.114558    3.973724    3.204131
O        -7.849750    1.870537    4.948844
H       -10.865633    1.952648    7.012686
H        -8.621143    4.662469    7.542871
H        -8.533431    3.055819    6.743924
H       -10.627480    4.079109   10.129344
H       -11.402789    2.667989    9.344865
H        -8.980957   -1.366638   11.902152
H       -10.402610   -3.287112   15.470024
H       -11.999966   -2.545584   15.097114
H       -10.831474   -1.661088   16.112691
H       -12.936872    2.389901   14.857205
H       -14.051517    1.550835   13.736132
H       -13.011352    2.875141   13.136266
H       -11.188749    1.941257   11.691177
H        -5.881635   -2.601050    8.483261
H        -6.852888   -0.046123    5.998094
H        -5.669323   -1.351281    6.286634
H        -5.393957    1.610978    7.092457
H        -4.560880    0.841683    5.725755
H        -4.142178    0.363436    7.399494
H       -14.064294    3.093163    4.754839
H       -11.132272    3.780228    3.992428
H       -12.641518    4.169253    3.021509
H       -11.469667   -0.298140    3.373730
H       -11.643034    1.020669    4.531574
H        -9.215986    0.375930    6.007679
H        -9.480676   -1.340871    7.469934
H        -8.485549   -2.641663    6.751246
H       -10.245730   -2.826175    6.825673
H        -9.707430    2.670627    2.541554
H        -7.047351    3.758383    3.361235
H        -8.442838    4.627638    4.031992
H        -8.236712    4.520329    2.259039
