77
-1 1
O        -3.386002    1.608094   -0.849837
C        -2.690778    1.843627   -1.858626
N        -1.224865    1.796556   -1.678007
C        -0.640122    2.960896   -1.037041
H        -0.614937    3.807818   -1.740379
C         0.739925    2.579557   -0.507099
N         0.396469    1.857952    0.717565
C        -0.864554    2.337939    1.275793
C        -1.332472    3.385462    0.272998
H        -2.424400    3.441207    0.200079
F        -0.838668    4.638460    0.641291
C         0.950078    0.669864    1.056611
N         0.478218    0.083581    2.186073
C         1.010487   -1.060394    2.597867
N         0.532970   -1.672413    3.709731
C        -0.558794   -1.268610    4.471009
C        -1.013998   -1.932929    5.635767
O        -0.424521   -3.029478    6.140485
C        -1.028462   -3.586499    7.281155
N        -2.080500   -1.358087    6.155639
N        -2.335807   -0.318796    5.347404
C        -3.453205    0.545463    5.618250
C        -1.449605   -0.221393    4.321897
N         1.894234    0.175046    0.245930
C         2.405127   -0.967557    0.689315
C         2.064731   -1.647589    1.855342
N         2.763779   -2.830564    1.958540
C         3.500109   -2.854623    0.880820
N         3.330076   -1.757508    0.062826
C         3.902738   -1.484189   -1.245608
C         4.912369   -0.347343   -1.216122
C        -3.122100    2.147938   -3.149269
C        -2.248203    2.310605   -4.306740
S        -1.947556    0.708944   -5.382473
C        -1.355789   -0.397289   -4.078034
C         0.162390   -0.583365   -3.803102
H         0.547957   -1.285042   -4.564548
N         0.328804   -1.202391   -2.506141
C         0.042790   -2.508525   -2.284636
C         0.197401   -2.968756   -0.847929
O        -0.306603   -3.268607   -3.173767
C         1.115548    0.621839   -3.844596
N         0.996518    1.447519   -4.901090
C         1.791014    2.644707   -4.991354
O         1.999845    0.754556   -3.006648
H        -1.073123    0.997171   -1.063205
H         1.336648    3.475353   -0.267059
H         1.302732    1.941989   -1.198598
H        -0.739356    2.778292    2.277837
H        -1.606382    1.525871    1.324752
H         0.970109   -2.549601    3.963783
H        -0.434695   -4.467793    7.554116
H        -2.069729   -3.885139    7.076433
H        -1.040057   -2.868946    8.118058
H        -3.327438    1.055555    6.585326
H        -4.388435   -0.032684    5.640130
H        -3.518843    1.296602    4.821482
H        -1.494582    0.549342    3.560751
H         4.194012   -3.650627    0.607134
H         3.078621   -1.213167   -1.923723
H         4.354411   -2.420538   -1.606381
H         4.416679    0.573669   -0.879576
H         5.301860   -0.169109   -2.228652
H         5.754975   -0.573158   -0.544258
H        -4.204384    2.150904   -3.305716
H        -1.233325    2.628395   -4.037693
H        -2.649010    2.982041   -5.081065
H        -1.751979   -1.399539   -4.285216
H        -1.845218   -0.037423   -3.161666
H         0.719000   -0.615821   -1.769640
H         0.006390   -2.163146   -0.126434
H         1.217818   -3.346015   -0.681444
H        -0.501661   -3.795209   -0.672775
H         0.143768    1.354942   -5.464230
H         2.835673    2.422094   -4.733065
H         1.436658    3.429834   -4.300355
H         1.747273    3.034882   -6.017420
