68
-1 1
O        -1.723460    0.702546   -4.778595
C        -1.897194   -0.394332   -4.210198
N        -2.199719   -0.339111   -2.790512
C        -3.463928   -0.854288   -2.288006
C        -3.903036    0.167479   -1.229953
C        -2.568619    0.762036   -0.769343
H        -2.665489    1.725697   -0.255617
C        -1.828793    0.883499   -2.099121
N        -1.921137   -0.155894    0.156465
C        -1.133718    0.209224    1.179780
N        -0.882905    1.499331    1.393538
C        -0.128224    1.858725    2.449007
N         0.070638    3.215281    2.532484
C         0.832654    3.926247    3.447522
C         1.072296    5.290487    3.401074
N         1.835264    5.587535    4.489408
C         2.421723    6.861161    4.817057
N         2.113982    4.515318    5.219534
C         1.514716    3.495687    4.615461
N         0.412189    1.069643    3.367353
C        -0.584627   -0.754492    2.078934
C         0.152446   -0.225840    3.145195
N         0.575481   -1.261807    3.922778
H         1.159608   -1.152902    4.738733
C         0.140006   -2.458963    3.381185
C        -0.581684   -2.175667    2.255879
Cl        -1.352620   -3.344639    1.240842
C        -1.807957   -1.665312   -4.788629
C        -1.730246   -2.943228   -4.074968
S        -0.010518   -3.527727   -3.413853
C         0.236545   -2.368267   -2.024803
C         1.569039   -1.597414   -2.042289
H         2.377255   -2.312546   -2.279488
N         1.840317   -0.994618   -0.756746
C         2.354178   -1.678416    0.291821
C         2.878921   -0.808136    1.419638
O         2.436912   -2.895642    0.327116
C         1.633321   -0.435957   -3.059441
N         1.402702   -0.762691   -4.336820
C         1.291515    0.235967   -5.379546
O         1.917107    0.697150   -2.677229
H        -3.349735   -1.859732   -1.825518
H        -4.203897   -0.975910   -3.096794
H        -4.488060   -0.267162   -0.405528
H        -4.500215    0.966247   -1.694754
H        -0.737337    0.959616   -1.964526
H        -2.155355    1.784753   -2.649599
H        -1.980540   -1.147627   -0.044625
H        -0.344158    3.722476    1.762982
H         0.758477    6.050466    2.689302
H         1.745642    7.671999    4.513181
H         3.394218    6.999159    4.317945
H         2.570183    6.901538    5.902852
H         1.569089    2.485793    5.006521
H         0.386065   -3.418611    3.824289
H        -1.597135   -1.670886   -5.862507
H        -1.981471   -3.800098   -4.718599
H        -2.357324   -3.022456   -3.176116
H         0.218457   -2.945459   -1.091910
H        -0.603437   -1.656575   -2.041556
H         1.932741    0.018768   -0.816411
H         2.399231    0.178835    1.466491
H         3.960897   -0.664193    1.273298
H         2.731242   -1.333518    2.370231
H         0.974923   -1.676411   -4.500274
H         0.240760    0.556340   -5.494309
H         1.669472   -0.181071   -6.325178
H         1.904021    1.102094   -5.097854
