68
-1 1
O         4.492584    7.956353    3.403290
C         4.073948    6.909440    3.913648
N         3.730260    6.963447    5.282939
C         2.576395    6.316808    5.876996
C         2.131107    7.303832    6.960282
C         3.460791    7.930541    7.394873
H         3.346508    8.879355    7.931795
C         4.162583    8.120276    6.048899
N         4.156846    7.018746    8.287471
C         4.910698    7.395100    9.334043
N         5.130606    8.688950    9.557711
C         5.864411    9.057803   10.625679
N         6.025256   10.418384   10.725418
C         6.749118   11.140777   11.662394
C         6.935417   12.514004   11.644627
N         7.675558   12.819235   12.746399
C         8.207892   14.108215   13.105118
N         7.988616   11.744627   13.458792
C         7.435940   10.714347   12.829003
N         6.417489    8.273519   11.539576
C         5.456129    6.438394   10.240182
C         6.182980    6.974785   11.310086
N         6.621911    5.942624   12.083023
H         7.199411    6.056769   12.902961
C         6.200176    4.741104   11.538802
C         5.475100    5.016852   10.414157
Cl         4.715180    3.843627    9.398590
C         3.956812    5.663709    3.214582
C         3.874140    4.377909    3.776593
S         5.757264    3.442402    4.553112
C         6.051804    4.579756    5.951722
C         7.397851    5.328296    5.941588
H         8.194145    4.580830    5.776666
N         7.643952    6.009741    7.195620
C         8.179857    5.402460    8.280942
C         8.726348    6.355777    9.330154
O         8.265538    4.192003    8.406809
C         7.526097    6.420324    4.857811
N         7.328360    6.016099    3.597187
C         7.323934    6.950023    2.493763
O         7.833286    7.569142    5.170268
H         2.828843    5.336372    6.336208
H         1.798256    6.114424    5.123999
H         1.586495    6.834032    7.792387
H         1.493495    8.087349    6.523035
H         5.259478    8.153962    6.143441
H         3.846442    9.066060    5.573086
H         4.131009    6.027519    8.075516
H         5.601762   10.923476    9.959442
H         6.598630   13.275164   10.944689
H         7.502491   14.897668   12.811725
H         9.178237   14.295011   12.617857
H         8.345572   14.131880   14.192804
H         7.525881    9.699923   13.201296
H         6.457894    3.783579   11.979814
H         4.219364    5.746730    2.155891
H         3.674588    3.554489    3.083935
H         3.369396    4.228342    4.732619
H         6.031388    4.003097    6.885520
H         5.244049    5.326669    5.972845
H         7.767641    7.013280    7.061993
H         8.228178    7.334945    9.325128
H         9.798901    6.511001    9.133561
H         8.624564    5.894757   10.319540
H         6.886666    5.095611    3.484775
H         6.364590    7.491709    2.442738
H         7.494699    6.397577    1.558590
H         8.134633    7.678857    2.633744
