68
-1 1
O        -1.660112    1.991672   -3.472489
C        -2.074366    0.843000   -3.589231
N        -2.720082    0.213531   -2.582156
C        -3.429723   -1.055679   -2.602160
C        -4.501028   -0.828560   -1.533918
C        -3.750595   -0.044710   -0.448502
H        -4.422356    0.590290    0.147113
C        -2.785739    0.840938   -1.269711
N        -3.111393   -0.989066    0.449710
C        -2.222513   -0.609354    1.402041
N        -2.027924    0.687374    1.623792
C        -0.957038    1.062079    2.351435
N        -0.792331    2.438762    2.441142
C         0.496916    3.007343    2.335725
C         1.268720    3.104769    1.188912
N         2.416020    3.720041    1.551114
C         3.515740    4.070864    0.681347
N         2.444604    4.035758    2.849989
C         1.288171    3.606348    3.338758
N        -0.061093    0.275050    2.921892
C        -1.438700   -1.561592    2.093168
C        -0.337278   -1.028735    2.781345
N         0.454581   -2.057436    3.201007
H         1.467050   -1.927977    3.288889
C        -0.089722   -3.247458    2.752765
C        -1.254760   -2.982885    2.094574
Cl        -2.329167   -4.166392    1.422758
C        -1.855665    0.103964   -4.873980
C        -1.308791   -1.110659   -4.946873
S         0.081708   -2.138486   -1.614467
C         0.786589   -1.078151   -0.302039
C         2.195562   -0.496176   -0.558393
H         2.849836   -1.328413   -0.870979
N         2.738873    0.161650    0.615203
C         3.012512   -0.371301    1.817011
C         3.360075    0.631392    2.895260
O         2.934830   -1.572407    2.073812
C         2.206206    0.582621   -1.657898
N         1.707903    0.205040   -2.835843
C         1.571843    1.129900   -3.935645
O         2.651122    1.715309   -1.433178
H        -2.744228   -1.877214   -2.324269
H        -3.844850   -1.263263   -3.597216
H        -4.945504   -1.757746   -1.148851
H        -5.310721   -0.205125   -1.943604
H        -1.789209    0.899686   -0.814565
H        -3.163009    1.871486   -1.362104
H        -2.952530   -1.925397    0.090881
H        -1.498011    2.903226    1.881080
H         1.107002    2.761719    0.168126
H         3.428045    3.484704   -0.243714
H         4.461402    3.830283    1.185169
H         3.500944    5.146714    0.449861
H         1.051302    3.721796    4.395294
H         0.399725   -4.199472    2.934024
H        -2.039807    0.703999   -5.771299
H        -1.062009   -1.556667   -5.914798
H        -1.038223   -1.663731   -4.037544
H         0.885049   -1.681302    0.607127
H         0.118990   -0.229678   -0.070022
H         2.896189    1.153740    0.467413
H         2.413871    0.886335    3.400027
H         3.794647    1.563517    2.509586
H         4.042673    0.165998    3.617447
H         1.161474   -0.681830   -2.821373
H         0.636802    1.710163   -3.872219
H         1.569260    0.567889   -4.880553
H         2.420334    1.827908   -3.932047
