-1 1
 OpenBabel05232414493D

 68 71  0  0  1  0  0  0  0  0999 V2000
    4.4926    7.9564    3.4033 O   0  0  0  0  0  0  0  0  0  0  0  0
    4.0739    6.9094    3.9136 C   0  0  0  0  0  0  0  0  0  0  0  0
    3.7303    6.9634    5.2829 N   0  0  0  0  0  0  0  0  0  0  0  0
    2.5764    6.3168    5.8770 C   0  0  0  0  0  0  0  0  0  0  0  0
    2.1311    7.3038    6.9603 C   0  0  0  0  0  0  0  0  0  0  0  0
    3.4608    7.9305    7.3949 C   0  0  2  0  0  0  0  0  0  0  0  0
    3.3465    8.8794    7.9318 H   0  0  0  0  0  0  0  0  0  0  0  0
    4.1626    8.1203    6.0489 C   0  0  0  0  0  0  0  0  0  0  0  0
    4.1568    7.0187    8.2875 N   0  0  0  0  0  0  0  0  0  0  0  0
    4.9107    7.3951    9.3340 C   0  0  1  0  0  3  0  0  0  0  0  0
    5.1306    8.6890    9.5577 N   0  0  0  0  0  0  0  0  0  0  0  0
    5.8644    9.0578   10.6257 C   0  0  0  0  0  0  0  0  0  0  0  0
    6.0253   10.4184   10.7254 N   0  0  0  0  0  0  0  0  0  0  0  0
    6.7491   11.1408   11.6624 C   0  0  0  0  0  0  0  0  0  0  0  0
    6.9354   12.5140   11.6446 C   0  0  0  0  0  0  0  0  0  0  0  0
    7.6756   12.8192   12.7464 N   0  0  0  0  0  0  0  0  0  0  0  0
    8.2079   14.1082   13.1051 C   0  0  0  0  0  0  0  0  0  0  0  0
    7.9886   11.7446   13.4588 N   0  0  0  0  0  0  0  0  0  0  0  0
    7.4359   10.7143   12.8290 C   0  0  0  0  0  0  0  0  0  0  0  0
    6.4175    8.2735   11.5396 N   0  0  0  0  0  2  0  0  0  0  0  0
    5.4561    6.4384   10.2402 C   0  0  0  0  0  0  0  0  0  0  0  0
    6.1830    6.9748   11.3101 C   0  0  0  0  0  0  0  0  0  0  0  0
    6.6219    5.9426   12.0830 N   0  0  0  0  0  0  0  0  0  0  0  0
    7.1994    6.0568   12.9030 H   0  0  0  0  0  0  0  0  0  0  0  0
    6.2002    4.7411   11.5388 C   0  0  0  0  0  0  0  0  0  0  0  0
    5.4751    5.0169   10.4142 C   0  0  0  0  0  0  0  0  0  0  0  0
    4.7152    3.8436    9.3986 Cl  0  0  0  0  0  0  0  0  0  0  0  0
    3.9568    5.6637    3.2146 C   0  0  0  0  0  3  0  0  0  0  0  0
    3.8741    4.3779    3.7766 C   0  0  0  0  0  0  0  0  0  0  0  0
    5.7573    3.4424    4.5531 S   0  0  0  0  0  0  0  0  0  0  0  0
    6.0518    4.5798    5.9517 C   0  0  0  0  0  0  0  0  0  0  0  0
    7.3979    5.3283    5.9416 C   0  0  2  0  0  0  0  0  0  0  0  0
    8.1941    4.5808    5.7767 H   0  0  0  0  0  0  0  0  0  0  0  0
    7.6440    6.0097    7.1956 N   0  0  0  0  0  0  0  0  0  0  0  0
    8.1799    5.4025    8.2809 C   0  0  0  0  0  0  0  0  0  0  0  0
    8.7263    6.3558    9.3302 C   0  0  0  0  0  0  0  0  0  0  0  0
    8.2655    4.1920    8.4068 O   0  0  0  0  0  0  0  0  0  0  0  0
    7.5261    6.4203    4.8578 C   0  0  0  0  0  0  0  0  0  0  0  0
    7.3284    6.0161    3.5972 N   0  0  0  0  0  0  0  0  0  0  0  0
    7.3239    6.9500    2.4938 C   0  0  0  0  0  0  0  0  0  0  0  0
    7.8333    7.5691    5.1703 O   0  0  0  0  0  0  0  0  0  0  0  0
    2.8288    5.3364    6.3362 H   0  0  0  0  0  0  0  0  0  0  0  0
    1.7983    6.1144    5.1240 H   0  0  0  0  0  0  0  0  0  0  0  0
    1.5865    6.8340    7.7924 H   0  0  0  0  0  0  0  0  0  0  0  0
    1.4935    8.0873    6.5230 H   0  0  0  0  0  0  0  0  0  0  0  0
    5.2595    8.1540    6.1434 H   0  0  0  0  0  0  0  0  0  0  0  0
    3.8464    9.0661    5.5731 H   0  0  0  0  0  0  0  0  0  0  0  0
    4.1310    6.0275    8.0755 H   0  0  0  0  0  0  0  0  0  0  0  0
    5.6018   10.9235    9.9594 H   0  0  0  0  0  0  0  0  0  0  0  0
    6.5986   13.2752   10.9447 H   0  0  0  0  0  0  0  0  0  0  0  0
    7.5025   14.8977   12.8117 H   0  0  0  0  0  0  0  0  0  0  0  0
    9.1782   14.2950   12.6179 H   0  0  0  0  0  0  0  0  0  0  0  0
    8.3456   14.1319   14.1928 H   0  0  0  0  0  0  0  0  0  0  0  0
    7.5259    9.6999   13.2013 H   0  0  0  0  0  0  0  0  0  0  0  0
    6.4579    3.7836   11.9798 H   0  0  0  0  0  0  0  0  0  0  0  0
    4.2194    5.7467    2.1559 H   0  0  0  0  0  0  0  0  0  0  0  0
    3.6746    3.5545    3.0839 H   0  0  0  0  0  0  0  0  0  0  0  0
    3.3694    4.2283    4.7326 H   0  0  0  0  0  0  0  0  0  0  0  0
    6.0314    4.0031    6.8855 H   0  0  0  0  0  0  0  0  0  0  0  0
    5.2440    5.3267    5.9728 H   0  0  0  0  0  0  0  0  0  0  0  0
    7.7676    7.0133    7.0620 H   0  0  0  0  0  0  0  0  0  0  0  0
    8.2282    7.3349    9.3251 H   0  0  0  0  0  0  0  0  0  0  0  0
    9.7989    6.5110    9.1336 H   0  0  0  0  0  0  0  0  0  0  0  0
    8.6246    5.8948   10.3195 H   0  0  0  0  0  0  0  0  0  0  0  0
    6.8867    5.0956    3.4848 H   0  0  0  0  0  0  0  0  0  0  0  0
    6.3646    7.4917    2.4427 H   0  0  0  0  0  0  0  0  0  0  0  0
    7.4947    6.3976    1.5586 H   0  0  0  0  0  0  0  0  0  0  0  0
    8.1346    7.6789    2.6337 H   0  0  0  0  0  0  0  0  0  0  0  0
  1  2  2  0  0  0  0
  2  3  1  0  0  0  0
  3  4  1  0  0  0  0
  3  8  1  0  0  0  0
  4 42  1  0  0  0  0
  4  5  1  0  0  0  0
  5  6  1  0  0  0  0
  5 44  1  0  0  0  0
  6  7  1  1  0  0  0
  6  9  1  0  0  0  0
  8 46  1  0  0  0  0
  8  6  1  0  0  0  0
 10  9  1  1  0  0  0
 10 11  1  0  0  0  0
 10 21  1  0  0  0  0
 11 12  2  0  0  0  0
 12 13  1  0  0  0  0
 12 20  1  0  0  0  0
 13 14  1  0  0  0  0
 14 19  1  0  0  0  0
 15 14  2  0  0  0  0
 15 16  1  0  0  0  0
 16 17  1  0  0  0  0
 16 18  1  0  0  0  0
 17 53  1  0  0  0  0
 19 54  1  0  0  0  0
 19 18  2  0  0  0  0
 21 26  1  0  0  0  0
 21 22  2  0  0  0  0
 22 20  1  0  0  0  0
 22 23  1  0  0  0  0
 23 24  1  0  0  0  0
 25 55  1  0  0  0  0
 25 23  1  0  0  0  0
 26 25  2  0  0  0  0
 27 26  1  0  0  0  0
 28 29  1  0  0  0  0
 28  2  1  0  0  0  0
 29 30  1  0  0  0  0
 29 58  1  0  0  0  0
 30 31  1  0  0  0  0
 31 60  1  0  0  0  0
 31 59  1  0  0  0  0
 32 33  1  6  0  0  0
 32 31  1  0  0  0  0
 32 34  1  0  0  0  0
 34 35  1  0  0  0  0
 35 37  2  0  0  0  0
 35 36  1  0  0  0  0
 36 64  1  0  0  0  0
 38 41  2  0  0  0  0
 38 32  1  0  0  0  0
 39 38  1  0  0  0  0
 40 68  1  0  0  0  0
 40 39  1  0  0  0  0
 43  4  1  0  0  0  0
 45  5  1  0  0  0  0
 47  8  1  0  0  0  0
 48  9  1  0  0  0  0
 49 13  1  0  0  0  0
 50 15  1  0  0  0  0
 51 17  1  0  0  0  0
 52 17  1  0  0  0  0
 56 28  1  0  0  0  0
 57 29  1  0  0  0  0
 61 34  1  0  0  0  0
 62 36  1  0  0  0  0
 63 36  1  0  0  0  0
 65 39  1  0  0  0  0
 66 40  1  0  0  0  0
 67 40  1  0  0  0  0
M  END
