-1 1
 OpenBabel05232414493D

 79 81  0  0  1  0  0  0  0  0999 V2000
   16.9060    2.4218    6.0965 C   0  0  0  0  0  0  0  0  0  0  0  0
   17.2059    2.9148    4.8250 O   0  0  0  0  0  0  0  0  0  0  0  0
   17.5090    1.9395    3.8684 C   0  0  0  0  0  0  0  0  0  0  0  0
   16.2611    1.2948    3.2781 C   0  0  0  0  0  0  0  0  0  0  0  0
   16.6978    0.3647    2.3263 O   0  0  0  0  0  0  0  0  0  0  0  0
   15.7792   -0.3771    1.6742 C   0  0  0  0  0  0  0  0  0  0  0  0
   14.4190   -0.2662    1.8387 C   0  0  0  0  0  0  0  0  0  0  0  0
   16.3183   -1.3562    0.7729 C   0  0  0  0  0  0  0  0  0  0  0  0
   17.6651   -1.4189    0.7296 O   0  0  0  0  0  0  0  0  0  0  0  0
   18.2501   -2.4010   -0.0806 C   0  0  0  0  0  0  0  0  0  0  0  0
   15.4639   -2.1552    0.0523 C   0  0  0  0  0  0  0  0  0  0  0  0
   14.0590   -2.0279    0.1948 C   0  0  0  0  0  0  0  0  0  0  0  0
   13.5280   -1.1063    1.1165 C   0  0  0  0  0  0  0  0  0  0  0  0
   12.1895   -1.0150    1.3606 N   0  0  0  0  0  0  0  0  0  0  0  0
   11.4355   -1.8546    0.6992 C   0  0  0  0  0  0  0  0  0  0  0  0
   11.8104   -2.7485   -0.2324 N   0  0  0  0  0  0  0  0  0  0  0  0
   13.0978   -2.8285   -0.5154 C   0  0  0  0  0  0  0  0  0  0  0  0
   13.5288   -3.6590   -1.5006 N   0  0  0  0  0  0  0  0  0  0  0  0
   12.9405   -4.7878   -2.0284 C   0  0  0  0  0  0  0  0  0  0  0  0
   11.6781   -5.2424   -1.8623 C   0  0  0  0  0  0  0  0  0  0  0  0
   11.2355   -6.5415   -2.3975 C   0  0  0  0  0  0  0  0  0  0  0  0
   10.1108   -6.9871   -2.0555 O   0  0  0  0  0  0  0  0  0  0  0  0
   12.1377   -7.2515   -3.2461 C   0  0  1  0  0  3  0  0  0  0  0  0
   13.4703   -6.8622   -3.3586 C   0  0  0  0  0  3  0  0  0  0  0  0
   14.7068   -7.5509   -1.4948 S   0  0  0  0  0  1  0  0  0  0  0  0
   13.3293   -8.2710   -0.5897 C   0  0  0  0  0  0  0  0  0  0  0  0
   12.7709   -7.4286    0.5751 C   0  0  2  0  0  0  0  0  0  0  0  0
   12.4390   -6.4538    0.1931 H   0  0  0  0  0  0  0  0  0  0  0  0
   13.7509   -7.1821    1.6007 N   0  0  0  0  0  0  0  0  0  0  0  0
   14.3511   -5.9850    1.8022 C   0  0  0  0  0  0  0  0  0  0  0  0
   15.3886   -5.9716    2.9105 C   0  0  0  0  0  0  0  0  0  0  0  0
   14.1252   -4.9887    1.1388 O   0  0  0  0  0  0  0  0  0  0  0  0
   11.5998   -8.1928    1.2035 C   0  0  0  0  0  0  0  0  0  0  0  0
   10.4366   -8.1430    0.5267 N   0  0  0  0  0  0  0  0  0  0  0  0
    9.3038   -8.9269    0.9470 C   0  0  0  0  0  0  0  0  0  0  0  0
   11.7537   -8.8518    2.2252 O   0  0  0  0  0  0  0  0  0  0  0  0
   13.8897   -5.5082   -2.9424 C   0  0  0  0  0  0  0  0  0  0  0  0
   14.9070   -4.9487   -3.3263 O   0  0  0  0  0  0  0  0  0  0  0  0
   11.8108   -8.5260   -3.6651 O   0  0  0  0  0  0  0  0  0  0  0  0
   10.6808   -8.6625   -4.4908 C   0  0  0  0  0  0  0  0  0  0  0  0
    9.9241   -9.9099   -4.1049 C   0  0  0  0  0  0  0  0  0  0  0  0
    9.5404  -10.0859   -2.7684 C   0  0  0  0  0  0  0  0  0  0  0  0
    8.8349  -11.2166   -2.3731 C   0  0  0  0  0  0  0  0  0  0  0  0
    8.5104  -12.1758   -3.3276 C   0  0  0  0  0  0  0  0  0  0  0  0
    7.8292  -13.2684   -2.9515 F   0  0  0  0  0  0  0  0  0  0  0  0
    8.8747  -12.0317   -4.6577 C   0  0  0  0  0  0  0  0  0  0  0  0
    9.5894  -10.8922   -5.0361 C   0  0  0  0  0  0  0  0  0  0  0  0
   16.7557    3.2836    6.7612 H   0  0  0  0  0  0  0  0  0  0  0  0
   17.7324    1.8058    6.5025 H   0  0  0  0  0  0  0  0  0  0  0  0
   15.9853    1.8088    6.1177 H   0  0  0  0  0  0  0  0  0  0  0  0
   18.1614    1.1479    4.2860 H   0  0  0  0  0  0  0  0  0  0  0  0
   18.0671    2.4335    3.0595 H   0  0  0  0  0  0  0  0  0  0  0  0
   15.6221    2.0717    2.8199 H   0  0  0  0  0  0  0  0  0  0  0  0
   15.6646    0.7935    4.0630 H   0  0  0  0  0  0  0  0  0  0  0  0
   13.9712    0.4451    2.5312 H   0  0  0  0  0  0  0  0  0  0  0  0
   19.3362   -2.3012    0.0382 H   0  0  0  0  0  0  0  0  0  0  0  0
   17.9915   -2.2626   -1.1453 H   0  0  0  0  0  0  0  0  0  0  0  0
   17.9448   -3.4176    0.2237 H   0  0  0  0  0  0  0  0  0  0  0  0
   15.8683   -2.9361   -0.5897 H   0  0  0  0  0  0  0  0  0  0  0  0
   10.3590   -1.8249    0.9100 H   0  0  0  0  0  0  0  0  0  0  0  0
   14.4984   -3.5952   -1.7985 H   0  0  0  0  0  0  0  0  0  0  0  0
   10.9659   -4.6912   -1.2513 H   0  0  0  0  0  0  0  0  0  0  0  0
   14.1109   -7.3556   -4.0893 H   0  0  0  0  0  0  0  0  0  0  0  0
   13.6421   -9.2540   -0.2010 H   0  0  0  0  0  0  0  0  0  0  0  0
   12.5159   -8.4648   -1.3088 H   0  0  0  0  0  0  0  0  0  0  0  0
   13.8530   -7.9274    2.2799 H   0  0  0  0  0  0  0  0  0  0  0  0
   15.3838   -4.9824    3.3852 H   0  0  0  0  0  0  0  0  0  0  0  0
   16.3789   -6.1292    2.4568 H   0  0  0  0  0  0  0  0  0  0  0  0
   15.2243   -6.7521    3.6673 H   0  0  0  0  0  0  0  0  0  0  0  0
   10.3433   -7.5942   -0.3388 H   0  0  0  0  0  0  0  0  0  0  0  0
    8.5057   -8.8170    0.2007 H   0  0  0  0  0  0  0  0  0  0  0  0
    8.9208   -8.5997    1.9277 H   0  0  0  0  0  0  0  0  0  0  0  0
    9.5678   -9.9933    1.0379 H   0  0  0  0  0  0  0  0  0  0  0  0
   10.9888   -8.7196   -5.5529 H   0  0  0  0  0  0  0  0  0  0  0  0
   10.0156   -7.7916   -4.3747 H   0  0  0  0  0  0  0  0  0  0  0  0
    9.7992   -9.2994   -2.0562 H   0  0  0  0  0  0  0  0  0  0  0  0
    8.5313  -11.3654   -1.3352 H   0  0  0  0  0  0  0  0  0  0  0  0
    8.6092  -12.8089   -5.3764 H   0  0  0  0  0  0  0  0  0  0  0  0
    9.8952  -10.7746   -6.0795 H   0  0  0  0  0  0  0  0  0  0  0  0
  1 50  1  0  0  0  0
  1 49  1  0  0  0  0
  1 48  1  0  0  0  0
  2  1  1  0  0  0  0
  3 51  1  0  0  0  0
  3  2  1  0  0  0  0
  4  3  1  0  0  0  0
  4 54  1  0  0  0  0
  5  4  1  0  0  0  0
  6  7  1  0  0  0  0
  6  5  1  0  0  0  0
  7 55  1  0  0  0  0
  8  6  2  0  0  0  0
  9  8  1  0  0  0  0
 10 56  1  0  0  0  0
 10 58  1  0  0  0  0
 10  9  1  0  0  0  0
 11 12  2  0  0  0  0
 11  8  1  0  0  0  0
 12 13  1  0  0  0  0
 13 14  1  0  0  0  0
 13  7  2  0  0  0  0
 15 60  1  0  0  0  0
 15 14  2  0  0  0  0
 16 15  1  0  0  0  0
 17 16  2  0  0  0  0
 17 12  1  0  0  0  0
 18 17  1  0  0  0  0
 19 20  2  0  0  0  0
 19 18  1  0  0  0  0
 20 62  1  0  0  0  0
 21 22  2  0  0  0  0
 21 20  1  0  0  0  0
 23 39  1  1  0  0  0
 23 21  1  0  0  0  0
 24 23  1  0  0  0  0
 24 37  1  0  0  0  0
 25 26  1  0  0  0  0
 26 64  1  0  0  0  0
 26 27  1  0  0  0  0
 27 28  1  6  0  0  0
 27 33  1  0  0  0  0
 27 29  1  0  0  0  0
 29 30  1  0  0  0  0
 29 66  1  0  0  0  0
 30 31  1  0  0  0  0
 31 67  1  0  0  0  0
 31 69  1  0  0  0  0
 32 30  2  0  0  0  0
 33 36  2  0  0  0  0
 34 35  1  0  0  0  0
 34 33  1  0  0  0  0
 35 73  1  0  0  0  0
 35 72  1  0  0  0  0
 37 19  1  0  0  0  0
 38 37  2  0  0  0  0
 40 75  1  0  0  0  0
 40 41  1  0  0  0  0
 40 39  1  0  0  0  0
 41 42  1  0  0  0  0
 42 43  2  0  0  0  0
 42 76  1  0  0  0  0
 43 77  1  0  0  0  0
 44 45  1  0  0  0  0
 44 43  1  0  0  0  0
 46 44  2  0  0  0  0
 47 46  1  0  0  0  0
 47 41  2  0  0  0  0
 52  3  1  0  0  0  0
 53  4  1  0  0  0  0
 57 10  1  0  0  0  0
 59 11  1  0  0  0  0
 61 18  1  0  0  0  0
 63 24  1  0  0  0  0
 65 26  1  0  0  0  0
 68 31  1  0  0  0  0
 70 34  1  0  0  0  0
 71 35  1  0  0  0  0
 74 40  1  0  0  0  0
 78 46  1  0  0  0  0
 79 47  1  0  0  0  0
M  END
