79
-1 1
C         3.315751    7.915559    6.531106
O         3.908403    8.229434    5.306442
C         4.213103    7.129252    4.497037
C         2.999885    6.613786    3.733097
O         3.441776    5.540779    2.948921
C         2.547257    4.881758    2.184058
C         1.211705    5.200974    2.086520
C         3.073521    3.754517    1.468523
O         4.372871    3.472311    1.696020
C         4.917927    2.360625    1.034858
C         2.246283    3.031076    0.643407
C         0.878174    3.377590    0.510651
C         0.338306    4.434549    1.267967
N        -0.997385    4.713740    1.267918
C        -1.742201    3.908947    0.551820
N        -1.350995    2.899624   -0.245526
C        -0.050382    2.659581   -0.326037
N         0.430239    1.747699   -1.200444
C        -0.169609    0.614234   -1.741858
C        -1.443803    0.187589   -1.598111
C        -1.924835   -1.137188   -2.057303
O        -3.075822   -1.524132   -1.631860
C        -1.082154   -1.864476   -2.872187
C         0.359364   -1.560721   -2.982962
S         1.405472   -2.744027   -1.923214
C         0.221468   -3.260282   -0.656776
C        -0.038275   -2.260007    0.482897
H        -0.295213   -1.279772    0.063123
N         1.094980   -2.102628    1.362932
C         1.956034   -1.061348    1.346531
C         2.996449   -1.072367    2.452585
O         1.942938   -0.168848    0.513212
C        -1.203496   -2.791825    1.334839
N        -2.428815   -2.642439    0.814833
C        -3.576731   -3.203178    1.480412
O        -0.976598   -3.360271    2.400275
C         0.786115   -0.170333   -2.558037
O         1.876674    0.286435   -2.850526
O        -1.411045   -3.139848   -3.295488
C        -2.629227   -3.296708   -3.986299
C        -3.323089   -4.543553   -3.496190
C        -3.761487   -4.589211   -2.165179
C        -4.389011   -5.722482   -1.660844
C        -4.578615   -6.816033   -2.500744
F        -5.185164   -7.912439   -2.019844
C        -4.158633   -6.802258   -3.822119
C        -3.524239   -5.656789   -4.310802
H         3.193121    8.852411    7.091753
H         3.948082    7.229607    7.128480
H         2.318680    7.448592    6.422992
H         4.649048    6.298571    5.085807
H         4.974189    7.454130    3.772460
H         2.581196    7.424276    3.108910
H         2.204766    6.283899    4.427472
H         0.768523    6.026432    2.641833
H         5.955155    2.267357    1.379937
H         4.912170    2.497038   -0.060990
H         4.367095    1.432877    1.266190
H         2.609996    2.120803    0.167664
H        -2.825717    4.080326    0.585445
H         1.436558    1.705765   -1.329632
H        -2.163138    0.789106   -1.042624
H         0.769564   -1.750401   -3.985880
H         0.646414   -4.182713   -0.230642
H        -0.719081   -3.530016   -1.155662
H         1.051937   -2.716419    2.172254
H         2.992733   -0.089107    2.943604
H         3.985978   -1.216410    1.994670
H         2.835555   -1.856757    3.204857
H        -2.605492   -2.152295   -0.090755
H        -4.467676   -2.978486    0.879113
H        -3.709918   -2.779699    2.489316
H        -3.484863   -4.296319    1.593359
H        -2.435802   -3.371417   -5.073419
H        -3.281762   -2.430763   -3.798771
H        -3.600527   -3.694316   -1.556827
H        -4.736059   -5.771628   -0.626972
H        -4.321116   -7.681558   -4.447959
H        -3.176585   -5.637538   -5.347536
