-1 1
 OpenBabel05232414493D

 68 71  0  0  1  0  0  0  0  0999 V2000
    5.2153    9.0061    3.2679 O   0  0  0  0  0  0  0  0  0  0  0  0
    4.2418    9.4354    2.6171 C   0  0  0  0  0  0  0  0  0  0  0  0
    3.2861   10.2469    3.3003 N   0  0  0  0  0  0  0  0  0  0  0  0
    1.8846    9.8304    3.3063 C   0  0  0  0  0  0  0  0  0  0  0  0
    1.5214    9.5599    4.7754 C   0  0  1  0  0  0  0  0  0  0  0  0
    0.9958    8.6103    4.9253 H   0  0  0  0  0  0  0  0  0  0  0  0
    2.8598    9.6322    5.5309 C   0  0  2  0  0  0  0  0  0  0  0  0
    2.6741    9.9677    6.5615 H   0  0  0  0  0  0  0  0  0  0  0  0
    3.6197   10.6346    4.6601 C   0  0  0  0  0  0  0  0  0  0  0  0
    3.5738    8.3714    5.5389 N   0  0  0  0  0  0  0  0  0  0  0  0
    3.1538    7.3167    6.2450 C   0  0  2  0  0  3  0  0  0  0  0  0
    2.1045    7.4677    7.0582 N   0  0  0  0  0  0  0  0  0  0  0  0
    1.6407    6.4143    7.7471 C   0  0  0  0  0  0  0  0  0  0  0  0
    0.5329    6.7140    8.5085 N   0  0  0  0  0  0  0  0  0  0  0  0
   -0.2253    5.8753    9.3079 C   0  0  0  0  0  0  0  0  0  0  0  0
   -1.3772    6.2385    9.9882 C   0  0  0  0  0  0  0  0  0  0  0  0
   -1.7923    5.1329   10.6687 N   0  0  0  0  0  0  0  0  0  0  0  0
   -3.0015    4.9900   11.4361 C   0  0  0  0  0  0  0  0  0  0  0  0
   -1.0021    4.0870   10.4635 N   0  0  0  0  0  0  0  0  0  0  0  0
   -0.0419    4.5089    9.6485 C   0  0  0  0  0  0  0  0  0  0  0  0
    2.1174    5.1773    7.7646 N   0  0  0  0  0  2  0  0  0  0  0  0
    3.7913    6.0365    6.1941 C   0  0  0  0  0  0  0  0  0  0  0  0
    3.1987    5.0426    6.9823 C   0  0  0  0  0  0  0  0  0  0  0  0
    3.8911    3.8828    6.8009 N   0  0  0  0  0  0  0  0  0  0  0  0
    3.6553    3.0104    7.2497 H   0  0  0  0  0  0  0  0  0  0  0  0
    4.9228    4.0946    5.9017 C   0  0  0  0  0  0  0  0  0  0  0  0
    4.8834    5.4072    5.5138 C   0  0  0  0  0  0  0  0  0  0  0  0
    5.9489    6.1551    4.3837 Cl  0  0  0  0  0  0  0  0  0  0  0  0
    0.7094   10.5862    5.2586 F   0  0  0  0  0  0  0  0  0  0  0  0
    4.0550    9.2086    1.2288 C   0  0  0  0  0  3  0  0  0  0  0  0
    3.1595    9.9176    0.3886 C   0  0  0  0  0  0  0  0  0  0  0  0
    1.4001    8.8619   -0.2650 S   0  0  0  0  0  0  0  0  0  0  0  0
    1.7094    7.2437    0.4756 C   0  0  0  0  0  0  0  0  0  0  0  0
    0.5305    6.6492    1.2734 C   0  0  2  0  0  0  0  0  0  0  0  0
    0.1758    7.4204    1.9773 H   0  0  0  0  0  0  0  0  0  0  0  0
    0.9220    5.4810    2.0254 N   0  0  0  0  0  0  0  0  0  0  0  0
    1.4501    5.5630    3.2672 C   0  0  0  0  0  0  0  0  0  0  0  0
    1.7394    4.2482    3.9584 C   0  0  0  0  0  0  0  0  0  0  0  0
    1.6964    6.6325    3.8020 O   0  0  0  0  0  0  0  0  0  0  0  0
   -0.6406    6.2144    0.3799 C   0  0  0  0  0  0  0  0  0  0  0  0
   -1.3036    7.2259   -0.2206 N   0  0  0  0  0  0  0  0  0  0  0  0
   -2.3255    6.9978   -1.2085 C   0  0  0  0  0  0  0  0  0  0  0  0
   -0.9344    5.0337    0.2451 O   0  0  0  0  0  0  0  0  0  0  0  0
    1.7522    8.9297    2.6979 H   0  0  0  0  0  0  0  0  0  0  0  0
    1.2053   10.6106    2.9216 H   0  0  0  0  0  0  0  0  0  0  0  0
    4.7046   10.6113    4.8108 H   0  0  0  0  0  0  0  0  0  0  0  0
    3.2375   11.6485    4.8684 H   0  0  0  0  0  0  0  0  0  0  0  0
    4.3131    8.2751    4.8289 H   0  0  0  0  0  0  0  0  0  0  0  0
    0.2255    7.6697    8.3915 H   0  0  0  0  0  0  0  0  0  0  0  0
   -1.9134    7.1833   10.0375 H   0  0  0  0  0  0  0  0  0  0  0  0
   -3.2249    5.9294   11.9605 H   0  0  0  0  0  0  0  0  0  0  0  0
   -2.8468    4.1926   12.1730 H   0  0  0  0  0  0  0  0  0  0  0  0
   -3.8592    4.7242   10.7972 H   0  0  0  0  0  0  0  0  0  0  0  0
    0.7589    3.8569    9.3175 H   0  0  0  0  0  0  0  0  0  0  0  0
    5.6067    3.3040    5.6083 H   0  0  0  0  0  0  0  0  0  0  0  0
    4.7857    8.5307    0.7817 H   0  0  0  0  0  0  0  0  0  0  0  0
    3.5067   10.1095   -0.6304 H   0  0  0  0  0  0  0  0  0  0  0  0
    2.6751   10.7914    0.8370 H   0  0  0  0  0  0  0  0  0  0  0  0
    2.5589    7.3932    1.1755 H   0  0  0  0  0  0  0  0  0  0  0  0
    2.0310    6.5130   -0.2835 H   0  0  0  0  0  0  0  0  0  0  0  0
    0.5830    4.6017    1.6478 H   0  0  0  0  0  0  0  0  0  0  0  0
    2.8305    4.1405    4.0531 H   0  0  0  0  0  0  0  0  0  0  0  0
    1.3334    3.3773    3.4252 H   0  0  0  0  0  0  0  0  0  0  0  0
    1.3269    4.2897    4.9761 H   0  0  0  0  0  0  0  0  0  0  0  0
   -0.8546    8.1432   -0.1746 H   0  0  0  0  0  0  0  0  0  0  0  0
   -1.9522    7.1766   -2.2309 H   0  0  0  0  0  0  0  0  0  0  0  0
   -3.1908    7.6555   -1.0337 H   0  0  0  0  0  0  0  0  0  0  0  0
   -2.6497    5.9521   -1.1336 H   0  0  0  0  0  0  0  0  0  0  0  0
  2  1  2  0  0  0  0
  2  3  1  0  0  0  0
  3  4  1  0  0  0  0
  3  9  1  0  0  0  0
  4  5  1  0  0  0  0
  5  6  1  1  0  0  0
  5 29  1  0  0  0  0
  5  7  1  0  0  0  0
  7 10  1  0  0  0  0
  7  8  1  1  0  0  0
  9 46  1  0  0  0  0
  9 47  1  0  0  0  0
  9  7  1  0  0  0  0
 11 10  1  1  0  0  0
 11 12  1  0  0  0  0
 12 13  2  0  0  0  0
 13 21  1  0  0  0  0
 13 14  1  0  0  0  0
 14 15  1  0  0  0  0
 15 20  1  0  0  0  0
 15 16  2  0  0  0  0
 16 50  1  0  0  0  0
 16 17  1  0  0  0  0
 17 18  1  0  0  0  0
 18 51  1  0  0  0  0
 18 52  1  0  0  0  0
 19 17  1  0  0  0  0
 20 19  2  0  0  0  0
 22 11  1  0  0  0  0
 22 23  2  0  0  0  0
 23 21  1  0  0  0  0
 24 23  1  0  0  0  0
 24 25  1  0  0  0  0
 26 24  1  0  0  0  0
 27 26  2  0  0  0  0
 27 22  1  0  0  0  0
 28 27  1  0  0  0  0
 30  2  1  0  0  0  0
 31 58  1  0  0  0  0
 31 30  1  0  0  0  0
 32 31  1  0  0  0  0
 32 33  1  0  0  0  0
 33 59  1  0  0  0  0
 33 34  1  0  0  0  0
 34 35  1  1  0  0  0
 34 36  1  0  0  0  0
 36 37  1  0  0  0  0
 37 39  2  0  0  0  0
 37 38  1  0  0  0  0
 38 62  1  0  0  0  0
 38 64  1  0  0  0  0
 40 34  1  0  0  0  0
 41 65  1  0  0  0  0
 41 40  1  0  0  0  0
 42 68  1  0  0  0  0
 42 67  1  0  0  0  0
 42 41  1  0  0  0  0
 43 40  2  0  0  0  0
 44  4  1  0  0  0  0
 45  4  1  0  0  0  0
 48 10  1  0  0  0  0
 49 14  1  0  0  0  0
 53 18  1  0  0  0  0
 54 20  1  0  0  0  0
 55 26  1  0  0  0  0
 56 30  1  0  0  0  0
 57 31  1  0  0  0  0
 60 33  1  0  0  0  0
 61 36  1  0  0  0  0
 63 38  1  0  0  0  0
 66 42  1  0  0  0  0
M  END
