78
-1 1
O         5.859669    4.317931    1.550298
C         4.654552    4.534617    1.391336
N         3.966301    3.532491    0.516278
C         3.237305    2.473951    0.994155
C         3.086776    1.305905    0.209709
C         2.348244    0.228770    0.675501
O         2.323070   -0.910012   -0.111299
C         1.175242   -1.462055   -0.521549
N         1.284497   -2.712824   -0.920728
C         0.188972   -3.350647   -1.375393
N         0.423704   -4.645365   -1.765953
C        -0.492106   -5.573242   -2.237952
C        -1.838583   -5.437096   -2.533136
N        -2.254406   -6.657342   -2.972907
C        -3.615646   -7.055335   -3.244151
C        -4.284607   -7.741314   -2.052122
N        -4.344269   -6.887458   -0.880476
C        -5.640527   -6.817577   -0.252668
C        -3.278475   -7.120655    0.070393
N        -1.286846   -7.567583   -2.969344
C        -0.207210   -6.929791   -2.533828
N        -1.040054   -2.861155   -1.467050
C        -0.066676   -0.790214   -0.575948
C        -1.123890   -1.591189   -1.060841
N        -2.252930   -0.831958   -1.054892
H        -3.159491   -1.162049   -1.351200
C        -1.953030    0.437619   -0.588947
C        -0.623655    0.505686   -0.289817
C         1.723590    0.245330    1.921533
C         1.852286    1.406335    2.685774
C         2.580432    2.505531    2.245370
C         3.878535    5.596695    1.848950
C         2.517389    5.919803    1.394566
S         1.229926    5.832160    2.784622
C        -0.331924    6.176725    1.914543
C        -0.963528    4.975551    1.183571
H        -2.020124    5.205574    0.981368
N        -0.919387    3.797049    2.012736
C        -1.890055    2.848153    1.984122
C        -1.699473    1.692600    2.943080
O        -2.842391    2.906552    1.221447
C        -0.363074    4.803551   -0.220386
N         0.482144    3.759848   -0.383572
C         1.193986    3.519881   -1.614334
O        -0.653312    5.595995   -1.098845
H         4.639466    3.242087   -0.186775
H         3.569145    1.227684   -0.766608
H         1.383399   -4.938807   -1.649551
H        -2.499678   -4.585322   -2.435555
H        -3.603034   -7.730599   -4.112715
H        -4.178855   -6.150097   -3.510966
H        -3.751514   -8.689561   -1.842538
H        -5.304595   -8.020048   -2.363561
H        -6.408972   -6.521319   -0.983191
H        -5.630199   -6.054192    0.540747
H        -5.962895   -7.777246    0.213704
H        -2.303702   -7.140881   -0.434867
H        -3.398477   -8.081974    0.620431
H        -3.247978   -6.306202    0.810084
H         0.747149   -7.449188   -2.451509
H        -2.714533    1.204814   -0.463626
H        -0.114656    1.382065    0.090888
H         1.161687   -0.620731    2.273698
H         1.382160    1.449490    3.671862
H         2.685522    3.395221    2.866754
H         4.411262    6.327429    2.463444
H         2.186462    5.227025    0.613223
H         2.401224    6.951821    1.021667
H        -0.187711    6.994142    1.192238
H        -1.033339    6.533221    2.683059
H        -0.130599    3.730720    2.654569
H        -1.151490    0.893131    2.421714
H        -2.686827    1.306666    3.224946
H        -1.133762    1.975294    3.841435
H         0.781864    3.263250    0.448876
H         2.267387    3.732326   -1.486637
H         0.778914    4.188664   -2.378503
H         1.068281    2.474682   -1.936221
