-1 1
 OpenBabel05192410563D

 78 81  0  0  1  0  0  0  0  0999 V2000
    5.8597    4.3179    1.5503 O   0  0  0  0  0  0  0  0  0  0  0  0
    4.6546    4.5346    1.3913 C   0  0  0  0  0  0  0  0  0  0  0  0
    3.9663    3.5325    0.5163 N   0  0  0  0  0  0  0  0  0  0  0  0
    3.2373    2.4740    0.9942 C   0  0  0  0  0  0  0  0  0  0  0  0
    3.0868    1.3059    0.2097 C   0  0  0  0  0  0  0  0  0  0  0  0
    2.3482    0.2288    0.6755 C   0  0  0  0  0  0  0  0  0  0  0  0
    2.3231   -0.9100   -0.1113 O   0  0  0  0  0  0  0  0  0  0  0  0
    1.1752   -1.4621   -0.5215 C   0  0  0  0  0  0  0  0  0  0  0  0
    1.2845   -2.7128   -0.9207 N   0  0  0  0  0  0  0  0  0  0  0  0
    0.1890   -3.3506   -1.3754 C   0  0  0  0  0  0  0  0  0  0  0  0
    0.4237   -4.6454   -1.7660 N   0  0  0  0  0  0  0  0  0  0  0  0
   -0.4921   -5.5732   -2.2380 C   0  0  0  0  0  0  0  0  0  0  0  0
   -1.8386   -5.4371   -2.5331 C   0  0  0  0  0  0  0  0  0  0  0  0
   -2.2544   -6.6573   -2.9729 N   0  0  0  0  0  0  0  0  0  0  0  0
   -3.6156   -7.0553   -3.2442 C   0  0  0  0  0  0  0  0  0  0  0  0
   -4.2846   -7.7413   -2.0521 C   0  0  0  0  0  0  0  0  0  0  0  0
   -4.3443   -6.8875   -0.8805 N   0  0  0  0  0  0  0  0  0  0  0  0
   -5.6405   -6.8176   -0.2527 C   0  0  0  0  0  0  0  0  0  0  0  0
   -3.2785   -7.1207    0.0704 C   0  0  0  0  0  0  0  0  0  0  0  0
   -1.2868   -7.5676   -2.9693 N   0  0  0  0  0  0  0  0  0  0  0  0
   -0.2072   -6.9298   -2.5338 C   0  0  0  0  0  0  0  0  0  0  0  0
   -1.0401   -2.8612   -1.4670 N   0  0  0  0  0  0  0  0  0  0  0  0
   -0.0667   -0.7902   -0.5759 C   0  0  0  0  0  0  0  0  0  0  0  0
   -1.1239   -1.5912   -1.0608 C   0  0  0  0  0  0  0  0  0  0  0  0
   -2.2529   -0.8320   -1.0549 N   0  0  0  0  0  0  0  0  0  0  0  0
   -3.1595   -1.1620   -1.3512 H   0  0  0  0  0  0  0  0  0  0  0  0
   -1.9530    0.4376   -0.5889 C   0  0  0  0  0  0  0  0  0  0  0  0
   -0.6237    0.5057   -0.2898 C   0  0  0  0  0  0  0  0  0  0  0  0
    1.7236    0.2453    1.9215 C   0  0  0  0  0  0  0  0  0  0  0  0
    1.8523    1.4063    2.6858 C   0  0  0  0  0  0  0  0  0  0  0  0
    2.5804    2.5055    2.2454 C   0  0  0  0  0  0  0  0  0  0  0  0
    3.8785    5.5967    1.8490 C   0  0  0  0  0  3  0  0  0  0  0  0
    2.5174    5.9198    1.3946 C   0  0  0  0  0  0  0  0  0  0  0  0
    1.2299    5.8322    2.7846 S   0  0  0  0  0  0  0  0  0  0  0  0
   -0.3319    6.1767    1.9145 C   0  0  0  0  0  0  0  0  0  0  0  0
   -0.9635    4.9756    1.1836 C   0  0  2  0  0  0  0  0  0  0  0  0
   -2.0201    5.2056    0.9814 H   0  0  0  0  0  0  0  0  0  0  0  0
   -0.9194    3.7970    2.0127 N   0  0  0  0  0  0  0  0  0  0  0  0
   -1.8901    2.8482    1.9841 C   0  0  0  0  0  0  0  0  0  0  0  0
   -1.6995    1.6926    2.9431 C   0  0  0  0  0  0  0  0  0  0  0  0
   -2.8424    2.9066    1.2214 O   0  0  0  0  0  0  0  0  0  0  0  0
   -0.3631    4.8036   -0.2204 C   0  0  0  0  0  0  0  0  0  0  0  0
    0.4821    3.7598   -0.3836 N   0  0  0  0  0  0  0  0  0  0  0  0
    1.1940    3.5199   -1.6143 C   0  0  0  0  0  0  0  0  0  0  0  0
   -0.6533    5.5960   -1.0988 O   0  0  0  0  0  0  0  0  0  0  0  0
    4.6395    3.2421   -0.1868 H   0  0  0  0  0  0  0  0  0  0  0  0
    3.5691    1.2277   -0.7666 H   0  0  0  0  0  0  0  0  0  0  0  0
    1.3834   -4.9388   -1.6496 H   0  0  0  0  0  0  0  0  0  0  0  0
   -2.4997   -4.5853   -2.4356 H   0  0  0  0  0  0  0  0  0  0  0  0
   -3.6030   -7.7306   -4.1127 H   0  0  0  0  0  0  0  0  0  0  0  0
   -4.1789   -6.1501   -3.5110 H   0  0  0  0  0  0  0  0  0  0  0  0
   -3.7515   -8.6896   -1.8425 H   0  0  0  0  0  0  0  0  0  0  0  0
   -5.3046   -8.0200   -2.3636 H   0  0  0  0  0  0  0  0  0  0  0  0
   -6.4090   -6.5213   -0.9832 H   0  0  0  0  0  0  0  0  0  0  0  0
   -5.6302   -6.0542    0.5407 H   0  0  0  0  0  0  0  0  0  0  0  0
   -5.9629   -7.7772    0.2137 H   0  0  0  0  0  0  0  0  0  0  0  0
   -2.3037   -7.1409   -0.4349 H   0  0  0  0  0  0  0  0  0  0  0  0
   -3.3985   -8.0820    0.6204 H   0  0  0  0  0  0  0  0  0  0  0  0
   -3.2480   -6.3062    0.8101 H   0  0  0  0  0  0  0  0  0  0  0  0
    0.7471   -7.4492   -2.4515 H   0  0  0  0  0  0  0  0  0  0  0  0
   -2.7145    1.2048   -0.4636 H   0  0  0  0  0  0  0  0  0  0  0  0
   -0.1147    1.3821    0.0909 H   0  0  0  0  0  0  0  0  0  0  0  0
    1.1617   -0.6207    2.2737 H   0  0  0  0  0  0  0  0  0  0  0  0
    1.3822    1.4495    3.6719 H   0  0  0  0  0  0  0  0  0  0  0  0
    2.6855    3.3952    2.8668 H   0  0  0  0  0  0  0  0  0  0  0  0
    4.4113    6.3274    2.4634 H   0  0  0  0  0  0  0  0  0  0  0  0
    2.1865    5.2270    0.6132 H   0  0  0  0  0  0  0  0  0  0  0  0
    2.4012    6.9518    1.0217 H   0  0  0  0  0  0  0  0  0  0  0  0
   -0.1877    6.9941    1.1922 H   0  0  0  0  0  0  0  0  0  0  0  0
   -1.0333    6.5332    2.6831 H   0  0  0  0  0  0  0  0  0  0  0  0
   -0.1306    3.7307    2.6546 H   0  0  0  0  0  0  0  0  0  0  0  0
   -1.1515    0.8931    2.4217 H   0  0  0  0  0  0  0  0  0  0  0  0
   -2.6868    1.3067    3.2249 H   0  0  0  0  0  0  0  0  0  0  0  0
   -1.1338    1.9753    3.8414 H   0  0  0  0  0  0  0  0  0  0  0  0
    0.7819    3.2633    0.4489 H   0  0  0  0  0  0  0  0  0  0  0  0
    2.2674    3.7323   -1.4866 H   0  0  0  0  0  0  0  0  0  0  0  0
    0.7789    4.1887   -2.3785 H   0  0  0  0  0  0  0  0  0  0  0  0
    1.0683    2.4747   -1.9362 H   0  0  0  0  0  0  0  0  0  0  0  0
  2  1  2  0  0  0  0
  2 32  1  0  0  0  0
  3  4  1  0  0  0  0
  3  2  1  0  0  0  0
  4 31  1  0  0  0  0
  5  6  1  0  0  0  0
  5  4  2  0  0  0  0
  6 29  2  0  0  0  0
  7  6  1  0  0  0  0
  8  7  1  0  0  0  0
  9  8  2  0  0  0  0
 10  9  1  0  0  0  0
 11 48  1  0  0  0  0
 11 10  1  0  0  0  0
 12 11  1  0  0  0  0
 13 49  1  0  0  0  0
 13 12  2  0  0  0  0
 14 20  1  0  0  0  0
 14 13  1  0  0  0  0
 15 14  1  0  0  0  0
 15 16  1  0  0  0  0
 16 52  1  0  0  0  0
 16 17  1  0  0  0  0
 17 18  1  0  0  0  0
 17 19  1  0  0  0  0
 18 56  1  0  0  0  0
 18 55  1  0  0  0  0
 19 58  1  0  0  0  0
 19 59  1  0  0  0  0
 20 21  2  0  0  0  0
 21 60  1  0  0  0  0
 21 12  1  0  0  0  0
 22 10  2  0  0  0  0
 22 24  1  0  0  0  0
 23  8  1  0  0  0  0
 23 28  1  0  0  0  0
 24 25  1  0  0  0  0
 24 23  2  0  0  0  0
 25 27  1  0  0  0  0
 26 25  1  0  0  0  0
 27 61  1  0  0  0  0
 27 28  2  0  0  0  0
 28 62  1  0  0  0  0
 29 63  1  0  0  0  0
 29 30  1  0  0  0  0
 30 64  1  0  0  0  0
 31 30  2  0  0  0  0
 31 65  1  0  0  0  0
 32 66  1  0  0  0  0
 33 32  1  0  0  0  0
 33 34  1  0  0  0  0
 35 70  1  0  0  0  0
 35 34  1  0  0  0  0
 36 37  1  6  0  0  0
 36 35  1  0  0  0  0
 36 38  1  0  0  0  0
 38 71  1  0  0  0  0
 39 38  1  0  0  0  0
 39 40  1  0  0  0  0
 40 73  1  0  0  0  0
 40 74  1  0  0  0  0
 41 39  2  0  0  0  0
 42 36  1  0  0  0  0
 43 42  1  0  0  0  0
 43 75  1  0  0  0  0
 44 76  1  0  0  0  0
 44 43  1  0  0  0  0
 45 42  2  0  0  0  0
 46  3  1  0  0  0  0
 47  5  1  0  0  0  0
 50 15  1  0  0  0  0
 51 15  1  0  0  0  0
 53 16  1  0  0  0  0
 54 18  1  0  0  0  0
 57 19  1  0  0  0  0
 67 33  1  0  0  0  0
 68 33  1  0  0  0  0
 69 35  1  0  0  0  0
 72 40  1  0  0  0  0
 77 44  1  0  0  0  0
 78 44  1  0  0  0  0
M  END
