-1 1
 OpenBabel05232414493D

 78 80  0  0  1  0  0  0  0  0999 V2000
    9.3702   -9.3293    5.3087 O   0  0  0  0  0  0  0  0  0  0  0  0
    8.1468   -9.2747    5.2443 C   0  0  0  0  0  0  0  0  0  0  0  0
    7.5193  -10.3136    4.4431 N   0  0  0  0  0  0  0  0  0  0  0  0
    6.6803  -11.3171    4.8953 C   0  0  0  0  0  0  0  0  0  0  0  0
    6.4934  -12.4575    4.0874 C   0  0  0  0  0  0  0  0  0  0  0  0
    5.6722  -13.4947    4.5052 C   0  0  0  0  0  0  0  0  0  0  0  0
    5.6320  -14.6181    3.7043 O   0  0  0  0  0  0  0  0  0  0  0  0
    4.4827  -15.1962    3.3256 C   0  0  0  0  0  0  0  0  0  0  0  0
    4.6043  -16.4589    2.9713 N   0  0  0  0  0  0  0  0  0  0  0  0
    3.5140  -17.1233    2.5426 C   0  0  0  0  0  0  0  0  0  0  0  0
    3.7590  -18.4290    2.1979 N   0  0  0  0  0  0  0  0  0  0  0  0
    2.8480  -19.3822    1.7684 C   0  0  0  0  0  0  0  0  0  0  0  0
    1.5001  -19.2669    1.4713 C   0  0  0  0  0  0  0  0  0  0  0  0
    1.0905  -20.5073    1.0859 N   0  0  0  0  0  0  0  0  0  0  0  0
   -0.2694  -20.9247    0.8375 C   0  0  0  0  0  0  0  0  0  0  0  0
   -0.9323  -21.5536    2.0640 C   0  0  0  0  0  0  0  0  0  0  0  0
   -0.9907  -20.6429    3.1919 N   0  0  0  0  0  0  0  0  0  0  0  0
   -2.2864  -20.5397    3.8163 C   0  0  0  0  0  0  0  0  0  0  0  0
    0.0761  -20.8283    4.1521 C   0  0  0  0  0  0  0  0  0  0  0  0
    2.0636  -21.4108    1.1260 N   0  0  0  0  0  0  0  0  0  0  0  0
    3.1405  -20.7484    1.5304 C   0  0  0  0  0  0  0  0  0  0  0  0
    2.2809  -16.6475    2.4376 N   0  0  0  0  0  0  0  0  0  0  0  0
    3.2367  -14.5366    3.2533 C   0  0  0  0  0  0  0  0  0  0  0  0
    2.1855  -15.3655    2.7999 C   0  0  0  0  0  0  0  0  0  0  0  0
    1.0496  -14.6181    2.7831 N   0  0  0  0  0  0  0  0  0  0  0  0
    0.1445  -14.9677    2.5053 H   0  0  0  0  0  0  0  0  0  0  0  0
    1.3379  -13.3310    3.2052 C   0  0  0  0  0  0  0  0  0  0  0  0
    2.6673  -13.2365    3.4972 C   0  0  0  0  0  0  0  0  0  0  0  0
    4.9933  -13.4437    5.7222 C   0  0  0  0  0  0  0  0  0  0  0  0
    5.1609  -12.3033    6.5066 C   0  0  0  0  0  0  0  0  0  0  0  0
    5.9900  -11.2548    6.1188 C   0  0  0  0  0  0  0  0  0  0  0  0
    7.3414   -8.2216    5.7716 C   0  0  0  0  0  3  0  0  0  0  0  0
    6.0224   -7.9271    5.4214 C   0  0  0  0  0  3  0  0  0  0  0  0
    4.3894   -8.3190    7.0196 S   0  0  0  0  0  1  0  0  0  0  0  0
    2.9227   -7.7901    6.0806 C   0  0  0  0  0  0  0  0  0  0  0  0
    2.2288   -8.9053    5.2596 C   0  0  2  0  0  0  0  0  0  0  0  0
    1.1899   -8.6084    5.0540 H   0  0  0  0  0  0  0  0  0  0  0  0
    2.2187  -10.1313    6.0158 N   0  0  0  0  0  0  0  0  0  0  0  0
    1.2752  -11.0879    5.8679 C   0  0  0  0  0  0  0  0  0  0  0  0
    1.4367  -12.2989    6.7646 C   0  0  0  0  0  0  0  0  0  0  0  0
    0.3687  -11.0067    5.0506 O   0  0  0  0  0  0  0  0  0  0  0  0
    2.8522   -9.0251    3.8631 C   0  0  0  0  0  0  0  0  0  0  0  0
    3.8046   -9.9812    3.7154 N   0  0  0  0  0  0  0  0  0  0  0  0
    4.5406  -10.1532    2.4868 C   0  0  0  0  0  0  0  0  0  0  0  0
    2.5104   -8.2670    2.9731 O   0  0  0  0  0  0  0  0  0  0  0  0
    8.2256  -10.6647    3.8037 H   0  0  0  0  0  0  0  0  0  0  0  0
    7.0038  -12.5492    3.1267 H   0  0  0  0  0  0  0  0  0  0  0  0
    4.7209  -18.7110    2.3235 H   0  0  0  0  0  0  0  0  0  0  0  0
    0.8340  -18.4158    1.5350 H   0  0  0  0  0  0  0  0  0  0  0  0
   -0.2548  -21.6420    0.0034 H   0  0  0  0  0  0  0  0  0  0  0  0
   -0.8376  -20.0365    0.5274 H   0  0  0  0  0  0  0  0  0  0  0  0
   -0.3949  -22.4883    2.3184 H   0  0  0  0  0  0  0  0  0  0  0  0
   -1.9522  -21.8512    1.7702 H   0  0  0  0  0  0  0  0  0  0  0  0
   -3.0550  -20.2803    3.0721 H   0  0  0  0  0  0  0  0  0  0  0  0
   -2.2748  -19.7367    4.5695 H   0  0  0  0  0  0  0  0  0  0  0  0
   -2.6093  -21.4739    4.3312 H   0  0  0  0  0  0  0  0  0  0  0  0
    1.0501  -20.8747    3.6470 H   0  0  0  0  0  0  0  0  0  0  0  0
   -0.0436  -21.7603    4.7504 H   0  0  0  0  0  0  0  0  0  0  0  0
    0.1082  -19.9773    4.8493 H   0  0  0  0  0  0  0  0  0  0  0  0
    4.0982  -21.2582    1.6324 H   0  0  0  0  0  0  0  0  0  0  0  0
    0.5669  -12.5718    3.3203 H   0  0  0  0  0  0  0  0  0  0  0  0
    3.1593  -12.3388    3.8539 H   0  0  0  0  0  0  0  0  0  0  0  0
    4.3580  -14.2716    6.0396 H   0  0  0  0  0  0  0  0  0  0  0  0
    4.6419  -12.2293    7.4654 H   0  0  0  0  0  0  0  0  0  0  0  0
    6.1026  -10.3815    6.7577 H   0  0  0  0  0  0  0  0  0  0  0  0
    7.9018   -7.5155    6.3889 H   0  0  0  0  0  0  0  0  0  0  0  0
    5.5552   -8.5189    4.6319 H   0  0  0  0  0  0  0  0  0  0  0  0
    5.7128   -6.8804    5.4376 H   0  0  0  0  0  0  0  0  0  0  0  0
    3.1858   -6.9725    5.3894 H   0  0  0  0  0  0  0  0  0  0  0  0
    2.1919   -7.3815    6.7946 H   0  0  0  0  0  0  0  0  0  0  0  0
    2.9608  -10.1988    6.7167 H   0  0  0  0  0  0  0  0  0  0  0  0
    1.9733  -13.0762    6.1993 H   0  0  0  0  0  0  0  0  0  0  0  0
    0.4413  -12.6861    7.0162 H   0  0  0  0  0  0  0  0  0  0  0  0
    1.9977  -12.0786    7.6834 H   0  0  0  0  0  0  0  0  0  0  0  0
    4.1287  -10.4548    4.5529 H   0  0  0  0  0  0  0  0  0  0  0  0
    5.6076   -9.9203    2.6315 H   0  0  0  0  0  0  0  0  0  0  0  0
    4.1147   -9.4641    1.7467 H   0  0  0  0  0  0  0  0  0  0  0  0
    4.4502  -11.1859    2.1140 H   0  0  0  0  0  0  0  0  0  0  0  0
  2  1  2  0  0  0  0
  2 32  1  0  0  0  0
  3  4  1  0  0  0  0
  3  2  1  0  0  0  0
  4 31  1  0  0  0  0
  5  6  1  0  0  0  0
  5  4  2  0  0  0  0
  6 29  2  0  0  0  0
  7  6  1  0  0  0  0
  8  7  1  0  0  0  0
  9  8  2  0  0  0  0
 10  9  1  0  0  0  0
 11 48  1  0  0  0  0
 11 10  1  0  0  0  0
 12 11  1  0  0  0  0
 13 49  1  0  0  0  0
 13 12  2  0  0  0  0
 14 20  1  0  0  0  0
 14 13  1  0  0  0  0
 15 14  1  0  0  0  0
 15 16  1  0  0  0  0
 16 52  1  0  0  0  0
 16 17  1  0  0  0  0
 17 18  1  0  0  0  0
 17 19  1  0  0  0  0
 18 56  1  0  0  0  0
 18 55  1  0  0  0  0
 19 58  1  0  0  0  0
 19 59  1  0  0  0  0
 20 21  2  0  0  0  0
 21 60  1  0  0  0  0
 21 12  1  0  0  0  0
 22 10  2  0  0  0  0
 22 24  1  0  0  0  0
 23  8  1  0  0  0  0
 23 28  1  0  0  0  0
 24 23  2  0  0  0  0
 25 24  1  0  0  0  0
 25 27  1  0  0  0  0
 26 25  1  0  0  0  0
 27 61  1  0  0  0  0
 27 28  2  0  0  0  0
 28 62  1  0  0  0  0
 29 63  1  0  0  0  0
 29 30  1  0  0  0  0
 30 64  1  0  0  0  0
 31 30  2  0  0  0  0
 31 65  1  0  0  0  0
 32 66  1  0  0  0  0
 33 68  1  0  0  0  0
 33 32  1  0  0  0  0
 35 70  1  0  0  0  0
 35 34  1  0  0  0  0
 36 37  1  6  0  0  0
 36 38  1  0  0  0  0
 36 35  1  0  0  0  0
 38 71  1  0  0  0  0
 39 38  1  0  0  0  0
 39 40  1  0  0  0  0
 40 73  1  0  0  0  0
 40 74  1  0  0  0  0
 41 39  2  0  0  0  0
 42 36  1  0  0  0  0
 43 42  1  0  0  0  0
 43 75  1  0  0  0  0
 44 76  1  0  0  0  0
 44 43  1  0  0  0  0
 45 42  2  0  0  0  0
 46  3  1  0  0  0  0
 47  5  1  0  0  0  0
 50 15  1  0  0  0  0
 51 15  1  0  0  0  0
 53 16  1  0  0  0  0
 54 18  1  0  0  0  0
 57 19  1  0  0  0  0
 67 33  1  0  0  0  0
 69 35  1  0  0  0  0
 72 40  1  0  0  0  0
 77 44  1  0  0  0  0
 78 44  1  0  0  0  0
M  END
