-1 1
 OpenBabel05232413483D

 78 80  0  0  1  0  0  0  0  0999 V2000
    5.7281    5.1823    0.8078 O   0  0  0  0  0  0  0  0  0  0  0  0
    4.6692    4.6525    1.0893 C   0  0  0  0  0  0  0  0  0  0  0  0
    4.3122    3.4889    0.4250 N   0  0  0  0  0  0  0  0  0  0  0  0
    3.5282    2.3636    0.7525 C   0  0  0  0  0  0  0  0  0  0  0  0
    3.6044    1.2775   -0.1386 C   0  0  0  0  0  0  0  0  0  0  0  0
    2.8970    0.1114    0.1187 C   0  0  0  0  0  0  0  0  0  0  0  0
    3.0078   -0.9348   -0.7695 O   0  0  0  0  0  0  0  0  0  0  0  0
    1.8580   -1.4853   -1.2300 C   0  0  0  0  0  0  0  0  0  0  0  0
    1.8671   -2.7920   -1.3867 N   0  0  0  0  0  0  0  0  0  0  0  0
    0.7339   -3.3863   -1.8162 C   0  0  0  0  0  0  0  0  0  0  0  0
    0.7951   -4.7617   -1.9076 N   0  0  0  0  0  0  0  0  0  0  0  0
   -0.3288   -5.5883   -1.8662 C   0  0  0  0  0  0  0  0  0  0  0  0
   -1.6162   -5.3204   -2.2944 C   0  0  0  0  0  0  0  0  0  0  0  0
   -2.3717   -6.3894   -1.9334 N   0  0  0  0  0  0  0  0  0  0  0  0
   -3.8152   -6.3847   -1.8779 C   0  0  0  0  0  0  0  0  0  0  0  0
   -4.3463   -5.7034   -0.6050 C   0  0  0  0  0  0  0  0  0  0  0  0
   -3.7880   -4.3819   -0.4150 N   0  0  0  0  0  0  0  0  0  0  0  0
   -4.7353   -3.3048   -0.2446 C   0  0  0  0  0  0  0  0  0  0  0  0
   -2.6975   -4.3233    0.5321 C   0  0  0  0  0  0  0  0  0  0  0  0
   -1.6678   -7.3340   -1.3102 N   0  0  0  0  0  0  0  0  0  0  0  0
   -0.4225   -6.8723   -1.2735 C   0  0  0  0  0  0  0  0  0  0  0  0
   -0.4077   -2.7887   -2.1212 N   0  0  0  0  0  0  0  0  0  0  0  0
    0.7240   -0.7088   -1.5214 C   0  0  0  0  0  0  0  0  0  0  0  0
   -0.3835   -1.4664   -1.9598 C   0  0  0  0  0  0  0  0  0  0  0  0
   -1.4131   -0.6087   -2.1742 N   0  0  0  0  0  0  0  0  0  0  0  0
   -2.3728   -0.8904   -2.3171 H   0  0  0  0  0  0  0  0  0  0  0  0
   -1.0080    0.6768   -1.8654 C   0  0  0  0  0  0  0  0  0  0  0  0
    0.2981    0.6646   -1.4688 C   0  0  0  0  0  0  0  0  0  0  0  0
    2.1034   -0.0129    1.2582 C   0  0  0  0  0  0  0  0  0  0  0  0
    2.0097    1.0730    2.1174 C   0  0  0  0  0  0  0  0  0  0  0  0
    2.7126    2.2533    1.8830 C   0  0  0  0  0  0  0  0  0  0  0  0
    3.7533    5.3037    2.0667 C   0  0  0  0  0  0  0  0  0  0  0  0
    2.4425    5.4692    1.8871 C   0  0  0  0  0  0  0  0  0  0  0  0
   -0.4918    3.6742    3.2237 S   0  0  0  0  0  1  0  0  0  0  0  0
   -2.1350    3.7283    2.4016 C   0  0  0  0  0  0  0  0  0  0  0  0
   -2.2687    2.7991    1.1711 C   0  0  2  0  0  0  0  0  0  0  0  0
   -3.3232    2.6787    0.8849 H   0  0  0  0  0  0  0  0  0  0  0  0
   -1.7378    1.4991    1.5152 N   0  0  0  0  0  0  0  0  0  0  0  0
   -2.2042    0.3137    1.0841 C   0  0  0  0  0  0  0  0  0  0  0  0
   -1.4492   -0.8906    1.6140 C   0  0  0  0  0  0  0  0  0  0  0  0
   -3.1481    0.1770    0.3122 O   0  0  0  0  0  0  0  0  0  0  0  0
   -1.5879    3.3808   -0.0793 C   0  0  0  0  0  0  0  0  0  0  0  0
   -0.2714    3.6481    0.0668 N   0  0  0  0  0  0  0  0  0  0  0  0
    0.5131    4.2095   -0.9989 C   0  0  0  0  0  0  0  0  0  0  0  0
   -2.2007    3.5576   -1.1259 O   0  0  0  0  0  0  0  0  0  0  0  0
    5.0041    3.3013   -0.2939 H   0  0  0  0  0  0  0  0  0  0  0  0
    4.2077    1.3341   -1.0471 H   0  0  0  0  0  0  0  0  0  0  0  0
    1.6651   -5.1457   -1.5652 H   0  0  0  0  0  0  0  0  0  0  0  0
   -2.0428   -4.4298   -2.7351 H   0  0  0  0  0  0  0  0  0  0  0  0
   -4.1594   -7.4273   -1.9361 H   0  0  0  0  0  0  0  0  0  0  0  0
   -4.1795   -5.8434   -2.7633 H   0  0  0  0  0  0  0  0  0  0  0  0
   -4.1351   -6.3610    0.2605 H   0  0  0  0  0  0  0  0  0  0  0  0
   -5.4445   -5.6467   -0.6909 H   0  0  0  0  0  0  0  0  0  0  0  0
   -5.4333   -3.2639   -1.0958 H   0  0  0  0  0  0  0  0  0  0  0  0
   -4.2057   -2.3394   -0.1960 H   0  0  0  0  0  0  0  0  0  0  0  0
   -5.3388   -3.3932    0.6876 H   0  0  0  0  0  0  0  0  0  0  0  0
   -2.0165   -5.1737    0.3915 H   0  0  0  0  0  0  0  0  0  0  0  0
   -3.0466   -4.3361    1.5900 H   0  0  0  0  0  0  0  0  0  0  0  0
   -2.1119   -3.4071    0.3722 H   0  0  0  0  0  0  0  0  0  0  0  0
    0.3727   -7.4667   -0.8239 H   0  0  0  0  0  0  0  0  0  0  0  0
   -1.7061    1.5106   -1.9142 H   0  0  0  0  0  0  0  0  0  0  0  0
    0.8680    1.5254   -1.1380 H   0  0  0  0  0  0  0  0  0  0  0  0
    1.5546   -0.9369    1.4426 H   0  0  0  0  0  0  0  0  0  0  0  0
    1.3665    1.0302    2.9989 H   0  0  0  0  0  0  0  0  0  0  0  0
    2.5945    3.0736    2.5842 H   0  0  0  0  0  0  0  0  0  0  0  0
    4.2759    5.7875    2.8964 H   0  0  0  0  0  0  0  0  0  0  0  0
    1.9215    5.0228    1.0395 H   0  0  0  0  0  0  0  0  0  0  0  0
    1.8254    6.0351    2.5873 H   0  0  0  0  0  0  0  0  0  0  0  0
   -2.3764    4.7540    2.0796 H   0  0  0  0  0  0  0  0  0  0  0  0
   -2.9106    3.4270    3.1235 H   0  0  0  0  0  0  0  0  0  0  0  0
   -0.9701    1.5616    2.1909 H   0  0  0  0  0  0  0  0  0  0  0  0
   -0.8652   -1.3209    0.7858 H   0  0  0  0  0  0  0  0  0  0  0  0
   -2.1733   -1.6456    1.9473 H   0  0  0  0  0  0  0  0  0  0  0  0
   -0.7676   -0.6461    2.4400 H   0  0  0  0  0  0  0  0  0  0  0  0
    0.0855    3.6253    1.0382 H   0  0  0  0  0  0  0  0  0  0  0  0
    0.5436    5.3136   -0.9675 H   0  0  0  0  0  0  0  0  0  0  0  0
    0.0717    3.9158   -1.9611 H   0  0  0  0  0  0  0  0  0  0  0  0
    1.5477    3.8345   -0.9480 H   0  0  0  0  0  0  0  0  0  0  0  0
  1  2  2  0  0  0  0
  2 32  1  0  0  0  0
  3  4  1  0  0  0  0
  3  2  1  0  0  0  0
  4 31  1  0  0  0  0
  5  6  1  0  0  0  0
  5  4  2  0  0  0  0
  6 29  2  0  0  0  0
  7  6  1  0  0  0  0
  8  7  1  0  0  0  0
  9  8  2  0  0  0  0
 10  9  1  0  0  0  0
 11 12  1  0  0  0  0
 11 10  1  0  0  0  0
 11 48  1  0  0  0  0
 12 21  1  0  0  0  0
 13 14  1  0  0  0  0
 13 12  2  0  0  0  0
 14 15  1  0  0  0  0
 14 20  1  0  0  0  0
 15 16  1  0  0  0  0
 16 17  1  0  0  0  0
 16 52  1  0  0  0  0
 17 18  1  0  0  0  0
 17 19  1  0  0  0  0
 18 55  1  0  0  0  0
 18 56  1  0  0  0  0
 19 58  1  0  0  0  0
 20 21  2  0  0  0  0
 21 60  1  0  0  0  0
 22 24  1  0  0  0  0
 22 10  2  0  0  0  0
 23 28  1  0  0  0  0
 23  8  1  0  0  0  0
 24 23  2  0  0  0  0
 25 24  1  0  0  0  0
 25 27  1  0  0  0  0
 26 25  1  0  0  0  0
 27 28  2  0  0  0  0
 28 62  1  0  0  0  0
 29 63  1  0  0  0  0
 29 30  1  0  0  0  0
 30 64  1  0  0  0  0
 31 30  2  0  0  0  0
 31 65  1  0  0  0  0
 32 66  1  0  0  0  0
 33 32  2  0  0  0  0
 33 68  1  0  0  0  0
 35 70  1  0  0  0  0
 35 34  1  0  0  0  0
 36 37  1  6  0  0  0
 36 38  1  0  0  0  0
 36 35  1  0  0  0  0
 38 71  1  0  0  0  0
 39 38  1  0  0  0  0
 39 40  1  0  0  0  0
 40 73  1  0  0  0  0
 40 74  1  0  0  0  0
 41 39  2  0  0  0  0
 42 43  1  0  0  0  0
 42 36  1  0  0  0  0
 43 75  1  0  0  0  0
 44 76  1  0  0  0  0
 44 78  1  0  0  0  0
 44 43  1  0  0  0  0
 45 42  2  0  0  0  0
 46  3  1  0  0  0  0
 47  5  1  0  0  0  0
 49 13  1  0  0  0  0
 50 15  1  0  0  0  0
 51 15  1  0  0  0  0
 53 16  1  0  0  0  0
 54 18  1  0  0  0  0
 57 19  1  0  0  0  0
 59 19  1  0  0  0  0
 61 27  1  0  0  0  0
 67 33  1  0  0  0  0
 69 35  1  0  0  0  0
 72 40  1  0  0  0  0
 77 44  1  0  0  0  0
M  END
