93
-1 1
O         8.956091   13.095720    2.551296
C         8.599782   12.289954    1.660939
N         7.298786   12.336882    1.221437
C         6.640881   11.360278    0.360577
C         5.138774   11.589145    0.579147
C         5.060194   12.411152    1.866054
H         5.131733   11.757305    2.747482
C         6.339261   13.253941    1.805800
N         3.826583   13.153198    1.974982
C         3.313851   13.601146    3.148304
N         4.013482   13.284921    4.253181
C         3.587312   13.657752    5.450403
N         4.329357   13.361961    6.548294
C         5.593100   12.720279    6.489510
C         5.866704   11.582954    7.240284
C         7.084997   10.911177    7.105705
C         8.061772   11.349357    6.192561
N         9.270318   10.673201    5.995233
C         9.773003   10.590103    4.622056
C        11.231720   10.148371    4.598399
N        11.485100    8.917967    5.333329
C        10.989660    9.062514    6.686115
C         9.518581    9.481180    6.778217
C        11.047678    7.717694    4.657072
C         7.781049   12.523768    5.461351
C         6.583549   13.194216    5.621630
N         2.168092   14.300506    3.100119
C         1.752756   14.648485    4.315208
C         2.368870   14.374634    5.538876
N         1.648816   14.904228    6.588267
C         0.628485   15.478150    6.016571
N         0.625054   15.363973    4.639715
C        -0.338025   15.890438    3.683338
C        -1.725250   15.297332    3.917078
C        -0.337987   17.417352    3.689276
C         9.553033   11.360170    1.092437
C         9.640132   10.938207   -0.219473
S        10.662906   12.571288   -1.757290
C         9.208859   13.544152   -2.246041
C         8.584229   14.453044   -1.165348
H         8.132533   13.835800   -0.378359
N         7.545731   15.287049   -1.749249
C         6.247661   14.958040   -1.851473
C         5.363523   15.995058   -2.523993
O         5.770133   13.910120   -1.434257
C         9.604200   15.434912   -0.585217
N        10.082713   15.158061    0.637743
C        11.135822   15.932697    1.237678
O         9.906979   16.434901   -1.230914
H         6.969764   10.345111    0.637677
H         6.887473   11.526362   -0.699111
H         4.568857   10.650782    0.641228
H         4.749137   12.190496   -0.254806
H         6.687572   13.589074    2.787624
H         6.175424   14.133748    1.156989
H         3.380114   13.488527    1.131710
H         3.923189   13.601260    7.443053
H         5.104867   11.184414    7.915712
H         7.236345   10.006602    7.693836
H         9.698105   11.560961    4.117432
H         9.150783    9.889110    4.026727
H        11.850180   10.946514    5.044315
H        11.553967   10.028256    3.553146
H        11.595331    9.835353    7.191446
H        11.135420    8.118347    7.236214
H         9.291598    9.685584    7.835536
H         8.858430    8.641054    6.464816
H        11.534126    7.654120    3.671546
H         9.952797    7.642749    4.486604
H        11.353586    6.833206    5.239121
H         8.482719   12.911813    4.722049
H         6.395014   14.092575    5.034049
H        -0.168309   16.007448    6.540486
H         0.038164   15.540964    2.709625
H        -2.135460   15.610651    4.890391
H        -1.684813   14.199026    3.897683
H        -2.421552   15.633311    3.134387
H        -0.688711   17.812228    4.656160
H        -1.004359   17.804084    2.903891
H         0.674604   17.803719    3.506303
H        10.469996   11.321874    1.687556
H         8.780274   10.895379   -0.886156
H        10.442546   10.251703   -0.491790
H         8.398881   12.887088   -2.608288
H         9.492148   14.195405   -3.089352
H         7.898499   16.165728   -2.117040
H         5.909690   16.881842   -2.873567
H         4.856826   15.520203   -3.375989
H         4.586667   16.305991   -1.810855
H         9.780957   14.319339    1.133364
H        11.137024   16.936435    0.792813
H        12.124211   15.474893    1.062820
H        10.971239   16.009238    2.322164
