80
-1 1
O        13.205418    8.321719   -8.918864
C        12.218488    7.894305   -8.290728
N        11.534144    8.797651   -7.492474
C        10.260144    8.564181   -6.858490
H        10.361153    7.747146   -6.128182
C         9.073399    8.289901   -7.820205
N         8.266552    9.494785   -7.746517
C         8.944238   10.572340   -7.067429
C         9.834406    9.824528   -6.095187
H        10.699426   10.406472   -5.740299
F         9.094192    9.454286   -4.986539
C         7.093866    9.647442   -8.399635
N         6.657124    8.561737   -9.080648
C         5.487090    8.611017   -9.700503
N         5.039499    7.550992  -10.410881
C         5.680318    6.321732  -10.574870
C         5.020641    5.121364  -10.924022
O         3.695199    5.033514  -11.141246
C         3.218406    3.765842  -11.513813
N         5.856188    4.108617  -11.038778
N         7.062621    4.630098  -10.768762
C         8.224440    3.777860  -10.727698
C         7.013384    5.954104  -10.484728
N         6.482547   10.836725   -8.306375
C         5.321330   10.859193   -8.957266
C         4.727289    9.806670   -9.649821
N         3.547496   10.199427  -10.242780
C         3.437373   11.456326   -9.918816
N         4.473548   11.926634   -9.137726
C         4.723856   13.307628   -8.739245
C         4.848626   13.419993   -7.221466
C         5.948751   13.853092   -9.474665
C        11.716462    6.553030   -8.377462
C        12.090366    5.749548   -9.443852
S        10.854491    6.137846  -11.453605
C        11.646120    7.722766  -11.871342
C        11.029701    8.973415  -11.229722
H        11.066806    8.882968  -10.137380
N         9.660928    9.150062  -11.634116
C         8.909616   10.162435  -11.149193
C         7.553906   10.330212  -11.803502
O         9.311735   10.915941  -10.273682
C        11.874608   10.196198  -11.631793
N        12.951485   10.381454  -10.831711
C        13.927870   11.400418  -11.096667
O        11.613966   10.878570  -12.608415
H        11.827928    9.754651   -7.650056
H         8.480164    7.415794   -7.511814
H         9.433421    8.096005   -8.843667
H         8.233732   11.230015   -6.550734
H         9.532770   11.176807   -7.782371
H         4.121024    7.648239  -10.825464
H         3.425845    3.014529  -10.733927
H         3.689465    3.418704  -12.448409
H         2.134601    3.864696  -11.656412
H         8.200026    3.125740   -9.840836
H         9.118993    4.413093  -10.705153
H         8.253011    3.155957  -11.632012
H         7.908374    6.529358  -10.260304
H         2.620077   12.117407  -10.211567
H         3.832062   13.870141   -9.063369
H         5.713481   12.837453   -6.874042
H         3.945431   13.033475   -6.726717
H         4.985407   14.471807   -6.929046
H         6.839432   13.255930   -9.228196
H         6.131435   14.900506   -9.191379
H         5.797514   13.808772  -10.563321
H        10.865445    6.255195   -7.762970
H        11.811347    4.694363   -9.447825
H        13.018216    5.986648   -9.968339
H        12.701771    7.688513  -11.566396
H        11.628677    7.859447  -12.965751
H         9.276947    8.501985  -12.309202
H         7.688007   10.866283  -12.755676
H         6.910303   10.929205  -11.149326
H         7.070275    9.364909  -12.012353
H        13.114260    9.706824  -10.070731
H        14.911513   10.970763  -11.354131
H        14.064255   12.064529  -10.226725
H        13.572663   11.999558  -11.945798
