-1 1
 OpenBabel05232413483D

 80 82  0  0  1  0  0  0  0  0999 V2000
    4.7789    1.2698    0.6462 O   0  0  0  0  0  0  0  0  0  0  0  0
    4.1911    0.6999    1.5650 C   0  0  0  0  0  0  0  0  0  0  0  0
    2.8484    0.7505    1.6858 N   0  0  0  0  0  0  0  0  0  0  0  0
    2.0225    0.1440    2.7091 C   0  0  2  0  0  0  0  0  0  0  0  0
    2.5713   -0.6527    3.2179 H   0  0  0  0  0  0  0  0  0  0  0  0
    0.6955   -0.3597    2.1399 C   0  0  0  0  0  0  0  0  0  0  0  0
   -0.1687    0.8100    2.2246 N   0  0  0  0  0  0  0  0  0  0  0  0
    0.3898    1.8765    3.0291 C   0  0  0  0  0  0  0  0  0  0  0  0
    1.5691    1.2096    3.7162 C   0  0  1  0  0  0  0  0  0  0  0  0
    2.3749    1.9078    3.9888 H   0  0  0  0  0  0  0  0  0  0  0  0
    1.1357    0.5799    4.8713 F   0  0  0  0  0  0  0  0  0  0  0  0
   -1.3201    0.9575    1.5356 C   0  0  0  0  0  0  0  0  0  0  0  0
   -1.6961   -0.0870    0.7574 N   0  0  0  0  0  0  0  0  0  0  0  0
   -2.8313   -0.0072    0.0779 C   0  0  2  0  0  3  0  0  0  0  0  0
   -3.2245   -0.9914   -0.7576 N   0  0  0  0  0  0  0  0  0  0  0  0
   -2.5024   -2.1022   -1.1988 C   0  0  0  0  0  0  0  0  0  0  0  0
   -2.9876   -2.9685   -2.2040 C   0  0  0  0  0  0  0  0  0  0  0  0
   -4.1895   -2.8183   -2.7948 O   0  0  0  0  0  0  0  0  0  0  0  0
   -4.5005   -3.7536   -3.7954 C   0  0  0  0  0  0  0  0  0  0  0  0
   -2.1309   -3.9238   -2.4970 N   0  0  0  0  0  0  0  0  0  0  0  0
   -1.0803   -3.6966   -1.6949 N   0  0  0  0  0  0  0  0  0  0  0  0
    0.0692   -4.5698   -1.7443 C   0  0  0  0  0  0  0  0  0  0  0  0
   -1.2500   -2.6153   -0.8918 C   0  0  0  0  0  0  0  0  0  0  0  0
   -1.9714    2.1214    1.6973 N   0  0  0  0  0  2  0  0  0  0  0  0
   -3.1146    2.1608    1.0129 C   0  0  0  0  0  0  0  0  0  0  0  0
   -3.6348    1.1569    0.2026 C   0  0  0  0  0  0  0  0  0  0  0  0
   -4.8238    1.5427   -0.3751 N   0  0  0  0  0  0  0  0  0  0  0  0
   -5.0180    2.7472    0.0811 C   0  0  0  0  0  0  0  0  0  0  0  0
   -4.0230    3.1907    0.9290 N   0  0  0  0  0  0  0  0  0  0  0  0
   -3.9313    4.4955    1.5727 C   0  0  0  0  0  0  0  0  0  0  0  0
   -3.9378    4.3473    3.0932 C   0  0  0  0  0  0  0  0  0  0  0  0
   -2.7094    5.2592    1.0646 C   0  0  0  0  0  0  0  0  0  0  0  0
    5.0060   -0.0777    2.5566 C   0  0  0  0  0  0  0  0  0  0  0  0
    4.9408   -1.4041    2.6828 C   0  0  0  0  0  0  0  0  0  0  0  0
    2.3629   -2.9186    0.4011 S   0  0  0  0  0  1  0  0  0  0  0  0
    3.0310   -2.2541   -1.1591 C   0  0  0  0  0  0  0  0  0  0  0  0
    2.7545   -0.7633   -1.4001 C   0  0  2  0  0  0  0  0  0  0  0  0
    3.0077   -0.2196   -0.4894 H   0  0  0  0  0  0  0  0  0  0  0  0
    1.3636   -0.4837   -1.6962 N   0  0  0  0  0  0  0  0  0  0  0  0
    0.7457    0.6669   -1.3571 C   0  0  0  0  0  0  0  0  0  0  0  0
   -0.5504    0.9442   -2.0857 C   0  0  0  0  0  0  0  0  0  0  0  0
    1.2061    1.4736   -0.5518 O   0  0  0  0  0  0  0  0  0  0  0  0
    3.6100   -0.2474   -2.5607 C   0  0  0  0  0  0  0  0  0  0  0  0
    4.6671    0.5071   -2.1797 N   0  0  0  0  0  0  0  0  0  0  0  0
    5.6030    1.0502   -3.1256 C   0  0  0  0  0  0  0  0  0  0  0  0
    3.3513   -0.5353   -3.7210 O   0  0  0  0  0  0  0  0  0  0  0  0
    2.3548    1.1711    0.8825 H   0  0  0  0  0  0  0  0  0  0  0  0
    0.3033   -1.1900    2.7490 H   0  0  0  0  0  0  0  0  0  0  0  0
    0.8129   -0.7420    1.1187 H   0  0  0  0  0  0  0  0  0  0  0  0
   -0.3329    2.2649    3.7619 H   0  0  0  0  0  0  0  0  0  0  0  0
    0.7196    2.7211    2.3978 H   0  0  0  0  0  0  0  0  0  0  0  0
   -4.1006   -0.8256   -1.2395 H   0  0  0  0  0  0  0  0  0  0  0  0
   -4.5100   -4.7807   -3.3945 H   0  0  0  0  0  0  0  0  0  0  0  0
   -3.7656   -3.7209   -4.6169 H   0  0  0  0  0  0  0  0  0  0  0  0
   -5.4966   -3.4921   -4.1752 H   0  0  0  0  0  0  0  0  0  0  0  0
   -0.2309   -5.5981   -1.4949 H   0  0  0  0  0  0  0  0  0  0  0  0
    0.8160   -4.2103   -1.0112 H   0  0  0  0  0  0  0  0  0  0  0  0
    0.5015   -4.5607   -2.7557 H   0  0  0  0  0  0  0  0  0  0  0  0
   -0.4726   -2.3033   -0.1947 H   0  0  0  0  0  0  0  0  0  0  0  0
   -5.8704    3.3860   -0.1553 H   0  0  0  0  0  0  0  0  0  0  0  0
   -4.8422    5.0361    1.2652 H   0  0  0  0  0  0  0  0  0  0  0  0
   -3.0568    3.7738    3.4154 H   0  0  0  0  0  0  0  0  0  0  0  0
   -4.8410    3.8167    3.4286 H   0  0  0  0  0  0  0  0  0  0  0  0
   -3.9144    5.3371    3.5733 H   0  0  0  0  0  0  0  0  0  0  0  0
   -1.7919    4.7101    1.3212 H   0  0  0  0  0  0  0  0  0  0  0  0
   -2.6667    6.2597    1.5207 H   0  0  0  0  0  0  0  0  0  0  0  0
   -2.7499    5.3744   -0.0283 H   0  0  0  0  0  0  0  0  0  0  0  0
    5.7817    0.5082    3.0618 H   0  0  0  0  0  0  0  0  0  0  0  0
    5.6484   -1.9324    3.3289 H   0  0  0  0  0  0  0  0  0  0  0  0
    4.2036   -2.0012    2.1193 H   0  0  0  0  0  0  0  0  0  0  0  0
    4.1272   -2.3731   -1.1807 H   0  0  0  0  0  0  0  0  0  0  0  0
    2.6517   -2.8120   -2.0362 H   0  0  0  0  0  0  0  0  0  0  0  0
    0.9460   -1.0496   -2.4252 H   0  0  0  0  0  0  0  0  0  0  0  0
   -0.3111    1.3817   -3.0679 H   0  0  0  0  0  0  0  0  0  0  0  0
   -1.1393    1.6683   -1.5108 H   0  0  0  0  0  0  0  0  0  0  0  0
   -1.1368    0.0292   -2.2458 H   0  0  0  0  0  0  0  0  0  0  0  0
    4.7408    0.7827   -1.1973 H   0  0  0  0  0  0  0  0  0  0  0  0
    6.6369    0.7566   -2.8807 H   0  0  0  0  0  0  0  0  0  0  0  0
    5.5578    2.1520   -3.1562 H   0  0  0  0  0  0  0  0  0  0  0  0
    5.3461    0.6611   -4.1197 H   0  0  0  0  0  0  0  0  0  0  0  0
  1  2  2  0  0  0  0
  2  3  1  0  0  0  0
  2 33  1  0  0  0  0
  3  4  1  0  0  0  0
  4  5  1  1  0  0  0
  4  9  1  0  0  0  0
  6  7  1  0  0  0  0
  6  4  1  0  0  0  0
  6 48  1  0  0  0  0
  7  8  1  0  0  0  0
  8  9  1  0  0  0  0
  8 50  1  0  0  0  0
  9 10  1  1  0  0  0
  9 11  1  0  0  0  0
 12 24  1  0  0  0  0
 12  7  1  0  0  0  0
 13 12  2  0  0  0  0
 14 15  1  6  0  0  0
 14 26  1  0  0  0  0
 14 13  1  0  0  0  0
 16 23  2  0  0  0  0
 16 15  1  0  0  0  0
 17 16  1  0  0  0  0
 18 17  1  0  0  0  0
 19 53  1  0  0  0  0
 19 18  1  0  0  0  0
 20 17  2  0  0  0  0
 20 21  1  0  0  0  0
 21 23  1  0  0  0  0
 22 21  1  0  0  0  0
 22 56  1  0  0  0  0
 22 57  1  0  0  0  0
 23 59  1  0  0  0  0
 25 24  1  0  0  0  0
 26 25  2  0  0  0  0
 27 28  2  0  0  0  0
 27 26  1  0  0  0  0
 28 29  1  0  0  0  0
 29 25  1  0  0  0  0
 29 30  1  0  0  0  0
 30 31  1  0  0  0  0
 31 62  1  0  0  0  0
 31 63  1  0  0  0  0
 31 64  1  0  0  0  0
 32 65  1  0  0  0  0
 32 66  1  0  0  0  0
 32 30  1  0  0  0  0
 33 34  2  0  0  0  0
 33 68  1  0  0  0  0
 34 69  1  0  0  0  0
 36 35  1  0  0  0  0
 37 36  1  0  0  0  0
 37 38  1  1  0  0  0
 39 37  1  0  0  0  0
 39 40  1  0  0  0  0
 40 42  2  0  0  0  0
 41 75  1  0  0  0  0
 41 40  1  0  0  0  0
 43 44  1  0  0  0  0
 43 37  1  0  0  0  0
 44 77  1  0  0  0  0
 45 78  1  0  0  0  0
 45 44  1  0  0  0  0
 46 43  2  0  0  0  0
 47  3  1  0  0  0  0
 49  6  1  0  0  0  0
 51  8  1  0  0  0  0
 52 15  1  0  0  0  0
 54 19  1  0  0  0  0
 55 19  1  0  0  0  0
 58 22  1  0  0  0  0
 60 28  1  0  0  0  0
 61 30  1  0  0  0  0
 67 32  1  0  0  0  0
 70 34  1  0  0  0  0
 71 36  1  0  0  0  0
 72 36  1  0  0  0  0
 73 39  1  0  0  0  0
 74 41  1  0  0  0  0
 76 41  1  0  0  0  0
 79 45  1  0  0  0  0
 80 45  1  0  0  0  0
M  END
