78
-1 1
O         3.941596    0.194350    3.229922
C         2.930093   -0.063377    2.605502
N         1.774006    0.660483    2.812211
C         0.613766    0.703955    2.039441
C         0.650355    0.702856    0.640464
F         1.813609    0.701684   -0.009177
C        -0.523332    0.770653   -0.106146
O        -0.438060    0.758213   -1.479234
C        -0.057384    1.871770   -2.126916
N         0.150721    1.691531   -3.415171
C         0.522204    2.736329   -4.168340
N         0.728237    2.513692   -5.503114
C         0.617656    1.314880   -6.199641
C         0.320401    0.037952   -5.752103
N         0.360875   -0.764360   -6.851406
C         0.040744   -2.172695   -6.905427
C        -1.340525   -2.408238   -7.515102
N        -1.662803   -3.814492   -7.634587
C        -1.999136   -4.433970   -6.371968
C        -2.666795   -4.070829   -8.640494
N         0.647323   -0.103091   -7.966335
C         0.811316    1.159663   -7.593730
N         0.716019    3.987035   -3.752059
C         0.094208    3.139742   -1.530101
C         0.494892    4.140906   -2.449734
N         0.609064    5.309423   -1.762286
H         0.890346    6.183756   -2.180766
C         0.292267    5.091517   -0.430997
C        -0.031287    3.780760   -0.241534
C        -1.760215    0.861071    0.519411
C        -1.804118    0.916655    1.911015
C        -0.635064    0.845986    2.660850
C         2.884159   -1.231535    1.675627
C         1.983131   -2.208356    1.786405
S        -0.113214   -3.805623    4.685854
C        -1.024530   -2.228190    4.463019
C        -0.933138   -1.265453    5.665746
H        -1.254601   -0.255017    5.384226
N         0.441996   -1.172556    6.119485
C         1.231455   -0.097892    5.957731
C         2.680706   -0.287311    6.349511
O         0.839707    0.987482    5.520004
C        -1.853628   -1.638255    6.841550
N        -1.792871   -2.936240    7.215466
C        -2.603146   -3.470073    8.273969
O        -2.561937   -0.800630    7.381418
H         1.709732    1.116367    3.729003
H         1.008637    3.334146   -6.021348
H         0.098112   -0.324933   -4.754845
H         0.103042   -2.558952   -5.878939
H         0.799615   -2.689419   -7.509675
H        -1.327539   -1.958471   -8.519168
H        -2.099565   -1.846307   -6.923757
H        -1.189909   -4.304200   -5.639408
H        -2.141364   -5.516549   -6.509414
H        -2.930522   -4.021241   -5.921934
H        -2.344119   -3.668007   -9.612281
H        -3.657344   -3.622699   -8.397191
H        -2.813333   -5.155767   -8.758161
H         1.069563    1.923552   -8.326872
H         0.327119    5.905628    0.288466
H        -0.321719    3.332505    0.703970
H        -2.659721    0.910726   -0.095003
H        -2.763137    1.005192    2.424164
H        -0.646810    0.896748    3.751599
H         3.733040   -1.309383    0.990943
H         2.054994   -3.108823    1.171717
H         1.172498   -2.194345    2.522608
H        -2.090650   -2.412625    4.249067
H        -0.624011   -1.684921    3.590301
H         0.879373   -2.095002    6.201366
H         2.940363    0.485983    7.086471
H         3.313895   -0.126882    5.463887
H         2.887151   -1.280035    6.770596
H        -1.239668   -3.565542    6.607714
H        -3.370020   -4.165894    7.891914
H        -3.109151   -2.633951    8.775062
H        -1.989297   -4.012585    9.011935
