-1 1
 OpenBabel05192410563D

 78 81  0  0  1  0  0  0  0  0999 V2000
    1.7704    1.4514    3.8571 O   0  0  0  0  0  0  0  0  0  0  0  0
    0.9707    0.7029    3.2672 C   0  0  0  0  0  0  0  0  0  0  0  0
   -0.3555    1.3041    3.0614 N   0  0  0  0  0  0  0  0  0  0  0  0
   -1.0840    1.5546    1.9304 C   0  0  0  0  0  0  0  0  0  0  0  0
   -0.6612    1.2716    0.6146 C   0  0  0  0  0  0  0  0  0  0  0  0
    0.5594    0.8053    0.3662 F   0  0  0  0  0  0  0  0  0  0  0  0
   -1.4778    1.5417   -0.4815 C   0  0  0  0  0  0  0  0  0  0  0  0
   -1.0048    1.2380   -1.7395 O   0  0  0  0  0  0  0  0  0  0  0  0
   -0.0982    2.0382   -2.3191 C   0  0  0  0  0  0  0  0  0  0  0  0
    0.3861    1.5616   -3.4490 N   0  0  0  0  0  0  0  0  0  0  0  0
    1.2888    2.2828   -4.1271 C   0  0  0  0  0  0  0  0  0  0  0  0
    1.7678    1.7587   -5.2990 N   0  0  0  0  0  0  0  0  0  0  0  0
    1.4564    0.5350   -5.8807 C   0  0  0  0  0  0  0  0  0  0  0  0
    0.6469   -0.4952   -5.4306 C   0  0  0  0  0  0  0  0  0  0  0  0
    0.7115   -1.4673   -6.3821 N   0  0  0  0  0  0  0  0  0  0  0  0
   -0.0297   -2.7073   -6.4007 C   0  0  0  0  0  0  0  0  0  0  0  0
   -1.2069   -2.6390   -7.3725 C   0  0  0  0  0  0  0  0  0  0  0  0
   -1.9332   -3.8887   -7.4576 N   0  0  0  0  0  0  0  0  0  0  0  0
   -2.7578   -4.1514   -6.2994 C   0  0  0  0  0  0  0  0  0  0  0  0
   -2.6814   -4.0130   -8.6862 C   0  0  0  0  0  0  0  0  0  0  0  0
    1.4851   -1.1377   -7.4096 N   0  0  0  0  0  0  0  0  0  0  0  0
    1.9506    0.0717   -7.1244 C   0  0  0  0  0  0  0  0  0  0  0  0
    1.7784    3.4728   -3.7831 N   0  0  0  0  0  0  0  0  0  0  0  0
    0.3089    3.2925   -1.8211 C   0  0  0  0  0  0  0  0  0  0  0  0
    1.2710    3.9311   -2.6418 C   0  0  0  0  0  0  0  0  0  0  0  0
    1.5875    5.1185   -2.0580 N   0  0  0  0  0  0  0  0  0  0  0  0
    2.2692    5.7639   -2.4282 H   0  0  0  0  0  0  0  0  0  0  0  0
    0.8596    5.2621   -0.8873 C   0  0  0  0  0  0  0  0  0  0  0  0
    0.0612    4.1726   -0.7033 C   0  0  0  0  0  0  0  0  0  0  0  0
   -2.7386    2.1073   -0.3391 C   0  0  0  0  0  0  0  0  0  0  0  0
   -3.1663    2.4198    0.9501 C   0  0  0  0  0  0  0  0  0  0  0  0
   -2.3641    2.1473    2.0496 C   0  0  0  0  0  0  0  0  0  0  0  0
    1.1298   -0.6336    2.9171 C   0  0  0  0  0  3  0  0  0  0  0  0
    0.0988   -1.5242    2.3407 C   0  0  0  0  0  0  0  0  0  0  0  0
   -0.6437   -2.8211    3.4835 S   0  0  0  0  0  0  0  0  0  0  0  0
   -1.3597   -1.7680    4.7904 C   0  0  0  0  0  0  0  0  0  0  0  0
   -0.5845   -1.7553    6.1133 C   0  0  2  0  0  0  0  0  0  0  0  0
   -1.1378   -1.1266    6.8313 H   0  0  0  0  0  0  0  0  0  0  0  0
    0.7397   -1.2157    5.9337 N   0  0  0  0  0  0  0  0  0  0  0  0
    1.3897   -0.5872    6.9583 C   0  0  0  0  0  0  0  0  0  0  0  0
    2.7061    0.0447    6.5625 C   0  0  0  0  0  0  0  0  0  0  0  0
    0.9502   -0.5723    8.0962 O   0  0  0  0  0  0  0  0  0  0  0  0
   -0.6189   -3.1572    6.7391 C   0  0  0  0  0  0  0  0  0  0  0  0
    0.5689   -3.8027    6.7671 N   0  0  0  0  0  0  0  0  0  0  0  0
    0.7146   -5.1481    7.2453 C   0  0  0  0  0  0  0  0  0  0  0  0
   -1.6665   -3.6334    7.1438 O   0  0  0  0  0  0  0  0  0  0  0  0
   -0.5339    1.9588    3.8153 H   0  0  0  0  0  0  0  0  0  0  0  0
    2.4494    2.3409   -5.7645 H   0  0  0  0  0  0  0  0  0  0  0  0
    0.0611   -0.5848   -4.5226 H   0  0  0  0  0  0  0  0  0  0  0  0
   -0.3624   -2.9019   -5.3720 H   0  0  0  0  0  0  0  0  0  0  0  0
    0.6443   -3.5223   -6.6998 H   0  0  0  0  0  0  0  0  0  0  0  0
   -0.7903   -2.4009   -8.3627 H   0  0  0  0  0  0  0  0  0  0  0  0
   -1.8633   -1.7845   -7.0887 H   0  0  0  0  0  0  0  0  0  0  0  0
   -2.1602   -4.1382   -5.3770 H   0  0  0  0  0  0  0  0  0  0  0  0
   -3.2106   -5.1514   -6.3783 H   0  0  0  0  0  0  0  0  0  0  0  0
   -3.5817   -3.4116   -6.1780 H   0  0  0  0  0  0  0  0  0  0  0  0
   -2.0130   -3.8980   -9.5527 H   0  0  0  0  0  0  0  0  0  0  0  0
   -3.4970   -3.2598   -8.7824 H   0  0  0  0  0  0  0  0  0  0  0  0
   -3.1425   -5.0111   -8.7473 H   0  0  0  0  0  0  0  0  0  0  0  0
    2.6318    0.5774   -7.8084 H   0  0  0  0  0  0  0  0  0  0  0  0
    0.9804    6.1443   -0.2639 H   0  0  0  0  0  0  0  0  0  0  0  0
   -0.6122    4.0142    0.1334 H   0  0  0  0  0  0  0  0  0  0  0  0
   -3.3405    2.3040   -1.2262 H   0  0  0  0  0  0  0  0  0  0  0  0
   -4.1483    2.8725    1.1033 H   0  0  0  0  0  0  0  0  0  0  0  0
   -2.7227    2.3760    3.0559 H   0  0  0  0  0  0  0  0  0  0  0  0
    2.1476   -1.0234    3.0112 H   0  0  0  0  0  0  0  0  0  0  0  0
    0.4861   -2.1557    1.5250 H   0  0  0  0  0  0  0  0  0  0  0  0
   -0.7687   -0.9871    1.9362 H   0  0  0  0  0  0  0  0  0  0  0  0
   -2.3764   -2.1292    4.9939 H   0  0  0  0  0  0  0  0  0  0  0  0
   -1.4211   -0.7430    4.3942 H   0  0  0  0  0  0  0  0  0  0  0  0
    1.0271   -1.0189    4.9623 H   0  0  0  0  0  0  0  0  0  0  0  0
    3.0617    0.6691    7.3912 H   0  0  0  0  0  0  0  0  0  0  0  0
    2.5887    0.6381    5.6377 H   0  0  0  0  0  0  0  0  0  0  0  0
    3.4488   -0.7454    6.3676 H   0  0  0  0  0  0  0  0  0  0  0  0
    1.3465   -3.3170    6.3372 H   0  0  0  0  0  0  0  0  0  0  0  0
    0.9916   -5.8418    6.4340 H   0  0  0  0  0  0  0  0  0  0  0  0
   -0.2553   -5.4596    7.6552 H   0  0  0  0  0  0  0  0  0  0  0  0
    1.4755   -5.2145    8.0399 H   0  0  0  0  0  0  0  0  0  0  0  0
  2  1  2  0  0  0  0
  3  2  1  0  0  0  0
  3 47  1  0  0  0  0
  4 32  1  0  0  0  0
  4  3  1  0  0  0  0
  5  4  2  0  0  0  0
  6  5  1  0  0  0  0
  7 30  2  0  0  0  0
  7  5  1  0  0  0  0
  8  7  1  0  0  0  0
  9 24  1  0  0  0  0
  9  8  1  0  0  0  0
 10  9  2  0  0  0  0
 11 23  2  0  0  0  0
 11 10  1  0  0  0  0
 12 11  1  0  0  0  0
 13 14  2  0  0  0  0
 13 12  1  0  0  0  0
 14 49  1  0  0  0  0
 15 14  1  0  0  0  0
 16 15  1  0  0  0  0
 16 50  1  0  0  0  0
 17 53  1  0  0  0  0
 17 16  1  0  0  0  0
 18 17  1  0  0  0  0
 18 19  1  0  0  0  0
 19 56  1  0  0  0  0
 19 54  1  0  0  0  0
 20 18  1  0  0  0  0
 21 22  2  0  0  0  0
 21 15  1  0  0  0  0
 22 13  1  0  0  0  0
 23 25  1  0  0  0  0
 24 29  1  0  0  0  0
 25 26  1  0  0  0  0
 25 24  2  0  0  0  0
 26 28  1  0  0  0  0
 27 26  1  0  0  0  0
 28 29  2  0  0  0  0
 28 61  1  0  0  0  0
 29 62  1  0  0  0  0
 30 31  1  0  0  0  0
 31 64  1  0  0  0  0
 31 32  2  0  0  0  0
 32 65  1  0  0  0  0
 33 66  1  0  0  0  0
 33  2  1  0  0  0  0
 34 33  1  0  0  0  0
 34 35  1  0  0  0  0
 35 36  1  0  0  0  0
 36 69  1  0  0  0  0
 36 37  1  0  0  0  0
 37 43  1  0  0  0  0
 37 38  1  1  0  0  0
 39 37  1  0  0  0  0
 39 40  1  0  0  0  0
 40 42  2  0  0  0  0
 41 40  1  0  0  0  0
 41 72  1  0  0  0  0
 43 44  1  0  0  0  0
 43 46  2  0  0  0  0
 44 45  1  0  0  0  0
 45 77  1  0  0  0  0
 45 78  1  0  0  0  0
 48 12  1  0  0  0  0
 51 16  1  0  0  0  0
 52 17  1  0  0  0  0
 55 19  1  0  0  0  0
 57 20  1  0  0  0  0
 58 20  1  0  0  0  0
 59 20  1  0  0  0  0
 60 22  1  0  0  0  0
 63 30  1  0  0  0  0
 67 34  1  0  0  0  0
 68 34  1  0  0  0  0
 70 36  1  0  0  0  0
 71 39  1  0  0  0  0
 73 41  1  0  0  0  0
 74 41  1  0  0  0  0
 75 44  1  0  0  0  0
 76 45  1  0  0  0  0
M  END
