-1 1
 OpenBabel05232414493D

 82 84  0  0  1  0  0  0  0  0999 V2000
    7.1570   -5.3017   -7.7339 O   0  0  0  0  0  0  0  0  0  0  0  0
    7.8560   -5.4642   -8.7673 C   0  0  0  0  0  0  0  0  0  0  0  0
    9.2082   -5.6520   -8.5499 N   0  0  0  0  0  0  0  0  0  0  0  0
   10.2475   -6.2111   -9.3840 C   0  0  2  0  0  0  0  0  0  0  0  0
    9.8721   -7.0493   -9.9934 H   0  0  0  0  0  0  0  0  0  0  0  0
   11.4127   -6.6015   -8.4652 C   0  0  0  0  0  0  0  0  0  0  0  0
   12.0191   -5.3090   -8.1579 N   0  0  0  0  0  0  0  0  0  0  0  0
   11.9939   -4.5068   -9.3798 C   0  0  0  0  0  0  0  0  0  0  0  0
   10.9730   -5.1948  -10.2930 C   0  0  1  0  0  0  0  0  0  0  0  0
   10.3229   -4.4800  -10.8152 H   0  0  0  0  0  0  0  0  0  0  0  0
   11.6396   -5.9344  -11.2675 F   0  0  0  0  0  0  0  0  0  0  0  0
   11.7867   -4.6866   -6.9518 C   0  0  0  0  0  0  0  0  0  0  0  0
   11.1914   -5.4341   -5.9995 N   0  0  0  0  0  0  0  0  0  0  0  0
   10.9015   -4.8994   -4.8213 C   0  0  2  0  0  3  0  0  0  0  0  0
   10.1715   -5.6163   -3.9206 N   0  0  0  0  0  0  0  0  0  0  0  0
    9.3791   -6.7085   -4.3379 C   0  0  0  0  0  0  0  0  0  0  0  0
    9.5699   -8.0821   -4.0588 C   0  0  0  0  0  0  0  0  0  0  0  0
   10.6749   -8.6948   -3.2563 C   0  0  0  0  0  0  0  0  0  0  0  0
   11.9653   -8.8115   -4.0724 C   0  0  0  0  0  0  0  0  0  0  0  0
    8.6744   -8.8154   -4.7109 N   0  0  0  0  0  0  0  0  0  0  0  0
    7.9348   -7.9438   -5.4082 N   0  0  0  0  0  0  0  0  0  0  0  0
    6.8730   -8.3922   -6.2781 C   0  0  0  0  0  0  0  0  0  0  0  0
    8.3117   -6.6652   -5.2178 C   0  0  0  0  0  0  0  0  0  0  0  0
   12.1183   -3.3986   -6.8522 N   0  0  0  0  0  2  0  0  0  0  0  0
   11.8289   -2.8894   -5.6562 C   0  0  0  0  0  0  0  0  0  0  0  0
   11.2862   -3.5667   -4.5640 C   0  0  0  0  0  0  0  0  0  0  0  0
   11.0498   -2.7087   -3.5137 N   0  0  0  0  0  0  0  0  0  0  0  0
   11.4452   -1.5494   -3.9624 C   0  0  0  0  0  0  0  0  0  0  0  0
   11.9268   -1.5831   -5.2539 N   0  0  0  0  0  0  0  0  0  0  0  0
   12.3557   -0.4650   -6.0920 C   0  0  0  0  0  0  0  0  0  0  0  0
   11.2546    0.5839   -6.2174 C   0  0  0  0  0  0  0  0  0  0  0  0
   13.6786    0.1059   -5.5864 C   0  0  0  0  0  0  0  0  0  0  0  0
    7.2493   -5.4113  -10.0647 C   0  0  0  0  0  3  0  0  0  0  0  0
    7.8289   -5.2426  -11.3134 C   0  0  0  0  0  3  0  0  0  0  0  0
    8.4451   -2.9536  -11.7846 S   0  0  0  0  0  1  0  0  0  0  0  0
    8.7022   -2.4744  -10.0510 C   0  0  0  0  0  0  0  0  0  0  0  0
    7.4529   -2.0018   -9.2927 C   0  0  2  0  0  0  0  0  0  0  0  0
    6.7351   -2.8355   -9.2204 H   0  0  0  0  0  0  0  0  0  0  0  0
    6.8570   -0.8927   -9.9910 N   0  0  0  0  0  0  0  0  0  0  0  0
    5.7519   -0.2613   -9.5350 C   0  0  0  0  0  0  0  0  0  0  0  0
    5.2271    0.8467  -10.4338 C   0  0  0  0  0  0  0  0  0  0  0  0
    5.2293   -0.5189   -8.4646 O   0  0  0  0  0  0  0  0  0  0  0  0
    7.9055   -1.6061   -7.8805 C   0  0  0  0  0  0  0  0  0  0  0  0
    7.7675   -2.5886   -6.9665 N   0  0  0  0  0  0  0  0  0  0  0  0
    8.2216   -2.4289   -5.6120 C   0  0  0  0  0  0  0  0  0  0  0  0
    8.4398   -0.5316   -7.6454 O   0  0  0  0  0  0  0  0  0  0  0  0
    9.4208   -5.6359   -7.5566 H   0  0  0  0  0  0  0  0  0  0  0  0
   12.1326   -7.2230   -9.0194 H   0  0  0  0  0  0  0  0  0  0  0  0
   11.1074   -7.1198   -7.5507 H   0  0  0  0  0  0  0  0  0  0  0  0
   12.9715   -4.4870   -9.8863 H   0  0  0  0  0  0  0  0  0  0  0  0
   11.7093   -3.4748   -9.1411 H   0  0  0  0  0  0  0  0  0  0  0  0
    9.8972   -5.0980   -3.0940 H   0  0  0  0  0  0  0  0  0  0  0  0
   10.3514   -9.6873   -2.9074 H   0  0  0  0  0  0  0  0  0  0  0  0
   10.8595   -8.0763   -2.3632 H   0  0  0  0  0  0  0  0  0  0  0  0
   11.8098   -9.4686   -4.9412 H   0  0  0  0  0  0  0  0  0  0  0  0
   12.7880   -9.2251   -3.4683 H   0  0  0  0  0  0  0  0  0  0  0  0
   12.2729   -7.8264   -4.4548 H   0  0  0  0  0  0  0  0  0  0  0  0
    6.0281   -8.7842   -5.6925 H   0  0  0  0  0  0  0  0  0  0  0  0
    7.2506   -9.1868   -6.9357 H   0  0  0  0  0  0  0  0  0  0  0  0
    6.5476   -7.5358   -6.8850 H   0  0  0  0  0  0  0  0  0  0  0  0
    7.8467   -5.8589   -5.7887 H   0  0  0  0  0  0  0  0  0  0  0  0
   11.4067   -0.6153   -3.4017 H   0  0  0  0  0  0  0  0  0  0  0  0
   12.5215   -0.9228   -7.0787 H   0  0  0  0  0  0  0  0  0  0  0  0
   11.0516    1.0639   -5.2460 H   0  0  0  0  0  0  0  0  0  0  0  0
   10.3184    0.1489   -6.6024 H   0  0  0  0  0  0  0  0  0  0  0  0
   11.5747    1.3720   -6.9152 H   0  0  0  0  0  0  0  0  0  0  0  0
   13.5599    0.5557   -4.5873 H   0  0  0  0  0  0  0  0  0  0  0  0
   14.0388    0.8904   -6.2682 H   0  0  0  0  0  0  0  0  0  0  0  0
   14.4461   -0.6792   -5.5233 H   0  0  0  0  0  0  0  0  0  0  0  0
    6.1713   -5.2519   -9.9828 H   0  0  0  0  0  0  0  0  0  0  0  0
    7.1653   -5.2691  -12.1786 H   0  0  0  0  0  0  0  0  0  0  0  0
    8.8421   -5.5687  -11.5367 H   0  0  0  0  0  0  0  0  0  0  0  0
    9.4486   -1.6645  -10.0084 H   0  0  0  0  0  0  0  0  0  0  0  0
    9.1121   -3.3200   -9.4820 H   0  0  0  0  0  0  0  0  0  0  0  0
    7.1397   -0.7970  -10.9615 H   0  0  0  0  0  0  0  0  0  0  0  0
    5.5244    0.7272  -11.4855 H   0  0  0  0  0  0  0  0  0  0  0  0
    5.6167    1.8089  -10.0681 H   0  0  0  0  0  0  0  0  0  0  0  0
    4.1326    0.8729  -10.3576 H   0  0  0  0  0  0  0  0  0  0  0  0
    7.3318   -3.4755   -7.2360 H   0  0  0  0  0  0  0  0  0  0  0  0
    8.4119   -3.4142   -5.1646 H   0  0  0  0  0  0  0  0  0  0  0  0
    7.4857   -1.8974   -4.9843 H   0  0  0  0  0  0  0  0  0  0  0  0
    9.1545   -1.8485   -5.5913 H   0  0  0  0  0  0  0  0  0  0  0  0
  2  3  1  0  0  0  0
  2  1  2  0  0  0  0
  3 47  1  0  0  0  0
  4  5  1  6  0  0  0
  4  3  1  0  0  0  0
  4  6  1  0  0  0  0
  6  7  1  0  0  0  0
  6 49  1  0  0  0  0
  7 12  1  0  0  0  0
  8 51  1  0  0  0  0
  8  7  1  0  0  0  0
  9 10  1  6  0  0  0
  9  4  1  0  0  0  0
  9  8  1  0  0  0  0
 11  9  1  0  0  0  0
 12 24  1  0  0  0  0
 12 13  2  0  0  0  0
 13 14  1  0  0  0  0
 14 26  1  0  0  0  0
 14 15  1  6  0  0  0
 15 52  1  0  0  0  0
 16 17  1  0  0  0  0
 16 15  1  0  0  0  0
 17 18  1  0  0  0  0
 18 53  1  0  0  0  0
 18 54  1  0  0  0  0
 19 56  1  0  0  0  0
 19 18  1  0  0  0  0
 20 17  2  0  0  0  0
 21 23  1  0  0  0  0
 21 20  1  0  0  0  0
 22 58  1  0  0  0  0
 22 21  1  0  0  0  0
 23 16  2  0  0  0  0
 24 25  1  0  0  0  0
 25 29  1  0  0  0  0
 25 26  2  0  0  0  0
 26 27  1  0  0  0  0
 28 27  2  0  0  0  0
 28 62  1  0  0  0  0
 29 28  1  0  0  0  0
 30 32  1  0  0  0  0
 30 29  1  0  0  0  0
 31 30  1  0  0  0  0
 31 64  1  0  0  0  0
 32 69  1  0  0  0  0
 32 67  1  0  0  0  0
 33 70  1  0  0  0  0
 33  2  1  0  0  0  0
 34 33  1  0  0  0  0
 35 36  1  0  0  0  0
 36 73  1  0  0  0  0
 36 74  1  0  0  0  0
 36 37  1  0  0  0  0
 37 38  1  1  0  0  0
 37 43  1  0  0  0  0
 39 40  1  0  0  0  0
 39 37  1  0  0  0  0
 40 42  2  0  0  0  0
 41 78  1  0  0  0  0
 41 77  1  0  0  0  0
 41 40  1  0  0  0  0
 43 46  2  0  0  0  0
 43 44  1  0  0  0  0
 44 45  1  0  0  0  0
 45 82  1  0  0  0  0
 45 80  1  0  0  0  0
 45 81  1  0  0  0  0
 48  6  1  0  0  0  0
 50  8  1  0  0  0  0
 55 19  1  0  0  0  0
 57 19  1  0  0  0  0
 59 22  1  0  0  0  0
 60 22  1  0  0  0  0
 61 23  1  0  0  0  0
 63 30  1  0  0  0  0
 65 31  1  0  0  0  0
 66 31  1  0  0  0  0
 68 32  1  0  0  0  0
 71 34  1  0  0  0  0
 72 34  1  0  0  0  0
 75 39  1  0  0  0  0
 76 41  1  0  0  0  0
 79 44  1  0  0  0  0
M  END
