76
-1 1
O         1.818650   -3.599276    3.781458
C         0.822856   -2.881833    3.531916
N         0.342520   -2.952350    2.177790
C        -1.065057   -3.168298    1.868923
C        -1.064005   -3.985076    0.565330
C         0.331873   -3.755437   -0.011380
H         0.665491   -4.551411   -0.691547
C         1.180600   -3.698419    1.256864
N         0.403906   -2.501787   -0.764440
N        -0.555730   -1.568129   -0.711558
C        -0.130554   -0.494531   -1.350164
C        -1.021556    0.672067   -1.488421
C        -0.912828    1.549528   -2.574079
C        -1.781159    2.630207   -2.707133
C        -2.772887    2.834922   -1.753806
O        -3.611912    3.922717   -1.867539
C        -4.789123    3.794301   -2.530086
C        -5.215525    2.606066   -3.131464
C        -6.443522    2.576708   -3.792962
C        -7.248722    3.711046   -3.863270
C        -6.813145    4.892573   -3.258809
C        -5.592565    4.939186   -2.595392
C        -2.903849    1.969714   -0.669809
C        -2.033294    0.894148   -0.542586
C         1.476935   -2.054439   -1.462151
C         1.195050   -0.730946   -1.844305
C         2.279671   -0.046181   -2.449452
N         2.250267    1.295628   -2.692411
N         3.376639   -0.728081   -2.778768
C         3.462603   -2.021052   -2.428936
N         2.593440   -2.738288   -1.745437
C         0.188697   -2.028065    4.446791
C        -0.775750   -0.961153    4.179733
S        -0.128332    0.774602    3.609692
C         0.343155    0.403467    1.896246
C         1.807283    0.004925    1.598981
H         1.783259   -0.939546    1.029411
N         2.562638   -0.244008    2.810333
C         3.607028   -1.099419    2.894953
C         3.971667   -1.547316    4.281727
O         4.212332   -1.501397    1.898216
C         2.487344    1.022575    0.649959
N         3.767308    0.717383    0.368968
C         4.625792    1.530593   -0.448156
O         1.891122    1.977347    0.154519
H        -1.602525   -2.217156    1.706087
H        -1.582121   -3.696056    2.690270
H        -1.867116   -3.696361   -0.125292
H        -1.157563   -5.060071    0.779754
H         2.157340   -3.215182    1.103621
H         1.390906   -4.726144    1.608876
H        -0.136842    1.390461   -3.324196
H        -1.699798    3.318509   -3.550366
H        -4.592394    1.712304   -3.080572
H        -6.770509    1.644283   -4.259348
H        -8.208293    3.676716   -4.382929
H        -7.433033    5.791352   -3.303238
H        -5.235391    5.852046   -2.115720
H        -3.682523    2.152968    0.072520
H        -2.125170    0.216245    0.306328
H         1.821520    1.836755   -1.936315
H         3.158385    1.652540   -2.968113
H         4.385546   -2.529820   -2.730643
H         0.618745   -2.066712    5.452269
H        -1.322890   -0.663101    5.087108
H        -1.524992   -1.172289    3.403699
H         0.108990    1.288848    1.292669
H        -0.302491   -0.416937    1.566278
H         2.029732   -0.050369    3.660700
H         3.749707   -0.782562    5.038919
H         5.033412   -1.821371    4.307259
H         3.343182   -2.441021    4.469542
H         4.124461   -0.160923    0.775629
H         4.121311    2.483950   -0.654419
H         4.861031    1.028458   -1.402362
H         5.572225    1.739966    0.075275
