81
-1 1
O         0.038793    0.744967    2.874679
C         1.003563    0.083502    3.370294
N         0.666289   -0.682447    4.533397
C        -0.716528   -0.617876    4.965594
C        -1.610076   -1.582776    4.181207
C        -1.047952   -3.008125    4.203177
C         0.456335   -3.082615    3.923298
H         0.842891   -4.066737    4.229733
C         1.220412   -1.998052    4.715310
N         0.772584   -2.993025    2.499769
N         0.064251   -2.265203    1.625724
C         0.751005   -2.191533    0.503409
C         0.278897   -1.348902   -0.608098
C        -1.086699   -1.127800   -0.813036
C        -1.510004   -0.255262   -1.801844
F        -2.824500   -0.074414   -1.985093
C        -0.607135    0.444149   -2.614400
O        -0.974466    1.301743   -3.594540
C        -1.941789    2.310163   -3.335052
C        -3.239453    2.049557   -4.059771
N        -4.173046    2.990621   -3.919122
C        -5.339266    2.823666   -4.534192
C        -5.639395    1.718047   -5.328548
C        -4.657828    0.741468   -5.483573
C        -3.435595    0.907026   -4.842009
C         0.752324    0.194825   -2.421579
C         1.191559   -0.671554   -1.427428
C         1.942462   -3.407125    1.955357
C         1.971158   -2.935716    0.633546
C         3.077115   -3.387961   -0.130642
N         3.225736   -3.138696   -1.453751
N         4.031546   -4.110088    0.460206
C         3.893531   -4.423773    1.755245
N         2.887359   -4.141540    2.559620
C         2.292980    0.043073    2.863444
C         2.583603    0.590448    1.523091
S         3.309689    2.315467    1.339877
C         1.982152    3.408583    1.929818
C         0.806099    3.683649    0.972988
H         0.272299    4.573457    1.354503
N        -0.094769    2.553193    0.951624
C        -1.348470    2.655748    0.450628
C        -2.297564    1.560278    0.898390
O        -1.714485    3.565723   -0.285456
C         1.331919    4.139268   -0.391271
N         1.227941    3.234131   -1.388421
C         1.755641    3.469091   -2.701227
O         1.831229    5.244456   -0.522412
H        -1.073020    0.409345    4.831661
H        -0.750449   -0.863423    6.045592
H        -1.660178   -1.218313    3.146855
H        -2.632390   -1.584630    4.596148
H        -1.589620   -3.659169    3.498399
H        -1.192655   -3.439685    5.209615
H         2.279278   -2.024958    4.434996
H         1.162915   -2.275302    5.785086
H        -1.828665   -1.621870   -0.185032
H        -1.521250    3.259419   -3.702003
H        -2.114731    2.462507   -2.256147
H        -6.082268    3.616549   -4.389128
H        -6.614875    1.629123   -5.810474
H        -4.843651   -0.143192   -6.097780
H        -2.637096    0.170588   -4.928373
H         1.463900    0.733621   -3.048010
H         2.262675   -0.763586   -1.243615
H         2.473520   -2.739949   -1.994838
H         4.005199   -3.579598   -1.920585
H         4.717631   -5.003465    2.188281
H         3.104967   -0.425381    3.421957
H         1.682166    0.589593    0.895946
H         3.354068    0.001595    0.996131
H         2.479765    4.365156    2.138708
H         1.596278    3.005260    2.879135
H         0.050380    1.822666    1.696135
H        -2.965314    1.994624    1.658657
H        -1.764955    0.714627    1.353496
H        -2.922146    1.240681    0.054817
H         0.859436    2.324167   -1.139067
H         2.725614    2.962957   -2.856248
H         1.917987    4.549377   -2.811472
H         1.049820    3.124745   -3.473194
