-1 1
 OpenBabel05192410563D

 81 85  0  0  1  0  0  0  0  0999 V2000
    0.0388    0.7450    2.8747 O   0  0  0  0  0  0  0  0  0  0  0  0
    1.0036    0.0835    3.3703 C   0  0  0  0  0  0  0  0  0  0  0  0
    0.6663   -0.6824    4.5334 N   0  0  0  0  0  0  0  0  0  0  0  0
   -0.7165   -0.6179    4.9656 C   0  0  0  0  0  0  0  0  0  0  0  0
   -1.6101   -1.5828    4.1812 C   0  0  0  0  0  0  0  0  0  0  0  0
   -1.0480   -3.0081    4.2032 C   0  0  0  0  0  0  0  0  0  0  0  0
    0.4563   -3.0826    3.9233 C   0  0  2  0  0  0  0  0  0  0  0  0
    0.8429   -4.0667    4.2297 H   0  0  0  0  0  0  0  0  0  0  0  0
    1.2204   -1.9981    4.7153 C   0  0  0  0  0  0  0  0  0  0  0  0
    0.7726   -2.9930    2.4998 N   0  0  0  0  0  0  0  0  0  0  0  0
    0.0643   -2.2652    1.6257 N   0  0  0  0  0  0  0  0  0  0  0  0
    0.7510   -2.1915    0.5034 C   0  0  0  0  0  0  0  0  0  0  0  0
    0.2789   -1.3489   -0.6081 C   0  0  0  0  0  0  0  0  0  0  0  0
   -1.0867   -1.1278   -0.8130 C   0  0  0  0  0  0  0  0  0  0  0  0
   -1.5100   -0.2553   -1.8018 C   0  0  0  0  0  0  0  0  0  0  0  0
   -2.8245   -0.0744   -1.9851 F   0  0  0  0  0  0  0  0  0  0  0  0
   -0.6071    0.4441   -2.6144 C   0  0  0  0  0  0  0  0  0  0  0  0
   -0.9745    1.3017   -3.5945 O   0  0  0  0  0  0  0  0  0  0  0  0
   -1.9418    2.3102   -3.3351 C   0  0  0  0  0  0  0  0  0  0  0  0
   -3.2395    2.0496   -4.0598 C   0  0  0  0  0  0  0  0  0  0  0  0
   -4.1730    2.9906   -3.9191 N   0  0  0  0  0  0  0  0  0  0  0  0
   -5.3393    2.8237   -4.5342 C   0  0  0  0  0  0  0  0  0  0  0  0
   -5.6394    1.7180   -5.3285 C   0  0  0  0  0  0  0  0  0  0  0  0
   -4.6578    0.7415   -5.4836 C   0  0  0  0  0  0  0  0  0  0  0  0
   -3.4356    0.9070   -4.8420 C   0  0  0  0  0  0  0  0  0  0  0  0
    0.7523    0.1948   -2.4216 C   0  0  0  0  0  0  0  0  0  0  0  0
    1.1916   -0.6716   -1.4274 C   0  0  0  0  0  0  0  0  0  0  0  0
    1.9425   -3.4071    1.9554 C   0  0  0  0  0  0  0  0  0  0  0  0
    1.9712   -2.9357    0.6335 C   0  0  0  0  0  0  0  0  0  0  0  0
    3.0771   -3.3880   -0.1306 C   0  0  2  0  0  3  0  0  0  0  0  0
    3.2257   -3.1387   -1.4538 N   0  0  0  0  0  0  0  0  0  0  0  0
    4.0315   -4.1101    0.4602 N   0  0  0  0  0  0  0  0  0  0  0  0
    3.8935   -4.4238    1.7552 C   0  0  0  0  0  0  0  0  0  0  0  0
    2.8874   -4.1415    2.5596 N   0  0  0  0  0  2  0  0  0  0  0  0
    2.2930    0.0431    2.8634 C   0  0  0  0  0  3  0  0  0  0  0  0
    2.5836    0.5904    1.5231 C   0  0  0  0  0  0  0  0  0  0  0  0
    3.3097    2.3155    1.3399 S   0  0  0  0  0  0  0  0  0  0  0  0
    1.9822    3.4086    1.9298 C   0  0  0  0  0  0  0  0  0  0  0  0
    0.8061    3.6836    0.9730 C   0  0  2  0  0  0  0  0  0  0  0  0
    0.2723    4.5735    1.3545 H   0  0  0  0  0  0  0  0  0  0  0  0
   -0.0948    2.5532    0.9516 N   0  0  0  0  0  0  0  0  0  0  0  0
   -1.3485    2.6557    0.4506 C   0  0  0  0  0  0  0  0  0  0  0  0
   -2.2976    1.5603    0.8984 C   0  0  0  0  0  0  0  0  0  0  0  0
   -1.7145    3.5657   -0.2855 O   0  0  0  0  0  0  0  0  0  0  0  0
    1.3319    4.1393   -0.3913 C   0  0  0  0  0  0  0  0  0  0  0  0
    1.2279    3.2341   -1.3884 N   0  0  0  0  0  0  0  0  0  0  0  0
    1.7556    3.4691   -2.7012 C   0  0  0  0  0  0  0  0  0  0  0  0
    1.8312    5.2445   -0.5224 O   0  0  0  0  0  0  0  0  0  0  0  0
   -1.0730    0.4093    4.8317 H   0  0  0  0  0  0  0  0  0  0  0  0
   -0.7504   -0.8634    6.0456 H   0  0  0  0  0  0  0  0  0  0  0  0
   -1.6602   -1.2183    3.1469 H   0  0  0  0  0  0  0  0  0  0  0  0
   -2.6324   -1.5846    4.5961 H   0  0  0  0  0  0  0  0  0  0  0  0
   -1.5896   -3.6592    3.4984 H   0  0  0  0  0  0  0  0  0  0  0  0
   -1.1927   -3.4397    5.2096 H   0  0  0  0  0  0  0  0  0  0  0  0
    2.2793   -2.0250    4.4350 H   0  0  0  0  0  0  0  0  0  0  0  0
    1.1629   -2.2753    5.7851 H   0  0  0  0  0  0  0  0  0  0  0  0
   -1.8287   -1.6219   -0.1850 H   0  0  0  0  0  0  0  0  0  0  0  0
   -1.5212    3.2594   -3.7020 H   0  0  0  0  0  0  0  0  0  0  0  0
   -2.1147    2.4625   -2.2561 H   0  0  0  0  0  0  0  0  0  0  0  0
   -6.0823    3.6165   -4.3891 H   0  0  0  0  0  0  0  0  0  0  0  0
   -6.6149    1.6291   -5.8105 H   0  0  0  0  0  0  0  0  0  0  0  0
   -4.8437   -0.1432   -6.0978 H   0  0  0  0  0  0  0  0  0  0  0  0
   -2.6371    0.1706   -4.9284 H   0  0  0  0  0  0  0  0  0  0  0  0
    1.4639    0.7336   -3.0480 H   0  0  0  0  0  0  0  0  0  0  0  0
    2.2627   -0.7636   -1.2436 H   0  0  0  0  0  0  0  0  0  0  0  0
    2.4735   -2.7399   -1.9948 H   0  0  0  0  0  0  0  0  0  0  0  0
    4.0052   -3.5796   -1.9206 H   0  0  0  0  0  0  0  0  0  0  0  0
    4.7176   -5.0035    2.1883 H   0  0  0  0  0  0  0  0  0  0  0  0
    3.1050   -0.4254    3.4220 H   0  0  0  0  0  0  0  0  0  0  0  0
    1.6822    0.5896    0.8959 H   0  0  0  0  0  0  0  0  0  0  0  0
    3.3541    0.0016    0.9961 H   0  0  0  0  0  0  0  0  0  0  0  0
    2.4798    4.3652    2.1387 H   0  0  0  0  0  0  0  0  0  0  0  0
    1.5963    3.0053    2.8791 H   0  0  0  0  0  0  0  0  0  0  0  0
    0.0504    1.8227    1.6961 H   0  0  0  0  0  0  0  0  0  0  0  0
   -2.9653    1.9946    1.6587 H   0  0  0  0  0  0  0  0  0  0  0  0
   -1.7650    0.7146    1.3535 H   0  0  0  0  0  0  0  0  0  0  0  0
   -2.9221    1.2407    0.0548 H   0  0  0  0  0  0  0  0  0  0  0  0
    0.8594    2.3242   -1.1391 H   0  0  0  0  0  0  0  0  0  0  0  0
    2.7256    2.9630   -2.8562 H   0  0  0  0  0  0  0  0  0  0  0  0
    1.9180    4.5494   -2.8115 H   0  0  0  0  0  0  0  0  0  0  0  0
    1.0498    3.1247   -3.4732 H   0  0  0  0  0  0  0  0  0  0  0  0
  1  2  2  0  0  0  0
  2  3  1  0  0  0  0
  3  9  1  0  0  0  0
  3  4  1  0  0  0  0
  4 50  1  0  0  0  0
  5  6  1  0  0  0  0
  5 52  1  0  0  0  0
  5  4  1  0  0  0  0
  6 54  1  0  0  0  0
  7  6  1  0  0  0  0
  7  8  1  1  0  0  0
  7  9  1  0  0  0  0
  9 56  1  0  0  0  0
 10  7  1  0  0  0  0
 11 10  1  0  0  0  0
 12 29  1  0  0  0  0
 12 11  2  0  0  0  0
 13 12  1  0  0  0  0
 14 13  1  0  0  0  0
 14 57  1  0  0  0  0
 15 14  2  0  0  0  0
 16 15  1  0  0  0  0
 17 26  2  0  0  0  0
 17 15  1  0  0  0  0
 18 19  1  0  0  0  0
 18 17  1  0  0  0  0
 19 59  1  0  0  0  0
 20 21  1  0  0  0  0
 20 19  1  0  0  0  0
 22 60  1  0  0  0  0
 22 21  2  0  0  0  0
 23 22  1  0  0  0  0
 24 23  2  0  0  0  0
 24 25  1  0  0  0  0
 25 20  2  0  0  0  0
 26 27  1  0  0  0  0
 27 65  1  0  0  0  0
 27 13  2  0  0  0  0
 28 10  1  0  0  0  0
 28 34  1  0  0  0  0
 29 28  2  0  0  0  0
 30 31  1  6  0  0  0
 30 32  1  0  0  0  0
 30 29  1  0  0  0  0
 32 33  2  0  0  0  0
 33 68  1  0  0  0  0
 33 34  1  0  0  0  0
 35  2  1  0  0  0  0
 35 69  1  0  0  0  0
 36 35  1  0  0  0  0
 37 36  1  0  0  0  0
 37 38  1  0  0  0  0
 38 72  1  0  0  0  0
 38 73  1  0  0  0  0
 39 40  1  1  0  0  0
 39 38  1  0  0  0  0
 41 39  1  0  0  0  0
 41 74  1  0  0  0  0
 42 43  1  0  0  0  0
 42 41  1  0  0  0  0
 43 76  1  0  0  0  0
 43 75  1  0  0  0  0
 44 42  2  0  0  0  0
 45 39  1  0  0  0  0
 46 78  1  0  0  0  0
 46 45  1  0  0  0  0
 47 46  1  0  0  0  0
 48 45  2  0  0  0  0
 49  4  1  0  0  0  0
 51  5  1  0  0  0  0
 53  6  1  0  0  0  0
 55  9  1  0  0  0  0
 58 19  1  0  0  0  0
 61 23  1  0  0  0  0
 62 24  1  0  0  0  0
 63 25  1  0  0  0  0
 64 26  1  0  0  0  0
 66 31  1  0  0  0  0
 67 31  1  0  0  0  0
 70 36  1  0  0  0  0
 71 36  1  0  0  0  0
 77 43  1  0  0  0  0
 79 47  1  0  0  0  0
 80 47  1  0  0  0  0
 81 47  1  0  0  0  0
M  END
