72
-1 1
C         6.799912    8.972130   -1.143805
O         5.613367    8.498201   -1.694426
C         4.674048    8.097582   -0.739279
C         3.452065    7.572538   -1.464163
O         2.460013    7.265309   -0.503871
C         1.825544    6.069159   -0.589021
C         0.461497    6.031814   -0.734412
C         2.563248    4.849225   -0.451810
O         3.896177    4.990331   -0.270762
C         4.681744    3.837122   -0.132833
C         1.898056    3.643307   -0.497075
C         0.490798    3.600670   -0.661419
C        -0.244048    4.801140   -0.764352
N        -1.602441    4.814692   -0.895279
C        -2.181592    3.642951   -0.914922
N        -1.603998    2.429971   -0.841310
C        -0.287586    2.381460   -0.727687
N         0.349152    1.192723   -0.669785
C        -0.132477   -0.118272   -0.693373
C        -1.402113   -0.565193   -0.821468
C        -1.775054   -2.013708   -0.879073
O        -2.995150   -2.311223   -0.984744
C        -0.712317   -2.912132   -0.845301
C         0.637319   -2.530021   -0.428646
S         0.984502   -2.750938    1.452791
C        -0.600582   -2.322647    2.224852
C        -1.679696   -3.415043    2.210787
H        -2.036655   -3.535200    1.182579
N        -2.793867   -3.001092    3.032032
C        -4.121910   -3.263309    2.801808
C        -4.484276   -3.804285    1.438154
O        -4.950005   -3.054792    3.670127
C        -1.107934   -4.740519    2.728794
N        -0.932784   -5.675518    1.771825
C        -0.314868   -6.945447    2.038128
O        -0.864787   -4.903448    3.914584
C         0.993682   -1.084389   -0.660385
O         2.144984   -0.693970   -0.776900
O        -0.952451   -4.290129   -0.851563
C        -1.705556   -4.744448   -1.941177
C        -1.686277   -6.250709   -1.913749
F        -2.340395   -6.725145   -0.821660
F        -2.319156   -6.734970   -3.009794
H         7.469402    9.255400   -1.967782
H         7.307066    8.203727   -0.526562
H         6.634461    9.861980   -0.503610
H         4.377068    8.944230   -0.087000
H         5.071229    7.297430   -0.085763
H         3.726494    6.690806   -2.061868
H         3.064125    8.344314   -2.150733
H        -0.099068    6.962589   -0.821489
H         5.717538    4.175791   -0.008877
H         4.618734    3.190884   -1.025369
H         4.387815    3.247741    0.752678
H         2.463012    2.719278   -0.377125
H        -3.274626    3.631151   -1.006969
H         1.365720    1.181484   -0.658984
H        -2.229137    0.139695   -0.894249
H         1.429880   -3.162047   -0.853241
H        -1.007536   -1.403570    1.778940
H        -0.329184   -2.097431    3.268542
H        -2.583504   -2.832495    4.011064
H        -4.020274   -4.791478    1.281014
H        -4.126503   -3.151865    0.622019
H        -5.574676   -3.907754    1.397711
H        -1.030223   -5.361889    0.806169
H         0.768955   -6.930308    1.827425
H        -0.784058   -7.727629    1.423787
H        -0.450679   -7.184812    3.101042
H        -1.254999   -4.409850   -2.893943
H        -2.739618   -4.364286   -1.895244
H        -0.660648   -6.659346   -1.888798
