-1 1
 OpenBabel05232413483D

 88 92  0  0  1  0  0  0  0  0999 V2000
    0.5934   -2.5741   -0.9837 O   0  0  0  0  0  0  0  0  0  0  0  0
   -0.5859   -2.4489   -0.6553 C   0  0  0  0  0  0  0  0  0  0  0  0
   -1.5993   -2.6008   -1.5476 N   0  0  0  0  0  0  0  0  0  0  0  0
   -2.9968   -2.2432   -1.3561 C   0  0  0  0  0  0  0  0  0  0  0  0
   -3.3223   -0.9513   -2.1114 C   0  0  0  0  0  0  0  0  0  0  0  0
   -2.8426   -0.9866   -3.5686 C   0  0  0  0  0  0  0  0  0  0  0  0
   -1.4391   -1.5717   -3.7502 C   0  0  2  0  0  0  0  0  0  0  0  0
   -1.2623   -1.8020   -4.8106 H   0  0  0  0  0  0  0  0  0  0  0  0
   -1.2830   -2.8612   -2.9394 C   0  0  0  0  0  0  0  0  0  0  0  0
   -0.3715   -0.6482   -3.3709 N   0  0  0  0  0  0  0  0  0  0  0  0
   -0.5017    0.2405   -2.3732 N   0  0  0  0  0  0  0  0  0  0  0  0
    0.7009    0.6699   -2.0479 C   0  0  0  0  0  0  0  0  0  0  0  0
    0.8597    1.6724   -0.9808 C   0  0  0  0  0  0  0  0  0  0  0  0
   -0.0117    1.6560    0.1186 C   0  0  0  0  0  0  0  0  0  0  0  0
    0.1080    2.6003    1.1237 C   0  0  0  0  0  0  0  0  0  0  0  0
   -0.9848    2.5653    2.4795 Cl  0  0  0  0  0  0  0  0  0  0  0  0
    1.1037    3.5949    1.0765 C   0  0  0  0  0  0  0  0  0  0  0  0
    1.1566    4.4597    2.1057 O   0  0  0  0  0  0  0  0  0  0  0  0
    2.0207    5.5687    2.0311 C   0  0  0  0  0  0  0  0  0  0  0  0
    1.7991    6.4171    3.2391 C   0  0  0  0  0  0  0  0  0  0  0  0
    2.8077    7.0011    3.8452 N   0  0  0  0  0  0  0  0  0  0  0  0
    2.3003    7.7412    4.8449 N   0  0  0  0  0  0  0  0  0  0  0  0
    3.1627    8.4807    5.7276 C   0  0  0  0  0  0  0  0  0  0  0  0
    0.5583    6.7673    3.8641 C   0  0  0  0  0  0  0  0  0  0  0  0
    0.9414    7.6325    4.9104 C   0  0  0  0  0  0  0  0  0  0  0  0
    0.0044    8.2047    5.7885 C   0  0  0  0  0  0  0  0  0  0  0  0
   -1.3239    7.8804    5.5795 C   0  0  0  0  0  0  0  0  0  0  0  0
   -1.7245    7.0096    4.5382 C   0  0  0  0  0  0  0  0  0  0  0  0
   -0.7991    6.4444    3.6801 C   0  0  0  0  0  0  0  0  0  0  0  0
    1.9654    3.6141   -0.0225 C   0  0  0  0  0  0  0  0  0  0  0  0
    1.8367    2.6676   -1.0401 C   0  0  0  0  0  0  0  0  0  0  0  0
    0.9346   -0.8267   -3.6927 C   0  0  0  0  0  0  0  0  0  0  0  0
    1.6846    0.0132   -2.8554 C   0  0  0  0  0  0  0  0  0  0  0  0
    3.0880   -0.1541   -2.9536 C   0  0  2  0  0  3  0  0  0  0  0  0
    3.9727    0.4907   -2.1432 N   0  0  0  0  0  0  0  0  0  0  0  0
    3.5858   -0.9739   -3.8767 N   0  0  0  0  0  0  0  0  0  0  0  0
    2.7383   -1.6667   -4.6514 C   0  0  0  0  0  0  0  0  0  0  0  0
    1.4199   -1.6701   -4.6114 N   0  0  0  0  0  2  0  0  0  0  0  0
   -0.8874   -2.1504    0.7803 C   0  0  0  0  0  0  0  0  0  0  0  0
   -1.6855   -2.8699    1.5708 C   0  0  0  0  0  0  0  0  0  0  0  0
   -1.2608   -6.9056    2.0740 S   0  0  0  0  0  1  0  0  0  0  0  0
   -0.3480   -6.1009    0.7056 C   0  0  0  0  0  0  0  0  0  0  0  0
   -0.8890   -6.2569   -0.7330 C   0  0  2  0  0  0  0  0  0  0  0  0
   -0.9158   -7.3279   -0.9948 H   0  0  0  0  0  0  0  0  0  0  0  0
    0.0464   -5.6250   -1.6403 N   0  0  0  0  0  0  0  0  0  0  0  0
    0.4835   -6.1712   -2.8002 C   0  0  0  0  0  0  0  0  0  0  0  0
    1.4319   -5.2797   -3.5905 C   0  0  0  0  0  0  0  0  0  0  0  0
    0.1614   -7.2733   -3.2055 O   0  0  0  0  0  0  0  0  0  0  0  0
   -2.3167   -5.7401   -1.0251 C   0  0  0  0  0  0  0  0  0  0  0  0
   -3.1596   -5.7353    0.0251 N   0  0  0  0  0  0  0  0  0  0  0  0
   -4.5599   -5.4522   -0.1221 C   0  0  0  0  0  0  0  0  0  0  0  0
   -2.6572   -5.3958   -2.1538 O   0  0  0  0  0  0  0  0  0  0  0  0
   -3.2140   -2.1231   -0.2908 H   0  0  0  0  0  0  0  0  0  0  0  0
   -3.5939   -3.0922   -1.7279 H   0  0  0  0  0  0  0  0  0  0  0  0
   -2.8435   -0.1087   -1.5942 H   0  0  0  0  0  0  0  0  0  0  0  0
   -4.4109   -0.7833   -2.0871 H   0  0  0  0  0  0  0  0  0  0  0  0
   -2.8948    0.0176   -4.0170 H   0  0  0  0  0  0  0  0  0  0  0  0
   -3.5151   -1.6360   -4.1530 H   0  0  0  0  0  0  0  0  0  0  0  0
   -0.2579   -3.2298   -3.0166 H   0  0  0  0  0  0  0  0  0  0  0  0
   -1.9552   -3.6531   -3.3001 H   0  0  0  0  0  0  0  0  0  0  0  0
   -0.7866    0.8910    0.1811 H   0  0  0  0  0  0  0  0  0  0  0  0
    1.8036    6.1443    1.1108 H   0  0  0  0  0  0  0  0  0  0  0  0
    3.0798    5.2605    1.9983 H   0  0  0  0  0  0  0  0  0  0  0  0
    4.1841    8.3949    5.3409 H   0  0  0  0  0  0  0  0  0  0  0  0
    3.1293    8.0745    6.7509 H   0  0  0  0  0  0  0  0  0  0  0  0
    2.8749    9.5429    5.7556 H   0  0  0  0  0  0  0  0  0  0  0  0
    0.3081    8.8687    6.5998 H   0  0  0  0  0  0  0  0  0  0  0  0
   -2.0855    8.3008    6.2403 H   0  0  0  0  0  0  0  0  0  0  0  0
   -2.7841    6.7739    4.4214 H   0  0  0  0  0  0  0  0  0  0  0  0
   -1.1007    5.7513    2.8936 H   0  0  0  0  0  0  0  0  0  0  0  0
    2.7424    4.3745   -0.0990 H   0  0  0  0  0  0  0  0  0  0  0  0
    2.5083    2.7176   -1.8999 H   0  0  0  0  0  0  0  0  0  0  0  0
    3.6439    0.8068   -1.2401 H   0  0  0  0  0  0  0  0  0  0  0  0
    4.9164    0.1251   -2.1782 H   0  0  0  0  0  0  0  0  0  0  0  0
    3.2067   -2.3243   -5.3925 H   0  0  0  0  0  0  0  0  0  0  0  0
   -0.2351   -1.3782    1.2010 H   0  0  0  0  0  0  0  0  0  0  0  0
   -2.2733   -3.7148    1.1965 H   0  0  0  0  0  0  0  0  0  0  0  0
   -1.7297   -2.6771    2.6451 H   0  0  0  0  0  0  0  0  0  0  0  0
    0.6758   -6.5036    0.6704 H   0  0  0  0  0  0  0  0  0  0  0  0
   -0.2388   -5.0202    0.9060 H   0  0  0  0  0  0  0  0  0  0  0  0
    0.4099   -4.7155   -1.3699 H   0  0  0  0  0  0  0  0  0  0  0  0
    1.8401   -4.4463   -3.0008 H   0  0  0  0  0  0  0  0  0  0  0  0
    0.8895   -4.8563   -4.4494 H   0  0  0  0  0  0  0  0  0  0  0  0
    2.2507   -5.8967   -3.9842 H   0  0  0  0  0  0  0  0  0  0  0  0
   -2.7893   -6.1412    0.9198 H   0  0  0  0  0  0  0  0  0  0  0  0
   -4.8077   -4.4046    0.1311 H   0  0  0  0  0  0  0  0  0  0  0  0
   -5.1438   -6.1050    0.5443 H   0  0  0  0  0  0  0  0  0  0  0  0
   -4.8675   -5.6268   -1.1636 H   0  0  0  0  0  0  0  0  0  0  0  0
  1  2  2  0  0  0  0
  2 39  1  0  0  0  0
  3  4  1  0  0  0  0
  3  2  1  0  0  0  0
  4 53  1  0  0  0  0
  5 56  1  0  0  0  0
  5 55  1  0  0  0  0
  5  4  1  0  0  0  0
  6  5  1  0  0  0  0
  7  8  1  6  0  0  0
  7  6  1  0  0  0  0
  7 10  1  0  0  0  0
  7  9  1  0  0  0  0
  9  3  1  0  0  0  0
 10 11  1  0  0  0  0
 11 12  2  0  0  0  0
 12 13  1  0  0  0  0
 13 14  1  0  0  0  0
 14 61  1  0  0  0  0
 14 15  2  0  0  0  0
 15 16  1  0  0  0  0
 17 15  1  0  0  0  0
 17 18  1  0  0  0  0
 19 18  1  0  0  0  0
 19 20  1  0  0  0  0
 20 21  2  0  0  0  0
 20 24  1  0  0  0  0
 21 22  1  0  0  0  0
 22 25  1  0  0  0  0
 22 23  1  0  0  0  0
 23 66  1  0  0  0  0
 23 65  1  0  0  0  0
 24 25  1  0  0  0  0
 25 26  2  0  0  0  0
 26 67  1  0  0  0  0
 27 26  1  0  0  0  0
 27 68  1  0  0  0  0
 28 27  2  0  0  0  0
 29 24  2  0  0  0  0
 29 28  1  0  0  0  0
 30 17  2  0  0  0  0
 31 13  2  0  0  0  0
 31 30  1  0  0  0  0
 32 10  1  0  0  0  0
 32 33  2  0  0  0  0
 33 12  1  0  0  0  0
 34 33  1  0  0  0  0
 34 35  1  6  0  0  0
 35 73  1  0  0  0  0
 36 34  1  0  0  0  0
 37 38  1  0  0  0  0
 37 36  2  0  0  0  0
 38 32  1  0  0  0  0
 39 76  1  0  0  0  0
 39 40  2  0  0  0  0
 40 78  1  0  0  0  0
 42 80  1  0  0  0  0
 42 41  1  0  0  0  0
 43 44  1  6  0  0  0
 43 42  1  0  0  0  0
 45 81  1  0  0  0  0
 45 43  1  0  0  0  0
 46 45  1  0  0  0  0
 47 82  1  0  0  0  0
 47 46  1  0  0  0  0
 48 46  2  0  0  0  0
 49 43  1  0  0  0  0
 49 50  1  0  0  0  0
 50 85  1  0  0  0  0
 51 50  1  0  0  0  0
 51 86  1  0  0  0  0
 51 87  1  0  0  0  0
 52 49  2  0  0  0  0
 54  4  1  0  0  0  0
 57  6  1  0  0  0  0
 58  6  1  0  0  0  0
 59  9  1  0  0  0  0
 60  9  1  0  0  0  0
 62 19  1  0  0  0  0
 63 19  1  0  0  0  0
 64 23  1  0  0  0  0
 69 28  1  0  0  0  0
 70 29  1  0  0  0  0
 71 30  1  0  0  0  0
 72 31  1  0  0  0  0
 74 35  1  0  0  0  0
 75 37  1  0  0  0  0
 77 40  1  0  0  0  0
 79 42  1  0  0  0  0
 83 47  1  0  0  0  0
 84 47  1  0  0  0  0
 88 51  1  0  0  0  0
M  END
