88
-1 1
O        -0.001952   -2.193105   -1.149143
C        -1.167029   -2.225392   -0.677184
N        -2.220079   -2.475210   -1.588522
C        -3.539073   -1.887839   -1.461202
C        -3.705290   -0.637974   -2.334942
C        -3.238127   -0.855954   -3.778127
C        -1.894994   -1.584331   -3.880383
H        -1.732022   -1.929871   -4.912237
C        -1.885219   -2.810519   -2.951644
N        -0.758630   -0.718865   -3.582957
N        -0.819838    0.224107   -2.628846
C         0.408272    0.565500   -2.311215
C         0.650413    1.520194   -1.216552
C        -0.091494    1.395281   -0.030743
C         0.115624    2.285669    1.009891
Cl        -0.815041    2.134685    2.476737
C         1.072932    3.313709    0.917482
O         1.216301    4.122315    1.988227
C         2.019422    5.269198    1.877480
C         1.895882    6.053677    3.142833
N         2.919466    6.723163    3.621573
N         2.491799    7.383795    4.712163
C         3.398034    8.179970    5.494618
C         0.730531    6.259367    3.951664
C         1.174599    7.133734    4.965916
C         0.323635    7.584306    5.990405
C        -0.982513    7.129297    5.959773
C        -1.441899    6.247032    4.953306
C        -0.600209    5.801173    3.950522
C         1.816125    3.425067   -0.259499
C         1.599264    2.538106   -1.315524
C         0.529561   -1.014622   -3.885753
C         1.338365   -0.188276   -3.091789
C         2.724097   -0.447742   -3.174120
N         3.643679    0.197314   -2.400421
N         3.171894   -1.352102   -4.044238
C         2.277581   -2.023945   -4.786068
N         0.962121   -1.934377   -4.758982
C        -1.461780   -2.028416    0.698509
C        -2.438725   -2.786619    1.458860
S        -1.712863   -4.459655    2.300926
C        -0.233565   -4.692304    1.284431
C        -0.226223   -5.489171   -0.049827
H         0.058208   -6.535165    0.151348
N         0.819908   -4.924351   -0.863929
C         1.633656   -5.685394   -1.635793
C         2.384462   -4.896437   -2.692420
O         1.756157   -6.893408   -1.513792
C        -1.502426   -5.620198   -0.918915
N        -2.671256   -5.832181   -0.270848
C        -3.902157   -5.885257   -1.013356
O        -1.424612   -5.635866   -2.135512
H        -3.714158   -1.612058   -0.416778
H        -4.299207   -2.645521   -1.738942
H        -3.115876    0.172847   -1.887991
H        -4.764109   -0.328365   -2.331409
H        -3.193656    0.101646   -4.321141
H        -3.970736   -1.490398   -4.306844
H        -0.909677   -3.304105   -2.975863
H        -2.620189   -3.539344   -3.336088
H        -0.814852    0.580440    0.077881
H         1.682204    5.878047    1.016162
H         3.081221    5.014903    1.714348
H         4.349652    8.226339    4.953488
H         3.569482    7.733810    6.487347
H         3.007297    9.200839    5.625691
H         0.675320    8.255810    6.775766
H        -1.677645    7.452490    6.738351
H        -2.478101    5.904321    4.979700
H        -0.940312    5.096943    3.190125
H         2.566596    4.208403   -0.365990
H         2.180048    2.647669   -2.234409
H         3.322054    0.593749   -1.526359
H         4.559565   -0.233741   -2.391040
H         2.703040   -2.752156   -5.486734
H        -0.611515   -1.627916    1.260736
H        -3.277889   -3.171853    0.866531
H        -2.818260   -2.298377    2.367020
H         0.534778   -5.127706    1.937239
H         0.089608   -3.667859    1.046052
H         0.699399   -3.926183   -1.085929
H         2.667429   -3.891972   -2.346180
H         1.719833   -4.769615   -3.561107
H         3.274840   -5.456759   -3.003551
H        -2.692533   -5.615907    0.729062
H        -4.151895   -4.908318   -1.464228
H        -4.719476   -6.184856   -0.342522
H        -3.824654   -6.614559   -1.832928
