-1 1
 OpenBabel05192410563D

 88 93  0  0  1  0  0  0  0  0999 V2000
   -0.0020   -2.1931   -1.1491 O   0  0  0  0  0  0  0  0  0  0  0  0
   -1.1670   -2.2254   -0.6772 C   0  0  0  0  0  0  0  0  0  0  0  0
   -2.2201   -2.4752   -1.5885 N   0  0  0  0  0  0  0  0  0  0  0  0
   -3.5391   -1.8878   -1.4612 C   0  0  0  0  0  0  0  0  0  0  0  0
   -3.7053   -0.6380   -2.3349 C   0  0  0  0  0  0  0  0  0  0  0  0
   -3.2381   -0.8560   -3.7781 C   0  0  0  0  0  0  0  0  0  0  0  0
   -1.8950   -1.5843   -3.8804 C   0  0  2  0  0  0  0  0  0  0  0  0
   -1.7320   -1.9299   -4.9122 H   0  0  0  0  0  0  0  0  0  0  0  0
   -1.8852   -2.8105   -2.9516 C   0  0  0  0  0  0  0  0  0  0  0  0
   -0.7586   -0.7189   -3.5830 N   0  0  0  0  0  0  0  0  0  0  0  0
   -0.8198    0.2241   -2.6288 N   0  0  0  0  0  0  0  0  0  0  0  0
    0.4083    0.5655   -2.3112 C   0  0  0  0  0  0  0  0  0  0  0  0
    0.6504    1.5202   -1.2166 C   0  0  0  0  0  0  0  0  0  0  0  0
   -0.0915    1.3953   -0.0307 C   0  0  0  0  0  0  0  0  0  0  0  0
    0.1156    2.2857    1.0099 C   0  0  0  0  0  0  0  0  0  0  0  0
   -0.8150    2.1347    2.4767 Cl  0  0  0  0  0  0  0  0  0  0  0  0
    1.0729    3.3137    0.9175 C   0  0  0  0  0  0  0  0  0  0  0  0
    1.2163    4.1223    1.9882 O   0  0  0  0  0  0  0  0  0  0  0  0
    2.0194    5.2692    1.8775 C   0  0  0  0  0  0  0  0  0  0  0  0
    1.8959    6.0537    3.1428 C   0  0  0  0  0  0  0  0  0  0  0  0
    2.9195    6.7232    3.6216 N   0  0  0  0  0  0  0  0  0  0  0  0
    2.4918    7.3838    4.7122 N   0  0  0  0  0  0  0  0  0  0  0  0
    3.3980    8.1800    5.4946 C   0  0  0  0  0  0  0  0  0  0  0  0
    0.7305    6.2594    3.9517 C   0  0  0  0  0  0  0  0  0  0  0  0
    1.1746    7.1337    4.9659 C   0  0  0  0  0  0  0  0  0  0  0  0
    0.3236    7.5843    5.9904 C   0  0  0  0  0  0  0  0  0  0  0  0
   -0.9825    7.1293    5.9598 C   0  0  0  0  0  0  0  0  0  0  0  0
   -1.4419    6.2470    4.9533 C   0  0  0  0  0  0  0  0  0  0  0  0
   -0.6002    5.8012    3.9505 C   0  0  0  0  0  0  0  0  0  0  0  0
    1.8161    3.4251   -0.2595 C   0  0  0  0  0  0  0  0  0  0  0  0
    1.5993    2.5381   -1.3155 C   0  0  0  0  0  0  0  0  0  0  0  0
    0.5296   -1.0146   -3.8858 C   0  0  0  0  0  0  0  0  0  0  0  0
    1.3384   -0.1883   -3.0918 C   0  0  0  0  0  0  0  0  0  0  0  0
    2.7241   -0.4477   -3.1741 C   0  0  2  0  0  3  0  0  0  0  0  0
    3.6437    0.1973   -2.4004 N   0  0  0  0  0  0  0  0  0  0  0  0
    3.1719   -1.3521   -4.0442 N   0  0  0  0  0  0  0  0  0  0  0  0
    2.2776   -2.0239   -4.7861 C   0  0  0  0  0  0  0  0  0  0  0  0
    0.9621   -1.9344   -4.7590 N   0  0  0  0  0  2  0  0  0  0  0  0
   -1.4618   -2.0284    0.6985 C   0  0  0  0  0  3  0  0  0  0  0  0
   -2.4387   -2.7866    1.4589 C   0  0  0  0  0  0  0  0  0  0  0  0
   -1.7129   -4.4597    2.3009 S   0  0  0  0  0  0  0  0  0  0  0  0
   -0.2336   -4.6923    1.2844 C   0  0  0  0  0  0  0  0  0  0  0  0
   -0.2262   -5.4892   -0.0498 C   0  0  2  0  0  0  0  0  0  0  0  0
    0.0582   -6.5352    0.1513 H   0  0  0  0  0  0  0  0  0  0  0  0
    0.8199   -4.9244   -0.8639 N   0  0  0  0  0  0  0  0  0  0  0  0
    1.6337   -5.6854   -1.6358 C   0  0  0  0  0  0  0  0  0  0  0  0
    2.3845   -4.8964   -2.6924 C   0  0  0  0  0  0  0  0  0  0  0  0
    1.7562   -6.8934   -1.5138 O   0  0  0  0  0  0  0  0  0  0  0  0
   -1.5024   -5.6202   -0.9189 C   0  0  0  0  0  0  0  0  0  0  0  0
   -2.6713   -5.8322   -0.2708 N   0  0  0  0  0  0  0  0  0  0  0  0
   -3.9022   -5.8853   -1.0134 C   0  0  0  0  0  0  0  0  0  0  0  0
   -1.4246   -5.6359   -2.1355 O   0  0  0  0  0  0  0  0  0  0  0  0
   -3.7142   -1.6121   -0.4168 H   0  0  0  0  0  0  0  0  0  0  0  0
   -4.2992   -2.6455   -1.7389 H   0  0  0  0  0  0  0  0  0  0  0  0
   -3.1159    0.1728   -1.8880 H   0  0  0  0  0  0  0  0  0  0  0  0
   -4.7641   -0.3284   -2.3314 H   0  0  0  0  0  0  0  0  0  0  0  0
   -3.1937    0.1016   -4.3211 H   0  0  0  0  0  0  0  0  0  0  0  0
   -3.9707   -1.4904   -4.3068 H   0  0  0  0  0  0  0  0  0  0  0  0
   -0.9097   -3.3041   -2.9759 H   0  0  0  0  0  0  0  0  0  0  0  0
   -2.6202   -3.5393   -3.3361 H   0  0  0  0  0  0  0  0  0  0  0  0
   -0.8149    0.5804    0.0779 H   0  0  0  0  0  0  0  0  0  0  0  0
    1.6822    5.8780    1.0162 H   0  0  0  0  0  0  0  0  0  0  0  0
    3.0812    5.0149    1.7143 H   0  0  0  0  0  0  0  0  0  0  0  0
    4.3497    8.2263    4.9535 H   0  0  0  0  0  0  0  0  0  0  0  0
    3.5695    7.7338    6.4873 H   0  0  0  0  0  0  0  0  0  0  0  0
    3.0073    9.2008    5.6257 H   0  0  0  0  0  0  0  0  0  0  0  0
    0.6753    8.2558    6.7758 H   0  0  0  0  0  0  0  0  0  0  0  0
   -1.6776    7.4525    6.7384 H   0  0  0  0  0  0  0  0  0  0  0  0
   -2.4781    5.9043    4.9797 H   0  0  0  0  0  0  0  0  0  0  0  0
   -0.9403    5.0969    3.1901 H   0  0  0  0  0  0  0  0  0  0  0  0
    2.5666    4.2084   -0.3660 H   0  0  0  0  0  0  0  0  0  0  0  0
    2.1800    2.6477   -2.2344 H   0  0  0  0  0  0  0  0  0  0  0  0
    3.3221    0.5937   -1.5264 H   0  0  0  0  0  0  0  0  0  0  0  0
    4.5596   -0.2337   -2.3910 H   0  0  0  0  0  0  0  0  0  0  0  0
    2.7030   -2.7522   -5.4867 H   0  0  0  0  0  0  0  0  0  0  0  0
   -0.6115   -1.6279    1.2607 H   0  0  0  0  0  0  0  0  0  0  0  0
   -3.2779   -3.1719    0.8665 H   0  0  0  0  0  0  0  0  0  0  0  0
   -2.8183   -2.2984    2.3670 H   0  0  0  0  0  0  0  0  0  0  0  0
    0.5348   -5.1277    1.9372 H   0  0  0  0  0  0  0  0  0  0  0  0
    0.0896   -3.6679    1.0461 H   0  0  0  0  0  0  0  0  0  0  0  0
    0.6994   -3.9262   -1.0859 H   0  0  0  0  0  0  0  0  0  0  0  0
    2.6674   -3.8920   -2.3462 H   0  0  0  0  0  0  0  0  0  0  0  0
    1.7198   -4.7696   -3.5611 H   0  0  0  0  0  0  0  0  0  0  0  0
    3.2748   -5.4568   -3.0036 H   0  0  0  0  0  0  0  0  0  0  0  0
   -2.6925   -5.6159    0.7291 H   0  0  0  0  0  0  0  0  0  0  0  0
   -4.1519   -4.9083   -1.4642 H   0  0  0  0  0  0  0  0  0  0  0  0
   -4.7195   -6.1849   -0.3425 H   0  0  0  0  0  0  0  0  0  0  0  0
   -3.8247   -6.6146   -1.8329 H   0  0  0  0  0  0  0  0  0  0  0  0
  1  2  2  0  0  0  0
  2 39  1  0  0  0  0
  3  4  1  0  0  0  0
  3  2  1  0  0  0  0
  4 53  1  0  0  0  0
  5 56  1  0  0  0  0
  5 55  1  0  0  0  0
  5  4  1  0  0  0  0
  6  5  1  0  0  0  0
  7  8  1  6  0  0  0
  7  6  1  0  0  0  0
  7 10  1  0  0  0  0
  7  9  1  0  0  0  0
  9  3  1  0  0  0  0
 10 11  1  0  0  0  0
 11 12  2  0  0  0  0
 12 13  1  0  0  0  0
 13 14  1  0  0  0  0
 14 61  1  0  0  0  0
 14 15  2  0  0  0  0
 15 16  1  0  0  0  0
 17 15  1  0  0  0  0
 17 18  1  0  0  0  0
 19 18  1  0  0  0  0
 19 20  1  0  0  0  0
 20 21  2  0  0  0  0
 20 24  1  0  0  0  0
 21 22  1  0  0  0  0
 22 25  1  0  0  0  0
 22 23  1  0  0  0  0
 23 66  1  0  0  0  0
 23 65  1  0  0  0  0
 24 25  1  0  0  0  0
 25 26  2  0  0  0  0
 26 67  1  0  0  0  0
 27 26  1  0  0  0  0
 27 68  1  0  0  0  0
 28 69  1  0  0  0  0
 28 27  2  0  0  0  0
 29 24  2  0  0  0  0
 29 28  1  0  0  0  0
 30 17  2  0  0  0  0
 31 13  2  0  0  0  0
 31 30  1  0  0  0  0
 32 10  1  0  0  0  0
 32 33  2  0  0  0  0
 33 12  1  0  0  0  0
 34 33  1  0  0  0  0
 34 35  1  6  0  0  0
 35 74  1  0  0  0  0
 35 73  1  0  0  0  0
 36 34  1  0  0  0  0
 37 38  1  0  0  0  0
 37 36  2  0  0  0  0
 38 32  1  0  0  0  0
 39 76  1  0  0  0  0
 39 40  1  0  0  0  0
 40 41  1  0  0  0  0
 40 78  1  0  0  0  0
 42 79  1  0  0  0  0
 42 41  1  0  0  0  0
 43 44  1  1  0  0  0
 43 42  1  0  0  0  0
 45 43  1  0  0  0  0
 46 48  2  0  0  0  0
 46 45  1  0  0  0  0
 47 82  1  0  0  0  0
 47 46  1  0  0  0  0
 49 50  1  0  0  0  0
 49 43  1  0  0  0  0
 50 85  1  0  0  0  0
 51 87  1  0  0  0  0
 51 50  1  0  0  0  0
 52 49  2  0  0  0  0
 54  4  1  0  0  0  0
 57  6  1  0  0  0  0
 58  6  1  0  0  0  0
 59  9  1  0  0  0  0
 60  9  1  0  0  0  0
 62 19  1  0  0  0  0
 63 19  1  0  0  0  0
 64 23  1  0  0  0  0
 70 29  1  0  0  0  0
 71 30  1  0  0  0  0
 72 31  1  0  0  0  0
 75 37  1  0  0  0  0
 77 40  1  0  0  0  0
 80 42  1  0  0  0  0
 81 45  1  0  0  0  0
 83 47  1  0  0  0  0
 84 47  1  0  0  0  0
 86 51  1  0  0  0  0
 88 51  1  0  0  0  0
M  END
