-1 1
 OpenBabel05192410563D

 88 92  0  0  1  0  0  0  0  0999 V2000
    0.7955   -2.3534    0.8058 O   0  0  0  0  0  0  0  0  0  0  0  0
    0.4127   -2.6050   -0.3724 C   0  0  0  0  0  0  0  0  0  0  0  0
    0.8990   -3.8040   -0.9437 N   0  0  0  0  0  0  0  0  0  0  0  0
    1.1417   -3.9758   -2.3630 C   0  0  0  0  0  0  0  0  0  0  0  0
    2.6215   -3.8116   -2.7314 C   0  0  0  0  0  0  0  0  0  0  0  0
    3.5514   -4.6205   -1.8224 C   0  0  0  0  0  0  0  0  0  0  0  0
    3.2077   -4.4893   -0.3367 C   0  0  2  0  0  0  0  0  0  0  0  0
    3.7419   -5.2567    0.2430 H   0  0  0  0  0  0  0  0  0  0  0  0
    1.6922   -4.6839   -0.1239 C   0  0  0  0  0  0  0  0  0  0  0  0
    3.6361   -3.2189    0.2361 N   0  0  0  0  0  0  0  0  0  0  0  0
    3.4972   -2.0598   -0.4272 N   0  0  0  0  0  0  0  0  0  0  0  0
    3.5617   -1.0779    0.4430 C   0  0  0  0  0  0  0  0  0  0  0  0
    3.2338    0.2979    0.0325 C   0  0  0  0  0  0  0  0  0  0  0  0
    3.8151    1.4129    0.6440 C   0  0  0  0  0  0  0  0  0  0  0  0
    3.2907    2.6841    0.4232 C   0  0  0  0  0  0  0  0  0  0  0  0
    3.9622    4.0491    1.2813 Cl  0  0  0  0  0  0  0  0  0  0  0  0
    2.2024    2.8761   -0.4369 C   0  0  0  0  0  0  0  0  0  0  0  0
    1.6420    4.1100   -0.5333 O   0  0  0  0  0  0  0  0  0  0  0  0
    0.2699    4.1940   -0.1794 C   0  0  0  0  0  0  0  0  0  0  0  0
   -0.6688    4.0396   -1.3540 C   0  0  0  0  0  0  0  0  0  0  0  0
   -1.9145    3.4302   -1.1894 C   0  0  0  0  0  0  0  0  0  0  0  0
   -2.7816    3.3676   -2.2824 C   0  0  0  0  0  0  0  0  0  0  0  0
   -4.4045    2.6265   -2.0915 S   0  0  0  0  0  0  0  0  0  0  0  0
   -4.0471    0.9190   -1.7606 C   0  0  0  0  0  0  0  0  0  0  0  0
   -5.0465    3.2063   -0.9070 O   0  0  0  0  0  0  0  0  0  0  0  0
   -5.0828    2.7278   -3.3910 O   0  0  0  0  0  0  0  0  0  0  0  0
   -2.4304    3.8710   -3.5314 C   0  0  0  0  0  0  0  0  0  0  0  0
   -1.1771    4.4614   -3.6885 C   0  0  0  0  0  0  0  0  0  0  0  0
   -0.3070    4.5484   -2.6067 C   0  0  0  0  0  0  0  0  0  0  0  0
    1.7104    1.7706   -1.1374 C   0  0  0  0  0  0  0  0  0  0  0  0
    2.2059    0.4962   -0.8985 C   0  0  0  0  0  0  0  0  0  0  0  0
    3.7790   -2.9988    1.5669 C   0  0  0  0  0  0  0  0  0  0  0  0
    3.7498   -1.6090    1.7629 C   0  0  0  0  0  0  0  0  0  0  0  0
    3.7462   -1.2049    3.1213 C   0  0  1  0  0  3  0  0  0  0  0  0
    3.6116    0.0860    3.5248 N   0  0  0  0  0  0  0  0  0  0  0  0
    3.8800   -2.1249    4.0786 N   0  0  0  0  0  0  0  0  0  0  0  0
    3.9566   -3.4147    3.7282 C   0  0  0  0  0  0  0  0  0  0  0  0
    3.8933   -3.9352    2.5177 N   0  0  0  0  0  2  0  0  0  0  0  0
   -0.4473   -1.7626   -1.1145 C   0  0  0  0  0  3  0  0  0  0  0  0
   -1.5418   -2.1989   -1.9768 C   0  0  0  0  0  0  0  0  0  0  0  0
   -3.2433   -2.5246   -1.0666 S   0  0  0  0  0  0  0  0  0  0  0  0
   -2.7736   -2.5925    0.6875 C   0  0  0  0  0  0  0  0  0  0  0  0
   -3.1024   -1.3420    1.5216 C   0  0  2  0  0  0  0  0  0  0  0  0
   -3.0682   -1.6335    2.5833 H   0  0  0  0  0  0  0  0  0  0  0  0
   -4.4360   -0.8872    1.2415 N   0  0  0  0  0  0  0  0  0  0  0  0
   -5.0971   -0.0500    2.0951 C   0  0  0  0  0  0  0  0  0  0  0  0
   -6.2642    0.6864    1.4726 C   0  0  0  0  0  0  0  0  0  0  0  0
   -4.7653    0.0983    3.2552 O   0  0  0  0  0  0  0  0  0  0  0  0
   -2.1026   -0.1642    1.4175 C   0  0  0  0  0  0  0  0  0  0  0  0
   -0.8566   -0.4080    1.8685 N   0  0  0  0  0  0  0  0  0  0  0  0
    0.1039    0.6665    1.8655 C   0  0  0  0  0  0  0  0  0  0  0  0
   -2.4666    0.9482    1.0447 O   0  0  0  0  0  0  0  0  0  0  0  0
    0.5620   -3.2342   -2.9197 H   0  0  0  0  0  0  0  0  0  0  0  0
    0.7833   -4.9785   -2.6709 H   0  0  0  0  0  0  0  0  0  0  0  0
    2.8801   -2.7483   -2.6498 H   0  0  0  0  0  0  0  0  0  0  0  0
    2.7705   -4.1173   -3.7804 H   0  0  0  0  0  0  0  0  0  0  0  0
    4.6034   -4.3420   -1.9922 H   0  0  0  0  0  0  0  0  0  0  0  0
    3.4612   -5.6934   -2.0671 H   0  0  0  0  0  0  0  0  0  0  0  0
    1.4417   -4.5115    0.9289 H   0  0  0  0  0  0  0  0  0  0  0  0
    1.4568   -5.7359   -0.3766 H   0  0  0  0  0  0  0  0  0  0  0  0
    4.6569    1.2954    1.3290 H   0  0  0  0  0  0  0  0  0  0  0  0
    0.1395    5.1955    0.2600 H   0  0  0  0  0  0  0  0  0  0  0  0
    0.0268    3.4543    0.6007 H   0  0  0  0  0  0  0  0  0  0  0  0
   -2.1940    2.9793   -0.2303 H   0  0  0  0  0  0  0  0  0  0  0  0
   -3.5341    0.8532   -0.7882 H   0  0  0  0  0  0  0  0  0  0  0  0
   -3.4308    0.5218   -2.5753 H   0  0  0  0  0  0  0  0  0  0  0  0
   -5.0185    0.4085   -1.7372 H   0  0  0  0  0  0  0  0  0  0  0  0
   -3.1382    3.7929   -4.3582 H   0  0  0  0  0  0  0  0  0  0  0  0
   -0.8806    4.8564   -4.6624 H   0  0  0  0  0  0  0  0  0  0  0  0
    0.6801    5.0008   -2.7250 H   0  0  0  0  0  0  0  0  0  0  0  0
    0.8722    1.9058   -1.8228 H   0  0  0  0  0  0  0  0  0  0  0  0
    1.7289   -0.3668   -1.3710 H   0  0  0  0  0  0  0  0  0  0  0  0
    3.2284    0.7694    2.8863 H   0  0  0  0  0  0  0  0  0  0  0  0
    3.4282    0.2132    4.5116 H   0  0  0  0  0  0  0  0  0  0  0  0
    4.0699   -4.1215    4.5590 H   0  0  0  0  0  0  0  0  0  0  0  0
   -0.5863   -0.7794   -0.6592 H   0  0  0  0  0  0  0  0  0  0  0  0
   -1.3755   -3.1537   -2.4886 H   0  0  0  0  0  0  0  0  0  0  0  0
   -1.8521   -1.4505   -2.7214 H   0  0  0  0  0  0  0  0  0  0  0  0
   -1.7001   -2.8165    0.7401 H   0  0  0  0  0  0  0  0  0  0  0  0
   -3.3157   -3.4444    1.1203 H   0  0  0  0  0  0  0  0  0  0  0  0
   -4.6756   -0.8704    0.2559 H   0  0  0  0  0  0  0  0  0  0  0  0
   -6.9506    1.0108    2.2637 H   0  0  0  0  0  0  0  0  0  0  0  0
   -5.8784    1.5778    0.9507 H   0  0  0  0  0  0  0  0  0  0  0  0
   -6.8039    0.0673    0.7405 H   0  0  0  0  0  0  0  0  0  0  0  0
   -0.4197   -1.3315    1.6907 H   0  0  0  0  0  0  0  0  0  0  0  0
    0.1771    1.1493    0.8794 H   0  0  0  0  0  0  0  0  0  0  0  0
    1.0864    0.2477    2.1159 H   0  0  0  0  0  0  0  0  0  0  0  0
   -0.1668    1.4375    2.6042 H   0  0  0  0  0  0  0  0  0  0  0  0
  2  1  2  0  0  0  0
  3  2  1  0  0  0  0
  3  9  1  0  0  0  0
  4  3  1  0  0  0  0
  5 55  1  0  0  0  0
  5  4  1  0  0  0  0
  5  6  1  0  0  0  0
  6  7  1  0  0  0  0
  7  9  1  0  0  0  0
  7 10  1  0  0  0  0
  7  8  1  1  0  0  0
  9 59  1  0  0  0  0
 10 32  1  0  0  0  0
 11 10  1  0  0  0  0
 11 12  2  0  0  0  0
 12 33  1  0  0  0  0
 13 12  1  0  0  0  0
 13 14  1  0  0  0  0
 14 61  1  0  0  0  0
 15 14  2  0  0  0  0
 15 16  1  0  0  0  0
 17 15  1  0  0  0  0
 18 17  1  0  0  0  0
 18 19  1  0  0  0  0
 19 62  1  0  0  0  0
 19 63  1  0  0  0  0
 20 21  1  0  0  0  0
 20 19  1  0  0  0  0
 21 64  1  0  0  0  0
 22 23  1  0  0  0  0
 22 21  2  0  0  0  0
 23 24  1  0  0  0  0
 23 25  2  0  0  0  0
 24 67  1  0  0  0  0
 24 65  1  0  0  0  0
 26 23  2  0  0  0  0
 27 22  1  0  0  0  0
 28 27  2  0  0  0  0
 28 29  1  0  0  0  0
 29 20  2  0  0  0  0
 30 31  1  0  0  0  0
 30 17  2  0  0  0  0
 31 13  2  0  0  0  0
 32 33  2  0  0  0  0
 32 38  1  0  0  0  0
 33 34  1  0  0  0  0
 34 35  1  1  0  0  0
 34 36  1  0  0  0  0
 35 74  1  0  0  0  0
 37 36  2  0  0  0  0
 37 75  1  0  0  0  0
 38 37  1  0  0  0  0
 39 76  1  0  0  0  0
 39  2  1  0  0  0  0
 40 39  1  0  0  0  0
 40 41  1  0  0  0  0
 41 42  1  0  0  0  0
 42 79  1  0  0  0  0
 42 80  1  0  0  0  0
 42 43  1  0  0  0  0
 43 44  1  1  0  0  0
 45 43  1  0  0  0  0
 45 46  1  0  0  0  0
 46 48  2  0  0  0  0
 47 46  1  0  0  0  0
 47 82  1  0  0  0  0
 49 43  1  0  0  0  0
 49 50  1  0  0  0  0
 51 50  1  0  0  0  0
 51 87  1  0  0  0  0
 51 88  1  0  0  0  0
 52 49  2  0  0  0  0
 53  4  1  0  0  0  0
 54  4  1  0  0  0  0
 56  5  1  0  0  0  0
 57  6  1  0  0  0  0
 58  6  1  0  0  0  0
 60  9  1  0  0  0  0
 66 24  1  0  0  0  0
 68 27  1  0  0  0  0
 69 28  1  0  0  0  0
 70 29  1  0  0  0  0
 71 30  1  0  0  0  0
 72 31  1  0  0  0  0
 73 35  1  0  0  0  0
 77 40  1  0  0  0  0
 78 40  1  0  0  0  0
 81 45  1  0  0  0  0
 83 47  1  0  0  0  0
 84 47  1  0  0  0  0
 85 50  1  0  0  0  0
 86 51  1  0  0  0  0
M  END
