88
-1 1
O         5.367161    7.571513   -6.155616
C         5.065471    7.379718   -7.350222
N         5.575320    6.239035   -7.972346
C         5.783664    6.091904   -9.402249
C         7.249732    6.308730   -9.794375
C         8.223592    5.518008   -8.914620
C         7.897892    5.598492   -7.420844
H         8.468864    4.837797   -6.868379
C         6.395476    5.342962   -7.191646
N         8.281530    6.871063   -6.821524
N         8.118836    8.038850   -7.465082
C         8.157504    9.006821   -6.576325
C         7.832507   10.387900   -6.971898
C         8.358161   11.492757   -6.295671
C         7.827817   12.761989   -6.512314
Cl         8.425532   14.109998   -5.578531
C         6.789578   12.964388   -7.430478
O         6.221767   14.192432   -7.531126
C         4.836472   14.262410   -7.222414
C         3.936973   14.108039   -8.427060
C         2.671154   13.535548   -8.286810
C         1.834012   13.469857   -9.401750
S         0.180869   12.789567   -9.232204
C         0.462560   11.081741   -8.840988
O        -0.464236   13.433166   -8.082038
O        -0.459919   12.882175  -10.551538
C         2.234647   13.934842  -10.650795
C         3.506910   14.489782  -10.783506
C         4.347850   14.580845   -9.678431
C         6.359742   11.873358   -8.192545
C         6.864685   10.601655   -7.961681
C         8.413517    7.069963   -5.486004
C         8.344535    8.454669   -5.263654
C         8.310535    8.828602   -3.895395
N         8.118060   10.101980   -3.463162
N         8.471435    7.892306   -2.958294
C         8.593559    6.613854   -3.333911
N         8.549504    6.117196   -4.555646
C         4.243246    8.316668   -8.088520
C         3.249430    8.055978   -9.028657
S         1.157101    7.642989   -8.074675
C         1.693616    7.613146   -6.346603
C         1.402595    8.885295   -5.516878
H         1.427386    8.611002   -4.449433
N         0.097244    9.393353   -5.817172
C        -0.524324   10.306986   -5.024659
C        -1.715955   10.990452   -5.663206
O        -0.141353   10.570151   -3.898814
C         2.463461    9.999544   -5.648356
N         3.677243    9.691033   -5.138569
C         4.758100   10.640303   -5.202900
O         2.208715   11.105593   -6.110873
H         5.162804    6.811881   -9.939753
H         5.451741    5.079821   -9.702842
H         7.476016    7.378779   -9.704542
H         7.387531    6.022038  -10.849787
H         9.260270    5.844144   -9.091797
H         8.174528    4.448669   -9.183695
H         6.150784    5.465994   -6.130985
H         6.179730    4.299814   -7.487195
H         9.158338   11.367941   -5.564132
H         4.684458   15.259112   -6.779516
H         4.573903   13.514758   -6.455953
H         2.353072   13.114924   -7.326832
H         0.981313   11.020339   -7.871531
H         1.050277   10.625436   -9.645289
H        -0.529402   10.615255   -8.789802
H         1.548419   13.856872  -11.495747
H         3.841434   14.855846  -11.756529
H         5.348141   15.008360   -9.777322
H         5.564781   12.019858   -8.925249
H         6.443466    9.745568   -8.491872
H         7.685343   10.774424   -4.081719
H         7.925987   10.193655   -2.473799
H         8.727808    5.894032   -2.517701
H         4.228043    9.304903   -7.626271
H         3.228141    7.110925   -9.573317
H         2.855149    8.900946   -9.594953
H         2.778333    7.418431   -6.337669
H         1.209580    6.762188   -5.846432
H        -0.195092    9.244564   -6.780492
H        -2.396781   11.337589   -4.876527
H        -1.356519   11.867188   -6.226954
H        -2.254554   10.330431   -6.359211
H         3.982438    8.715706   -5.161374
H         4.747776   11.191693   -6.154377
H         5.700867   10.083829   -5.136669
H         4.700912   11.375200   -4.382423
