88
-1 1
O         0.927616   -3.323583    1.251424
C         0.473942   -3.411484    0.118611
N         1.155657   -4.054488   -0.885013
C         0.877549   -3.914385   -2.305817
C         1.960591   -3.083351   -2.994842
C         3.355130   -3.647961   -2.717206
C         3.614661   -3.896696   -1.225288
H         4.522391   -4.506246   -1.107290
C         2.439744   -4.654704   -0.586285
N         3.916056   -2.678823   -0.493161
N         3.036716   -1.664376   -0.410520
C         3.514209   -0.778559    0.438723
C         2.709651    0.408405    0.774263
C         3.254268    1.694482    0.853707
C         2.428979    2.787205    1.107937
Cl         3.124602    4.388439    1.178770
C         1.042848    2.633280    1.266369
O         0.289684    3.729340    1.470222
C        -1.058358    3.703001    0.999311
C        -1.095928    3.527154   -0.501845
C        -1.773171    2.455740   -1.085632
C        -1.737689    2.300351   -2.471675
S        -2.680374    0.997853   -3.270613
C        -2.387170   -0.459462   -2.301283
O        -4.101583    1.352889   -3.178145
O        -2.097171    0.801897   -4.605745
C        -1.029023    3.177321   -3.287575
C        -0.354028    4.245666   -2.698744
C        -0.389363    4.418444   -1.318474
C         0.513766    1.339906    1.204381
C         1.333928    0.247798    0.972329
C         4.987983   -2.464719    0.309910
C         4.776871   -1.227887    0.940753
C         5.763375   -0.858001    1.889070
N         5.683507    0.270857    2.627683
N         6.824945   -1.648135    2.066410
C         6.905197   -2.785400    1.361719
N         6.043312   -3.272640    0.487974
C        -0.881114   -2.846743   -0.168033
C        -1.927750   -3.567372   -0.577473
S        -5.277125   -1.981171   -0.354430
C        -5.549138   -1.212890    1.271905
C        -4.646648    0.011133    1.520281
H        -4.923428    0.501635    2.471260
N        -4.835761    0.969488    0.468858
C        -4.608728    2.290777    0.639728
C        -4.992061    3.172491   -0.529956
O        -4.159594    2.754212    1.682739
C        -3.168137   -0.367216    1.680441
N        -2.898782   -1.187880    2.715868
C        -1.560827   -1.590302    3.087017
O        -2.279286    0.092037    0.968901
H        -0.105114   -3.451722   -2.440701
H         0.829435   -4.924132   -2.756037
H         1.898610   -2.050044   -2.625287
H         1.771023   -3.064070   -4.079336
H         4.138156   -2.988515   -3.121106
H         3.461115   -4.620635   -3.228795
H         2.557314   -4.692064    0.502992
H         2.449580   -5.687214   -0.980189
H         4.318150    1.864750    0.674304
H        -1.468870    4.679250    1.287757
H        -1.666130    2.937848    1.505582
H        -2.286201    1.729844   -0.446826
H        -2.787656   -0.335165   -1.285564
H        -1.308765   -0.658773   -2.298582
H        -2.944821   -1.258573   -2.805591
H        -1.006959    3.009920   -4.365899
H         0.209312    4.942402   -3.323111
H         0.156874    5.244971   -0.856635
H        -0.555738    1.161608    1.320412
H         0.908555   -0.756450    0.954363
H         4.822112    0.798243    2.664331
H         6.371684    0.395104    3.357078
H         7.801401   -3.389177    1.548296
H        -1.032495   -1.809801    0.155272
H        -1.811284   -4.620849   -0.857736
H        -2.940460   -3.132902   -0.595089
H        -5.397341   -1.938215    2.091496
H        -6.591041   -0.863721    1.371555
H        -5.107670    0.564145   -0.430805
H        -4.358394    4.068365   -0.518344
H        -4.897109    2.657219   -1.495639
H        -6.038814    3.489497   -0.400592
H        -3.684551   -1.627209    3.175266
H        -0.873488   -0.745551    2.944011
H        -1.177064   -2.433896    2.493688
H        -1.549478   -1.868687    4.149863
