-1 1
 OpenBabel05192410563D

 82 86  0  0  1  0  0  0  0  0999 V2000
   -3.1286    1.1856   -0.8625 O   0  0  0  0  0  0  0  0  0  0  0  0
   -2.5978    1.7786   -1.8261 C   0  0  0  0  0  0  0  0  0  0  0  0
   -2.6150    1.0822   -3.0721 N   0  0  0  0  0  0  0  0  0  0  0  0
   -2.2310    1.5961   -4.3668 C   0  0  0  0  0  0  0  0  0  0  0  0
   -1.5061    0.5269   -5.1906 C   0  0  0  0  0  0  0  0  0  0  0  0
   -2.2388   -0.8140   -5.2242 C   0  0  0  0  0  0  0  0  0  0  0  0
   -2.7355   -1.2486   -3.8436 C   0  0  2  0  0  0  0  0  0  0  0  0
   -3.4434   -2.0866   -3.9589 H   0  0  0  0  0  0  0  0  0  0  0  0
   -3.4682   -0.0746   -3.1787 C   0  0  0  0  0  0  0  0  0  0  0  0
   -1.6790   -1.7106   -2.9351 N   0  0  0  0  0  0  0  0  0  0  0  0
   -2.0438   -1.8722   -1.6511 N   0  0  0  0  0  0  0  0  0  0  0  0
   -0.9644   -2.0556   -0.9294 C   0  0  0  0  0  0  0  0  0  0  0  0
   -1.0687   -2.1919    0.5291 C   0  0  0  0  0  0  0  0  0  0  0  0
   -2.0567   -1.4756    1.2100 C   0  0  0  0  0  0  0  0  0  0  0  0
   -2.1068   -1.5117    2.6054 C   0  0  0  0  0  0  0  0  0  0  0  0
   -3.0876   -0.7465    3.3239 C   0  0  0  0  0  0  0  0  0  0  0  0
   -3.8810   -0.1289    3.8977 N   0  0  0  0  0  0  0  0  0  0  0  0
   -1.1433   -2.2403    3.3344 C   0  0  0  0  0  0  0  0  0  0  0  0
   -1.1764   -2.0902    4.6738 O   0  0  0  0  0  0  0  0  0  0  0  0
   -0.1192   -2.5588    5.4687 C   0  0  0  0  0  0  0  0  0  0  0  0
    1.2040   -1.8381    5.2818 C   0  0  0  0  0  0  0  0  0  0  0  0
    2.1758   -2.2837    6.0822 N   0  0  0  0  0  0  0  0  0  0  0  0
    3.3782   -1.7241    5.9853 C   0  0  0  0  0  0  0  0  0  0  0  0
    3.6819   -0.7076    5.0796 C   0  0  0  0  0  0  0  0  0  0  0  0
    2.6673   -0.2527    4.2424 C   0  0  0  0  0  0  0  0  0  0  0  0
    1.3983   -0.8143    4.3528 C   0  0  0  0  0  0  0  0  0  0  0  0
   -0.2070   -3.0118    2.6468 C   0  0  0  0  0  0  0  0  0  0  0  0
   -0.1785   -2.9838    1.2573 C   0  0  0  0  0  0  0  0  0  0  0  0
   -0.3304   -1.8474   -3.0717 C   0  0  0  0  0  0  0  0  0  0  0  0
    0.1885   -2.0410   -1.7755 C   0  0  0  0  0  0  0  0  0  0  0  0
    1.6037   -1.9875   -1.6662 C   0  0  2  0  0  3  0  0  0  0  0  0
    2.2560   -1.8535   -0.4827 N   0  0  0  0  0  0  0  0  0  0  0  0
    2.3310   -2.0115   -2.7868 N   0  0  0  0  0  0  0  0  0  0  0  0
    1.6988   -1.9564   -3.9619 C   0  0  0  0  0  0  0  0  0  0  0  0
    0.4047   -1.8240   -4.1952 N   0  0  0  0  0  2  0  0  0  0  0  0
   -1.9782    3.0468   -1.6402 C   0  0  0  0  0  3  0  0  0  0  0  0
   -1.2219    3.9673   -2.4908 C   0  0  0  0  0  0  0  0  0  0  0  0
    0.7124    3.6864   -2.6687 S   0  0  0  0  0  0  0  0  0  0  0  0
    0.8911    1.8816   -2.5154 C   0  0  0  0  0  0  0  0  0  0  0  0
    1.2448    1.3392   -1.1232 C   0  0  2  0  0  0  0  0  0  0  0  0
    1.2480    0.2500   -1.2121 H   0  0  0  0  0  0  0  0  0  0  0  0
    0.2454    1.7496   -0.1734 N   0  0  0  0  0  0  0  0  0  0  0  0
    0.1144    1.1585    1.0293 C   0  0  0  0  0  0  0  0  0  0  0  0
   -1.0590    1.6663    1.8331 C   0  0  0  0  0  0  0  0  0  0  0  0
    0.8950    0.2943    1.4364 O   0  0  0  0  0  0  0  0  0  0  0  0
    2.6714    1.6849   -0.6835 C   0  0  0  0  0  0  0  0  0  0  0  0
    2.8057    2.9009   -0.1032 N   0  0  0  0  0  0  0  0  0  0  0  0
    4.0776    3.4409    0.2921 C   0  0  0  0  0  0  0  0  0  0  0  0
    3.6035    0.9178   -0.8707 O   0  0  0  0  0  0  0  0  0  0  0  0
   -1.5588    2.4490   -4.2628 H   0  0  0  0  0  0  0  0  0  0  0  0
   -3.1262    1.9553   -4.9222 H   0  0  0  0  0  0  0  0  0  0  0  0
   -0.5003    0.3720   -4.7744 H   0  0  0  0  0  0  0  0  0  0  0  0
   -1.3631    0.8946   -6.2197 H   0  0  0  0  0  0  0  0  0  0  0  0
   -1.6019   -1.5835   -5.6801 H   0  0  0  0  0  0  0  0  0  0  0  0
   -3.1465   -0.7204   -5.8453 H   0  0  0  0  0  0  0  0  0  0  0  0
   -3.8045   -0.3379   -2.1719 H   0  0  0  0  0  0  0  0  0  0  0  0
   -4.3603    0.1484   -3.8038 H   0  0  0  0  0  0  0  0  0  0  0  0
   -2.7398   -0.8363    0.6413 H   0  0  0  0  0  0  0  0  0  0  0  0
    0.0425   -3.6432    5.3314 H   0  0  0  0  0  0  0  0  0  0  0  0
   -0.4487   -2.4168    6.5072 H   0  0  0  0  0  0  0  0  0  0  0  0
    4.1506   -2.1114    6.6600 H   0  0  0  0  0  0  0  0  0  0  0  0
    4.6921   -0.2971    5.0273 H   0  0  0  0  0  0  0  0  0  0  0  0
    2.8402    0.5161    3.4863 H   0  0  0  0  0  0  0  0  0  0  0  0
    0.6187   -0.4781    3.6697 H   0  0  0  0  0  0  0  0  0  0  0  0
    0.5403   -3.5929    3.1865 H   0  0  0  0  0  0  0  0  0  0  0  0
    0.5854   -3.5598    0.7314 H   0  0  0  0  0  0  0  0  0  0  0  0
    1.7387   -1.3902    0.2679 H   0  0  0  0  0  0  0  0  0  0  0  0
    3.1799   -1.4431   -0.6069 H   0  0  0  0  0  0  0  0  0  0  0  0
    2.3456   -1.9975   -4.8469 H   0  0  0  0  0  0  0  0  0  0  0  0
   -2.1673    3.4087   -0.6253 H   0  0  0  0  0  0  0  0  0  0  0  0
   -1.2117    4.9739   -2.0506 H   0  0  0  0  0  0  0  0  0  0  0  0
   -1.5448    4.0778   -3.5320 H   0  0  0  0  0  0  0  0  0  0  0  0
    1.6580    1.5517   -3.2300 H   0  0  0  0  0  0  0  0  0  0  0  0
   -0.0607    1.4151   -2.8055 H   0  0  0  0  0  0  0  0  0  0  0  0
   -0.5663    2.2693   -0.5629 H   0  0  0  0  0  0  0  0  0  0  0  0
   -1.1279    1.1379    2.7903 H   0  0  0  0  0  0  0  0  0  0  0  0
   -1.9840    1.5292    1.2456 H   0  0  0  0  0  0  0  0  0  0  0  0
   -0.9451    2.7445    2.0211 H   0  0  0  0  0  0  0  0  0  0  0  0
    1.9843    3.4960   -0.1134 H   0  0  0  0  0  0  0  0  0  0  0  0
    4.3752    4.2916   -0.3432 H   0  0  0  0  0  0  0  0  0  0  0  0
    4.8255    2.6449    0.1826 H   0  0  0  0  0  0  0  0  0  0  0  0
    4.0622    3.7764    1.3415 H   0  0  0  0  0  0  0  0  0  0  0  0
  2 36  1  0  0  0  0
  2  1  2  0  0  0  0
  3  2  1  0  0  0  0
  4 50  1  0  0  0  0
  4  3  1  0  0  0  0
  5 52  1  0  0  0  0
  5  4  1  0  0  0  0
  6  5  1  0  0  0  0
  6  7  1  0  0  0  0
  7  8  1  6  0  0  0
  7  9  1  0  0  0  0
  7 10  1  0  0  0  0
  9  3  1  0  0  0  0
  9 56  1  0  0  0  0
 10 11  1  0  0  0  0
 11 12  2  0  0  0  0
 12 13  1  0  0  0  0
 13 14  2  0  0  0  0
 13 28  1  0  0  0  0
 14 15  1  0  0  0  0
 15 16  1  0  0  0  0
 15 18  2  0  0  0  0
 16 17  3  0  0  0  0
 18 19  1  0  0  0  0
 19 20  1  0  0  0  0
 20 60  1  0  0  0  0
 21 20  1  0  0  0  0
 21 22  1  0  0  0  0
 23 22  2  0  0  0  0
 23 61  1  0  0  0  0
 24 23  1  0  0  0  0
 25 26  1  0  0  0  0
 25 24  2  0  0  0  0
 26 21  2  0  0  0  0
 27 65  1  0  0  0  0
 27 18  1  0  0  0  0
 28 27  2  0  0  0  0
 29 10  1  0  0  0  0
 29 30  2  0  0  0  0
 30 31  1  0  0  0  0
 30 12  1  0  0  0  0
 31 32  1  6  0  0  0
 32 67  1  0  0  0  0
 33 31  1  0  0  0  0
 34 33  2  0  0  0  0
 35 34  1  0  0  0  0
 35 29  1  0  0  0  0
 36 70  1  0  0  0  0
 37 71  1  0  0  0  0
 37 36  1  0  0  0  0
 38 39  1  0  0  0  0
 38 37  1  0  0  0  0
 39 40  1  0  0  0  0
 40 41  1  6  0  0  0
 40 46  1  0  0  0  0
 40 42  1  0  0  0  0
 42 43  1  0  0  0  0
 43 45  2  0  0  0  0
 43 44  1  0  0  0  0
 44 78  1  0  0  0  0
 44 76  1  0  0  0  0
 46 47  1  0  0  0  0
 47 48  1  0  0  0  0
 48 82  1  0  0  0  0
 49 46  2  0  0  0  0
 51  4  1  0  0  0  0
 53  5  1  0  0  0  0
 54  6  1  0  0  0  0
 55  6  1  0  0  0  0
 57  9  1  0  0  0  0
 58 14  1  0  0  0  0
 59 20  1  0  0  0  0
 62 24  1  0  0  0  0
 63 25  1  0  0  0  0
 64 26  1  0  0  0  0
 66 28  1  0  0  0  0
 68 32  1  0  0  0  0
 69 34  1  0  0  0  0
 72 37  1  0  0  0  0
 73 39  1  0  0  0  0
 74 39  1  0  0  0  0
 75 42  1  0  0  0  0
 77 44  1  0  0  0  0
 79 47  1  0  0  0  0
 80 48  1  0  0  0  0
 81 48  1  0  0  0  0
M  END
