-1 1
 OpenBabel05192410563D

 75 77  0  0  1  0  0  0  0  0999 V2000
   -3.5686    9.2370   -2.3241 C   0  0  0  0  0  0  0  0  0  0  0  0
   -3.2904    8.1388   -3.1344 O   0  0  0  0  0  0  0  0  0  0  0  0
   -3.2923    6.9212   -2.4485 C   0  0  0  0  0  0  0  0  0  0  0  0
   -2.9317    5.8298   -3.4461 C   0  0  0  0  0  0  0  0  0  0  0  0
   -2.9770    4.5544   -2.8628 O   0  0  0  0  0  0  0  0  0  0  0  0
   -1.9459    4.1163   -2.1114 C   0  0  0  0  0  0  0  0  0  0  0  0
   -0.7744    4.8026   -1.8867 C   0  0  0  0  0  0  0  0  0  0  0  0
   -2.1291    2.7977   -1.5623 C   0  0  0  0  0  0  0  0  0  0  0  0
   -3.2657    2.1784   -1.9151 O   0  0  0  0  0  0  0  0  0  0  0  0
   -3.4075    0.8192   -1.5708 C   0  0  0  0  0  0  0  0  0  0  0  0
   -1.1549    2.2598   -0.7551 C   0  0  0  0  0  0  0  0  0  0  0  0
    0.0412    2.9784   -0.4968 C   0  0  0  0  0  0  0  0  0  0  0  0
    0.2627    4.2317   -1.1010 C   0  0  0  0  0  0  0  0  0  0  0  0
    1.4530    4.8843   -0.9797 N   0  0  0  0  0  0  0  0  0  0  0  0
    2.3841    4.2558   -0.3075 C   0  0  0  0  0  0  0  0  0  0  0  0
    2.2853    3.0826    0.3471 N   0  0  0  0  0  0  0  0  0  0  0  0
    1.1179    2.4691    0.3032 C   0  0  0  0  0  0  0  0  0  0  0  0
    0.9013    1.3236    1.0124 N   0  0  0  0  0  0  0  0  0  0  0  0
    1.7274    0.2779    1.3118 C   0  0  0  0  0  0  0  0  0  0  0  0
    3.0669    0.1886    1.1146 C   0  0  0  0  0  0  0  0  0  0  0  0
    3.7499   -1.0674    1.3737 C   0  0  0  0  0  0  0  0  0  0  0  0
    2.8290   -2.3104    1.5380 C   0  0  1  0  0  0  0  0  0  0  0  0
    1.4891   -2.0545    2.0929 C   0  0  2  0  0  3  0  0  0  0  0  0
    0.7566   -3.1624    2.4528 O   0  0  0  0  0  0  0  0  0  0  0  0
    0.2271   -3.1950    3.7784 C   0  0  0  0  0  0  0  0  0  0  0  0
   -1.2856   -3.0324    3.7350 C   0  0  0  0  0  0  0  0  0  0  0  0
    0.6549   -4.5008    4.4343 C   0  0  0  0  0  0  0  0  0  0  0  0
    0.8632   -0.8502    1.8464 C   0  0  0  0  0  0  0  0  0  0  0  0
   -0.3746   -0.5898    1.9600 O   0  0  0  0  0  0  0  0  0  0  0  0
    2.7449   -3.0234   -0.2396 S   0  0  0  0  0  0  0  0  0  0  0  0
    1.2186   -2.3114   -0.9195 C   0  0  0  0  0  0  0  0  0  0  0  0
   -0.1132   -2.9263   -0.4523 C   0  0  2  0  0  0  0  0  0  0  0  0
   -0.3952   -2.5038    0.5278 H   0  0  0  0  0  0  0  0  0  0  0  0
    0.0473   -4.3690   -0.3051 N   0  0  0  0  0  0  0  0  0  0  0  0
   -0.6932   -5.1305    0.5367 C   0  0  0  0  0  0  0  0  0  0  0  0
    0.0090   -6.3693    1.0431 C   0  0  0  0  0  0  0  0  0  0  0  0
   -1.8405   -4.8570    0.8728 O   0  0  0  0  0  0  0  0  0  0  0  0
   -1.2382   -2.4902   -1.4081 C   0  0  0  0  0  0  0  0  0  0  0  0
   -2.4270   -3.0835   -1.1763 N   0  0  0  0  0  0  0  0  0  0  0  0
   -3.6126   -2.7622   -1.9214 C   0  0  0  0  0  0  0  0  0  0  0  0
   -1.0617   -1.6279   -2.2601 O   0  0  0  0  0  0  0  0  0  0  0  0
    3.7302   -3.5803    2.4650 Cl  0  0  0  0  0  0  0  0  0  0  0  0
    4.9574   -1.1768    1.3984 O   0  0  0  0  0  0  0  0  0  0  0  0
   -3.5422   10.1379   -2.9525 H   0  0  0  0  0  0  0  0  0  0  0  0
   -2.8236    9.3516   -1.5123 H   0  0  0  0  0  0  0  0  0  0  0  0
   -4.5706    9.1633   -1.8562 H   0  0  0  0  0  0  0  0  0  0  0  0
   -4.2889    6.7002   -2.0154 H   0  0  0  0  0  0  0  0  0  0  0  0
   -2.5692    6.9344   -1.6092 H   0  0  0  0  0  0  0  0  0  0  0  0
   -1.9492    6.0407   -3.9010 H   0  0  0  0  0  0  0  0  0  0  0  0
   -3.6768    5.8242   -4.2537 H   0  0  0  0  0  0  0  0  0  0  0  0
   -0.5804    5.7847   -2.3162 H   0  0  0  0  0  0  0  0  0  0  0  0
   -4.3555    0.4876   -2.0123 H   0  0  0  0  0  0  0  0  0  0  0  0
   -3.4557    0.6793   -0.4765 H   0  0  0  0  0  0  0  0  0  0  0  0
   -2.5821    0.2054   -1.9721 H   0  0  0  0  0  0  0  0  0  0  0  0
   -1.2689    1.2516   -0.3565 H   0  0  0  0  0  0  0  0  0  0  0  0
    3.3655    4.7423   -0.2475 H   0  0  0  0  0  0  0  0  0  0  0  0
   -0.0594    1.0086    1.2414 H   0  0  0  0  0  0  0  0  0  0  0  0
    3.6635    1.0471    0.8125 H   0  0  0  0  0  0  0  0  0  0  0  0
    0.6714   -2.3521    4.3361 H   0  0  0  0  0  0  0  0  0  0  0  0
   -1.7363   -3.8501    3.1523 H   0  0  0  0  0  0  0  0  0  0  0  0
   -1.5270   -2.0790    3.2475 H   0  0  0  0  0  0  0  0  0  0  0  0
   -1.7031   -3.0474    4.7551 H   0  0  0  0  0  0  0  0  0  0  0  0
    0.2102   -5.3571    3.9031 H   0  0  0  0  0  0  0  0  0  0  0  0
    0.3115   -4.5375    5.4801 H   0  0  0  0  0  0  0  0  0  0  0  0
    1.7487   -4.6041    4.4129 H   0  0  0  0  0  0  0  0  0  0  0  0
    1.3326   -2.4568   -2.0046 H   0  0  0  0  0  0  0  0  0  0  0  0
    1.2000   -1.2264   -0.7630 H   0  0  0  0  0  0  0  0  0  0  0  0
    1.0339   -4.6276   -0.3302 H   0  0  0  0  0  0  0  0  0  0  0  0
    0.5187   -6.9060    0.2298 H   0  0  0  0  0  0  0  0  0  0  0  0
   -0.7190   -7.0284    1.5296 H   0  0  0  0  0  0  0  0  0  0  0  0
    0.7707   -6.0539    1.7727 H   0  0  0  0  0  0  0  0  0  0  0  0
   -2.4748   -3.7217   -0.3734 H   0  0  0  0  0  0  0  0  0  0  0  0
   -3.3231   -2.2147   -2.8281 H   0  0  0  0  0  0  0  0  0  0  0  0
   -4.3084   -2.1302   -1.3420 H   0  0  0  0  0  0  0  0  0  0  0  0
   -4.1493   -3.6785   -2.2131 H   0  0  0  0  0  0  0  0  0  0  0  0
  1 46  1  0  0  0  0
  1 45  1  0  0  0  0
  2  3  1  0  0  0  0
  2  1  1  0  0  0  0
  3 47  1  0  0  0  0
  3 48  1  0  0  0  0
  4  5  1  0  0  0  0
  4  3  1  0  0  0  0
  5  6  1  0  0  0  0
  6  7  2  0  0  0  0
  6  8  1  0  0  0  0
  7 13  1  0  0  0  0
  8 11  2  0  0  0  0
  9 10  1  0  0  0  0
  9  8  1  0  0  0  0
 10 53  1  0  0  0  0
 11 12  1  0  0  0  0
 11 55  1  0  0  0  0
 12 17  1  0  0  0  0
 13 14  1  0  0  0  0
 13 12  2  0  0  0  0
 14 15  2  0  0  0  0
 15 56  1  0  0  0  0
 15 16  1  0  0  0  0
 17 16  2  0  0  0  0
 17 18  1  0  0  0  0
 18 57  1  0  0  0  0
 18 19  1  0  0  0  0
 19 28  1  0  0  0  0
 20 19  2  0  0  0  0
 20 21  1  0  0  0  0
 21 43  2  0  0  0  0
 21 22  1  0  0  0  0
 22 23  1  0  0  0  0
 22 42  1  1  0  0  0
 23 24  1  6  0  0  0
 24 25  1  0  0  0  0
 25 59  1  0  0  0  0
 25 27  1  0  0  0  0
 26 25  1  0  0  0  0
 26 62  1  0  0  0  0
 27 64  1  0  0  0  0
 28 29  2  0  0  0  0
 28 23  1  0  0  0  0
 30 22  1  0  0  0  0
 31 67  1  0  0  0  0
 31 32  1  0  0  0  0
 31 30  1  0  0  0  0
 32 34  1  0  0  0  0
 32 33  1  1  0  0  0
 34 35  1  0  0  0  0
 35 37  2  0  0  0  0
 35 36  1  0  0  0  0
 36 70  1  0  0  0  0
 36 71  1  0  0  0  0
 38 39  1  0  0  0  0
 38 32  1  0  0  0  0
 39 72  1  0  0  0  0
 40 74  1  0  0  0  0
 40 39  1  0  0  0  0
 41 38  2  0  0  0  0
 44  1  1  0  0  0  0
 49  4  1  0  0  0  0
 50  4  1  0  0  0  0
 51  7  1  0  0  0  0
 52 10  1  0  0  0  0
 54 10  1  0  0  0  0
 58 20  1  0  0  0  0
 60 26  1  0  0  0  0
 61 26  1  0  0  0  0
 63 27  1  0  0  0  0
 65 27  1  0  0  0  0
 66 31  1  0  0  0  0
 68 34  1  0  0  0  0
 69 36  1  0  0  0  0
 73 40  1  0  0  0  0
 75 40  1  0  0  0  0
M  END
