-1 1
 OpenBabel05232413483D

 94 97  0  0  1  0  0  0  0  0999 V2000
   -0.3639    3.2377   -0.7443 O   0  0  0  0  0  0  0  0  0  0  0  0
    0.3932    2.6979    0.0423 C   0  0  0  0  0  0  0  0  0  0  0  0
    0.0148    2.0973    1.2135 N   0  0  0  0  0  0  0  0  0  0  0  0
   -1.2719    1.6741    1.5834 C   0  0  0  0  0  0  0  0  0  0  0  0
   -1.3945    0.9877    2.8098 C   0  0  0  0  0  0  0  0  0  0  0  0
   -0.2711    0.8854    3.6510 N   0  0  0  0  0  0  0  0  0  0  0  0
    0.2648    2.1267    4.1993 C   0  0  0  0  0  0  0  0  0  0  0  0
    1.7853    2.0781    4.3531 C   0  0  0  0  0  0  0  0  0  0  0  0
    2.3620    3.3913    4.5598 N   0  0  0  0  0  0  0  0  0  0  0  0
    3.5853    3.3414    5.3376 C   0  0  0  0  0  0  0  0  0  0  0  0
    2.5588    4.0911    3.3061 C   0  0  0  0  0  0  0  0  0  0  0  0
   -0.2227   -0.2302    4.5669 C   0  0  0  0  0  0  0  0  0  0  0  0
   -2.6194    0.3781    3.1163 C   0  0  0  0  0  0  0  0  0  0  0  0
   -3.6893    0.4204    2.2228 C   0  0  0  0  0  0  0  0  0  0  0  0
   -4.8869   -0.1848    2.4343 O   0  0  0  0  0  0  0  0  0  0  0  0
   -5.0342   -1.0247    3.5405 C   0  0  0  0  0  0  0  0  0  0  0  0
   -3.5721    1.1420    1.0233 C   0  0  0  0  0  0  0  0  0  0  0  0
   -4.6314    1.1218    0.0704 N   0  0  0  0  0  0  0  0  0  0  0  0
   -4.5151    0.1812   -0.9650 C   0  0  0  0  0  0  0  0  0  0  0  0
   -5.4220   -0.7601   -1.0987 N   0  0  0  0  0  0  0  0  0  0  0  0
   -5.0556   -1.5047   -2.1637 N   0  0  0  0  0  0  0  0  0  0  0  0
   -5.6051   -2.3110   -2.4173 H   0  0  0  0  0  0  0  0  0  0  0  0
   -3.4946    0.0591   -1.9801 C   0  0  0  0  0  0  0  0  0  0  0  0
   -3.8858   -1.0829   -2.7128 C   0  0  0  0  0  0  0  0  0  0  0  0
   -3.1235   -1.5994   -3.7745 C   0  0  0  0  0  0  0  0  0  0  0  0
   -1.9592   -0.9311   -4.1242 C   0  0  0  0  0  0  0  0  0  0  0  0
   -1.1061   -1.4502   -5.2302 C   0  0  0  0  0  0  0  0  0  0  0  0
   -1.6603   -1.6437   -6.4796 C   0  0  0  0  0  0  0  0  0  0  0  0
   -0.8870   -2.1156   -7.5653 C   0  0  0  0  0  0  0  0  0  0  0  0
    0.4464   -2.3867   -7.3921 C   0  0  0  0  0  0  0  0  0  0  0  0
    0.2832   -1.7524   -5.0188 C   0  0  0  0  0  0  0  0  0  0  0  0
    1.0625   -2.2146   -6.1226 C   0  0  0  0  0  0  0  0  0  0  0  0
    2.4417   -2.5009   -5.9241 C   0  0  0  0  0  0  0  0  0  0  0  0
    3.0246   -2.3463   -4.6907 C   0  0  0  0  0  0  0  0  0  0  0  0
    2.2542   -1.9127   -3.5848 C   0  0  0  0  0  0  0  0  0  0  0  0
    0.9191   -1.6313   -3.7499 C   0  0  0  0  0  0  0  0  0  0  0  0
   -1.5974    0.2619   -3.4413 C   0  0  0  0  0  0  0  0  0  0  0  0
   -2.3397    0.7573   -2.3886 C   0  0  0  0  0  0  0  0  0  0  0  0
   -2.3848    1.8076    0.7523 C   0  0  0  0  0  0  0  0  0  0  0  0
    1.8305    2.5827   -0.1696 C   0  0  0  0  0  0  0  0  0  0  0  0
    2.9945    2.2940   -0.3390 C   0  0  0  0  0  0  0  0  0  0  0  0
    4.2233   -0.8287   -0.6082 S   0  0  0  0  0  1  0  0  0  0  0  0
    4.2040   -1.4121    1.1237 C   0  0  0  0  0  0  0  0  0  0  0  0
    3.1131   -0.7722    2.0155 C   0  0  2  0  0  0  0  0  0  0  0  0
    3.1971    0.3206    1.8966 H   0  0  0  0  0  0  0  0  0  0  0  0
    3.2727   -1.1031    3.4151 N   0  0  0  0  0  0  0  0  0  0  0  0
    4.0891   -0.4406    4.2589 C   0  0  0  0  0  0  0  0  0  0  0  0
    4.0180   -0.8839    5.7113 C   0  0  0  0  0  0  0  0  0  0  0  0
    4.8243    0.4723    3.9150 O   0  0  0  0  0  0  0  0  0  0  0  0
    1.6950   -1.2195    1.6434 C   0  0  0  0  0  0  0  0  0  0  0  0
    1.2491   -0.7482    0.4667 N   0  0  0  0  0  0  0  0  0  0  0  0
   -0.0361   -1.1343   -0.0597 C   0  0  0  0  0  0  0  0  0  0  0  0
    1.0373   -1.9392    2.3933 O   0  0  0  0  0  0  0  0  0  0  0  0
    0.7480    1.5737    1.6883 H   0  0  0  0  0  0  0  0  0  0  0  0
   -0.2004    2.3592    5.1792 H   0  0  0  0  0  0  0  0  0  0  0  0
   -0.0047    2.9534    3.5302 H   0  0  0  0  0  0  0  0  0  0  0  0
    2.2192    1.5672    3.4679 H   0  0  0  0  0  0  0  0  0  0  0  0
    2.0446    1.4468    5.2162 H   0  0  0  0  0  0  0  0  0  0  0  0
    3.3747    2.9372    6.3413 H   0  0  0  0  0  0  0  0  0  0  0  0
    3.9813    4.3608    5.4695 H   0  0  0  0  0  0  0  0  0  0  0  0
    4.3704    2.7106    4.8727 H   0  0  0  0  0  0  0  0  0  0  0  0
    1.6264    4.1123    2.7227 H   0  0  0  0  0  0  0  0  0  0  0  0
    3.3344    3.6152    2.6679 H   0  0  0  0  0  0  0  0  0  0  0  0
    2.8564    5.1346    3.4938 H   0  0  0  0  0  0  0  0  0  0  0  0
   -0.8733   -0.0878    5.4571 H   0  0  0  0  0  0  0  0  0  0  0  0
    0.8094   -0.3655    4.9184 H   0  0  0  0  0  0  0  0  0  0  0  0
   -0.4923   -1.1537    4.0407 H   0  0  0  0  0  0  0  0  0  0  0  0
   -2.7151   -0.1547    4.0602 H   0  0  0  0  0  0  0  0  0  0  0  0
   -6.0374   -1.4644    3.4731 H   0  0  0  0  0  0  0  0  0  0  0  0
   -4.9521   -0.4723    4.4942 H   0  0  0  0  0  0  0  0  0  0  0  0
   -4.2867   -1.8375    3.5385 H   0  0  0  0  0  0  0  0  0  0  0  0
   -5.5191    0.9575    0.5375 H   0  0  0  0  0  0  0  0  0  0  0  0
   -3.4170   -2.5144   -4.2931 H   0  0  0  0  0  0  0  0  0  0  0  0
   -2.7147   -1.4008   -6.6338 H   0  0  0  0  0  0  0  0  0  0  0  0
   -1.3558   -2.2484   -8.5433 H   0  0  0  0  0  0  0  0  0  0  0  0
    1.0559   -2.7402   -8.2282 H   0  0  0  0  0  0  0  0  0  0  0  0
    3.0306   -2.8469   -6.7784 H   0  0  0  0  0  0  0  0  0  0  0  0
    4.0861   -2.5594   -4.5465 H   0  0  0  0  0  0  0  0  0  0  0  0
    2.7325   -1.7913   -2.6039 H   0  0  0  0  0  0  0  0  0  0  0  0
    0.3339   -1.3086   -2.8894 H   0  0  0  0  0  0  0  0  0  0  0  0
   -0.7005    0.7979   -3.7572 H   0  0  0  0  0  0  0  0  0  0  0  0
   -2.0078    1.6718   -1.9007 H   0  0  0  0  0  0  0  0  0  0  0  0
   -2.2994    2.4045   -0.1485 H   0  0  0  0  0  0  0  0  0  0  0  0
    4.0026    1.9286   -0.4777 H   0  0  0  0  0  0  0  0  0  0  0  0
    5.1617   -1.1665    1.6067 H   0  0  0  0  0  0  0  0  0  0  0  0
    4.0832   -2.5083    1.1739 H   0  0  0  0  0  0  0  0  0  0  0  0
    2.5996   -1.7877    3.7492 H   0  0  0  0  0  0  0  0  0  0  0  0
    5.0400   -1.0508    6.0777 H   0  0  0  0  0  0  0  0  0  0  0  0
    3.4200   -1.7929    5.8660 H   0  0  0  0  0  0  0  0  0  0  0  0
    3.5871   -0.0640    6.3057 H   0  0  0  0  0  0  0  0  0  0  0  0
    2.0060   -0.4589   -0.1813 H   0  0  0  0  0  0  0  0  0  0  0  0
   -0.7684   -1.1868    0.7575 H   0  0  0  0  0  0  0  0  0  0  0  0
   -0.0086   -2.1180   -0.5600 H   0  0  0  0  0  0  0  0  0  0  0  0
   -0.3789   -0.3820   -0.7834 H   0  0  0  0  0  0  0  0  0  0  0  0
  1  2  2  0  0  0  0
  2  3  1  0  0  0  0
  3  4  1  0  0  0  0
  3 54  1  0  0  0  0
  4  5  1  0  0  0  0
  5 13  2  0  0  0  0
  5  6  1  0  0  0  0
  6  7  1  0  0  0  0
  6 12  1  0  0  0  0
  7  8  1  0  0  0  0
  7 55  1  0  0  0  0
  8  9  1  0  0  0  0
  8 58  1  0  0  0  0
  9 10  1  0  0  0  0
 10 60  1  0  0  0  0
 10 59  1  0  0  0  0
 11 64  1  0  0  0  0
 11  9  1  0  0  0  0
 12 66  1  0  0  0  0
 12 65  1  0  0  0  0
 13 68  1  0  0  0  0
 14 15  1  0  0  0  0
 14 13  1  0  0  0  0
 15 16  1  0  0  0  0
 16 70  1  0  0  0  0
 17 14  2  0  0  0  0
 18 72  1  0  0  0  0
 18 17  1  0  0  0  0
 19 18  1  0  0  0  0
 20 19  2  0  0  0  0
 21 20  1  0  0  0  0
 22 21  1  0  0  0  0
 23 19  1  0  0  0  0
 24 21  1  0  0  0  0
 24 23  2  0  0  0  0
 25 24  1  0  0  0  0
 26 25  2  0  0  0  0
 26 37  1  0  0  0  0
 27 31  1  0  0  0  0
 27 26  1  0  0  0  0
 28 27  2  0  0  0  0
 29 30  2  0  0  0  0
 29 28  1  0  0  0  0
 30 32  1  0  0  0  0
 31 36  1  0  0  0  0
 32 33  1  0  0  0  0
 32 31  2  0  0  0  0
 33 34  2  0  0  0  0
 34 78  1  0  0  0  0
 34 35  1  0  0  0  0
 35 79  1  0  0  0  0
 36 35  2  0  0  0  0
 36 80  1  0  0  0  0
 37 38  2  0  0  0  0
 38 23  1  0  0  0  0
 38 82  1  0  0  0  0
 39 17  1  0  0  0  0
 39  4  2  0  0  0  0
 40  2  1  0  0  0  0
 41 40  3  0  0  0  0
 42 43  1  0  0  0  0
 43 86  1  0  0  0  0
 43 85  1  0  0  0  0
 43 44  1  0  0  0  0
 44 45  1  6  0  0  0
 44 46  1  0  0  0  0
 46 87  1  0  0  0  0
 46 47  1  0  0  0  0
 47 48  1  0  0  0  0
 48 89  1  0  0  0  0
 48 88  1  0  0  0  0
 48 90  1  0  0  0  0
 49 47  2  0  0  0  0
 50 44  1  0  0  0  0
 50 53  2  0  0  0  0
 51 50  1  0  0  0  0
 52 51  1  0  0  0  0
 52 92  1  0  0  0  0
 56  7  1  0  0  0  0
 57  8  1  0  0  0  0
 61 10  1  0  0  0  0
 62 11  1  0  0  0  0
 63 11  1  0  0  0  0
 67 12  1  0  0  0  0
 69 16  1  0  0  0  0
 71 16  1  0  0  0  0
 73 25  1  0  0  0  0
 74 28  1  0  0  0  0
 75 29  1  0  0  0  0
 76 30  1  0  0  0  0
 77 33  1  0  0  0  0
 81 37  1  0  0  0  0
 83 39  1  0  0  0  0
 84 41  1  0  0  0  0
 91 51  1  0  0  0  0
 93 52  1  0  0  0  0
 94 52  1  0  0  0  0
M  END
