94
-1 1
O        -0.368930    3.278855   -0.716841
C         0.443813    3.029902    0.178488
N         0.013894    2.517871    1.430857
C        -1.186047    1.887758    1.724209
C        -1.260694    1.008202    2.833194
N        -0.115890    0.822523    3.642154
C         0.381871    1.980172    4.377937
C         1.907985    2.071793    4.327895
N         2.428207    3.326770    4.833393
C         3.828516    3.201240    5.185252
C         2.220613    4.411917    3.887105
C         0.006059   -0.420821    4.363068
C        -2.447698    0.299708    3.066091
C        -3.533818    0.398774    2.196352
O        -4.687029   -0.320827    2.316976
C        -4.735789   -1.348534    3.257286
C        -3.466092    1.282569    1.110311
N        -4.517250    1.315644    0.144612
C        -4.387602    0.454511   -0.948183
N        -5.381752   -0.339898   -1.276908
N        -4.970058   -1.054606   -2.350517
H        -5.573766   -1.765879   -2.731364
C        -3.258502    0.260710   -1.834203
C        -3.688666   -0.769136   -2.700110
C        -2.849549   -1.333053   -3.676334
C        -1.559645   -0.831853   -3.788849
C        -0.626643   -1.424774   -4.788902
C        -0.935456   -1.361346   -6.131848
C        -0.081824   -1.916765   -7.113433
C         1.079442   -2.544627   -6.742491
C         0.580217   -2.085487   -4.376709
C         1.434490   -2.651999   -5.370108
C         2.618212   -3.327432   -4.963496
C         2.936336   -3.456813   -3.634431
C         2.084090   -2.908339   -2.647595
C         0.944800   -2.232731   -3.008774
C        -1.140400    0.247887   -2.968953
C        -1.968436    0.801577   -2.010106
C        -2.330711    2.061879    0.934597
C         1.849179    3.264667    0.158266
C         2.755745    2.438587   -0.345098
S         2.381508    0.845435   -1.183464
C         3.109422   -0.303105    0.028376
C         2.286278   -0.444030    1.321428
H         1.946147    0.564328    1.603306
N         3.045317   -1.015945    2.410969
C         4.053801   -0.390748    3.057659
C         4.567673   -1.113812    4.291634
O         4.514105    0.686405    2.718212
C         1.043675   -1.339006    1.178944
N         0.105411   -0.928248    0.312184
C        -1.160585   -1.608298    0.166938
O         0.942002   -2.365641    1.849740
H         0.787926    2.291664    2.039534
H         0.046297    1.953299    5.434458
H        -0.061011    2.885459    3.943411
H         2.259398    1.882798    3.290835
H         2.333166    1.255008    4.933814
H         3.948819    2.459152    5.991892
H         4.207913    4.164932    5.560417
H         4.463905    2.878215    4.334092
H         1.149053    4.566165    3.694802
H         2.699183    4.230488    2.901087
H         2.614667    5.350286    4.307260
H        -0.630860   -0.464873    5.274107
H         1.050027   -0.557240    4.682842
H        -0.237719   -1.269626    3.710517
H        -2.495240   -0.367384    3.925088
H        -5.698892   -1.858656    3.123767
H        -4.678714   -0.969572    4.294759
H        -3.920496   -2.080021    3.108994
H        -5.420363    1.142538    0.576454
H        -3.184734   -2.158266   -4.308609
H        -1.852665   -0.852770   -6.438088
H        -0.351909   -1.835584   -8.168991
H         1.746508   -2.974182   -7.494622
H         3.270405   -3.748636   -5.733368
H         3.846525   -3.981514   -3.335132
H         2.329776   -3.020205   -1.589524
H         0.312917   -1.798883   -2.235394
H        -0.133726    0.653903   -3.091480
H        -1.587969    1.641134   -1.425725
H        -2.286036    2.772752    0.114800
H         3.838753    2.620774   -0.350306
H         4.098709    0.086031    0.306407
H         3.247295   -1.279005   -0.460219
H         2.652565   -1.892225    2.747837
H         5.660703   -1.019795    4.326872
H         4.283018   -2.174622    4.328362
H         4.161857   -0.607782    5.181263
H         0.280683   -0.066552   -0.206554
H        -1.983821   -0.978498    0.533450
H        -1.120722   -2.532058    0.756093
H        -1.362011   -1.855718   -0.886142
