-1 1
 OpenBabel05192410563D

 94 98  0  0  1  0  0  0  0  0999 V2000
   -0.3689    3.2789   -0.7168 O   0  0  0  0  0  0  0  0  0  0  0  0
    0.4438    3.0299    0.1785 C   0  0  0  0  0  0  0  0  0  0  0  0
    0.0139    2.5179    1.4309 N   0  0  0  0  0  0  0  0  0  0  0  0
   -1.1860    1.8878    1.7242 C   0  0  0  0  0  0  0  0  0  0  0  0
   -1.2607    1.0082    2.8332 C   0  0  0  0  0  0  0  0  0  0  0  0
   -0.1159    0.8225    3.6422 N   0  0  0  0  0  0  0  0  0  0  0  0
    0.3819    1.9802    4.3779 C   0  0  0  0  0  0  0  0  0  0  0  0
    1.9080    2.0718    4.3279 C   0  0  0  0  0  0  0  0  0  0  0  0
    2.4282    3.3268    4.8334 N   0  0  0  0  0  0  0  0  0  0  0  0
    3.8285    3.2012    5.1853 C   0  0  0  0  0  0  0  0  0  0  0  0
    2.2206    4.4119    3.8871 C   0  0  0  0  0  0  0  0  0  0  0  0
    0.0061   -0.4208    4.3631 C   0  0  0  0  0  0  0  0  0  0  0  0
   -2.4477    0.2997    3.0661 C   0  0  0  0  0  0  0  0  0  0  0  0
   -3.5338    0.3988    2.1964 C   0  0  0  0  0  0  0  0  0  0  0  0
   -4.6870   -0.3208    2.3170 O   0  0  0  0  0  0  0  0  0  0  0  0
   -4.7358   -1.3485    3.2573 C   0  0  0  0  0  0  0  0  0  0  0  0
   -3.4661    1.2826    1.1103 C   0  0  0  0  0  0  0  0  0  0  0  0
   -4.5172    1.3156    0.1446 N   0  0  0  0  0  0  0  0  0  0  0  0
   -4.3876    0.4545   -0.9482 C   0  0  0  0  0  0  0  0  0  0  0  0
   -5.3818   -0.3399   -1.2769 N   0  0  0  0  0  0  0  0  0  0  0  0
   -4.9701   -1.0546   -2.3505 N   0  0  0  0  0  0  0  0  0  0  0  0
   -5.5738   -1.7659   -2.7314 H   0  0  0  0  0  0  0  0  0  0  0  0
   -3.2585    0.2607   -1.8342 C   0  0  0  0  0  0  0  0  0  0  0  0
   -3.6887   -0.7691   -2.7001 C   0  0  0  0  0  0  0  0  0  0  0  0
   -2.8495   -1.3331   -3.6763 C   0  0  0  0  0  0  0  0  0  0  0  0
   -1.5596   -0.8319   -3.7888 C   0  0  0  0  0  0  0  0  0  0  0  0
   -0.6266   -1.4248   -4.7889 C   0  0  0  0  0  0  0  0  0  0  0  0
   -0.9355   -1.3613   -6.1318 C   0  0  0  0  0  0  0  0  0  0  0  0
   -0.0818   -1.9168   -7.1134 C   0  0  0  0  0  0  0  0  0  0  0  0
    1.0794   -2.5446   -6.7425 C   0  0  0  0  0  0  0  0  0  0  0  0
    0.5802   -2.0855   -4.3767 C   0  0  0  0  0  0  0  0  0  0  0  0
    1.4345   -2.6520   -5.3701 C   0  0  0  0  0  0  0  0  0  0  0  0
    2.6182   -3.3274   -4.9635 C   0  0  0  0  0  0  0  0  0  0  0  0
    2.9363   -3.4568   -3.6344 C   0  0  0  0  0  0  0  0  0  0  0  0
    2.0841   -2.9083   -2.6476 C   0  0  0  0  0  0  0  0  0  0  0  0
    0.9448   -2.2327   -3.0088 C   0  0  0  0  0  0  0  0  0  0  0  0
   -1.1404    0.2479   -2.9690 C   0  0  0  0  0  0  0  0  0  0  0  0
   -1.9684    0.8016   -2.0101 C   0  0  0  0  0  0  0  0  0  0  0  0
   -2.3307    2.0619    0.9346 C   0  0  0  0  0  0  0  0  0  0  0  0
    1.8492    3.2647    0.1583 C   0  0  0  0  0  3  0  0  0  0  0  0
    2.7557    2.4386   -0.3451 C   0  0  0  0  0  0  0  0  0  0  0  0
    2.3815    0.8454   -1.1835 S   0  0  0  0  0  0  0  0  0  0  0  0
    3.1094   -0.3031    0.0284 C   0  0  0  0  0  0  0  0  0  0  0  0
    2.2863   -0.4440    1.3214 C   0  0  2  0  0  0  0  0  0  0  0  0
    1.9461    0.5643    1.6033 H   0  0  0  0  0  0  0  0  0  0  0  0
    3.0453   -1.0159    2.4110 N   0  0  0  0  0  0  0  0  0  0  0  0
    4.0538   -0.3907    3.0577 C   0  0  0  0  0  0  0  0  0  0  0  0
    4.5677   -1.1138    4.2916 C   0  0  0  0  0  0  0  0  0  0  0  0
    4.5141    0.6864    2.7182 O   0  0  0  0  0  0  0  0  0  0  0  0
    1.0437   -1.3390    1.1789 C   0  0  0  0  0  0  0  0  0  0  0  0
    0.1054   -0.9282    0.3122 N   0  0  0  0  0  0  0  0  0  0  0  0
   -1.1606   -1.6083    0.1669 C   0  0  0  0  0  0  0  0  0  0  0  0
    0.9420   -2.3656    1.8497 O   0  0  0  0  0  0  0  0  0  0  0  0
    0.7879    2.2917    2.0395 H   0  0  0  0  0  0  0  0  0  0  0  0
    0.0463    1.9533    5.4345 H   0  0  0  0  0  0  0  0  0  0  0  0
   -0.0610    2.8855    3.9434 H   0  0  0  0  0  0  0  0  0  0  0  0
    2.2594    1.8828    3.2908 H   0  0  0  0  0  0  0  0  0  0  0  0
    2.3332    1.2550    4.9338 H   0  0  0  0  0  0  0  0  0  0  0  0
    3.9488    2.4592    5.9919 H   0  0  0  0  0  0  0  0  0  0  0  0
    4.2079    4.1649    5.5604 H   0  0  0  0  0  0  0  0  0  0  0  0
    4.4639    2.8782    4.3341 H   0  0  0  0  0  0  0  0  0  0  0  0
    1.1491    4.5662    3.6948 H   0  0  0  0  0  0  0  0  0  0  0  0
    2.6992    4.2305    2.9011 H   0  0  0  0  0  0  0  0  0  0  0  0
    2.6147    5.3503    4.3073 H   0  0  0  0  0  0  0  0  0  0  0  0
   -0.6309   -0.4649    5.2741 H   0  0  0  0  0  0  0  0  0  0  0  0
    1.0500   -0.5572    4.6828 H   0  0  0  0  0  0  0  0  0  0  0  0
   -0.2377   -1.2696    3.7105 H   0  0  0  0  0  0  0  0  0  0  0  0
   -2.4952   -0.3674    3.9251 H   0  0  0  0  0  0  0  0  0  0  0  0
   -5.6989   -1.8587    3.1238 H   0  0  0  0  0  0  0  0  0  0  0  0
   -4.6787   -0.9696    4.2948 H   0  0  0  0  0  0  0  0  0  0  0  0
   -3.9205   -2.0800    3.1090 H   0  0  0  0  0  0  0  0  0  0  0  0
   -5.4204    1.1425    0.5765 H   0  0  0  0  0  0  0  0  0  0  0  0
   -3.1847   -2.1583   -4.3086 H   0  0  0  0  0  0  0  0  0  0  0  0
   -1.8527   -0.8528   -6.4381 H   0  0  0  0  0  0  0  0  0  0  0  0
   -0.3519   -1.8356   -8.1690 H   0  0  0  0  0  0  0  0  0  0  0  0
    1.7465   -2.9742   -7.4946 H   0  0  0  0  0  0  0  0  0  0  0  0
    3.2704   -3.7486   -5.7334 H   0  0  0  0  0  0  0  0  0  0  0  0
    3.8465   -3.9815   -3.3351 H   0  0  0  0  0  0  0  0  0  0  0  0
    2.3298   -3.0202   -1.5895 H   0  0  0  0  0  0  0  0  0  0  0  0
    0.3129   -1.7989   -2.2354 H   0  0  0  0  0  0  0  0  0  0  0  0
   -0.1337    0.6539   -3.0915 H   0  0  0  0  0  0  0  0  0  0  0  0
   -1.5880    1.6411   -1.4257 H   0  0  0  0  0  0  0  0  0  0  0  0
   -2.2860    2.7728    0.1148 H   0  0  0  0  0  0  0  0  0  0  0  0
    3.8388    2.6208   -0.3503 H   0  0  0  0  0  0  0  0  0  0  0  0
    4.0987    0.0860    0.3064 H   0  0  0  0  0  0  0  0  0  0  0  0
    3.2473   -1.2790   -0.4602 H   0  0  0  0  0  0  0  0  0  0  0  0
    2.6526   -1.8922    2.7478 H   0  0  0  0  0  0  0  0  0  0  0  0
    5.6607   -1.0198    4.3269 H   0  0  0  0  0  0  0  0  0  0  0  0
    4.2830   -2.1746    4.3284 H   0  0  0  0  0  0  0  0  0  0  0  0
    4.1619   -0.6078    5.1813 H   0  0  0  0  0  0  0  0  0  0  0  0
    0.2807   -0.0666   -0.2066 H   0  0  0  0  0  0  0  0  0  0  0  0
   -1.9838   -0.9785    0.5334 H   0  0  0  0  0  0  0  0  0  0  0  0
   -1.1207   -2.5321    0.7561 H   0  0  0  0  0  0  0  0  0  0  0  0
   -1.3620   -1.8557   -0.8861 H   0  0  0  0  0  0  0  0  0  0  0  0
  1  2  2  0  0  0  0
  2  3  1  0  0  0  0
  3  4  1  0  0  0  0
  3 54  1  0  0  0  0
  4  5  1  0  0  0  0
  5 13  2  0  0  0  0
  5  6  1  0  0  0  0
  6 12  1  0  0  0  0
  6  7  1  0  0  0  0
  7 55  1  0  0  0  0
  8  7  1  0  0  0  0
  8  9  1  0  0  0  0
  8 58  1  0  0  0  0
  9 10  1  0  0  0  0
 10 60  1  0  0  0  0
 10 59  1  0  0  0  0
 11 64  1  0  0  0  0
 11  9  1  0  0  0  0
 12 66  1  0  0  0  0
 12 65  1  0  0  0  0
 13 68  1  0  0  0  0
 14 15  1  0  0  0  0
 14 13  1  0  0  0  0
 15 16  1  0  0  0  0
 16 70  1  0  0  0  0
 17 14  2  0  0  0  0
 18 72  1  0  0  0  0
 18 17  1  0  0  0  0
 19 18  1  0  0  0  0
 20 19  2  0  0  0  0
 21 20  1  0  0  0  0
 22 21  1  0  0  0  0
 23 19  1  0  0  0  0
 24 21  1  0  0  0  0
 24 23  2  0  0  0  0
 25 24  1  0  0  0  0
 26 25  2  0  0  0  0
 26 37  1  0  0  0  0
 27 31  1  0  0  0  0
 27 26  1  0  0  0  0
 28 27  2  0  0  0  0
 29 30  2  0  0  0  0
 29 28  1  0  0  0  0
 30 32  1  0  0  0  0
 31 36  1  0  0  0  0
 32 33  1  0  0  0  0
 32 31  2  0  0  0  0
 33 34  2  0  0  0  0
 34 78  1  0  0  0  0
 34 35  1  0  0  0  0
 35 79  1  0  0  0  0
 36 35  2  0  0  0  0
 36 80  1  0  0  0  0
 37 38  2  0  0  0  0
 38 23  1  0  0  0  0
 38 82  1  0  0  0  0
 39 17  1  0  0  0  0
 39  4  2  0  0  0  0
 40  2  1  0  0  0  0
 41 40  2  0  0  0  0
 42 41  1  0  0  0  0
 42 43  1  0  0  0  0
 43 85  1  0  0  0  0
 43 44  1  0  0  0  0
 44 45  1  1  0  0  0
 44 46  1  0  0  0  0
 46 87  1  0  0  0  0
 46 47  1  0  0  0  0
 47 48  1  0  0  0  0
 48 88  1  0  0  0  0
 48 89  1  0  0  0  0
 48 90  1  0  0  0  0
 49 47  2  0  0  0  0
 50 44  1  0  0  0  0
 50 53  2  0  0  0  0
 51 50  1  0  0  0  0
 52 51  1  0  0  0  0
 52 92  1  0  0  0  0
 52 93  1  0  0  0  0
 56  7  1  0  0  0  0
 57  8  1  0  0  0  0
 61 10  1  0  0  0  0
 62 11  1  0  0  0  0
 63 11  1  0  0  0  0
 67 12  1  0  0  0  0
 69 16  1  0  0  0  0
 71 16  1  0  0  0  0
 73 25  1  0  0  0  0
 74 28  1  0  0  0  0
 75 29  1  0  0  0  0
 76 30  1  0  0  0  0
 77 33  1  0  0  0  0
 81 37  1  0  0  0  0
 83 39  1  0  0  0  0
 84 41  1  0  0  0  0
 86 43  1  0  0  0  0
 91 51  1  0  0  0  0
 94 52  1  0  0  0  0
M  END
