96
-1 1
O         0.663256   -1.625975    5.814065
C         0.525480   -2.319917    4.789343
N        -0.649486   -2.051050    3.990581
C        -0.637580   -1.614425    2.687941
C        -1.855732   -1.324406    2.031957
N        -3.074071   -1.464920    2.764274
C        -3.832718   -0.259920    2.999302
C        -2.968331    0.875498    3.558385
N        -2.127256    0.467541    4.652702
C        -2.789450    0.241286    5.906819
C        -0.855745    1.139294    4.775890
C        -3.853471   -2.624601    2.404016
C        -1.857879   -0.962601    0.681593
C        -0.678031   -0.879691   -0.053407
O        -0.615338   -0.636802   -1.393673
C        -1.763292   -0.899214   -2.156041
C         0.542070   -1.088646    0.616292
N         1.759691   -1.115878   -0.091838
C         2.207871   -0.160928   -0.975336
N         3.201683   -0.422779   -1.797209
N         3.439397    0.718714   -2.491239
H         4.187873    0.738137   -3.165625
C         1.759900    1.202077   -1.132631
C         2.598010    1.723571   -2.141085
C         2.493106    3.052173   -2.583810
C         1.532696    3.862166   -1.989212
C         1.381486    5.276755   -2.421155
C         1.172945    6.303666   -1.454463
C         1.041525    7.616169   -1.828091
C         1.441634    5.632691   -3.753308
C         1.309402    6.982639   -4.174108
C         1.105620    7.997988   -3.195987
C         0.973180    9.348283   -3.619227
C         1.036640    9.677701   -4.951458
C         1.235107    8.668317   -5.925899
C         1.366960    7.354952   -5.546060
C         0.694851    3.342171   -0.965605
C         0.794861    2.031114   -0.539372
C         0.547951   -1.427365    1.962253
C         1.341991   -3.380640    4.359279
C         0.918018   -4.381262    3.385908
S         1.807302   -4.462243    1.639347
C         0.548818   -5.465321    0.801476
C        -0.543790   -4.682521    0.036595
H        -0.683854   -3.690096    0.491547
N        -1.800813   -5.399238    0.117563
C        -2.942619   -4.879724   -0.407843
C        -4.095896   -5.857983   -0.522134
O        -3.045466   -3.720877   -0.765955
C        -0.140630   -4.545810   -1.443755
N         0.655025   -3.499751   -1.727383
C         1.147242   -3.235429   -3.054716
O        -0.483217   -5.380522   -2.267751
H        -1.393410   -1.595267    4.514211
H        -4.642026   -0.506975    3.710482
H        -4.345375    0.126800    2.085496
H        -3.641060    1.728598    3.815881
H        -2.311664    1.231543    2.750372
H        -3.650732   -0.432397    5.774678
H        -3.160447    1.178969    6.386660
H        -2.088287   -0.248226    6.600755
H        -0.381558    1.207080    3.784742
H        -0.187776    0.527517    5.405841
H        -0.938229    2.169220    5.195048
H        -3.203586   -3.512887    2.404193
H        -4.324351   -2.557627    1.399611
H        -4.650923   -2.785012    3.149802
H        -2.819935   -0.811879    0.190271
H        -2.188587   -1.886903   -1.912039
H        -1.453589   -0.874191   -3.209663
H        -2.538426   -0.124834   -2.006319
H         2.450752   -1.774627    0.253787
H         3.164900    3.448413   -3.348127
H         1.139489    6.033277   -0.396887
H         0.892582    8.389702   -1.070248
H         1.571596    4.858513   -4.514045
H         0.818466   10.123283   -2.863891
H         0.932843   10.719061   -5.264571
H         1.282196    8.939552   -6.983055
H         1.518889    6.574501   -6.296180
H        -0.066820    3.989593   -0.526273
H         0.132623    1.644164    0.236329
H         1.497799   -1.609760    2.464478
H         2.223340   -3.577520    4.975184
H        -0.137719   -4.251147    3.107873
H         1.082322   -5.419139    3.717746
H         0.060122   -6.068315    1.585583
H         1.044481   -6.171605    0.117764
H        -1.734133   -6.408956    0.140887
H        -5.039195   -5.300267   -0.482111
H        -4.080482   -6.621830    0.268387
H        -4.029003   -6.361117   -1.499131
H         0.846891   -2.805350   -1.013485
H         1.500791   -4.166883   -3.520167
H         1.974868   -2.516982   -2.985415
H         0.362261   -2.811858   -3.704324
