80
-1 1
O         2.242654   -3.663677    3.194410
C         2.640859   -2.687716    2.576263
N         1.835010   -1.701384    2.101923
C         0.431522   -1.781506    2.059772
C        -0.238156   -2.823174    1.391790
N         0.495850   -3.838803    0.716163
C         0.618872   -3.641789   -0.717374
C         1.937936   -2.948162   -1.068751
N         1.982071   -2.392749   -2.414576
C         3.118482   -1.501345   -2.574981
C         1.938585   -3.401864   -3.450257
C         0.319121   -5.183019    1.204693
C        -1.627321   -2.786612    1.323554
C        -2.389082   -1.715344    1.810940
O        -3.718770   -1.851489    1.619379
C        -4.661356   -0.939392    2.120998
C        -1.707021   -0.630073    2.387975
N        -2.348638    0.613604    2.703686
C        -2.349331    1.534627    1.648971
N        -2.628215    1.154310    0.426144
N        -2.487625    2.231619   -0.376639
H        -2.327779    2.036048   -1.378880
C        -1.999685    2.926799    1.682515
C        -2.080995    3.316204    0.324350
C        -1.751945    4.621414   -0.085582
C        -1.346595    5.510460    0.892011
C        -1.265620    5.135141    2.255231
C        -1.587238    3.851337    2.657324
C        -0.318415   -0.708316    2.527217
C         4.107214   -2.524983    2.308779
C         4.670957   -1.669282    1.453242
S         2.215610    1.025664    0.364548
C         0.708593    0.459585   -0.497975
C         0.552926    1.048313   -1.910138
H         1.424677    0.752105   -2.518775
N         0.501509    2.484588   -1.829472
C         0.684641    3.254066   -2.930323
C         0.825661    4.743441   -2.665252
O         0.721239    2.801465   -4.061177
C        -0.686197    0.469943   -2.602641
N        -0.520057   -0.806755   -3.007454
C        -1.594023   -1.587610   -3.559841
O        -1.740512    1.082924   -2.748606
H         2.214147   -0.828319    1.683457
H        -0.214129   -3.026512   -1.108097
H         0.546800   -4.622343   -1.218388
H         2.782472   -3.650782   -0.889211
H         2.079641   -2.120119   -0.362285
H         3.103107   -0.726457   -1.790822
H         3.069277   -1.003459   -3.556158
H         4.087251   -2.043792   -2.509895
H         1.019050   -4.001139   -3.373606
H         2.806521   -4.097790   -3.405393
H         1.940377   -2.920816   -4.440643
H         0.477453   -5.183419    2.291941
H         1.085289   -5.841164    0.765282
H        -0.678973   -5.622871    0.980492
H        -2.167966   -3.589893    0.818381
H        -4.546080   -0.779672    3.204474
H        -5.643602   -1.392854    1.925501
H        -4.601036    0.030355    1.606129
H        -1.976796    1.024160    3.551199
H        -1.804026    4.907710   -1.136855
H        -1.075077    6.530008    0.606568
H        -0.932125    5.868850    2.992098
H        -1.507898    3.564205    3.708980
H         0.217059    0.151320    2.937456
H         4.710926   -3.243237    2.872019
H         5.756499   -1.661777    1.317489
H         4.090126   -0.941152    0.870482
H        -0.192292    0.713012    0.080531
H         0.695500   -0.634878   -0.593490
H         0.760330    2.857924   -0.918324
H        -0.008747    5.266631   -3.155329
H         1.755191    5.093145   -3.135770
H         0.834898    4.999205   -1.597021
H         0.369136   -1.281816   -2.797054
H        -2.493654   -0.960055   -3.592217
H        -1.362817   -1.927901   -4.583150
H        -1.804332   -2.473398   -2.937391
