80
-1 1
O         1.856146   -2.397440    1.659033
C         2.148542   -1.283841    1.190758
N         1.046497   -0.482574    0.694242
C        -0.265205   -0.689289    1.158316
C        -1.059495   -1.829877    0.820691
N        -0.641048   -2.856071   -0.019439
C         0.160071   -2.610088   -1.199601
C         1.468943   -3.403294   -1.215095
N         2.276936   -3.105591   -2.398281
C         3.697150   -3.023082   -2.091104
C         2.011740   -4.009092   -3.497218
C        -1.356683   -4.099923   -0.011032
C        -2.342280   -1.902968    1.396411
C        -2.868713   -0.920013    2.228543
O        -4.130713   -1.094334    2.733753
C        -4.179435   -1.388301    4.105706
C        -2.121568    0.226930    2.498794
N        -2.619878    1.245142    3.348371
C        -3.728222    2.006733    3.038985
N        -4.388148    1.921151    1.909691
N        -5.428746    2.785931    2.007532
H        -6.080135    2.853615    1.241098
C        -4.341848    2.969190    3.922349
C        -5.447659    3.453358    3.188018
C        -6.311467    4.428149    3.717901
C        -6.037515    4.890901    4.993795
C        -4.941149    4.407651    5.743502
C        -4.091942    3.447695    5.216680
C        -0.837565    0.302368    1.958290
C         3.437687   -0.747315    1.058768
C         3.820447    0.623763    0.699687
S         4.477508    0.960067   -1.061405
C         2.961166    0.593240   -1.977548
C         3.220973    0.251679   -3.451718
H         3.700076   -0.733717   -3.512252
N         4.109005    1.175271   -4.105027
C         5.259687    0.785509   -4.713772
C         6.043601    1.916673   -5.354602
O         5.670698   -0.360306   -4.714647
C         1.876542    0.238224   -4.190868
N         1.129115   -0.855671   -3.942584
C        -0.217914   -0.995496   -4.428086
O         1.528478    1.177939   -4.891483
H         1.270359    0.499451    0.589412
H         0.411682   -1.544879   -1.241125
H        -0.442839   -2.839235   -2.104723
H         1.269102   -4.493424   -1.151837
H         2.010948   -3.143095   -0.296889
H         3.865191   -2.275320   -1.300016
H         4.266244   -2.722303   -2.985029
H         4.102814   -3.995999   -1.740230
H         0.931936   -4.040321   -3.712922
H         2.344474   -5.049163   -3.284211
H         2.526902   -3.664417   -4.407963
H        -1.517920   -4.453658    1.018689
H        -0.761501   -4.865009   -0.528989
H        -2.345900   -4.050681   -0.517945
H        -3.001592   -2.742427    1.181274
H        -3.621710   -2.314124    4.338850
H        -5.236334   -1.533150    4.370925
H        -3.768614   -0.565770    4.716230
H        -1.920814    1.726028    3.899071
H        -7.163313    4.805143    3.148581
H        -6.688774    5.649252    5.435432
H        -4.768722    4.795283    6.749581
H        -3.250662    3.065562    5.799859
H        -0.220731    1.172720    2.201445
H         4.231035   -1.418203    1.397693
H         4.676829    0.990004    1.288825
H         3.018797    1.371901    0.831191
H         2.267018    1.449339   -1.914046
H         2.481554   -0.268462   -1.485363
H         3.726154    2.090958   -4.303143
H         6.650762    1.508995   -6.171910
H         6.719219    2.345122   -4.598810
H         5.396650    2.720790   -5.734156
H         1.526963   -1.580112   -3.321834
H        -0.350670   -1.953272   -4.956905
H        -0.952606   -0.950266   -3.607125
H        -0.420384   -0.172643   -5.126022
