-1 1
 OpenBabel05232414493D

 80 82  0  0  1  0  0  0  0  0999 V2000
    8.5454   -4.7730   14.7976 O   0  0  0  0  0  0  0  0  0  0  0  0
    8.9376   -3.7217   14.2987 C   0  0  0  0  0  0  0  0  0  0  0  0
    7.9786   -2.8346   13.7361 N   0  0  0  0  0  0  0  0  0  0  0  0
    6.6126   -2.9292   14.0556 C   0  0  0  0  0  0  0  0  0  0  0  0
    5.8145   -4.0349   13.6531 C   0  0  0  0  0  0  0  0  0  0  0  0
    6.3078   -5.0561   12.8466 N   0  0  0  0  0  0  0  0  0  0  0  0
    7.0300   -4.7515   11.6302 C   0  0  0  0  0  0  0  0  0  0  0  0
    8.4055   -5.4175   11.5471 C   0  0  0  0  0  0  0  0  0  0  0  0
    8.9714   -5.3447   10.2031 N   0  0  0  0  0  0  0  0  0  0  0  0
   10.4237   -5.3748   10.2201 C   0  0  0  0  0  0  0  0  0  0  0  0
    8.4329   -6.3499    9.3117 C   0  0  0  0  0  0  0  0  0  0  0  0
    5.6579   -6.3344   12.8694 C   0  0  0  0  0  0  0  0  0  0  0  0
    4.4883   -4.0748   14.1148 C   0  0  0  0  0  0  0  0  0  0  0  0
    3.9282   -3.0636   14.8890 C   0  0  0  0  0  0  0  0  0  0  0  0
    2.6256   -3.1893   15.2902 O   0  0  0  0  0  0  0  0  0  0  0  0
    2.4499   -3.4448   16.6605 C   0  0  0  0  0  0  0  0  0  0  0  0
    4.6864   -1.9314   15.2046 C   0  0  0  0  0  0  0  0  0  0  0  0
    4.1424   -0.8864   15.9886 N   0  0  0  0  0  0  0  0  0  0  0  0
    3.0731   -0.1172   15.5676 C   0  0  0  0  0  0  0  0  0  0  0  0
    2.5310   -0.2032   14.3780 N   0  0  0  0  0  0  0  0  0  0  0  0
    1.4926    0.6668   14.3662 N   0  0  0  0  0  0  0  0  0  0  0  0
    0.9270    0.7400   13.5346 H   0  0  0  0  0  0  0  0  0  0  0  0
    2.3814    0.8523   16.3807 C   0  0  0  0  0  0  0  0  0  0  0  0
    1.3599    1.3414   15.5360 C   0  0  0  0  0  0  0  0  0  0  0  0
    0.4546    2.3252   15.9714 C   0  0  0  0  0  0  0  0  0  0  0  0
    0.6012    2.7908   17.2669 C   0  0  0  0  0  0  0  0  0  0  0  0
    1.6115    2.3018   18.1264 C   0  0  0  0  0  0  0  0  0  0  0  0
    2.5023    1.3337   17.6926 C   0  0  0  0  0  0  0  0  0  0  0  0
    6.0164   -1.8995   14.7843 C   0  0  0  0  0  0  0  0  0  0  0  0
   10.3129   -3.3156   14.2303 C   0  0  0  0  0  3  0  0  0  0  0  0
   10.8268   -2.0686   13.8484 C   0  0  0  0  0  0  0  0  0  0  0  0
   11.5107   -1.7801   11.7330 S   0  0  0  0  0  0  0  0  0  0  0  0
    9.8634   -1.8128   10.9698 C   0  0  0  0  0  0  0  0  0  0  0  0
    9.9016   -1.8772    9.4370 C   0  0  2  0  0  0  0  0  0  0  0  0
   10.2915   -2.8597    9.1243 H   0  0  0  0  0  0  0  0  0  0  0  0
   10.7531   -0.8459    8.9092 N   0  0  0  0  0  0  0  0  0  0  0  0
   11.1050   -0.8173    7.6039 C   0  0  0  0  0  0  0  0  0  0  0  0
   12.0001    0.3432    7.2055 C   0  0  0  0  0  0  0  0  0  0  0  0
   10.7109   -1.6374    6.7926 O   0  0  0  0  0  0  0  0  0  0  0  0
    8.4707   -1.7312    8.8897 C   0  0  0  0  0  0  0  0  0  0  0  0
    7.7695   -2.8912    8.9276 N   0  0  0  0  0  0  0  0  0  0  0  0
    6.3814   -2.9534    8.5601 C   0  0  0  0  0  0  0  0  0  0  0  0
    8.0159   -0.6673    8.5127 O   0  0  0  0  0  0  0  0  0  0  0  0
    8.3092   -1.8999   13.5341 H   0  0  0  0  0  0  0  0  0  0  0  0
    7.1610   -3.6661   11.5446 H   0  0  0  0  0  0  0  0  0  0  0  0
    6.4115   -5.0558   10.7601 H   0  0  0  0  0  0  0  0  0  0  0  0
    8.3495   -6.4691   11.9006 H   0  0  0  0  0  0  0  0  0  0  0  0
    9.0851   -4.9067   12.2393 H   0  0  0  0  0  0  0  0  0  0  0  0
   10.8200   -4.5594   10.8444 H   0  0  0  0  0  0  0  0  0  0  0  0
   10.8121   -5.2419    9.1983 H   0  0  0  0  0  0  0  0  0  0  0  0
   10.8172   -6.3368   10.6146 H   0  0  0  0  0  0  0  0  0  0  0  0
    7.3338   -6.3030    9.2917 H   0  0  0  0  0  0  0  0  0  0  0  0
    8.7227   -7.3816    9.6126 H   0  0  0  0  0  0  0  0  0  0  0  0
    8.7934   -6.1780    8.2856 H   0  0  0  0  0  0  0  0  0  0  0  0
    5.4538   -6.6431   13.9049 H   0  0  0  0  0  0  0  0  0  0  0  0
    6.3240   -7.0907   12.4278 H   0  0  0  0  0  0  0  0  0  0  0  0
    4.7025   -6.3621   12.2991 H   0  0  0  0  0  0  0  0  0  0  0  0
    3.8321   -4.9037   13.8504 H   0  0  0  0  0  0  0  0  0  0  0  0
    2.9539   -4.3815   16.9618 H   0  0  0  0  0  0  0  0  0  0  0  0
    1.3701   -3.5491   16.8356 H   0  0  0  0  0  0  0  0  0  0  0  0
    2.8346   -2.6195   17.2837 H   0  0  0  0  0  0  0  0  0  0  0  0
    4.8119   -0.3896   16.5621 H   0  0  0  0  0  0  0  0  0  0  0  0
   -0.3314    2.7067   15.3169 H   0  0  0  0  0  0  0  0  0  0  0  0
   -0.0851    3.5563   17.6374 H   0  0  0  0  0  0  0  0  0  0  0  0
    1.6831    2.6924   19.1435 H   0  0  0  0  0  0  0  0  0  0  0  0
    3.2770    0.9471   18.3592 H   0  0  0  0  0  0  0  0  0  0  0  0
    6.6395   -1.0474   15.0707 H   0  0  0  0  0  0  0  0  0  0  0  0
   11.0062   -4.0937   14.5578 H   0  0  0  0  0  0  0  0  0  0  0  0
   11.8177   -1.8060   14.2286 H   0  0  0  0  0  0  0  0  0  0  0  0
   10.1641   -1.1940   13.8351 H   0  0  0  0  0  0  0  0  0  0  0  0
    9.2891   -0.9161   11.2643 H   0  0  0  0  0  0  0  0  0  0  0  0
    9.3120   -2.6896   11.3423 H   0  0  0  0  0  0  0  0  0  0  0  0
   11.2204   -0.2527    9.5856 H   0  0  0  0  0  0  0  0  0  0  0  0
   12.6267    0.0321    6.3604 H   0  0  0  0  0  0  0  0  0  0  0  0
   12.6350    0.6947    8.0315 H   0  0  0  0  0  0  0  0  0  0  0  0
   11.3649    1.1792    6.8752 H   0  0  0  0  0  0  0  0  0  0  0  0
    8.2243   -3.7209    9.3295 H   0  0  0  0  0  0  0  0  0  0  0  0
    6.1894   -3.8045    7.8870 H   0  0  0  0  0  0  0  0  0  0  0  0
    5.7202   -3.0509    9.4390 H   0  0  0  0  0  0  0  0  0  0  0  0
    6.1246   -2.0215    8.0391 H   0  0  0  0  0  0  0  0  0  0  0  0
  2  1  2  0  0  0  0
  3  4  1  0  0  0  0
  3  2  1  0  0  0  0
  4 29  1  0  0  0  0
  5  4  2  0  0  0  0
  5 13  1  0  0  0  0
  6 12  1  0  0  0  0
  6  5  1  0  0  0  0
  7  6  1  0  0  0  0
  8  7  1  0  0  0  0
  8 47  1  0  0  0  0
  8 48  1  0  0  0  0
  9 10  1  0  0  0  0
  9  8  1  0  0  0  0
 10 51  1  0  0  0  0
 10 49  1  0  0  0  0
 11 53  1  0  0  0  0
 11  9  1  0  0  0  0
 12 55  1  0  0  0  0
 13 14  2  0  0  0  0
 14 17  1  0  0  0  0
 14 15  1  0  0  0  0
 15 16  1  0  0  0  0
 16 60  1  0  0  0  0
 16 59  1  0  0  0  0
 16 61  1  0  0  0  0
 17 18  1  0  0  0  0
 18 62  1  0  0  0  0
 19 18  1  0  0  0  0
 19 23  1  0  0  0  0
 20 19  2  0  0  0  0
 21 20  1  0  0  0  0
 21 24  1  0  0  0  0
 22 21  1  0  0  0  0
 23 28  1  0  0  0  0
 24 25  1  0  0  0  0
 24 23  2  0  0  0  0
 25 26  2  0  0  0  0
 26 64  1  0  0  0  0
 26 27  1  0  0  0  0
 27 65  1  0  0  0  0
 28 27  2  0  0  0  0
 28 66  1  0  0  0  0
 29 67  1  0  0  0  0
 29 17  2  0  0  0  0
 30  2  1  0  0  0  0
 30 68  1  0  0  0  0
 31 69  1  0  0  0  0
 31 30  1  0  0  0  0
 32 31  1  0  0  0  0
 33 71  1  0  0  0  0
 33 72  1  0  0  0  0
 33 32  1  0  0  0  0
 34 35  1  6  0  0  0
 34 33  1  0  0  0  0
 36 34  1  0  0  0  0
 36 73  1  0  0  0  0
 37 36  1  0  0  0  0
 38 37  1  0  0  0  0
 38 75  1  0  0  0  0
 39 37  2  0  0  0  0
 40 41  1  0  0  0  0
 40 34  1  0  0  0  0
 41 77  1  0  0  0  0
 42 41  1  0  0  0  0
 42 79  1  0  0  0  0
 43 40  2  0  0  0  0
 44  3  1  0  0  0  0
 45  7  1  0  0  0  0
 46  7  1  0  0  0  0
 50 10  1  0  0  0  0
 52 11  1  0  0  0  0
 54 11  1  0  0  0  0
 56 12  1  0  0  0  0
 57 12  1  0  0  0  0
 58 13  1  0  0  0  0
 63 25  1  0  0  0  0
 70 31  1  0  0  0  0
 74 38  1  0  0  0  0
 76 38  1  0  0  0  0
 78 42  1  0  0  0  0
 80 42  1  0  0  0  0
M  END
