89
-1 1
O        -0.440436    2.320070    3.088958
C        -0.961364    1.871069    2.080755
N        -0.584748    0.625072    1.627116
C        -0.628996    0.013435    0.369560
C        -0.429354   -1.383450    0.329341
N        -0.234962   -2.066510    1.553950
C         0.595077   -3.254978    1.507279
C         1.986452   -3.000732    0.904191
N         2.339540   -3.956921   -0.131951
C         3.413523   -3.483817   -0.972731
C         2.602584   -5.274557    0.396588
C        -1.461347   -2.281256    2.322323
C        -0.349020   -2.036749   -0.905354
C        -0.449450   -1.331887   -2.101198
O        -0.336689   -1.897937   -3.325228
C         0.019113   -3.249755   -3.403452
C        -0.620580    0.062012   -2.064357
N        -0.559374    0.824478   -3.266177
C         0.603164    0.775405   -4.005647
N         0.616558    0.984641   -5.301352
N         1.914748    0.889401   -5.693636
H         2.145230    1.014364   -6.666737
C         1.937996    0.525805   -3.509428
C         2.748669    0.604142   -4.664170
C         4.135226    0.388073   -4.613909
C         4.704576    0.096668   -3.379431
C         6.161044   -0.174945   -3.278645
C         6.661528   -1.173834   -2.433517
C         8.034799   -1.400304   -2.382318
N         8.926800   -0.716729   -3.097284
C         8.455096    0.236053   -3.899119
C         7.102719    0.544390   -4.025113
C         3.896863    0.042287   -2.213095
C         2.531050    0.252911   -2.265569
C        -0.711509    0.711566   -0.838051
C        -2.051613    2.612327    1.395423
C        -3.137329    2.042909    0.867362
S        -4.849400   -0.831865    2.419229
C        -3.980250    0.226121    3.633561
C        -4.649110    1.588037    3.928538
H        -5.006606    2.017355    2.980982
N        -3.694008    2.523515    4.468031
C        -3.550550    3.801659    4.041667
C        -2.438545    4.563003    4.739246
O        -4.193827    4.290660    3.127412
C        -5.848837    1.456687    4.883169
N        -6.803768    0.606949    4.441890
C        -7.946151    0.260707    5.239935
O        -5.907477    2.069068    5.940014
H        -0.044042    0.093508    2.306312
H         0.102227   -4.075553    0.941146
H         0.681061   -3.618029    2.543287
H         2.755644   -2.979434    1.708965
H         1.991787   -1.999115    0.451612
H         3.134732   -2.530554   -1.446312
H         3.615127   -4.211758   -1.774095
H         4.367389   -3.326396   -0.415675
H         1.744728   -5.634475    0.983558
H         3.499687   -5.302853    1.057971
H         2.765894   -5.989173   -0.424854
H        -2.161183   -1.441308    2.219193
H        -1.222894   -2.413800    3.389216
H        -2.006373   -3.177177    1.969090
H        -0.161489   -3.108293   -0.916820
H         0.169934   -3.474321   -4.466800
H        -0.777380   -3.905603   -3.009347
H         0.949839   -3.461548   -2.848550
H        -1.393508    0.818149   -3.843487
H         4.742704    0.413118   -5.520922
H         5.984311   -1.785462   -1.833985
H         8.432003   -2.184224   -1.727672
H         9.197284    0.798994   -4.476572
H         6.786830    1.356245   -4.683394
H         4.370977   -0.150491   -1.248780
H         1.929624    0.211509   -1.356155
H        -0.794333    1.796980   -0.844157
H        -2.003146    3.695823    1.529361
H        -3.291848    0.957978    0.817686
H        -3.968254    2.669864    0.535865
H        -2.967797    0.460821    3.267929
H        -3.843273   -0.312256    4.590122
H        -3.203872    2.245089    5.306699
H        -1.479804    4.190452    4.344241
H        -2.451818    4.406321    5.828446
H        -2.543843    5.631659    4.517653
H        -6.544174    0.021280    3.629963
H        -8.878382    0.341918    4.656874
H        -7.996254    0.953499    6.090699
H        -7.878101   -0.769578    5.631395
