-1 1
 OpenBabel05232413483D

 89 91  0  0  1  0  0  0  0  0999 V2000
   -0.4404    2.3201    3.0890 O   0  0  0  0  0  0  0  0  0  0  0  0
   -0.9614    1.8711    2.0808 C   0  0  0  0  0  0  0  0  0  0  0  0
   -0.5847    0.6251    1.6271 N   0  0  0  0  0  0  0  0  0  0  0  0
   -0.6290    0.0134    0.3696 C   0  0  0  0  0  0  0  0  0  0  0  0
   -0.4294   -1.3835    0.3293 C   0  0  0  0  0  0  0  0  0  0  0  0
   -0.2350   -2.0665    1.5539 N   0  0  0  0  0  0  0  0  0  0  0  0
    0.5951   -3.2550    1.5073 C   0  0  0  0  0  0  0  0  0  0  0  0
    1.9865   -3.0007    0.9042 C   0  0  0  0  0  0  0  0  0  0  0  0
    2.3395   -3.9569   -0.1320 N   0  0  0  0  0  0  0  0  0  0  0  0
    3.4135   -3.4838   -0.9727 C   0  0  0  0  0  0  0  0  0  0  0  0
    2.6026   -5.2746    0.3966 C   0  0  0  0  0  0  0  0  0  0  0  0
   -1.4613   -2.2813    2.3223 C   0  0  0  0  0  0  0  0  0  0  0  0
   -0.3490   -2.0367   -0.9054 C   0  0  0  0  0  0  0  0  0  0  0  0
   -0.4495   -1.3319   -2.1012 C   0  0  0  0  0  0  0  0  0  0  0  0
   -0.3367   -1.8979   -3.3252 O   0  0  0  0  0  0  0  0  0  0  0  0
    0.0191   -3.2498   -3.4035 C   0  0  0  0  0  0  0  0  0  0  0  0
   -0.6206    0.0620   -2.0644 C   0  0  0  0  0  0  0  0  0  0  0  0
   -0.5594    0.8245   -3.2662 N   0  0  0  0  0  0  0  0  0  0  0  0
    0.6032    0.7754   -4.0056 C   0  0  0  0  0  0  0  0  0  0  0  0
    0.6166    0.9846   -5.3014 N   0  0  0  0  0  0  0  0  0  0  0  0
    1.9147    0.8894   -5.6936 N   0  0  0  0  0  0  0  0  0  0  0  0
    2.1452    1.0144   -6.6667 H   0  0  0  0  0  0  0  0  0  0  0  0
    1.9380    0.5258   -3.5094 C   0  0  0  0  0  0  0  0  0  0  0  0
    2.7487    0.6041   -4.6642 C   0  0  0  0  0  0  0  0  0  0  0  0
    4.1352    0.3881   -4.6139 C   0  0  0  0  0  0  0  0  0  0  0  0
    4.7046    0.0967   -3.3794 C   0  0  0  0  0  0  0  0  0  0  0  0
    6.1610   -0.1749   -3.2786 C   0  0  0  0  0  0  0  0  0  0  0  0
    6.6615   -1.1738   -2.4335 C   0  0  0  0  0  0  0  0  0  0  0  0
    8.0348   -1.4003   -2.3823 C   0  0  0  0  0  0  0  0  0  0  0  0
    8.9268   -0.7167   -3.0973 N   0  0  0  0  0  0  0  0  0  0  0  0
    8.4551    0.2361   -3.8991 C   0  0  0  0  0  0  0  0  0  0  0  0
    7.1027    0.5444   -4.0251 C   0  0  0  0  0  0  0  0  0  0  0  0
    3.8969    0.0423   -2.2131 C   0  0  0  0  0  0  0  0  0  0  0  0
    2.5311    0.2529   -2.2656 C   0  0  0  0  0  0  0  0  0  0  0  0
   -0.7115    0.7116   -0.8381 C   0  0  0  0  0  0  0  0  0  0  0  0
   -2.0516    2.6123    1.3954 C   0  0  0  0  0  0  0  0  0  0  0  0
   -3.1373    2.0429    0.8674 C   0  0  0  0  0  0  0  0  0  0  0  0
   -4.8494   -0.8319    2.4192 S   0  0  0  0  0  1  0  0  0  0  0  0
   -3.9802    0.2261    3.6336 C   0  0  0  0  0  0  0  0  0  0  0  0
   -4.6491    1.5880    3.9285 C   0  0  2  0  0  0  0  0  0  0  0  0
   -5.0066    2.0174    2.9810 H   0  0  0  0  0  0  0  0  0  0  0  0
   -3.6940    2.5235    4.4680 N   0  0  0  0  0  0  0  0  0  0  0  0
   -3.5505    3.8017    4.0417 C   0  0  0  0  0  0  0  0  0  0  0  0
   -2.4385    4.5630    4.7392 C   0  0  0  0  0  0  0  0  0  0  0  0
   -4.1938    4.2907    3.1274 O   0  0  0  0  0  0  0  0  0  0  0  0
   -5.8488    1.4567    4.8832 C   0  0  0  0  0  0  0  0  0  0  0  0
   -6.8038    0.6069    4.4419 N   0  0  0  0  0  0  0  0  0  0  0  0
   -7.9462    0.2607    5.2399 C   0  0  0  0  0  0  0  0  0  0  0  0
   -5.9075    2.0691    5.9400 O   0  0  0  0  0  0  0  0  0  0  0  0
   -0.0440    0.0935    2.3063 H   0  0  0  0  0  0  0  0  0  0  0  0
    0.1022   -4.0756    0.9411 H   0  0  0  0  0  0  0  0  0  0  0  0
    0.6811   -3.6180    2.5433 H   0  0  0  0  0  0  0  0  0  0  0  0
    2.7556   -2.9794    1.7090 H   0  0  0  0  0  0  0  0  0  0  0  0
    1.9918   -1.9991    0.4516 H   0  0  0  0  0  0  0  0  0  0  0  0
    3.1347   -2.5306   -1.4463 H   0  0  0  0  0  0  0  0  0  0  0  0
    3.6151   -4.2118   -1.7741 H   0  0  0  0  0  0  0  0  0  0  0  0
    4.3674   -3.3264   -0.4157 H   0  0  0  0  0  0  0  0  0  0  0  0
    1.7447   -5.6345    0.9836 H   0  0  0  0  0  0  0  0  0  0  0  0
    3.4997   -5.3029    1.0580 H   0  0  0  0  0  0  0  0  0  0  0  0
    2.7659   -5.9892   -0.4249 H   0  0  0  0  0  0  0  0  0  0  0  0
   -2.1612   -1.4413    2.2192 H   0  0  0  0  0  0  0  0  0  0  0  0
   -1.2229   -2.4138    3.3892 H   0  0  0  0  0  0  0  0  0  0  0  0
   -2.0064   -3.1772    1.9691 H   0  0  0  0  0  0  0  0  0  0  0  0
   -0.1615   -3.1083   -0.9168 H   0  0  0  0  0  0  0  0  0  0  0  0
    0.1699   -3.4743   -4.4668 H   0  0  0  0  0  0  0  0  0  0  0  0
   -0.7774   -3.9056   -3.0093 H   0  0  0  0  0  0  0  0  0  0  0  0
    0.9498   -3.4615   -2.8485 H   0  0  0  0  0  0  0  0  0  0  0  0
   -1.3935    0.8181   -3.8435 H   0  0  0  0  0  0  0  0  0  0  0  0
    4.7427    0.4131   -5.5209 H   0  0  0  0  0  0  0  0  0  0  0  0
    5.9843   -1.7855   -1.8340 H   0  0  0  0  0  0  0  0  0  0  0  0
    8.4320   -2.1842   -1.7277 H   0  0  0  0  0  0  0  0  0  0  0  0
    9.1973    0.7990   -4.4766 H   0  0  0  0  0  0  0  0  0  0  0  0
    6.7868    1.3562   -4.6834 H   0  0  0  0  0  0  0  0  0  0  0  0
    4.3710   -0.1505   -1.2488 H   0  0  0  0  0  0  0  0  0  0  0  0
    1.9296    0.2115   -1.3562 H   0  0  0  0  0  0  0  0  0  0  0  0
   -0.7943    1.7970   -0.8442 H   0  0  0  0  0  0  0  0  0  0  0  0
   -2.0031    3.6958    1.5294 H   0  0  0  0  0  0  0  0  0  0  0  0
   -3.2918    0.9580    0.8177 H   0  0  0  0  0  0  0  0  0  0  0  0
   -3.9683    2.6699    0.5359 H   0  0  0  0  0  0  0  0  0  0  0  0
   -2.9678    0.4608    3.2679 H   0  0  0  0  0  0  0  0  0  0  0  0
   -3.8433   -0.3123    4.5901 H   0  0  0  0  0  0  0  0  0  0  0  0
   -3.2039    2.2451    5.3067 H   0  0  0  0  0  0  0  0  0  0  0  0
   -1.4798    4.1905    4.3442 H   0  0  0  0  0  0  0  0  0  0  0  0
   -2.4518    4.4063    5.8284 H   0  0  0  0  0  0  0  0  0  0  0  0
   -2.5438    5.6317    4.5177 H   0  0  0  0  0  0  0  0  0  0  0  0
   -6.5442    0.0213    3.6300 H   0  0  0  0  0  0  0  0  0  0  0  0
   -8.8784    0.3419    4.6569 H   0  0  0  0  0  0  0  0  0  0  0  0
   -7.9963    0.9535    6.0907 H   0  0  0  0  0  0  0  0  0  0  0  0
   -7.8781   -0.7696    5.6314 H   0  0  0  0  0  0  0  0  0  0  0  0
  2  1  2  0  0  0  0
  3  2  1  0  0  0  0
  3 50  1  0  0  0  0
  4  3  1  0  0  0  0
  5  4  1  0  0  0  0
  5  6  1  0  0  0  0
  6 12  1  0  0  0  0
  7  6  1  0  0  0  0
  7 52  1  0  0  0  0
  8  7  1  0  0  0  0
  8 53  1  0  0  0  0
  9 11  1  0  0  0  0
  9  8  1  0  0  0  0
 10 57  1  0  0  0  0
 10  9  1  0  0  0  0
 11 58  1  0  0  0  0
 11 59  1  0  0  0  0
 12 62  1  0  0  0  0
 13  5  2  0  0  0  0
 14 17  2  0  0  0  0
 14 13  1  0  0  0  0
 15 14  1  0  0  0  0
 16 15  1  0  0  0  0
 16 66  1  0  0  0  0
 16 67  1  0  0  0  0
 17 35  1  0  0  0  0
 18 17  1  0  0  0  0
 19 23  1  0  0  0  0
 19 18  1  0  0  0  0
 20 19  2  0  0  0  0
 21 20  1  0  0  0  0
 21 24  1  0  0  0  0
 22 21  1  0  0  0  0
 23 34  1  0  0  0  0
 24 25  1  0  0  0  0
 24 23  2  0  0  0  0
 25 26  2  0  0  0  0
 26 27  1  0  0  0  0
 26 33  1  0  0  0  0
 27 28  1  0  0  0  0
 28 29  2  0  0  0  0
 28 70  1  0  0  0  0
 29 71  1  0  0  0  0
 30 29  1  0  0  0  0
 31 30  2  0  0  0  0
 32 31  1  0  0  0  0
 32 27  2  0  0  0  0
 33 74  1  0  0  0  0
 34 33  2  0  0  0  0
 34 75  1  0  0  0  0
 35  4  2  0  0  0  0
 36 77  1  0  0  0  0
 36  2  1  0  0  0  0
 37 36  2  0  0  0  0
 38 39  1  0  0  0  0
 39 40  1  0  0  0  0
 39 81  1  0  0  0  0
 40 41  1  6  0  0  0
 40 42  1  0  0  0  0
 40 46  1  0  0  0  0
 42 82  1  0  0  0  0
 43 42  1  0  0  0  0
 43 44  1  0  0  0  0
 44 84  1  0  0  0  0
 45 43  2  0  0  0  0
 46 49  2  0  0  0  0
 47 46  1  0  0  0  0
 47 48  1  0  0  0  0
 48 89  1  0  0  0  0
 48 88  1  0  0  0  0
 51  7  1  0  0  0  0
 54  8  1  0  0  0  0
 55 10  1  0  0  0  0
 56 10  1  0  0  0  0
 60 11  1  0  0  0  0
 61 12  1  0  0  0  0
 63 12  1  0  0  0  0
 64 13  1  0  0  0  0
 65 16  1  0  0  0  0
 68 18  1  0  0  0  0
 69 25  1  0  0  0  0
 72 31  1  0  0  0  0
 73 32  1  0  0  0  0
 76 35  1  0  0  0  0
 78 37  1  0  0  0  0
 79 37  1  0  0  0  0
 80 39  1  0  0  0  0
 83 44  1  0  0  0  0
 85 44  1  0  0  0  0
 86 47  1  0  0  0  0
 87 48  1  0  0  0  0
M  END
