-1 1
 OpenBabel05192410563D

 89 92  0  0  1  0  0  0  0  0999 V2000
   -1.3072    2.3410    2.1101 O   0  0  0  0  0  0  0  0  0  0  0  0
   -1.9120    1.8119    1.1331 C   0  0  0  0  0  0  0  0  0  0  0  0
   -1.6085    0.4160    0.9610 N   0  0  0  0  0  0  0  0  0  0  0  0
   -1.2734   -0.2857   -0.1776 C   0  0  0  0  0  0  0  0  0  0  0  0
   -0.8675   -1.6375   -0.0285 C   0  0  0  0  0  0  0  0  0  0  0  0
   -0.8190   -2.1747    1.2857 N   0  0  0  0  0  0  0  0  0  0  0  0
    0.1506   -3.2215    1.5289 C   0  0  0  0  0  0  0  0  0  0  0  0
    1.5844   -2.8011    1.1657 C   0  0  0  0  0  0  0  0  0  0  0  0
    2.2707   -3.7749    0.3328 N   0  0  0  0  0  0  0  0  0  0  0  0
    3.4076   -3.2069   -0.3519 C   0  0  0  0  0  0  0  0  0  0  0  0
    2.6145   -4.9767    1.0535 C   0  0  0  0  0  0  0  0  0  0  0  0
   -2.1212   -2.4700    1.8654 C   0  0  0  0  0  0  0  0  0  0  0  0
   -0.4683   -2.3789   -1.1445 C   0  0  0  0  0  0  0  0  0  0  0  0
   -0.4464   -1.8118   -2.4167 C   0  0  0  0  0  0  0  0  0  0  0  0
   -0.0247   -2.4651   -3.5340 O   0  0  0  0  0  0  0  0  0  0  0  0
    0.6096   -3.6990   -3.3751 C   0  0  0  0  0  0  0  0  0  0  0  0
   -0.8305   -0.4714   -2.5711 C   0  0  0  0  0  0  0  0  0  0  0  0
   -0.6581    0.1752   -3.8320 N   0  0  0  0  0  0  0  0  0  0  0  0
    0.6140    0.2398   -4.3541 C   0  0  0  0  0  0  0  0  0  0  0  0
    0.8413    0.3153   -5.6453 N   0  0  0  0  0  0  0  0  0  0  0  0
    2.1924    0.3839   -5.7949 N   0  0  0  0  0  0  0  0  0  0  0  0
    2.5826    0.4450   -6.7218 H   0  0  0  0  0  0  0  0  0  0  0  0
    1.8545    0.2548   -3.6103 C   0  0  0  0  0  0  0  0  0  0  0  0
    2.8491    0.3380   -4.6101 C   0  0  0  0  0  0  0  0  0  0  0  0
    4.2176    0.3439   -4.2960 C   0  0  0  0  0  0  0  0  0  0  0  0
    4.5779    0.2738   -2.9544 C   0  0  0  0  0  0  0  0  0  0  0  0
    6.0125    0.2390   -2.5730 C   0  0  0  0  0  0  0  0  0  0  0  0
    6.4716   -0.5695   -1.5249 C   0  0  0  0  0  0  0  0  0  0  0  0
    7.8290   -0.5798   -1.2136 C   0  0  0  0  0  0  0  0  0  0  0  0
    8.7444    0.1427   -1.8575 N   0  0  0  0  0  0  0  0  0  0  0  0
    8.3111    0.9159   -2.8515 C   0  0  0  0  0  0  0  0  0  0  0  0
    6.9775    1.0016   -3.2433 C   0  0  0  0  0  0  0  0  0  0  0  0
    3.5801    0.2202   -1.9462 C   0  0  0  0  0  0  0  0  0  0  0  0
    2.2323    0.2113   -2.2584 C   0  0  0  0  0  0  0  0  0  0  0  0
   -1.2548    0.2644   -1.4683 C   0  0  0  0  0  0  0  0  0  0  0  0
   -2.8837    2.4085    0.3465 C   0  0  0  0  0  3  0  0  0  0  0  0
   -3.9992    1.6910   -0.3016 C   0  0  0  0  0  0  0  0  0  0  0  0
   -5.5249    1.4881    0.7914 S   0  0  0  0  0  0  0  0  0  0  0  0
   -4.8162    0.6076    2.2174 C   0  0  0  0  0  0  0  0  0  0  0  0
   -4.7559    1.3975    3.5222 C   0  0  2  0  0  0  0  0  0  0  0  0
   -5.7341    1.8710    3.7118 H   0  0  0  0  0  0  0  0  0  0  0  0
   -3.7782    2.4670    3.4987 N   0  0  0  0  0  0  0  0  0  0  0  0
   -3.9323    3.5951    4.2128 C   0  0  0  0  0  0  0  0  0  0  0  0
   -2.8990    4.6631    3.9331 C   0  0  0  0  0  0  0  0  0  0  0  0
   -4.8451    3.7642    5.0268 O   0  0  0  0  0  0  0  0  0  0  0  0
   -4.4778    0.4525    4.7117 C   0  0  0  0  0  0  0  0  0  0  0  0
   -4.6923    1.0473    5.9126 N   0  0  0  0  0  0  0  0  0  0  0  0
   -4.3761    0.4051    7.1586 C   0  0  0  0  0  0  0  0  0  0  0  0
   -4.1053   -0.7020    4.5787 O   0  0  0  0  0  0  0  0  0  0  0  0
   -1.1486    0.0486    1.7900 H   0  0  0  0  0  0  0  0  0  0  0  0
   -0.0992   -4.1556    0.9764 H   0  0  0  0  0  0  0  0  0  0  0  0
    0.0802   -3.4777    2.5978 H   0  0  0  0  0  0  0  0  0  0  0  0
    2.1652   -2.5834    2.0901 H   0  0  0  0  0  0  0  0  0  0  0  0
    1.5340   -1.8563    0.6073 H   0  0  0  0  0  0  0  0  0  0  0  0
    3.0911   -2.3557   -0.9732 H   0  0  0  0  0  0  0  0  0  0  0  0
    3.8637   -3.9581   -1.0159 H   0  0  0  0  0  0  0  0  0  0  0  0
    4.2024   -2.8487    0.3445 H   0  0  0  0  0  0  0  0  0  0  0  0
    1.7197   -5.4193    1.5161 H   0  0  0  0  0  0  0  0  0  0  0  0
    3.3585   -4.7968    1.8646 H   0  0  0  0  0  0  0  0  0  0  0  0
    3.0387   -5.7259    0.3669 H   0  0  0  0  0  0  0  0  0  0  0  0
   -2.8296   -1.6648    1.6388 H   0  0  0  0  0  0  0  0  0  0  0  0
   -2.0503   -2.5383    2.9613 H   0  0  0  0  0  0  0  0  0  0  0  0
   -2.5400   -3.4205    1.4741 H   0  0  0  0  0  0  0  0  0  0  0  0
   -0.1222   -3.4006   -0.9975 H   0  0  0  0  0  0  0  0  0  0  0  0
    1.0025   -3.9838   -4.3600 H   0  0  0  0  0  0  0  0  0  0  0  0
   -0.0903   -4.4837   -3.0330 H   0  0  0  0  0  0  0  0  0  0  0  0
    1.4425   -3.6450   -2.6516 H   0  0  0  0  0  0  0  0  0  0  0  0
   -1.3628   -0.0148   -4.5358 H   0  0  0  0  0  0  0  0  0  0  0  0
    4.9761    0.3667   -5.0813 H   0  0  0  0  0  0  0  0  0  0  0  0
    5.7786   -1.2025   -0.9672 H   0  0  0  0  0  0  0  0  0  0  0  0
    8.1940   -1.2148   -0.3984 H   0  0  0  0  0  0  0  0  0  0  0  0
    9.0694    1.5144   -3.3695 H   0  0  0  0  0  0  0  0  0  0  0  0
    6.6882    1.6767   -4.0512 H   0  0  0  0  0  0  0  0  0  0  0  0
    3.8844    0.2105   -0.8979 H   0  0  0  0  0  0  0  0  0  0  0  0
    1.4807    0.1804   -1.4679 H   0  0  0  0  0  0  0  0  0  0  0  0
   -1.5086    1.3180   -1.5942 H   0  0  0  0  0  0  0  0  0  0  0  0
   -3.0406    3.4708    0.5537 H   0  0  0  0  0  0  0  0  0  0  0  0
   -3.7411    0.6765   -0.6361 H   0  0  0  0  0  0  0  0  0  0  0  0
   -4.4225    2.2224   -1.1691 H   0  0  0  0  0  0  0  0  0  0  0  0
   -3.8097    0.2669    1.9403 H   0  0  0  0  0  0  0  0  0  0  0  0
   -5.4168   -0.2940    2.3947 H   0  0  0  0  0  0  0  0  0  0  0  0
   -2.8948    2.3629    2.9688 H   0  0  0  0  0  0  0  0  0  0  0  0
   -2.0915    4.2841    3.2900 H   0  0  0  0  0  0  0  0  0  0  0  0
   -2.5026    5.0403    4.8862 H   0  0  0  0  0  0  0  0  0  0  0  0
   -3.4057    5.4999    3.4291 H   0  0  0  0  0  0  0  0  0  0  0  0
   -4.9272    2.0445    5.8875 H   0  0  0  0  0  0  0  0  0  0  0  0
   -3.5220    0.8870    7.6645 H   0  0  0  0  0  0  0  0  0  0  0  0
   -4.1110   -0.6389    6.9458 H   0  0  0  0  0  0  0  0  0  0  0  0
   -5.2363    0.4197    7.8478 H   0  0  0  0  0  0  0  0  0  0  0  0
  2  1  2  0  0  0  0
  3  2  1  0  0  0  0
  3 50  1  0  0  0  0
  4  5  1  0  0  0  0
  4  3  1  0  0  0  0
  5  6  1  0  0  0  0
  6  7  1  0  0  0  0
  6 12  1  0  0  0  0
  7 52  1  0  0  0  0
  8  7  1  0  0  0  0
  8 53  1  0  0  0  0
  9 11  1  0  0  0  0
  9  8  1  0  0  0  0
 10  9  1  0  0  0  0
 10 57  1  0  0  0  0
 11 58  1  0  0  0  0
 11 59  1  0  0  0  0
 12 62  1  0  0  0  0
 13 64  1  0  0  0  0
 13  5  2  0  0  0  0
 14 13  1  0  0  0  0
 15 16  1  0  0  0  0
 15 14  1  0  0  0  0
 16 66  1  0  0  0  0
 16 67  1  0  0  0  0
 17 14  2  0  0  0  0
 17 35  1  0  0  0  0
 18 17  1  0  0  0  0
 19 18  1  0  0  0  0
 19 23  1  0  0  0  0
 20 19  2  0  0  0  0
 21 20  1  0  0  0  0
 21 24  1  0  0  0  0
 22 21  1  0  0  0  0
 23 34  1  0  0  0  0
 24 25  1  0  0  0  0
 24 23  2  0  0  0  0
 25 26  2  0  0  0  0
 26 27  1  0  0  0  0
 26 33  1  0  0  0  0
 27 28  1  0  0  0  0
 28 29  2  0  0  0  0
 28 70  1  0  0  0  0
 29 71  1  0  0  0  0
 30 29  1  0  0  0  0
 31 30  2  0  0  0  0
 32 31  1  0  0  0  0
 32 27  2  0  0  0  0
 33 74  1  0  0  0  0
 34 33  2  0  0  0  0
 34 75  1  0  0  0  0
 35  4  2  0  0  0  0
 36 77  1  0  0  0  0
 36  2  1  0  0  0  0
 37 36  1  0  0  0  0
 37 38  1  0  0  0  0
 38 39  1  0  0  0  0
 39 81  1  0  0  0  0
 39 40  1  0  0  0  0
 40 41  1  1  0  0  0
 40 46  1  0  0  0  0
 42 40  1  0  0  0  0
 42 43  1  0  0  0  0
 43 45  2  0  0  0  0
 44 43  1  0  0  0  0
 44 84  1  0  0  0  0
 46 47  1  0  0  0  0
 47 48  1  0  0  0  0
 48 87  1  0  0  0  0
 48 89  1  0  0  0  0
 49 46  2  0  0  0  0
 51  7  1  0  0  0  0
 54  8  1  0  0  0  0
 55 10  1  0  0  0  0
 56 10  1  0  0  0  0
 60 11  1  0  0  0  0
 61 12  1  0  0  0  0
 63 12  1  0  0  0  0
 65 16  1  0  0  0  0
 68 18  1  0  0  0  0
 69 25  1  0  0  0  0
 72 31  1  0  0  0  0
 73 32  1  0  0  0  0
 76 35  1  0  0  0  0
 78 37  1  0  0  0  0
 79 37  1  0  0  0  0
 80 39  1  0  0  0  0
 82 42  1  0  0  0  0
 83 44  1  0  0  0  0
 85 44  1  0  0  0  0
 86 47  1  0  0  0  0
 88 48  1  0  0  0  0
M  END
