-1 1
 OpenBabel05232413483D

 93 95  0  0  1  0  0  0  0  0999 V2000
   -0.2145   -0.5476    6.9449 O   0  0  0  0  0  0  0  0  0  0  0  0
   -0.2215   -0.7094    5.7383 C   0  0  0  0  0  0  0  0  0  0  0  0
    0.3351   -1.8644    5.2166 N   0  0  0  0  0  0  0  0  0  0  0  0
    0.9638   -2.2132    4.0163 C   0  0  0  0  0  0  0  0  0  0  0  0
    1.6787   -3.4328    4.0469 C   0  0  0  0  0  0  0  0  0  0  0  0
    1.7301   -4.1685    5.2698 N   0  0  0  0  0  0  0  0  0  0  0  0
    2.9113   -3.9403    6.0877 C   0  0  0  0  0  0  0  0  0  0  0  0
    4.2732   -4.2273    5.4487 C   0  0  0  0  0  0  0  0  0  0  0  0
    4.4536   -5.5802    4.9553 N   0  0  0  0  0  0  0  0  0  0  0  0
    5.5822   -5.6848    4.0618 C   0  0  0  0  0  0  0  0  0  0  0  0
    4.5032   -6.5727    6.0019 C   0  0  0  0  0  0  0  0  0  0  0  0
    1.2271   -5.5258    5.2080 C   0  0  0  0  0  0  0  0  0  0  0  0
    2.3259   -3.8703    2.8878 C   0  0  0  0  0  0  0  0  0  0  0  0
    2.2916   -3.1235    1.7238 C   0  0  0  0  0  0  0  0  0  0  0  0
    2.9352   -3.5450    0.5795 O   0  0  0  0  0  0  0  0  0  0  0  0
    4.3028   -3.2170    0.5389 C   0  0  0  0  0  0  0  0  0  0  0  0
    1.5982   -1.8949    1.6886 C   0  0  0  0  0  0  0  0  0  0  0  0
    1.6153   -1.2055    0.4918 N   0  0  0  0  0  0  0  0  0  0  0  0
    0.9322   -0.0515    0.1401 C   0  0  0  0  0  0  0  0  0  0  0  0
    0.0697    0.5628    0.9186 N   0  0  0  0  0  0  0  0  0  0  0  0
   -0.3816    1.6417    0.2527 N   0  0  0  0  0  0  0  0  0  0  0  0
   -1.2690    2.1041    0.6007 H   0  0  0  0  0  0  0  0  0  0  0  0
    1.0540    0.6290   -1.1161 C   0  0  0  0  0  0  0  0  0  0  0  0
    0.1502    1.7078   -0.9861 C   0  0  0  0  0  0  0  0  0  0  0  0
   -0.0781    2.6154   -2.0331 C   0  0  0  0  0  0  0  0  0  0  0  0
    0.6202    2.4305   -3.2148 C   0  0  0  0  0  0  0  0  0  0  0  0
    0.3387    3.3096   -4.3801 C   0  0  0  0  0  0  0  0  0  0  0  0
   -0.9758    3.7171   -4.6456 C   0  0  0  0  0  0  0  0  0  0  0  0
   -1.2531    4.5043   -5.7637 C   0  0  0  0  0  0  0  0  0  0  0  0
   -2.6874    4.8779   -6.0355 C   0  0  0  0  0  0  0  0  0  0  0  0
   -3.2389    5.5274   -5.0094 F   0  0  0  0  0  0  0  0  0  0  0  0
   -2.8080    5.6695   -7.1140 F   0  0  0  0  0  0  0  0  0  0  0  0
   -3.4427    3.7949   -6.2662 F   0  0  0  0  0  0  0  0  0  0  0  0
   -0.2344    4.9109   -6.6245 C   0  0  0  0  0  0  0  0  0  0  0  0
    1.0756    4.5195   -6.3567 C   0  0  0  0  0  0  0  0  0  0  0  0
    1.3579    3.7249   -5.2495 C   0  0  0  0  0  0  0  0  0  0  0  0
    1.5553    1.3603   -3.3412 C   0  0  0  0  0  0  0  0  0  0  0  0
    1.7731    0.4640   -2.3134 C   0  0  0  0  0  0  0  0  0  0  0  0
    0.9444   -1.4489    2.8443 C   0  0  0  0  0  0  0  0  0  0  0  0
   -0.9075    0.2727    4.8530 C   0  0  0  0  0  0  0  0  0  0  0  0
   -1.7769   -0.0655    3.8997 C   0  0  0  0  0  0  0  0  0  0  0  0
   -3.2000    2.4395    1.3358 S   0  0  0  0  0  1  0  0  0  0  0  0
   -4.3374    1.8757    0.0140 C   0  0  0  0  0  0  0  0  0  0  0  0
   -3.8350    0.7237   -0.8834 C   0  0  2  0  0  0  0  0  0  0  0  0
   -4.7033    0.1295   -1.2231 H   0  0  0  0  0  0  0  0  0  0  0  0
   -2.9775   -0.1630   -0.1201 N   0  0  0  0  0  0  0  0  0  0  0  0
   -2.7410   -1.4557   -0.3846 C   0  0  0  0  0  0  0  0  0  0  0  0
   -1.8988   -2.1969    0.6290 C   0  0  0  0  0  0  0  0  0  0  0  0
   -3.1626   -2.0307   -1.3925 O   0  0  0  0  0  0  0  0  0  0  0  0
   -3.1756    1.2187   -2.1958 C   0  0  0  0  0  0  0  0  0  0  0  0
   -2.7615    0.2155   -2.9981 N   0  0  0  0  0  0  0  0  0  0  0  0
   -2.1894    0.4440   -4.2994 C   0  0  0  0  0  0  0  0  0  0  0  0
   -3.1051    2.3996   -2.5088 O   0  0  0  0  0  0  0  0  0  0  0  0
    0.5589   -2.5426    5.9439 H   0  0  0  0  0  0  0  0  0  0  0  0
    2.7892   -4.5156    7.0206 H   0  0  0  0  0  0  0  0  0  0  0  0
    2.9270   -2.8786    6.3917 H   0  0  0  0  0  0  0  0  0  0  0  0
    5.0649   -3.9518    6.1865 H   0  0  0  0  0  0  0  0  0  0  0  0
    4.3961   -3.5419    4.5957 H   0  0  0  0  0  0  0  0  0  0  0  0
    5.4642   -4.9837    3.2214 H   0  0  0  0  0  0  0  0  0  0  0  0
    5.6445   -6.7018    3.6450 H   0  0  0  0  0  0  0  0  0  0  0  0
    6.5550   -5.4601    4.5568 H   0  0  0  0  0  0  0  0  0  0  0  0
    4.5773   -7.5794    5.5631 H   0  0  0  0  0  0  0  0  0  0  0  0
    3.5876   -6.5476    6.6093 H   0  0  0  0  0  0  0  0  0  0  0  0
    5.3704   -6.4343    6.6883 H   0  0  0  0  0  0  0  0  0  0  0  0
    0.2313   -5.5200    4.7410 H   0  0  0  0  0  0  0  0  0  0  0  0
    1.1142   -5.9227    6.2306 H   0  0  0  0  0  0  0  0  0  0  0  0
    1.8761   -6.2199    4.6415 H   0  0  0  0  0  0  0  0  0  0  0  0
    2.8781   -4.8127    2.9070 H   0  0  0  0  0  0  0  0  0  0  0  0
    4.8603   -3.7071    1.3571 H   0  0  0  0  0  0  0  0  0  0  0  0
    4.4616   -2.1262    0.6165 H   0  0  0  0  0  0  0  0  0  0  0  0
    4.7009   -3.5718   -0.4219 H   0  0  0  0  0  0  0  0  0  0  0  0
    2.0254   -1.7259   -0.2723 H   0  0  0  0  0  0  0  0  0  0  0  0
   -0.8095    3.4145   -1.9145 H   0  0  0  0  0  0  0  0  0  0  0  0
   -1.7883    3.3862   -3.9863 H   0  0  0  0  0  0  0  0  0  0  0  0
   -0.4648    5.5267   -7.4945 H   0  0  0  0  0  0  0  0  0  0  0  0
    1.8843    4.8403   -7.0174 H   0  0  0  0  0  0  0  0  0  0  0  0
    2.3901    3.4324   -5.0428 H   0  0  0  0  0  0  0  0  0  0  0  0
    2.0781    1.2249   -4.2907 H   0  0  0  0  0  0  0  0  0  0  0  0
    2.4804   -0.3597   -2.4424 H   0  0  0  0  0  0  0  0  0  0  0  0
    0.4119   -0.5054    2.7958 H   0  0  0  0  0  0  0  0  0  0  0  0
   -0.7747    1.3177    5.1462 H   0  0  0  0  0  0  0  0  0  0  0  0
   -2.3449    0.6825    3.3306 H   0  0  0  0  0  0  0  0  0  0  0  0
   -1.9364   -1.1189    3.6459 H   0  0  0  0  0  0  0  0  0  0  0  0
   -4.5804    2.7142   -0.6517 H   0  0  0  0  0  0  0  0  0  0  0  0
   -5.2725    1.5432    0.4900 H   0  0  0  0  0  0  0  0  0  0  0  0
   -2.6170    0.2896    0.7305 H   0  0  0  0  0  0  0  0  0  0  0  0
   -1.0191   -2.6105    0.1157 H   0  0  0  0  0  0  0  0  0  0  0  0
   -2.4806   -3.0426    1.0230 H   0  0  0  0  0  0  0  0  0  0  0  0
   -1.5540   -1.5590    1.4503 H   0  0  0  0  0  0  0  0  0  0  0  0
   -2.9033   -0.7412   -2.6584 H   0  0  0  0  0  0  0  0  0  0  0  0
   -2.6756    1.3029   -4.7847 H   0  0  0  0  0  0  0  0  0  0  0  0
   -2.3433   -0.4470   -4.9242 H   0  0  0  0  0  0  0  0  0  0  0  0
   -1.1075    0.6497   -4.2500 H   0  0  0  0  0  0  0  0  0  0  0  0
  2  1  2  0  0  0  0
  3  2  1  0  0  0  0
  3 54  1  0  0  0  0
  4  5  1  0  0  0  0
  4  3  1  0  0  0  0
  5  6  1  0  0  0  0
  6  7  1  0  0  0  0
  7 56  1  0  0  0  0
  7 55  1  0  0  0  0
  8  7  1  0  0  0  0
  8 57  1  0  0  0  0
  9  8  1  0  0  0  0
  9 11  1  0  0  0  0
 10 61  1  0  0  0  0
 10  9  1  0  0  0  0
 11 63  1  0  0  0  0
 11 64  1  0  0  0  0
 12  6  1  0  0  0  0
 12 66  1  0  0  0  0
 13 68  1  0  0  0  0
 13  5  2  0  0  0  0
 14 13  1  0  0  0  0
 15 14  1  0  0  0  0
 16 15  1  0  0  0  0
 16 70  1  0  0  0  0
 16 69  1  0  0  0  0
 17 14  2  0  0  0  0
 17 39  1  0  0  0  0
 18 17  1  0  0  0  0
 19 18  1  0  0  0  0
 19 20  2  0  0  0  0
 21 22  1  0  0  0  0
 21 20  1  0  0  0  0
 23 24  1  0  0  0  0
 23 19  1  0  0  0  0
 24 21  1  0  0  0  0
 25 73  1  0  0  0  0
 25 24  2  0  0  0  0
 26 25  1  0  0  0  0
 27 26  1  0  0  0  0
 28 27  1  0  0  0  0
 28 74  1  0  0  0  0
 29 28  2  0  0  0  0
 30 29  1  0  0  0  0
 30 31  1  0  0  0  0
 32 30  1  0  0  0  0
 33 30  1  0  0  0  0
 34 35  2  0  0  0  0
 34 29  1  0  0  0  0
 35 36  1  0  0  0  0
 36 77  1  0  0  0  0
 36 27  2  0  0  0  0
 37 26  2  0  0  0  0
 37 38  1  0  0  0  0
 38 23  2  0  0  0  0
 39  4  2  0  0  0  0
 40 81  1  0  0  0  0
 40  2  1  0  0  0  0
 41 40  2  0  0  0  0
 43 85  1  0  0  0  0
 43 42  1  0  0  0  0
 44 45  1  6  0  0  0
 44 46  1  0  0  0  0
 44 43  1  0  0  0  0
 46 86  1  0  0  0  0
 47 46  1  0  0  0  0
 47 48  1  0  0  0  0
 48 88  1  0  0  0  0
 48 89  1  0  0  0  0
 49 47  2  0  0  0  0
 50 44  1  0  0  0  0
 51 90  1  0  0  0  0
 51 50  1  0  0  0  0
 52 93  1  0  0  0  0
 52 51  1  0  0  0  0
 53 50  2  0  0  0  0
 58  8  1  0  0  0  0
 59 10  1  0  0  0  0
 60 10  1  0  0  0  0
 62 11  1  0  0  0  0
 65 12  1  0  0  0  0
 67 12  1  0  0  0  0
 71 16  1  0  0  0  0
 72 18  1  0  0  0  0
 75 34  1  0  0  0  0
 76 35  1  0  0  0  0
 78 37  1  0  0  0  0
 79 38  1  0  0  0  0
 80 39  1  0  0  0  0
 82 41  1  0  0  0  0
 83 41  1  0  0  0  0
 84 43  1  0  0  0  0
 87 48  1  0  0  0  0
 91 52  1  0  0  0  0
 92 52  1  0  0  0  0
M  END
