-1 1
 OpenBabel05192410563D

 76 78  0  0  1  0  0  0  0  0999 V2000
   -2.7978    2.5161    2.2136 O   0  0  0  0  0  0  0  0  0  0  0  0
   -1.7917    1.8759    1.8837 C   0  0  0  0  0  0  0  0  0  0  0  0
   -1.9732    0.4200    1.7362 N   0  0  0  0  0  0  0  0  0  0  0  0
   -2.1578   -0.1833    0.5151 C   0  0  0  0  0  0  0  0  0  0  0  0
   -2.5953   -1.5368    0.4827 C   0  0  0  0  0  0  0  0  0  0  0  0
   -2.7544   -2.1981    1.7350 N   0  0  0  0  0  0  0  0  0  0  0  0
   -1.4742   -2.5473    2.3516 C   0  0  0  0  0  0  0  0  0  0  0  0
   -1.5081   -2.4167    3.8696 C   0  0  0  0  0  0  0  0  0  0  0  0
   -0.2340   -2.6882    4.5124 N   0  0  0  0  0  0  0  0  0  0  0  0
   -0.2630   -2.3240    5.9077 C   0  0  0  0  0  0  0  0  0  0  0  0
    0.2381   -4.0413    4.3086 C   0  0  0  0  0  0  0  0  0  0  0  0
   -3.7272   -3.2594    1.7800 C   0  0  0  0  0  0  0  0  0  0  0  0
   -2.7851   -2.1536   -0.7490 C   0  0  0  0  0  0  0  0  0  0  0  0
   -2.5079   -1.4958   -1.9497 C   0  0  0  0  0  0  0  0  0  0  0  0
   -1.9989   -0.1938   -1.9139 C   0  0  0  0  0  0  0  0  0  0  0  0
   -1.5901    0.4063   -3.1324 N   0  0  0  0  0  0  0  0  0  0  0  0
   -0.6423    1.4282   -3.1529 C   0  0  0  0  0  0  0  0  0  0  0  0
    0.5659    1.2274   -3.6351 N   0  0  0  0  0  0  0  0  0  0  0  0
    1.2147    2.4121   -3.5671 N   0  0  0  0  0  0  0  0  0  0  0  0
    2.2125    2.4267   -3.7172 H   0  0  0  0  0  0  0  0  0  0  0  0
   -0.7955    2.7873   -2.7145 C   0  0  0  0  0  0  0  0  0  0  0  0
    0.4573    3.3745   -2.9725 C   0  0  0  0  0  0  0  0  0  0  0  0
    0.7353    4.7091   -2.6341 C   0  0  0  0  0  0  0  0  0  0  0  0
   -0.2837    5.4263   -2.0346 C   0  0  0  0  0  0  0  0  0  0  0  0
   -1.5510    4.8531   -1.7775 C   0  0  0  0  0  0  0  0  0  0  0  0
   -1.8188    3.5401   -2.1137 C   0  0  0  0  0  0  0  0  0  0  0  0
   -1.8593    0.4624   -0.6918 C   0  0  0  0  0  0  0  0  0  0  0  0
   -0.4873    2.3340    1.6784 C   0  0  0  0  0  3  0  0  0  0  0  0
    0.7002    1.4915    1.5596 C   0  0  0  0  0  0  0  0  0  0  0  0
    1.4950    1.2290   -0.1984 S   0  0  0  0  0  0  0  0  0  0  0  0
    1.1231   -0.5065   -0.5931 C   0  0  0  0  0  0  0  0  0  0  0  0
    2.3617   -1.4054   -0.6006 C   0  0  2  0  0  0  0  0  0  0  0  0
    2.0474   -2.4156   -0.9143 H   0  0  0  0  0  0  0  0  0  0  0  0
    2.9170   -1.5336    0.7217 N   0  0  0  0  0  0  0  0  0  0  0  0
    2.4363   -2.4300    1.6153 C   0  0  0  0  0  0  0  0  0  0  0  0
    2.8942   -2.2480    3.0449 C   0  0  0  0  0  0  0  0  0  0  0  0
    1.6552   -3.3187    1.3030 O   0  0  0  0  0  0  0  0  0  0  0  0
    3.4498   -0.9360   -1.5731 C   0  0  0  0  0  0  0  0  0  0  0  0
    2.9986   -0.4944   -2.7774 N   0  0  0  0  0  0  0  0  0  0  0  0
    3.9225    0.0572   -3.7332 C   0  0  0  0  0  0  0  0  0  0  0  0
    4.6360   -0.9908   -1.3026 O   0  0  0  0  0  0  0  0  0  0  0  0
   -2.6321    0.0562    2.4210 H   0  0  0  0  0  0  0  0  0  0  0  0
   -0.7010   -1.8646    1.9782 H   0  0  0  0  0  0  0  0  0  0  0  0
   -1.1640   -3.5628    2.0363 H   0  0  0  0  0  0  0  0  0  0  0  0
   -2.3064   -3.0717    4.2959 H   0  0  0  0  0  0  0  0  0  0  0  0
   -1.7934   -1.3787    4.0990 H   0  0  0  0  0  0  0  0  0  0  0  0
   -0.5568   -1.2692    6.0173 H   0  0  0  0  0  0  0  0  0  0  0  0
    0.7372   -2.4449    6.3531 H   0  0  0  0  0  0  0  0  0  0  0  0
   -0.9772   -2.9386    6.5057 H   0  0  0  0  0  0  0  0  0  0  0  0
    0.5015   -4.2052    3.2538 H   0  0  0  0  0  0  0  0  0  0  0  0
   -0.5061   -4.8075    4.6298 H   0  0  0  0  0  0  0  0  0  0  0  0
    1.1547   -4.2006    4.8975 H   0  0  0  0  0  0  0  0  0  0  0  0
   -4.6731   -2.9187    1.3343 H   0  0  0  0  0  0  0  0  0  0  0  0
   -3.9291   -3.5445    2.8242 H   0  0  0  0  0  0  0  0  0  0  0  0
   -3.4064   -4.1832    1.2478 H   0  0  0  0  0  0  0  0  0  0  0  0
   -3.1266   -3.1906   -0.7837 H   0  0  0  0  0  0  0  0  0  0  0  0
   -2.6377   -2.0133   -2.9040 H   0  0  0  0  0  0  0  0  0  0  0  0
   -1.3918   -0.2880   -3.8432 H   0  0  0  0  0  0  0  0  0  0  0  0
    1.7164    5.1518   -2.8151 H   0  0  0  0  0  0  0  0  0  0  0  0
   -0.1017    6.4619   -1.7371 H   0  0  0  0  0  0  0  0  0  0  0  0
   -2.3176    5.4508   -1.2817 H   0  0  0  0  0  0  0  0  0  0  0  0
   -2.7836    3.0841   -1.8867 H   0  0  0  0  0  0  0  0  0  0  0  0
   -1.4411    1.4647   -0.6262 H   0  0  0  0  0  0  0  0  0  0  0  0
   -0.3534    3.4174    1.7432 H   0  0  0  0  0  0  0  0  0  0  0  0
    0.5307    0.4599    1.9029 H   0  0  0  0  0  0  0  0  0  0  0  0
    1.5680    1.9048    2.0951 H   0  0  0  0  0  0  0  0  0  0  0  0
    0.5960   -0.5621   -1.5559 H   0  0  0  0  0  0  0  0  0  0  0  0
    0.4140   -0.9005    0.1475 H   0  0  0  0  0  0  0  0  0  0  0  0
    3.5278   -0.7875    1.0280 H   0  0  0  0  0  0  0  0  0  0  0  0
    3.6781   -1.4874    3.1621 H   0  0  0  0  0  0  0  0  0  0  0  0
    3.2521   -3.2123    3.4310 H   0  0  0  0  0  0  0  0  0  0  0  0
    2.0049   -1.9625    3.6314 H   0  0  0  0  0  0  0  0  0  0  0  0
    2.0195   -0.2436   -2.9029 H   0  0  0  0  0  0  0  0  0  0  0  0
    4.3748    1.0016   -3.3782 H   0  0  0  0  0  0  0  0  0  0  0  0
    3.3882    0.2433   -4.6756 H   0  0  0  0  0  0  0  0  0  0  0  0
    4.7493   -0.6424   -3.9233 H   0  0  0  0  0  0  0  0  0  0  0  0
  2  1  2  0  0  0  0
  3  2  1  0  0  0  0
  3 42  1  0  0  0  0
  4  3  1  0  0  0  0
  5  4  1  0  0  0  0
  5  6  1  0  0  0  0
  6 12  1  0  0  0  0
  6  7  1  0  0  0  0
  7  8  1  0  0  0  0
  8 46  1  0  0  0  0
  8 45  1  0  0  0  0
  8  9  1  0  0  0  0
  9 10  1  0  0  0  0
 10 47  1  0  0  0  0
 10 48  1  0  0  0  0
 10 49  1  0  0  0  0
 11  9  1  0  0  0  0
 11 51  1  0  0  0  0
 11 52  1  0  0  0  0
 12 54  1  0  0  0  0
 13  5  2  0  0  0  0
 14 15  2  0  0  0  0
 14 13  1  0  0  0  0
 15 27  1  0  0  0  0
 16 15  1  0  0  0  0
 17 16  1  0  0  0  0
 17 21  1  0  0  0  0
 18 19  1  0  0  0  0
 18 17  2  0  0  0  0
 19 22  1  0  0  0  0
 20 19  1  0  0  0  0
 21 26  1  0  0  0  0
 22 21  2  0  0  0  0
 22 23  1  0  0  0  0
 23 24  2  0  0  0  0
 24 25  1  0  0  0  0
 24 60  1  0  0  0  0
 25 61  1  0  0  0  0
 26 62  1  0  0  0  0
 26 25  2  0  0  0  0
 27 63  1  0  0  0  0
 27  4  2  0  0  0  0
 28 64  1  0  0  0  0
 28  2  1  0  0  0  0
 29 28  1  0  0  0  0
 29 65  1  0  0  0  0
 29 66  1  0  0  0  0
 30 29  1  0  0  0  0
 31 30  1  0  0  0  0
 31 68  1  0  0  0  0
 32 33  1  6  0  0  0
 32 31  1  0  0  0  0
 32 34  1  0  0  0  0
 34 69  1  0  0  0  0
 34 35  1  0  0  0  0
 35 36  1  0  0  0  0
 36 70  1  0  0  0  0
 36 71  1  0  0  0  0
 36 72  1  0  0  0  0
 37 35  2  0  0  0  0
 38 41  2  0  0  0  0
 38 32  1  0  0  0  0
 39 38  1  0  0  0  0
 40 74  1  0  0  0  0
 40 39  1  0  0  0  0
 43  7  1  0  0  0  0
 44  7  1  0  0  0  0
 50 11  1  0  0  0  0
 53 12  1  0  0  0  0
 55 12  1  0  0  0  0
 56 13  1  0  0  0  0
 57 14  1  0  0  0  0
 58 16  1  0  0  0  0
 59 23  1  0  0  0  0
 67 31  1  0  0  0  0
 73 39  1  0  0  0  0
 75 40  1  0  0  0  0
 76 40  1  0  0  0  0
M  END
