-1 1
 OpenBabel05232413483D

 90 92  0  0  1  0  0  0  0  0999 V2000
   -4.3749    4.1781   -0.6602 O   0  0  0  0  0  0  0  0  0  0  0  0
   -3.5599    3.2700   -0.5721 C   0  0  0  0  0  0  0  0  0  0  0  0
   -3.8294    2.0523   -1.1492 N   0  0  0  0  0  0  0  0  0  0  0  0
   -3.1361    0.8245   -1.0233 C   0  0  0  0  0  0  0  0  0  0  0  0
   -3.7650   -0.2397   -0.3558 C   0  0  0  0  0  0  0  0  0  0  0  0
   -4.9920    0.0069    0.3001 N   0  0  0  0  0  0  0  0  0  0  0  0
   -4.8588    0.8853    1.4631 C   0  0  0  0  0  0  0  0  0  0  0  0
   -5.9109    1.9857    1.5503 C   0  0  0  0  0  0  0  0  0  0  0  0
   -5.6178    2.8885    2.6487 N   0  0  0  0  0  0  0  0  0  0  0  0
   -6.0853    2.4172    3.9266 C   0  0  0  0  0  0  0  0  0  0  0  0
   -5.9731    4.2645    2.3872 C   0  0  0  0  0  0  0  0  0  0  0  0
   -5.8688   -1.1162    0.5154 C   0  0  0  0  0  0  0  0  0  0  0  0
   -3.1316   -1.4863   -0.3258 C   0  0  0  0  0  0  0  0  0  0  0  0
   -1.8577   -1.6589   -0.8626 C   0  0  0  0  0  0  0  0  0  0  0  0
   -1.1645   -2.8141   -0.7695 O   0  0  0  0  0  0  0  0  0  0  0  0
   -1.7163   -3.8976   -0.0867 C   0  0  0  0  0  0  0  0  0  0  0  0
   -1.2058   -0.5827   -1.5016 C   0  0  0  0  0  0  0  0  0  0  0  0
    0.1133   -0.7001   -1.9875 N   0  0  0  0  0  0  0  0  0  0  0  0
    0.5652   -1.7617   -2.7337 C   0  0  0  0  0  0  0  0  0  0  0  0
   -0.1788   -2.4460   -3.5703 N   0  0  0  0  0  0  0  0  0  0  0  0
    0.6249   -3.4227   -4.0783 N   0  0  0  0  0  0  0  0  0  0  0  0
    0.2427   -4.0706   -4.7483 H   0  0  0  0  0  0  0  0  0  0  0  0
    1.9105   -2.2793   -2.6948 C   0  0  0  0  0  0  0  0  0  0  0  0
    1.8901   -3.3663   -3.5902 C   0  0  0  0  0  0  0  0  0  0  0  0
    3.0405   -4.1505   -3.7848 C   0  0  0  0  0  0  0  0  0  0  0  0
    4.1720   -3.8102   -3.0635 C   0  0  0  0  0  0  0  0  0  0  0  0
    4.2163   -2.7116   -2.1620 C   0  0  0  0  0  0  0  0  0  0  0  0
    5.4568   -2.3866   -1.4046 C   0  0  0  0  0  0  0  0  0  0  0  0
    5.3962   -1.6746   -0.1935 C   0  0  0  0  0  0  0  0  0  0  0  0
    6.5465   -1.3634    0.5248 C   0  0  0  0  0  0  0  0  0  0  0  0
    7.7808   -1.7692    0.0348 C   0  0  0  0  0  0  0  0  0  0  0  0
    8.8916   -1.4802    0.7236 F   0  0  0  0  0  0  0  0  0  0  0  0
    7.8857   -2.4646   -1.1615 C   0  0  0  0  0  0  0  0  0  0  0  0
    6.7251   -2.7621   -1.8724 C   0  0  0  0  0  0  0  0  0  0  0  0
    3.0668   -1.9456   -1.9845 C   0  0  0  0  0  0  0  0  0  0  0  0
   -1.8772    0.6322   -1.5935 C   0  0  0  0  0  0  0  0  0  0  0  0
   -2.2739    3.3871    0.1602 C   0  0  0  0  0  0  0  0  0  0  0  0
   -1.8461    4.5525    0.6502 C   0  0  0  0  0  0  0  0  0  0  0  0
    1.5479    4.3001    2.3014 S   0  0  0  0  0  1  0  0  0  0  0  0
    2.0058    2.6724    1.6180 C   0  0  0  0  0  0  0  0  0  0  0  0
    0.7830    1.7477    1.3447 C   0  0  2  0  0  0  0  0  0  0  0  0
    0.2869    2.1254    0.4301 H   0  0  0  0  0  0  0  0  0  0  0  0
   -0.1170    1.8959    2.4745 N   0  0  0  0  0  0  0  0  0  0  0  0
   -1.3052    1.3332    2.7243 C   0  0  0  0  0  0  0  0  0  0  0  0
   -2.1604    2.0471    3.7480 C   0  0  0  0  0  0  0  0  0  0  0  0
   -1.7188    0.3004    2.1802 O   0  0  0  0  0  0  0  0  0  0  0  0
    1.2879    0.3565    0.9760 C   0  0  0  0  0  0  0  0  0  0  0  0
    0.7563   -0.7164    1.5836 N   0  0  0  0  0  0  0  0  0  0  0  0
    1.2174   -2.0419    1.2454 C   0  0  0  0  0  0  0  0  0  0  0  0
    2.1743    0.2560    0.1219 O   0  0  0  0  0  0  0  0  0  0  0  0
   -4.7976    1.9711   -1.4457 H   0  0  0  0  0  0  0  0  0  0  0  0
   -3.8732    1.3603    1.4334 H   0  0  0  0  0  0  0  0  0  0  0  0
   -4.8445    0.2737    2.3867 H   0  0  0  0  0  0  0  0  0  0  0  0
   -6.9373    1.5585    1.6281 H   0  0  0  0  0  0  0  0  0  0  0  0
   -5.8826    2.5617    0.6152 H   0  0  0  0  0  0  0  0  0  0  0  0
   -7.1986    2.4036    4.0050 H   0  0  0  0  0  0  0  0  0  0  0  0
   -5.6995    3.0598    4.7336 H   0  0  0  0  0  0  0  0  0  0  0  0
   -5.7239    1.3961    4.1198 H   0  0  0  0  0  0  0  0  0  0  0  0
   -5.5156    4.5921    1.4422 H   0  0  0  0  0  0  0  0  0  0  0  0
   -5.5898    4.9070    3.1955 H   0  0  0  0  0  0  0  0  0  0  0  0
   -7.0745    4.4257    2.3224 H   0  0  0  0  0  0  0  0  0  0  0  0
   -6.8600   -0.7524    0.8261 H   0  0  0  0  0  0  0  0  0  0  0  0
   -5.5139   -1.8136    1.3051 H   0  0  0  0  0  0  0  0  0  0  0  0
   -5.9964   -1.6862   -0.4167 H   0  0  0  0  0  0  0  0  0  0  0  0
   -3.6066   -2.3029    0.2139 H   0  0  0  0  0  0  0  0  0  0  0  0
   -0.9722   -4.7033   -0.1251 H   0  0  0  0  0  0  0  0  0  0  0  0
   -2.6489   -4.2516   -0.5616 H   0  0  0  0  0  0  0  0  0  0  0  0
   -1.9265   -3.6546    0.9705 H   0  0  0  0  0  0  0  0  0  0  0  0
    0.8323   -0.2091   -1.4585 H   0  0  0  0  0  0  0  0  0  0  0  0
    3.0446   -5.0074   -4.4614 H   0  0  0  0  0  0  0  0  0  0  0  0
    5.0605   -4.4346   -3.1814 H   0  0  0  0  0  0  0  0  0  0  0  0
    4.4329   -1.3430    0.2007 H   0  0  0  0  0  0  0  0  0  0  0  0
    6.4925   -0.8062    1.4614 H   0  0  0  0  0  0  0  0  0  0  0  0
    8.8707   -2.7541   -1.5314 H   0  0  0  0  0  0  0  0  0  0  0  0
    6.8206   -3.2817   -2.8278 H   0  0  0  0  0  0  0  0  0  0  0  0
    3.0411   -1.0959   -1.2981 H   0  0  0  0  0  0  0  0  0  0  0  0
   -1.3985    1.4540   -2.1284 H   0  0  0  0  0  0  0  0  0  0  0  0
   -1.6879    2.4768    0.2944 H   0  0  0  0  0  0  0  0  0  0  0  0
   -2.4520    5.4515    0.4989 H   0  0  0  0  0  0  0  0  0  0  0  0
   -0.8873    4.6263    1.1861 H   0  0  0  0  0  0  0  0  0  0  0  0
    2.6721    2.1409    2.3195 H   0  0  0  0  0  0  0  0  0  0  0  0
    2.5492    2.7635    0.6692 H   0  0  0  0  0  0  0  0  0  0  0  0
    0.0990    2.8178    2.9117 H   0  0  0  0  0  0  0  0  0  0  0  0
   -2.5785    1.3050    4.4423 H   0  0  0  0  0  0  0  0  0  0  0  0
   -3.0066    2.5261    3.2267 H   0  0  0  0  0  0  0  0  0  0  0  0
   -1.6072    2.8155    4.3040 H   0  0  0  0  0  0  0  0  0  0  0  0
   -0.1921   -0.5855    1.9590 H   0  0  0  0  0  0  0  0  0  0  0  0
    0.7259   -2.7672    1.9082 H   0  0  0  0  0  0  0  0  0  0  0  0
    2.3052   -2.1179    1.3922 H   0  0  0  0  0  0  0  0  0  0  0  0
    0.9922   -2.3110    0.2021 H   0  0  0  0  0  0  0  0  0  0  0  0
  1  2  2  0  0  0  0
  2 37  1  0  0  0  0
  3  4  1  0  0  0  0
  3  2  1  0  0  0  0
  4  5  1  0  0  0  0
  5 13  2  0  0  0  0
  5  6  1  0  0  0  0
  6 12  1  0  0  0  0
  6  7  1  0  0  0  0
  7  8  1  0  0  0  0
  7 53  1  0  0  0  0
  8 54  1  0  0  0  0
  8  9  1  0  0  0  0
  9 10  1  0  0  0  0
 10 56  1  0  0  0  0
 10 58  1  0  0  0  0
 10 57  1  0  0  0  0
 11  9  1  0  0  0  0
 11 60  1  0  0  0  0
 12 62  1  0  0  0  0
 12 63  1  0  0  0  0
 13 65  1  0  0  0  0
 14 15  1  0  0  0  0
 14 13  1  0  0  0  0
 15 16  1  0  0  0  0
 16 68  1  0  0  0  0
 17 14  2  0  0  0  0
 18 17  1  0  0  0  0
 18 69  1  0  0  0  0
 19 23  1  0  0  0  0
 19 18  1  0  0  0  0
 20 19  2  0  0  0  0
 21 24  1  0  0  0  0
 21 20  1  0  0  0  0
 22 21  1  0  0  0  0
 23 35  1  0  0  0  0
 24 23  2  0  0  0  0
 25 24  1  0  0  0  0
 25 26  2  0  0  0  0
 26 27  1  0  0  0  0
 27 35  2  0  0  0  0
 27 28  1  0  0  0  0
 28 29  1  0  0  0  0
 29 72  1  0  0  0  0
 29 30  2  0  0  0  0
 30 73  1  0  0  0  0
 31 30  1  0  0  0  0
 31 32  1  0  0  0  0
 33 31  2  0  0  0  0
 34 28  2  0  0  0  0
 34 33  1  0  0  0  0
 35 76  1  0  0  0  0
 36 17  1  0  0  0  0
 36  4  2  0  0  0  0
 37 78  1  0  0  0  0
 37 38  2  0  0  0  0
 38 80  1  0  0  0  0
 40 39  1  0  0  0  0
 40 81  1  0  0  0  0
 41 42  1  6  0  0  0
 41 40  1  0  0  0  0
 41 43  1  0  0  0  0
 43 44  1  0  0  0  0
 43 83  1  0  0  0  0
 44 45  1  0  0  0  0
 45 86  1  0  0  0  0
 45 84  1  0  0  0  0
 46 44  2  0  0  0  0
 47 41  1  0  0  0  0
 47 48  1  0  0  0  0
 48 87  1  0  0  0  0
 49 89  1  0  0  0  0
 49 48  1  0  0  0  0
 49 88  1  0  0  0  0
 50 47  2  0  0  0  0
 51  3  1  0  0  0  0
 52  7  1  0  0  0  0
 55  8  1  0  0  0  0
 59 11  1  0  0  0  0
 61 11  1  0  0  0  0
 64 12  1  0  0  0  0
 66 16  1  0  0  0  0
 67 16  1  0  0  0  0
 70 25  1  0  0  0  0
 71 26  1  0  0  0  0
 74 33  1  0  0  0  0
 75 34  1  0  0  0  0
 77 36  1  0  0  0  0
 79 38  1  0  0  0  0
 82 40  1  0  0  0  0
 85 45  1  0  0  0  0
 90 49  1  0  0  0  0
M  END
