90
-1 1
O        -3.101235    3.921974    0.831863
C        -2.566011    3.419026   -0.189404
N        -3.319851    2.346849   -0.809593
C        -2.887847    1.031576   -0.908090
C        -3.717537    0.000690   -0.415214
N        -4.966895    0.360574    0.173553
C        -4.955907    0.523247    1.625390
C        -5.545255    1.872929    2.035256
N        -5.612416    2.068028    3.473478
C        -6.664010    1.320246    4.112792
C        -5.654636    3.467542    3.826637
C        -6.134731   -0.295347   -0.355031
C        -3.275395   -1.324674   -0.432761
C        -2.009533   -1.668963   -0.901914
O        -1.470098   -2.916191   -0.805056
C        -2.256807   -3.950063   -0.308829
C        -1.199949   -0.660906   -1.456786
N         0.115147   -0.913677   -1.887210
C         0.589507   -2.005107   -2.567728
N        -0.114028   -2.762565   -3.375875
N         0.732851   -3.739789   -3.808312
H         0.380906   -4.448879   -4.431398
C         1.951450   -2.471775   -2.476553
C         1.986041   -3.610741   -3.303555
C         3.168042   -4.361118   -3.429786
C         4.274147   -3.932739   -2.715558
C         4.263344   -2.778413   -1.885359
C         5.478858   -2.355703   -1.135165
C         5.375025   -1.546688    0.010940
C         6.502606   -1.145886    0.721049
C         7.757245   -1.555480    0.289511
F         8.845890   -1.177971    0.972271
C         7.904639   -2.344111   -0.842350
C         6.766654   -2.732281   -1.546212
C         3.081097   -2.049978   -1.771994
C        -1.662991    0.653194   -1.478634
C        -1.372148    3.815666   -0.781936
C        -0.598251    4.935409   -0.225574
S         0.854711    4.557303    0.959396
C         1.365681    2.881316    0.497097
C         0.459273    1.736850    0.994587
H        -0.364577    1.639148    0.269813
N        -0.137674    2.071372    2.280774
C        -1.339958    1.577407    2.678898
C        -2.181502    2.507110    3.503829
O        -1.739915    0.464714    2.337129
C         1.214509    0.401862    0.912406
N         0.606053   -0.648531    1.476294
C         1.080546   -1.999268    1.307200
O         2.264553    0.316096    0.267961
H        -4.255636    2.348108   -0.413077
H        -3.918665    0.469097    1.983982
H        -5.500390   -0.317724    2.104139
H        -6.548687    2.008108    1.563255
H        -4.884133    2.651121    1.620345
H        -7.683585    1.645894    3.793200
H        -6.604768    1.436932    5.206961
H        -6.573497    0.247192    3.890219
H        -4.819271    3.999268    3.349040
H        -5.566992    3.587837    4.919085
H        -6.600043    3.965851    3.507106
H        -7.044905    0.219148   -0.005533
H        -6.226406   -1.363736   -0.051696
H        -6.126569   -0.255597   -1.454331
H        -3.922156   -2.082065    0.012302
H        -1.647832   -4.862812   -0.354286
H        -3.169460   -4.102198   -0.914183
H        -2.560184   -3.778168    0.741002
H         0.828073   -0.287592   -1.530141
H         3.216210   -5.258222   -4.050275
H         5.186184   -4.530031   -2.782034
H         4.397009   -1.205354    0.358820
H         6.414717   -0.516283    1.607867
H         8.904031   -2.636242   -1.169333
H         6.896406   -3.327192   -2.452212
H         3.013257   -1.161045   -1.139016
H        -1.025946    1.411423   -1.929749
H        -1.093522    3.424607   -1.760397
H        -1.232087    5.574576    0.406464
H        -0.127284    5.546183   -1.008736
H         2.381905    2.757775    0.896351
H         1.446759    2.808528   -0.595420
H        -0.009508    3.066891    2.478374
H        -1.581684    3.076569    4.228489
H        -2.991213    1.957415    3.998839
H        -2.622295    3.212040    2.770527
H        -0.349501   -0.477547    1.822604
H         0.769660   -2.607205    2.168800
H         2.177190   -2.006314    1.246669
H         0.676419   -2.457663    0.389762
