-1 1
 OpenBabel05232414493D

 97100  0  0  1  0  0  0  0  0999 V2000
    7.5693  -15.8009   -1.0355 O   0  0  0  0  0  0  0  0  0  0  0  0
    8.3953  -16.1593   -0.1985 C   0  0  0  0  0  0  0  0  0  0  0  0
    8.0008  -16.4175    1.1296 N   0  0  0  0  0  0  0  0  0  0  0  0
    6.7722  -16.2373    1.7314 C   0  0  0  0  0  0  0  0  0  0  0  0
    6.7293  -16.2435    3.1486 C   0  0  0  0  0  0  0  0  0  0  0  0
    7.9635  -16.3242    3.8617 N   0  0  0  0  0  0  0  0  0  0  0  0
    8.7100  -15.0614    3.9397 C   0  0  0  0  0  0  0  0  0  0  0  0
   10.1335  -15.0697    3.3584 C   0  0  0  0  0  0  0  0  0  0  0  0
   11.1158  -15.9784    3.9095 N   0  0  0  0  0  0  0  0  0  0  0  0
   11.4862  -15.7654    5.2803 C   0  0  0  0  0  0  0  0  0  0  0  0
   11.0610  -17.3608    3.5038 C   0  0  0  0  0  0  0  0  0  0  0  0
    7.9171  -17.0505    5.1078 C   0  0  0  0  0  0  0  0  0  0  0  0
    5.4928  -16.1649    3.7879 C   0  0  0  0  0  0  0  0  0  0  0  0
    4.3022  -16.0428    3.0758 C   0  0  0  0  0  0  0  0  0  0  0  0
    3.1185  -15.9991    3.7669 O   0  0  0  0  0  0  0  0  0  0  0  0
    2.3158  -17.1441    3.6384 C   0  0  0  0  0  0  0  0  0  0  0  0
    4.3529  -15.9410    1.6774 C   0  0  0  0  0  0  0  0  0  0  0  0
    3.1698  -15.8061    0.9203 N   0  0  0  0  0  0  0  0  0  0  0  0
    2.2533  -14.7860    1.1316 C   0  0  0  0  0  0  0  0  0  0  0  0
    2.4845  -13.7273    1.8684 N   0  0  0  0  0  0  0  0  0  0  0  0
    1.3440  -13.0005    1.8633 N   0  0  0  0  0  0  0  0  0  0  0  0
    1.3090  -12.1425    2.3918 H   0  0  0  0  0  0  0  0  0  0  0  0
    0.9145  -14.7605    0.6017 C   0  0  0  0  0  0  0  0  0  0  0  0
    0.3658  -13.5632    1.1071 C   0  0  0  0  0  0  0  0  0  0  0  0
   -0.9454  -13.1641    0.8028 C   0  0  0  0  0  0  0  0  0  0  0  0
   -1.7127  -13.9990   -0.0041 C   0  0  0  0  0  0  0  0  0  0  0  0
   -3.1056  -13.6397   -0.3286 C   0  0  0  0  0  0  0  0  0  0  0  0
   -4.0337  -13.1174    0.5383 C   0  0  0  0  0  0  0  0  0  0  0  0
   -5.2362  -12.9058   -0.0978 N   0  0  0  0  0  0  0  0  0  0  0  0
   -6.4397  -12.3882    0.4968 C   0  0  0  0  0  0  0  0  0  0  0  0
   -3.7809  -13.7611   -1.6004 C   0  0  0  0  0  0  0  0  0  0  0  0
   -5.1048  -13.2929   -1.4104 C   0  0  0  0  0  0  0  0  0  0  0  0
   -6.0425  -13.2585   -2.4509 C   0  0  0  0  0  0  0  0  0  0  0  0
   -5.6287  -13.6966   -3.7003 C   0  0  0  0  0  0  0  0  0  0  0  0
   -4.3118  -14.1502   -3.9151 C   0  0  0  0  0  0  0  0  0  0  0  0
   -3.3874  -14.1829   -2.8817 C   0  0  0  0  0  0  0  0  0  0  0  0
   -1.1639  -15.2146   -0.5003 C   0  0  0  0  0  0  0  0  0  0  0  0
    0.1323  -15.5973   -0.2076 C   0  0  0  0  0  0  0  0  0  0  0  0
    5.5798  -16.0469    1.0212 C   0  0  0  0  0  0  0  0  0  0  0  0
    9.8020  -16.3568   -0.4296 C   0  0  0  0  0  3  0  0  0  0  0  0
   10.3695  -16.0599   -1.6613 C   0  0  0  0  0  3  0  0  0  0  0  0
   11.1453  -13.8620   -1.9234 S   0  0  0  0  0  1  0  0  0  0  0  0
   12.6799  -14.2087   -2.8395 C   0  0  0  0  0  0  0  0  0  0  0  0
   13.9914  -14.0260   -2.0429 C   0  0  2  0  0  0  0  0  0  0  0  0
   13.9605  -13.0220   -1.5857 H   0  0  0  0  0  0  0  0  0  0  0  0
   15.1574  -14.1326   -2.8913 N   0  0  0  0  0  0  0  0  0  0  0  0
   15.5807  -13.1578   -3.7247 C   0  0  0  0  0  0  0  0  0  0  0  0
   16.8799  -13.4599   -4.4580 C   0  0  0  0  0  0  0  0  0  0  0  0
   14.9827  -12.1115   -3.9090 O   0  0  0  0  0  0  0  0  0  0  0  0
   14.1978  -15.0713   -0.9315 C   0  0  0  0  0  0  0  0  0  0  0  0
   13.2449  -15.1079    0.0133 N   0  0  0  0  0  0  0  0  0  0  0  0
   13.2651  -16.0905    1.0664 C   0  0  0  0  0  0  0  0  0  0  0  0
   15.1881  -15.7992   -0.9290 O   0  0  0  0  0  0  0  0  0  0  0  0
    8.7174  -16.7198    1.7766 H   0  0  0  0  0  0  0  0  0  0  0  0
    8.7415  -14.7247    4.9955 H   0  0  0  0  0  0  0  0  0  0  0  0
    8.1501  -14.2854    3.3944 H   0  0  0  0  0  0  0  0  0  0  0  0
   10.5236  -14.0416    3.4716 H   0  0  0  0  0  0  0  0  0  0  0  0
   10.0786  -15.2428    2.2727 H   0  0  0  0  0  0  0  0  0  0  0  0
   11.6482  -14.6911    5.4635 H   0  0  0  0  0  0  0  0  0  0  0  0
   12.4323  -16.2878    5.5004 H   0  0  0  0  0  0  0  0  0  0  0  0
   10.7379  -16.1196    6.0257 H   0  0  0  0  0  0  0  0  0  0  0  0
   10.8515  -17.4264    2.4262 H   0  0  0  0  0  0  0  0  0  0  0  0
   10.2998  -17.9728    4.0289 H   0  0  0  0  0  0  0  0  0  0  0  0
   12.0432  -17.8356    3.6729 H   0  0  0  0  0  0  0  0  0  0  0  0
    7.4045  -18.0123    4.9632 H   0  0  0  0  0  0  0  0  0  0  0  0
    7.3998  -16.5022    5.9248 H   0  0  0  0  0  0  0  0  0  0  0  0
    8.9377  -17.2618    5.4595 H   0  0  0  0  0  0  0  0  0  0  0  0
    5.4228  -16.1922    4.8765 H   0  0  0  0  0  0  0  0  0  0  0  0
    1.4168  -16.9823    4.2496 H   0  0  0  0  0  0  0  0  0  0  0  0
    2.8400  -18.0466    4.0048 H   0  0  0  0  0  0  0  0  0  0  0  0
    2.0085  -17.3167    2.5926 H   0  0  0  0  0  0  0  0  0  0  0  0
    3.2813  -16.0564   -0.0552 H   0  0  0  0  0  0  0  0  0  0  0  0
   -1.3504  -12.2167    1.1644 H   0  0  0  0  0  0  0  0  0  0  0  0
   -3.9266  -12.8990    1.6000 H   0  0  0  0  0  0  0  0  0  0  0  0
   -6.2557  -12.1697    1.5562 H   0  0  0  0  0  0  0  0  0  0  0  0
   -7.2621  -13.1185    0.4308 H   0  0  0  0  0  0  0  0  0  0  0  0
   -6.7592  -11.4575    0.0012 H   0  0  0  0  0  0  0  0  0  0  0  0
   -7.0602  -12.8973   -2.2888 H   0  0  0  0  0  0  0  0  0  0  0  0
   -6.3341  -13.6835   -4.5343 H   0  0  0  0  0  0  0  0  0  0  0  0
   -4.0154  -14.4760   -4.9144 H   0  0  0  0  0  0  0  0  0  0  0  0
   -2.3651  -14.5230   -3.0597 H   0  0  0  0  0  0  0  0  0  0  0  0
   -1.7988  -15.8675   -1.1023 H   0  0  0  0  0  0  0  0  0  0  0  0
    0.5345  -16.5400   -0.5855 H   0  0  0  0  0  0  0  0  0  0  0  0
    5.6475  -15.9776   -0.0645 H   0  0  0  0  0  0  0  0  0  0  0  0
   10.4453  -16.6227    0.4145 H   0  0  0  0  0  0  0  0  0  0  0  0
    9.6904  -15.9708   -2.5111 H   0  0  0  0  0  0  0  0  0  0  0  0
   11.3682  -16.4418   -1.8910 H   0  0  0  0  0  0  0  0  0  0  0  0
   12.7464  -13.5297   -3.7008 H   0  0  0  0  0  0  0  0  0  0  0  0
   12.6527  -15.2403   -3.2383 H   0  0  0  0  0  0  0  0  0  0  0  0
   15.7501  -14.9243   -2.6525 H   0  0  0  0  0  0  0  0  0  0  0  0
   17.5777  -12.6276   -4.2900 H   0  0  0  0  0  0  0  0  0  0  0  0
   16.6698  -13.4986   -5.5367 H   0  0  0  0  0  0  0  0  0  0  0  0
   17.3533  -14.4026   -4.1504 H   0  0  0  0  0  0  0  0  0  0  0  0
   12.3755  -14.5960   -0.2052 H   0  0  0  0  0  0  0  0  0  0  0  0
   14.3058  -16.2904    1.3563 H   0  0  0  0  0  0  0  0  0  0  0  0
   12.8181  -17.0489    0.7472 H   0  0  0  0  0  0  0  0  0  0  0  0
   12.7100  -15.7209    1.9406 H   0  0  0  0  0  0  0  0  0  0  0  0
  1  2  2  0  0  0  0
  2  3  1  0  0  0  0
  3  4  1  0  0  0  0
  3 54  1  0  0  0  0
  4  5  1  0  0  0  0
  5 13  2  0  0  0  0
  5  6  1  0  0  0  0
  6  7  1  0  0  0  0
  6 12  1  0  0  0  0
  7 55  1  0  0  0  0
  8 57  1  0  0  0  0
  8  9  1  0  0  0  0
  8  7  1  0  0  0  0
  9 10  1  0  0  0  0
 10 59  1  0  0  0  0
 10 60  1  0  0  0  0
 10 61  1  0  0  0  0
 11 64  1  0  0  0  0
 11  9  1  0  0  0  0
 11 63  1  0  0  0  0
 12 67  1  0  0  0  0
 12 66  1  0  0  0  0
 13 68  1  0  0  0  0
 14 15  1  0  0  0  0
 14 13  1  0  0  0  0
 16 15  1  0  0  0  0
 16 70  1  0  0  0  0
 16 69  1  0  0  0  0
 17 14  2  0  0  0  0
 18 19  1  0  0  0  0
 18 17  1  0  0  0  0
 19 20  2  0  0  0  0
 21 20  1  0  0  0  0
 21 22  1  0  0  0  0
 23 24  1  0  0  0  0
 23 19  1  0  0  0  0
 24 21  1  0  0  0  0
 25 24  2  0  0  0  0
 25 73  1  0  0  0  0
 26 25  1  0  0  0  0
 27 26  1  0  0  0  0
 27 28  2  0  0  0  0
 28 74  1  0  0  0  0
 29 30  1  0  0  0  0
 29 28  1  0  0  0  0
 30 75  1  0  0  0  0
 31 32  1  0  0  0  0
 31 27  1  0  0  0  0
 32 29  1  0  0  0  0
 33 78  1  0  0  0  0
 33 32  2  0  0  0  0
 34 33  1  0  0  0  0
 35 34  2  0  0  0  0
 35 36  1  0  0  0  0
 36 31  2  0  0  0  0
 37 38  1  0  0  0  0
 37 26  2  0  0  0  0
 38 23  2  0  0  0  0
 39 17  1  0  0  0  0
 39  4  2  0  0  0  0
 40  2  1  0  0  0  0
 40 85  1  0  0  0  0
 41 40  1  0  0  0  0
 43 44  1  0  0  0  0
 43 42  1  0  0  0  0
 44 45  1  1  0  0  0
 44 50  1  0  0  0  0
 46 90  1  0  0  0  0
 46 44  1  0  0  0  0
 47 46  1  0  0  0  0
 48 91  1  0  0  0  0
 48 93  1  0  0  0  0
 48 47  1  0  0  0  0
 49 47  2  0  0  0  0
 50 53  2  0  0  0  0
 50 51  1  0  0  0  0
 51 52  1  0  0  0  0
 52 95  1  0  0  0  0
 52 97  1  0  0  0  0
 56  7  1  0  0  0  0
 58  8  1  0  0  0  0
 62 11  1  0  0  0  0
 65 12  1  0  0  0  0
 71 16  1  0  0  0  0
 72 18  1  0  0  0  0
 76 30  1  0  0  0  0
 77 30  1  0  0  0  0
 79 34  1  0  0  0  0
 80 35  1  0  0  0  0
 81 36  1  0  0  0  0
 82 37  1  0  0  0  0
 83 38  1  0  0  0  0
 84 39  1  0  0  0  0
 86 41  1  0  0  0  0
 87 41  1  0  0  0  0
 88 43  1  0  0  0  0
 89 43  1  0  0  0  0
 92 48  1  0  0  0  0
 94 51  1  0  0  0  0
 96 52  1  0  0  0  0
M  END
