97
-1 1
O         1.938027   -1.193450   -1.273560
C         2.803548   -1.454765   -0.422025
N         2.396367   -1.723121    0.923305
C         1.187311   -1.499470    1.527999
C         1.145051   -1.459157    2.947578
N         2.380436   -1.537696    3.663702
C         3.122417   -0.274787    3.748365
C         4.512568   -0.250779    3.091506
N         5.535247   -1.156841    3.577234
C         5.947132   -0.966768    4.940397
C         5.452461   -2.539551    3.170343
C         2.340937   -2.279115    4.899901
C        -0.084873   -1.328181    3.591087
C        -1.276678   -1.198383    2.883303
O        -2.460013   -1.107441    3.575563
C        -3.271824   -2.249026    3.499760
C        -1.227718   -1.145113    1.481629
N        -2.413794   -1.012084    0.724432
C        -3.302407    0.037853    0.888544
N        -3.062333    1.108356    1.605628
N        -4.183139    1.865952    1.550765
H        -4.208592    2.737125    2.057551
C        -4.626478    0.087446    0.321242
C        -5.155371    1.311630    0.782096
C        -6.446115    1.738029    0.431149
C        -7.213655    0.904661   -0.377325
C        -8.586257    1.294619   -0.750353
C        -9.524235    1.861573    0.076546
N       -10.701218    2.092984   -0.600035
C       -11.906223    2.656810   -0.053040
C        -9.227137    1.163986   -2.039042
C       -10.542196    1.673286   -1.899377
C       -11.446986    1.710648   -2.968486
C       -11.008786    1.233245   -4.195094
C        -9.699677    0.738006   -4.359808
C        -8.807868    0.702504   -3.298220
C        -6.685768   -0.336929   -0.828630
C        -5.408935   -0.747086   -0.489254
C        -0.010922   -1.303538    0.821028
C         4.194146   -1.528395   -0.622432
C         4.759391   -1.265417   -1.937633
S         5.156098    0.605777   -2.290520
C         6.702588    0.504720   -3.244212
C         7.986006    0.837518   -2.451953
H         7.837491    1.824812   -1.983042
N         9.139782    0.889501   -3.318863
C         9.413290    1.923443   -4.144991
C        10.714655    1.801864   -4.921687
O         8.680022    2.887556   -4.284232
C         8.335480   -0.187559   -1.356979
N         7.479925   -0.255448   -0.323620
C         7.629260   -1.243698    0.717613
O         9.354257   -0.866305   -1.441934
H         3.122552   -1.982191    1.576606
H         3.210015    0.023395    4.812500
H         2.530055    0.517829    3.263607
H         4.896860    0.779474    3.207384
H         4.401846   -0.405527    2.007239
H         6.108409    0.104900    5.139668
H         6.902062   -1.488199    5.121749
H         5.223100   -1.340397    5.699893
H         5.199743   -2.603835    2.101939
H         4.707343   -3.142565    3.727057
H         6.436824   -3.021785    3.302414
H         1.825301   -3.237706    4.744702
H         1.828617   -1.743313    5.729176
H         3.363532   -2.498993    5.244025
H        -0.145555   -1.318448    4.681122
H        -4.171249   -2.052490    4.101003
H        -2.756829   -3.139334    3.907706
H        -3.579170   -2.467369    2.462095
H        -2.310970   -1.308730   -0.238895
H        -6.834758    2.704645    0.758428
H        -9.442125    2.100734    1.136053
H       -11.747116    2.894070    1.006371
H       -12.746915    1.948351   -0.127460
H       -12.184940    3.584681   -0.578010
H       -12.458421    2.103682   -2.845274
H       -11.688438    1.247347   -5.050247
H        -9.383154    0.381389   -5.342324
H        -7.791049    0.329424   -3.436694
H        -7.321507   -0.987145   -1.432706
H        -5.022855   -1.709580   -0.832542
H         0.059213   -1.278257   -0.267384
H         4.868045   -1.661004    0.227729
H         4.056081   -1.522028   -2.740377
H         5.732322   -1.750557   -2.114024
H         6.646828    1.226929   -4.069895
H         6.790424   -0.501674   -3.685789
H         9.812856    0.148857   -3.135909
H        11.308290    2.711073   -4.752995
H        10.477448    1.759803   -5.994522
H        11.310603    0.919688   -4.650165
H         6.574301    0.206257   -0.446634
H         8.696785   -1.376204    0.939429
H         7.220497   -2.222467    0.412840
H         7.103113   -0.913803    1.624836
