97
-1 1
O         7.569257  -15.800864   -1.035466
C         8.395254  -16.159250   -0.198536
N         8.000773  -16.417489    1.129629
C         6.772244  -16.237251    1.731382
C         6.729298  -16.243540    3.148633
N         7.963509  -16.324200    3.861690
C         8.710021  -15.061400    3.939676
C        10.133527  -15.069651    3.358350
N        11.115802  -15.978438    3.909526
C        11.486172  -15.765405    5.280341
C        11.061031  -17.360843    3.503767
C         7.917142  -17.050482    5.107833
C         5.492822  -16.164910    3.787920
C         4.302191  -16.042801    3.075838
O         3.118532  -15.999130    3.766892
C         2.315824  -17.144113    3.638384
C         4.352920  -15.940965    1.677404
N         3.169764  -15.806082    0.920253
C         2.253283  -14.785951    1.131594
N         2.484521  -13.727304    1.868435
N         1.343990  -13.000541    1.863256
H         1.308998  -12.142518    2.391784
C         0.914483  -14.760503    0.601740
C         0.365755  -13.563157    1.107065
C        -0.945390  -13.164132    0.802768
C        -1.712715  -13.999034   -0.004065
C        -3.105627  -13.639679   -0.328597
C        -4.033716  -13.117437    0.538251
N        -5.236219  -12.905805   -0.097787
C        -6.439671  -12.388217    0.496834
C        -3.780906  -13.761146   -1.600442
C        -5.104806  -13.292913   -1.410413
C        -6.042479  -13.258468   -2.450860
C        -5.628665  -13.696574   -3.700288
C        -4.311765  -14.150180   -3.915063
C        -3.387356  -14.182910   -2.881750
C        -1.163900  -15.214599   -0.500337
C         0.132314  -15.597287   -0.207553
C         5.579827  -16.046913    1.021152
C         9.801968  -16.356831   -0.429599
C        10.369494  -16.059891   -1.661300
S        11.145320  -13.862013   -1.923419
C        12.679947  -14.208650   -2.839527
C        13.991350  -14.025955   -2.042914
H        13.960463  -13.021989   -1.585698
N        15.157362  -14.132559   -2.891333
C        15.580715  -13.157760   -3.724673
C        16.879925  -13.459854   -4.458001
O        14.982747  -12.111451   -3.909008
C        14.197824  -15.071283   -0.931550
N        13.244937  -15.107888    0.013312
C        13.265146  -16.090461    1.066360
O        15.188098  -15.799201   -0.929001
H         8.717366  -16.719794    1.776577
H         8.741549  -14.724678    4.995477
H         8.150082  -14.285431    3.394407
H        10.523580  -14.041634    3.471644
H        10.078585  -15.242754    2.272734
H        11.648242  -14.691115    5.463528
H        12.432293  -16.287774    5.500428
H        10.737923  -16.119622    6.025658
H        10.851500  -17.426447    2.426163
H        10.299816  -17.972818    4.028945
H        12.043179  -17.835574    3.672933
H         7.404547  -18.012294    4.963207
H         7.399818  -16.502166    5.924841
H         8.937652  -17.261809    5.459475
H         5.422796  -16.192169    4.876477
H         1.416792  -16.982315    4.249608
H         2.839998  -18.046579    4.004754
H         2.008472  -17.316673    2.592554
H         3.281310  -16.056355   -0.055205
H        -1.350352  -12.216730    1.164414
H        -3.926597  -12.898957    1.599993
H        -6.255734  -12.169685    1.556227
H        -7.262085  -13.118519    0.430800
H        -6.759199  -11.457472    0.001173
H        -7.060244  -12.897280   -2.288755
H        -6.334102  -13.683538   -4.534273
H        -4.015445  -14.476022   -4.914406
H        -2.365150  -14.522996   -3.059714
H        -1.798796  -15.867520   -1.102292
H         0.534540  -16.539976   -0.585455
H         5.647520  -15.977576   -0.064490
H        10.445270  -16.622690    0.414506
H         9.690390  -15.970837   -2.511130
H        11.368179  -16.441755   -1.891015
H        12.746364  -13.529722   -3.700799
H        12.652687  -15.240253   -3.238285
H        15.750136  -14.924324   -2.652518
H        17.577724  -12.627582   -4.290045
H        16.669816  -13.498611   -5.536702
H        17.353296  -14.402603   -4.150364
H        12.375531  -14.595999   -0.205218
H        14.305802  -16.290374    1.356278
H        12.818083  -17.048944    0.747223
H        12.710028  -15.720886    1.940570
