97
-1 1
O         2.272397   -1.904613   -1.461835
C         3.079917   -1.960203   -0.551507
N         2.747659   -1.869599    0.775962
C         1.527672   -1.541663    1.355970
C         1.505752   -1.366172    2.759462
N         2.722327   -1.504891    3.487940
C         3.611312   -0.333117    3.481883
C         5.074594   -0.606721    3.102557
N         5.851169   -1.588953    3.827958
C         6.155055   -1.309308    5.201308
C         5.700196   -2.975757    3.477620
C         2.583342   -2.113168    4.790280
C         0.282714   -1.104932    3.376430
C        -0.902682   -0.997373    2.653610
O        -2.069579   -0.769583    3.332945
C        -2.963225   -1.853087    3.363315
C        -0.864194   -1.103564    1.255858
N        -2.043330   -0.999243    0.489323
C        -2.879634    0.108719    0.556239
N        -2.547612    1.245639    1.115457
N        -3.628614    2.049829    1.020325
H        -3.578360    2.981889    1.402532
C        -4.228054    0.156531    0.055343
C        -4.669090    1.457161    0.378626
C        -5.955304    1.907418    0.041348
C        -6.808963    1.021623   -0.609153
C        -8.180849    1.436147   -0.956481
C        -9.034809    2.163097   -0.164006
N       -10.239149    2.368729   -0.798213
C       -11.376580    3.072315   -0.267959
C        -8.908165    1.170287   -2.176619
C       -10.184513    1.769341   -2.034206
C       -11.153121    1.715281   -3.045029
C       -10.819283    1.052455   -4.216978
C        -9.549775    0.464375   -4.386036
C        -8.594399    0.520307   -3.382285
C        -6.369270   -0.295862   -0.920014
C        -5.096765   -0.730373   -0.597683
C         0.349187   -1.380329    0.623371
C         4.539583   -2.179495   -0.775026
C         5.028119   -2.372706   -1.999936
S         4.800229    1.269241    0.148638
C         5.394102    1.155650   -1.573836
C         6.928750    1.060874   -1.758617
H         7.371204    1.945939   -1.270323
N         7.305062    1.047342   -3.156582
C         7.376150    2.142598   -3.941255
C         7.843157    1.876717   -5.367003
O         7.076793    3.267950   -3.579813
C         7.565291   -0.198417   -1.150230
N         7.410848   -0.330087    0.175673
C         7.874938   -1.506452    0.861226
O         8.178883   -1.011314   -1.844998
H         3.500886   -1.944339    1.448507
H         3.554389    0.171999    4.468098
H         3.244831    0.391944    2.738076
H         5.595366    0.365121    3.160337
H         5.108481   -0.855106    2.030165
H         6.434976   -0.249398    5.311106
H         7.014742   -1.917752    5.531558
H         5.325631   -1.504794    5.918690
H         5.624689   -3.073017    2.383482
H         4.815586   -3.485076    3.913519
H         6.594369   -3.541285    3.795013
H         1.963370   -3.018717    4.721345
H         2.129476   -1.437746    5.547310
H         3.569096   -2.406098    5.174968
H         0.219353   -0.982110    4.458293
H        -3.836554   -1.537353    3.950690
H        -2.506787   -2.736547    3.847327
H        -3.298726   -2.139502    2.351900
H        -1.956624   -1.384580   -0.443800
H        -6.275423    2.928521    0.258458
H        -8.873525    2.537868    0.845955
H       -11.140412    3.435884    0.739964
H       -12.256593    2.412656   -0.201628
H       -11.636685    3.938696   -0.897061
H       -12.133469    2.179841   -2.919846
H       -11.550939    0.991023   -5.025834
H        -9.315216   -0.038664   -5.326581
H        -7.608359    0.074175   -3.526795
H        -7.070783   -0.981632   -1.398941
H        -4.778784   -1.748911   -0.831716
H         0.401733   -1.475852   -0.460163
H         5.205326   -2.129595    0.089980
H         4.345310   -2.378907   -2.854285
H         6.101753   -2.477924   -2.173049
H         5.090963    2.056508   -2.126310
H         4.941441    0.289041   -2.085228
H         7.705635    0.161861   -3.454220
H         8.613224    2.616050   -5.626750
H         6.992690    2.033621   -6.046993
H         8.238538    0.862786   -5.521316
H         6.632740    0.247605    0.569064
H         8.967084   -1.613451    0.764505
H         7.428835   -2.432940    0.453361
H         7.613783   -1.427803    1.926371
