-1 1
 OpenBabel05232413483D

 97100  0  0  1  0  0  0  0  0999 V2000
    2.2724   -1.9046   -1.4618 O   0  0  0  0  0  0  0  0  0  0  0  0
    3.0799   -1.9602   -0.5515 C   0  0  0  0  0  0  0  0  0  0  0  0
    2.7477   -1.8696    0.7760 N   0  0  0  0  0  0  0  0  0  0  0  0
    1.5277   -1.5417    1.3560 C   0  0  0  0  0  0  0  0  0  0  0  0
    1.5058   -1.3662    2.7595 C   0  0  0  0  0  0  0  0  0  0  0  0
    2.7223   -1.5049    3.4879 N   0  0  0  0  0  0  0  0  0  0  0  0
    3.6113   -0.3331    3.4819 C   0  0  0  0  0  0  0  0  0  0  0  0
    5.0746   -0.6067    3.1026 C   0  0  0  0  0  0  0  0  0  0  0  0
    5.8512   -1.5890    3.8280 N   0  0  0  0  0  0  0  0  0  0  0  0
    6.1551   -1.3093    5.2013 C   0  0  0  0  0  0  0  0  0  0  0  0
    5.7002   -2.9758    3.4776 C   0  0  0  0  0  0  0  0  0  0  0  0
    2.5833   -2.1132    4.7903 C   0  0  0  0  0  0  0  0  0  0  0  0
    0.2827   -1.1049    3.3764 C   0  0  0  0  0  0  0  0  0  0  0  0
   -0.9027   -0.9974    2.6536 C   0  0  0  0  0  0  0  0  0  0  0  0
   -2.0696   -0.7696    3.3329 O   0  0  0  0  0  0  0  0  0  0  0  0
   -2.9632   -1.8531    3.3633 C   0  0  0  0  0  0  0  0  0  0  0  0
   -0.8642   -1.1036    1.2559 C   0  0  0  0  0  0  0  0  0  0  0  0
   -2.0433   -0.9992    0.4893 N   0  0  0  0  0  0  0  0  0  0  0  0
   -2.8796    0.1087    0.5562 C   0  0  0  0  0  0  0  0  0  0  0  0
   -2.5476    1.2456    1.1155 N   0  0  0  0  0  0  0  0  0  0  0  0
   -3.6286    2.0498    1.0203 N   0  0  0  0  0  0  0  0  0  0  0  0
   -3.5784    2.9819    1.4025 H   0  0  0  0  0  0  0  0  0  0  0  0
   -4.2281    0.1565    0.0553 C   0  0  0  0  0  0  0  0  0  0  0  0
   -4.6691    1.4572    0.3786 C   0  0  0  0  0  0  0  0  0  0  0  0
   -5.9553    1.9074    0.0413 C   0  0  0  0  0  0  0  0  0  0  0  0
   -6.8090    1.0216   -0.6092 C   0  0  0  0  0  0  0  0  0  0  0  0
   -8.1808    1.4361   -0.9565 C   0  0  0  0  0  0  0  0  0  0  0  0
   -9.0348    2.1631   -0.1640 C   0  0  0  0  0  0  0  0  0  0  0  0
  -10.2391    2.3687   -0.7982 N   0  0  0  0  0  0  0  0  0  0  0  0
  -11.3766    3.0723   -0.2680 C   0  0  0  0  0  0  0  0  0  0  0  0
   -8.9082    1.1703   -2.1766 C   0  0  0  0  0  0  0  0  0  0  0  0
  -10.1845    1.7693   -2.0342 C   0  0  0  0  0  0  0  0  0  0  0  0
  -11.1531    1.7153   -3.0450 C   0  0  0  0  0  0  0  0  0  0  0  0
  -10.8193    1.0525   -4.2170 C   0  0  0  0  0  0  0  0  0  0  0  0
   -9.5498    0.4644   -4.3860 C   0  0  0  0  0  0  0  0  0  0  0  0
   -8.5944    0.5203   -3.3823 C   0  0  0  0  0  0  0  0  0  0  0  0
   -6.3693   -0.2959   -0.9200 C   0  0  0  0  0  0  0  0  0  0  0  0
   -5.0968   -0.7304   -0.5977 C   0  0  0  0  0  0  0  0  0  0  0  0
    0.3492   -1.3803    0.6234 C   0  0  0  0  0  0  0  0  0  0  0  0
    4.5396   -2.1795   -0.7750 C   0  0  0  0  0  0  0  0  0  0  0  0
    5.0281   -2.3727   -1.9999 C   0  0  0  0  0  0  0  0  0  0  0  0
    4.8002    1.2692    0.1486 S   0  0  0  0  0  1  0  0  0  0  0  0
    5.3941    1.1557   -1.5738 C   0  0  0  0  0  0  0  0  0  0  0  0
    6.9287    1.0609   -1.7586 C   0  0  2  0  0  0  0  0  0  0  0  0
    7.3712    1.9459   -1.2703 H   0  0  0  0  0  0  0  0  0  0  0  0
    7.3051    1.0473   -3.1566 N   0  0  0  0  0  0  0  0  0  0  0  0
    7.3761    2.1426   -3.9413 C   0  0  0  0  0  0  0  0  0  0  0  0
    7.8432    1.8767   -5.3670 C   0  0  0  0  0  0  0  0  0  0  0  0
    7.0768    3.2679   -3.5798 O   0  0  0  0  0  0  0  0  0  0  0  0
    7.5653   -0.1984   -1.1502 C   0  0  0  0  0  0  0  0  0  0  0  0
    7.4108   -0.3301    0.1757 N   0  0  0  0  0  0  0  0  0  0  0  0
    7.8749   -1.5065    0.8612 C   0  0  0  0  0  0  0  0  0  0  0  0
    8.1789   -1.0113   -1.8450 O   0  0  0  0  0  0  0  0  0  0  0  0
    3.5009   -1.9443    1.4485 H   0  0  0  0  0  0  0  0  0  0  0  0
    3.5544    0.1720    4.4681 H   0  0  0  0  0  0  0  0  0  0  0  0
    3.2448    0.3919    2.7381 H   0  0  0  0  0  0  0  0  0  0  0  0
    5.5954    0.3651    3.1603 H   0  0  0  0  0  0  0  0  0  0  0  0
    5.1085   -0.8551    2.0302 H   0  0  0  0  0  0  0  0  0  0  0  0
    6.4350   -0.2494    5.3111 H   0  0  0  0  0  0  0  0  0  0  0  0
    7.0147   -1.9178    5.5316 H   0  0  0  0  0  0  0  0  0  0  0  0
    5.3256   -1.5048    5.9187 H   0  0  0  0  0  0  0  0  0  0  0  0
    5.6247   -3.0730    2.3835 H   0  0  0  0  0  0  0  0  0  0  0  0
    4.8156   -3.4851    3.9135 H   0  0  0  0  0  0  0  0  0  0  0  0
    6.5944   -3.5413    3.7950 H   0  0  0  0  0  0  0  0  0  0  0  0
    1.9634   -3.0187    4.7213 H   0  0  0  0  0  0  0  0  0  0  0  0
    2.1295   -1.4377    5.5473 H   0  0  0  0  0  0  0  0  0  0  0  0
    3.5691   -2.4061    5.1750 H   0  0  0  0  0  0  0  0  0  0  0  0
    0.2194   -0.9821    4.4583 H   0  0  0  0  0  0  0  0  0  0  0  0
   -3.8366   -1.5374    3.9507 H   0  0  0  0  0  0  0  0  0  0  0  0
   -2.5068   -2.7365    3.8473 H   0  0  0  0  0  0  0  0  0  0  0  0
   -3.2987   -2.1395    2.3519 H   0  0  0  0  0  0  0  0  0  0  0  0
   -1.9566   -1.3846   -0.4438 H   0  0  0  0  0  0  0  0  0  0  0  0
   -6.2754    2.9285    0.2585 H   0  0  0  0  0  0  0  0  0  0  0  0
   -8.8735    2.5379    0.8460 H   0  0  0  0  0  0  0  0  0  0  0  0
  -11.1404    3.4359    0.7400 H   0  0  0  0  0  0  0  0  0  0  0  0
  -12.2566    2.4127   -0.2016 H   0  0  0  0  0  0  0  0  0  0  0  0
  -11.6367    3.9387   -0.8971 H   0  0  0  0  0  0  0  0  0  0  0  0
  -12.1335    2.1798   -2.9198 H   0  0  0  0  0  0  0  0  0  0  0  0
  -11.5509    0.9910   -5.0258 H   0  0  0  0  0  0  0  0  0  0  0  0
   -9.3152   -0.0387   -5.3266 H   0  0  0  0  0  0  0  0  0  0  0  0
   -7.6084    0.0742   -3.5268 H   0  0  0  0  0  0  0  0  0  0  0  0
   -7.0708   -0.9816   -1.3989 H   0  0  0  0  0  0  0  0  0  0  0  0
   -4.7788   -1.7489   -0.8317 H   0  0  0  0  0  0  0  0  0  0  0  0
    0.4017   -1.4759   -0.4602 H   0  0  0  0  0  0  0  0  0  0  0  0
    5.2053   -2.1296    0.0900 H   0  0  0  0  0  0  0  0  0  0  0  0
    4.3453   -2.3789   -2.8543 H   0  0  0  0  0  0  0  0  0  0  0  0
    6.1018   -2.4779   -2.1730 H   0  0  0  0  0  0  0  0  0  0  0  0
    5.0910    2.0565   -2.1263 H   0  0  0  0  0  0  0  0  0  0  0  0
    4.9414    0.2890   -2.0852 H   0  0  0  0  0  0  0  0  0  0  0  0
    7.7056    0.1619   -3.4542 H   0  0  0  0  0  0  0  0  0  0  0  0
    8.6132    2.6160   -5.6268 H   0  0  0  0  0  0  0  0  0  0  0  0
    6.9927    2.0336   -6.0470 H   0  0  0  0  0  0  0  0  0  0  0  0
    8.2385    0.8628   -5.5213 H   0  0  0  0  0  0  0  0  0  0  0  0
    6.6327    0.2476    0.5691 H   0  0  0  0  0  0  0  0  0  0  0  0
    8.9671   -1.6135    0.7645 H   0  0  0  0  0  0  0  0  0  0  0  0
    7.4288   -2.4329    0.4534 H   0  0  0  0  0  0  0  0  0  0  0  0
    7.6138   -1.4278    1.9264 H   0  0  0  0  0  0  0  0  0  0  0  0
  1  2  2  0  0  0  0
  2  3  1  0  0  0  0
  3  4  1  0  0  0  0
  3 54  1  0  0  0  0
  4  5  1  0  0  0  0
  5 13  2  0  0  0  0
  5  6  1  0  0  0  0
  6 12  1  0  0  0  0
  7  6  1  0  0  0  0
  7 55  1  0  0  0  0
  8 57  1  0  0  0  0
  8  7  1  0  0  0  0
  8  9  1  0  0  0  0
  9 10  1  0  0  0  0
 10 59  1  0  0  0  0
 10 60  1  0  0  0  0
 10 61  1  0  0  0  0
 11 64  1  0  0  0  0
 11  9  1  0  0  0  0
 11 63  1  0  0  0  0
 12 67  1  0  0  0  0
 12 66  1  0  0  0  0
 13 68  1  0  0  0  0
 14 15  1  0  0  0  0
 14 13  1  0  0  0  0
 15 16  1  0  0  0  0
 16 70  1  0  0  0  0
 16 69  1  0  0  0  0
 17 14  2  0  0  0  0
 18 19  1  0  0  0  0
 18 17  1  0  0  0  0
 19 20  2  0  0  0  0
 21 20  1  0  0  0  0
 21 22  1  0  0  0  0
 23 24  1  0  0  0  0
 23 19  1  0  0  0  0
 24 21  1  0  0  0  0
 25 73  1  0  0  0  0
 25 24  2  0  0  0  0
 26 25  1  0  0  0  0
 27 26  1  0  0  0  0
 27 28  2  0  0  0  0
 28 74  1  0  0  0  0
 29 30  1  0  0  0  0
 29 28  1  0  0  0  0
 30 76  1  0  0  0  0
 30 75  1  0  0  0  0
 31 32  1  0  0  0  0
 31 27  1  0  0  0  0
 32 29  1  0  0  0  0
 33 78  1  0  0  0  0
 33 32  2  0  0  0  0
 34 33  1  0  0  0  0
 35 34  2  0  0  0  0
 35 36  1  0  0  0  0
 36 31  2  0  0  0  0
 37 26  2  0  0  0  0
 37 38  1  0  0  0  0
 38 23  2  0  0  0  0
 39 17  1  0  0  0  0
 39  4  2  0  0  0  0
 40  2  1  0  0  0  0
 40 85  1  0  0  0  0
 41 40  2  0  0  0  0
 43 42  1  0  0  0  0
 44 43  1  0  0  0  0
 44 45  1  1  0  0  0
 44 50  1  0  0  0  0
 46 44  1  0  0  0  0
 47 49  2  0  0  0  0
 47 46  1  0  0  0  0
 48 47  1  0  0  0  0
 50 51  1  0  0  0  0
 51 94  1  0  0  0  0
 51 52  1  0  0  0  0
 52 97  1  0  0  0  0
 53 50  2  0  0  0  0
 56  7  1  0  0  0  0
 58  8  1  0  0  0  0
 62 11  1  0  0  0  0
 65 12  1  0  0  0  0
 71 16  1  0  0  0  0
 72 18  1  0  0  0  0
 77 30  1  0  0  0  0
 79 34  1  0  0  0  0
 80 35  1  0  0  0  0
 81 36  1  0  0  0  0
 82 37  1  0  0  0  0
 83 38  1  0  0  0  0
 84 39  1  0  0  0  0
 86 41  1  0  0  0  0
 87 41  1  0  0  0  0
 88 43  1  0  0  0  0
 89 43  1  0  0  0  0
 90 46  1  0  0  0  0
 91 48  1  0  0  0  0
 92 48  1  0  0  0  0
 93 48  1  0  0  0  0
 95 52  1  0  0  0  0
 96 52  1  0  0  0  0
M  END
