77
-1 1
C        24.010093    4.101732  -11.935762
O        23.315567    3.190463  -12.728769
C        22.551319    2.278819  -11.995939
C        21.811445    1.394450  -12.989366
O        21.065640    0.395822  -12.344006
C        19.872906    0.698033  -11.787919
C        19.238796    1.916654  -11.868797
C        19.250491   -0.383123  -11.079063
O        19.945916   -1.537700  -11.056747
C        19.334518   -2.663244  -10.471632
C        18.032654   -0.186401  -10.471662
C        17.398075    1.080051  -10.506315
C        17.986712    2.134474  -11.235634
N        17.397004    3.359241  -11.351202
C        16.251633    3.493359  -10.735630
N        15.612831    2.591960   -9.970009
C        16.170917    1.402446   -9.816716
N        15.598719    0.485995   -8.992953
C        14.441805    0.582923   -8.218326
C        13.508345    1.559516   -8.201000
C        12.277333    1.485401   -7.363912
O        11.408495    2.360523   -7.502131
C        12.162356    0.368512   -6.481416
C        13.210117   -0.561687   -6.327668
S        14.622948    0.144120   -4.785048
C        16.353540   -0.287878   -5.153126
C        17.158293    0.799755   -5.899894
H        16.632586    1.018202   -6.842085
N        18.511410    0.375384   -6.191012
C        18.848767   -0.570542   -7.081906
C        20.334186   -0.760999   -7.318812
O        18.027961   -1.254049   -7.685589
C        17.315945    2.133675   -5.141502
N        16.179817    2.819130   -4.940775
C        16.135367    4.049876   -4.192924
O        18.427614    2.524751   -4.797080
C        14.243758   -0.646372   -7.387755
O        14.920481   -1.640968   -7.589467
N        10.987592    0.292285   -5.689185
C         9.706113   -0.050713   -6.268990
C         8.741926    0.782017   -5.408504
O         9.499329    1.075289   -4.235833
C        10.832031    0.975180   -4.510295
O        11.676199    1.410580   -3.776970
C         8.324200    2.075406   -6.087643
H        24.572904    4.770613  -12.601226
H        24.725429    3.597685  -11.255787
H        23.327213    4.714343  -11.315149
H        21.833865    2.800852  -11.332622
H        23.188018    1.641632  -11.348981
H        22.545347    0.870889  -13.617561
H        21.185526    2.013313  -13.654251
H        19.663442    2.763373  -12.406596
H        20.064121   -3.480062  -10.536898
H        18.422654   -2.950996  -11.024887
H        19.062358   -2.483324   -9.418320
H        17.582628   -1.004126   -9.915243
H        15.743889    4.460785  -10.836421
H        16.111529   -0.373236   -8.784222
H        13.610561    2.438647   -8.832572
H        12.984632   -1.523425   -5.863442
H        16.372954   -1.192795   -5.781108
H        16.858527   -0.528671   -4.203851
H        19.210262    0.966682   -5.743532
H        20.964156   -0.064078   -6.749894
H        20.530821   -0.636735   -8.394208
H        20.604051   -1.793015   -7.052377
H        15.305714    2.311006   -5.110831
H        17.152316    4.455764   -4.123917
H        15.747537    3.889789   -3.173673
H        15.485720    4.778136   -4.699744
H         9.507881   -1.135830   -6.200839
H         9.666597    0.250898   -7.325858
H         7.864601    0.199391   -5.087860
H         9.221158    2.573795   -6.489147
H         7.813406    2.736715   -5.372716
H         7.641022    1.861772   -6.924888
