-1 1
 OpenBabel05232414493D

 77 80  0  0  1  0  0  0  0  0999 V2000
   24.0101    4.1017  -11.9358 C   0  0  0  0  0  0  0  0  0  0  0  0
   23.3156    3.1905  -12.7288 O   0  0  0  0  0  0  0  0  0  0  0  0
   22.5513    2.2788  -11.9959 C   0  0  0  0  0  0  0  0  0  0  0  0
   21.8114    1.3944  -12.9894 C   0  0  0  0  0  0  0  0  0  0  0  0
   21.0656    0.3958  -12.3440 O   0  0  0  0  0  0  0  0  0  0  0  0
   19.8729    0.6980  -11.7879 C   0  0  0  0  0  0  0  0  0  0  0  0
   19.2388    1.9167  -11.8688 C   0  0  0  0  0  0  0  0  0  0  0  0
   19.2505   -0.3831  -11.0791 C   0  0  0  0  0  0  0  0  0  0  0  0
   19.9459   -1.5377  -11.0567 O   0  0  0  0  0  0  0  0  0  0  0  0
   19.3345   -2.6632  -10.4716 C   0  0  0  0  0  0  0  0  0  0  0  0
   18.0327   -0.1864  -10.4717 C   0  0  0  0  0  0  0  0  0  0  0  0
   17.3981    1.0801  -10.5063 C   0  0  0  0  0  0  0  0  0  0  0  0
   17.9867    2.1345  -11.2356 C   0  0  0  0  0  0  0  0  0  0  0  0
   17.3970    3.3592  -11.3512 N   0  0  0  0  0  0  0  0  0  0  0  0
   16.2516    3.4934  -10.7356 C   0  0  0  0  0  0  0  0  0  0  0  0
   15.6128    2.5920   -9.9700 N   0  0  0  0  0  0  0  0  0  0  0  0
   16.1709    1.4024   -9.8167 C   0  0  0  0  0  0  0  0  0  0  0  0
   15.5987    0.4860   -8.9930 N   0  0  0  0  0  0  0  0  0  0  0  0
   14.4418    0.5829   -8.2183 C   0  0  0  0  0  0  0  0  0  0  0  0
   13.5083    1.5595   -8.2010 C   0  0  0  0  0  0  0  0  0  0  0  0
   12.2773    1.4854   -7.3639 C   0  0  0  0  0  0  0  0  0  0  0  0
   11.4085    2.3605   -7.5021 O   0  0  0  0  0  0  0  0  0  0  0  0
   12.1624    0.3685   -6.4814 C   0  0  1  0  0  3  0  0  0  0  0  0
   13.2101   -0.5617   -6.3277 C   0  0  2  0  0  0  0  0  0  0  0  0
   14.6229    0.1441   -4.7850 S   0  0  0  0  0  0  0  0  0  0  0  0
   16.3535   -0.2879   -5.1531 C   0  0  0  0  0  0  0  0  0  0  0  0
   17.1583    0.7998   -5.8999 C   0  0  2  0  0  0  0  0  0  0  0  0
   16.6326    1.0182   -6.8421 H   0  0  0  0  0  0  0  0  0  0  0  0
   18.5114    0.3754   -6.1910 N   0  0  0  0  0  0  0  0  0  0  0  0
   18.8488   -0.5705   -7.0819 C   0  0  0  0  0  0  0  0  0  0  0  0
   20.3342   -0.7610   -7.3188 C   0  0  0  0  0  0  0  0  0  0  0  0
   18.0280   -1.2540   -7.6856 O   0  0  0  0  0  0  0  0  0  0  0  0
   17.3159    2.1337   -5.1415 C   0  0  0  0  0  0  0  0  0  0  0  0
   16.1798    2.8191   -4.9408 N   0  0  0  0  0  0  0  0  0  0  0  0
   16.1354    4.0499   -4.1929 C   0  0  0  0  0  0  0  0  0  0  0  0
   18.4276    2.5248   -4.7971 O   0  0  0  0  0  0  0  0  0  0  0  0
   14.2438   -0.6464   -7.3878 C   0  0  0  0  0  0  0  0  0  0  0  0
   14.9205   -1.6410   -7.5895 O   0  0  0  0  0  0  0  0  0  0  0  0
   10.9876    0.2923   -5.6892 N   0  0  0  0  0  0  0  0  0  0  0  0
    9.7061   -0.0507   -6.2690 C   0  0  0  0  0  0  0  0  0  0  0  0
    8.7419    0.7820   -5.4085 C   0  0  1  0  0  0  0  0  0  0  0  0
    9.4993    1.0753   -4.2358 O   0  0  0  0  0  0  0  0  0  0  0  0
   10.8320    0.9752   -4.5103 C   0  0  0  0  0  0  0  0  0  0  0  0
   11.6762    1.4106   -3.7770 O   0  0  0  0  0  0  0  0  0  0  0  0
    8.3242    2.0754   -6.0876 C   0  0  0  0  0  0  0  0  0  0  0  0
   24.5729    4.7706  -12.6012 H   0  0  0  0  0  0  0  0  0  0  0  0
   24.7254    3.5977  -11.2558 H   0  0  0  0  0  0  0  0  0  0  0  0
   23.3272    4.7143  -11.3151 H   0  0  0  0  0  0  0  0  0  0  0  0
   21.8339    2.8009  -11.3326 H   0  0  0  0  0  0  0  0  0  0  0  0
   23.1880    1.6416  -11.3490 H   0  0  0  0  0  0  0  0  0  0  0  0
   22.5453    0.8709  -13.6176 H   0  0  0  0  0  0  0  0  0  0  0  0
   21.1855    2.0133  -13.6543 H   0  0  0  0  0  0  0  0  0  0  0  0
   19.6634    2.7634  -12.4066 H   0  0  0  0  0  0  0  0  0  0  0  0
   20.0641   -3.4801  -10.5369 H   0  0  0  0  0  0  0  0  0  0  0  0
   18.4227   -2.9510  -11.0249 H   0  0  0  0  0  0  0  0  0  0  0  0
   19.0624   -2.4833   -9.4183 H   0  0  0  0  0  0  0  0  0  0  0  0
   17.5826   -1.0041   -9.9152 H   0  0  0  0  0  0  0  0  0  0  0  0
   15.7439    4.4608  -10.8364 H   0  0  0  0  0  0  0  0  0  0  0  0
   16.1115   -0.3732   -8.7842 H   0  0  0  0  0  0  0  0  0  0  0  0
   13.6106    2.4386   -8.8326 H   0  0  0  0  0  0  0  0  0  0  0  0
   12.9846   -1.5234   -5.8634 H   0  0  0  0  0  0  0  0  0  0  0  0
   16.3730   -1.1928   -5.7811 H   0  0  0  0  0  0  0  0  0  0  0  0
   16.8585   -0.5287   -4.2039 H   0  0  0  0  0  0  0  0  0  0  0  0
   19.2103    0.9667   -5.7435 H   0  0  0  0  0  0  0  0  0  0  0  0
   20.9642   -0.0641   -6.7499 H   0  0  0  0  0  0  0  0  0  0  0  0
   20.5308   -0.6367   -8.3942 H   0  0  0  0  0  0  0  0  0  0  0  0
   20.6041   -1.7930   -7.0524 H   0  0  0  0  0  0  0  0  0  0  0  0
   15.3057    2.3110   -5.1108 H   0  0  0  0  0  0  0  0  0  0  0  0
   17.1523    4.4558   -4.1239 H   0  0  0  0  0  0  0  0  0  0  0  0
   15.7475    3.8898   -3.1737 H   0  0  0  0  0  0  0  0  0  0  0  0
   15.4857    4.7781   -4.6997 H   0  0  0  0  0  0  0  0  0  0  0  0
    9.5079   -1.1358   -6.2008 H   0  0  0  0  0  0  0  0  0  0  0  0
    9.6666    0.2509   -7.3259 H   0  0  0  0  0  0  0  0  0  0  0  0
    7.8646    0.1994   -5.0879 H   0  0  0  0  0  0  0  0  0  0  0  0
    9.2212    2.5738   -6.4891 H   0  0  0  0  0  0  0  0  0  0  0  0
    7.8134    2.7367   -5.3727 H   0  0  0  0  0  0  0  0  0  0  0  0
    7.6410    1.8618   -6.9249 H   0  0  0  0  0  0  0  0  0  0  0  0
  1 48  1  0  0  0  0
  1 47  1  0  0  0  0
  2  3  1  0  0  0  0
  2  1  1  0  0  0  0
  3 50  1  0  0  0  0
  3 49  1  0  0  0  0
  4  5  1  0  0  0  0
  4  3  1  0  0  0  0
  5  6  1  0  0  0  0
  6  8  1  0  0  0  0
  7  6  2  0  0  0  0
  7 13  1  0  0  0  0
  8  9  1  0  0  0  0
  8 11  2  0  0  0  0
  9 10  1  0  0  0  0
 10 56  1  0  0  0  0
 11 57  1  0  0  0  0
 12 11  1  0  0  0  0
 12 17  1  0  0  0  0
 13 12  2  0  0  0  0
 14 13  1  0  0  0  0
 14 15  2  0  0  0  0
 15 16  1  0  0  0  0
 16 17  2  0  0  0  0
 17 18  1  0  0  0  0
 18 59  1  0  0  0  0
 18 19  1  0  0  0  0
 19 20  2  0  0  0  0
 19 37  1  0  0  0  0
 20 21  1  0  0  0  0
 21 23  1  0  0  0  0
 22 21  2  0  0  0  0
 23 24  1  0  0  0  0
 23 39  1  1  0  0  0
 24 61  1  1  0  0  0
 24 25  1  0  0  0  0
 26 25  1  0  0  0  0
 26 63  1  0  0  0  0
 27 28  1  6  0  0  0
 27 26  1  0  0  0  0
 27 33  1  0  0  0  0
 29 27  1  0  0  0  0
 29 64  1  0  0  0  0
 30 29  1  0  0  0  0
 31 30  1  0  0  0  0
 31 67  1  0  0  0  0
 31 65  1  0  0  0  0
 32 30  2  0  0  0  0
 33 34  1  0  0  0  0
 33 36  2  0  0  0  0
 34 35  1  0  0  0  0
 35 69  1  0  0  0  0
 35 70  1  0  0  0  0
 37 24  1  0  0  0  0
 38 37  2  0  0  0  0
 39 43  1  0  0  0  0
 40 72  1  0  0  0  0
 40 39  1  0  0  0  0
 40 41  1  0  0  0  0
 41 74  1  1  0  0  0
 41 42  1  0  0  0  0
 43 42  1  0  0  0  0
 43 44  2  0  0  0  0
 45 41  1  0  0  0  0
 45 76  1  0  0  0  0
 46  1  1  0  0  0  0
 51  4  1  0  0  0  0
 52  4  1  0  0  0  0
 53  7  1  0  0  0  0
 54 10  1  0  0  0  0
 55 10  1  0  0  0  0
 58 15  1  0  0  0  0
 60 20  1  0  0  0  0
 62 26  1  0  0  0  0
 66 31  1  0  0  0  0
 68 34  1  0  0  0  0
 71 35  1  0  0  0  0
 73 40  1  0  0  0  0
 75 45  1  0  0  0  0
 77 45  1  0  0  0  0
M  END
