77
-1 1
C         6.470976    2.685196   -0.097465
O         6.529612    2.206179   -1.412113
C         5.735292    1.074108   -1.611983
C         5.696004    0.784567   -3.105436
O         4.810498   -0.274723   -3.393469
C         3.485764   -0.074587   -3.225666
C         2.862910    1.150864   -3.263923
C         2.715488   -1.265450   -3.000206
O         3.401530   -2.416537   -3.101604
C         2.703925   -3.631130   -2.944978
C         1.384603   -1.155660   -2.669118
C         0.761308    0.117099   -2.614064
C         1.476698    1.272409   -2.991641
N         0.882846    2.497834   -3.065220
C        -0.378712    2.537281   -2.724054
N        -1.117293    1.547088   -2.192484
C        -0.541746    0.367720   -2.060973
N        -1.133375   -0.608970   -1.311680
C        -2.189012   -0.481526   -0.429679
C        -3.287012    0.301265   -0.559106
C        -4.345948    0.290043    0.440878
O        -5.305772    1.052797    0.374396
C        -4.227330   -0.697009    1.562855
C        -3.118336   -1.447857    1.715851
S        -0.789425    0.385335    1.996583
C         0.821720   -0.435254    1.880159
C         1.739370   -0.020258    0.706600
H         1.217781   -0.312570   -0.212450
N         3.017200   -0.698914    0.725600
C         3.198149   -1.956393    0.270756
C         4.642505   -2.362249    0.049152
O         2.272651   -2.707477   -0.000574
C         2.072563    1.472910    0.553200
N         1.027174    2.284842    0.366635
C         1.199810    3.702405    0.176191
O         3.241808    1.863816    0.540133
C        -2.026137   -1.440821    0.722258
O        -1.229463   -2.378139    0.611479
N        -5.293815   -0.718428    2.485342
C        -6.685702   -0.830645    2.091249
C        -7.370114   -0.443227    3.402666
O        -6.412665   -0.811311    4.395399
C        -5.165117   -0.852448    3.850226
O        -4.174194   -0.991063    4.507326
C        -7.674882    1.042181    3.495455
H         7.057844    3.613469   -0.053090
H         6.909048    1.961118    0.619374
H         5.431332    2.884546    0.216377
H         4.711924    1.236382   -1.225693
H         6.146898    0.191180   -1.078558
H         6.681667    0.456642   -3.462251
H         5.436792    1.705877   -3.652968
H         3.408585    2.071472   -3.465641
H         3.433126   -4.428411   -3.136613
H         1.883759   -3.712288   -3.680501
H         2.309943   -3.726287   -1.920833
H         0.820907   -2.049958   -2.407643
H        -0.897178    3.496961   -2.841625
H        -0.555148   -1.403084   -1.017668
H        -3.389653    1.007829   -1.379065
H        -2.997487   -2.129287    2.557305
H         0.622803   -1.513635    1.731487
H         1.370009   -0.319419    2.828530
H         3.805033   -0.061348    0.812900
H         5.352481   -1.773003    0.646610
H         4.865178   -2.217697   -1.020338
H         4.756262   -3.428716    0.281607
H         0.105375    1.895971    0.618485
H         1.751583    3.901062   -0.755294
H         1.749127    4.164265    1.012867
H         0.208813    4.167315    0.098955
H        -6.923632   -1.866835    1.787227
H        -6.917589   -0.141570    1.271872
H        -8.274281   -1.041081    3.588487
H        -6.788569    1.625331    3.204164
H        -7.964083    1.311125    4.521193
H        -8.495744    1.305791    2.811877
