-1 1
 OpenBabel05232413483D

 77 79  0  0  1  0  0  0  0  0999 V2000
    6.4710    2.6852   -0.0975 C   0  0  0  0  0  0  0  0  0  0  0  0
    6.5296    2.2062   -1.4121 O   0  0  0  0  0  0  0  0  0  0  0  0
    5.7353    1.0741   -1.6120 C   0  0  0  0  0  0  0  0  0  0  0  0
    5.6960    0.7846   -3.1054 C   0  0  0  0  0  0  0  0  0  0  0  0
    4.8105   -0.2747   -3.3935 O   0  0  0  0  0  0  0  0  0  0  0  0
    3.4858   -0.0746   -3.2257 C   0  0  0  0  0  0  0  0  0  0  0  0
    2.8629    1.1509   -3.2639 C   0  0  0  0  0  0  0  0  0  0  0  0
    2.7155   -1.2654   -3.0002 C   0  0  0  0  0  0  0  0  0  0  0  0
    3.4015   -2.4165   -3.1016 O   0  0  0  0  0  0  0  0  0  0  0  0
    2.7039   -3.6311   -2.9450 C   0  0  0  0  0  0  0  0  0  0  0  0
    1.3846   -1.1557   -2.6691 C   0  0  0  0  0  0  0  0  0  0  0  0
    0.7613    0.1171   -2.6141 C   0  0  0  0  0  0  0  0  0  0  0  0
    1.4767    1.2724   -2.9916 C   0  0  0  0  0  0  0  0  0  0  0  0
    0.8828    2.4978   -3.0652 N   0  0  0  0  0  0  0  0  0  0  0  0
   -0.3787    2.5373   -2.7241 C   0  0  0  0  0  0  0  0  0  0  0  0
   -1.1173    1.5471   -2.1925 N   0  0  0  0  0  0  0  0  0  0  0  0
   -0.5417    0.3677   -2.0610 C   0  0  0  0  0  0  0  0  0  0  0  0
   -1.1334   -0.6090   -1.3117 N   0  0  0  0  0  0  0  0  0  0  0  0
   -2.1890   -0.4815   -0.4297 C   0  0  0  0  0  0  0  0  0  0  0  0
   -3.2870    0.3013   -0.5591 C   0  0  0  0  0  0  0  0  0  0  0  0
   -4.3459    0.2900    0.4409 C   0  0  0  0  0  0  0  0  0  0  0  0
   -5.3058    1.0528    0.3744 O   0  0  0  0  0  0  0  0  0  0  0  0
   -4.2273   -0.6970    1.5629 C   0  0  0  0  0  0  0  0  0  0  0  0
   -3.1183   -1.4479    1.7159 C   0  0  0  0  0  0  0  0  0  0  0  0
   -0.7894    0.3853    1.9966 S   0  0  0  0  0  1  0  0  0  0  0  0
    0.8217   -0.4353    1.8802 C   0  0  0  0  0  0  0  0  0  0  0  0
    1.7394   -0.0203    0.7066 C   0  0  2  0  0  0  0  0  0  0  0  0
    1.2178   -0.3126   -0.2124 H   0  0  0  0  0  0  0  0  0  0  0  0
    3.0172   -0.6989    0.7256 N   0  0  0  0  0  0  0  0  0  0  0  0
    3.1981   -1.9564    0.2708 C   0  0  0  0  0  0  0  0  0  0  0  0
    4.6425   -2.3622    0.0492 C   0  0  0  0  0  0  0  0  0  0  0  0
    2.2727   -2.7075   -0.0006 O   0  0  0  0  0  0  0  0  0  0  0  0
    2.0726    1.4729    0.5532 C   0  0  0  0  0  0  0  0  0  0  0  0
    1.0272    2.2848    0.3666 N   0  0  0  0  0  0  0  0  0  0  0  0
    1.1998    3.7024    0.1762 C   0  0  0  0  0  0  0  0  0  0  0  0
    3.2418    1.8638    0.5401 O   0  0  0  0  0  0  0  0  0  0  0  0
   -2.0261   -1.4408    0.7223 C   0  0  0  0  0  0  0  0  0  0  0  0
   -1.2295   -2.3781    0.6115 O   0  0  0  0  0  0  0  0  0  0  0  0
   -5.2938   -0.7184    2.4853 N   0  0  0  0  0  0  0  0  0  0  0  0
   -6.6857   -0.8306    2.0912 C   0  0  0  0  0  0  0  0  0  0  0  0
   -7.3701   -0.4432    3.4027 C   0  0  1  0  0  0  0  0  0  0  0  0
   -6.4127   -0.8113    4.3954 O   0  0  0  0  0  0  0  0  0  0  0  0
   -5.1651   -0.8524    3.8502 C   0  0  0  0  0  0  0  0  0  0  0  0
   -4.1742   -0.9911    4.5073 O   0  0  0  0  0  0  0  0  0  0  0  0
   -7.6749    1.0422    3.4955 C   0  0  0  0  0  0  0  0  0  0  0  0
    7.0578    3.6135   -0.0531 H   0  0  0  0  0  0  0  0  0  0  0  0
    6.9090    1.9611    0.6194 H   0  0  0  0  0  0  0  0  0  0  0  0
    5.4313    2.8845    0.2164 H   0  0  0  0  0  0  0  0  0  0  0  0
    4.7119    1.2364   -1.2257 H   0  0  0  0  0  0  0  0  0  0  0  0
    6.1469    0.1912   -1.0786 H   0  0  0  0  0  0  0  0  0  0  0  0
    6.6817    0.4566   -3.4623 H   0  0  0  0  0  0  0  0  0  0  0  0
    5.4368    1.7059   -3.6530 H   0  0  0  0  0  0  0  0  0  0  0  0
    3.4086    2.0715   -3.4656 H   0  0  0  0  0  0  0  0  0  0  0  0
    3.4331   -4.4284   -3.1366 H   0  0  0  0  0  0  0  0  0  0  0  0
    1.8838   -3.7123   -3.6805 H   0  0  0  0  0  0  0  0  0  0  0  0
    2.3099   -3.7263   -1.9208 H   0  0  0  0  0  0  0  0  0  0  0  0
    0.8209   -2.0500   -2.4076 H   0  0  0  0  0  0  0  0  0  0  0  0
   -0.8972    3.4970   -2.8416 H   0  0  0  0  0  0  0  0  0  0  0  0
   -0.5551   -1.4031   -1.0177 H   0  0  0  0  0  0  0  0  0  0  0  0
   -3.3897    1.0078   -1.3791 H   0  0  0  0  0  0  0  0  0  0  0  0
   -2.9975   -2.1293    2.5573 H   0  0  0  0  0  0  0  0  0  0  0  0
    0.6228   -1.5136    1.7315 H   0  0  0  0  0  0  0  0  0  0  0  0
    1.3700   -0.3194    2.8285 H   0  0  0  0  0  0  0  0  0  0  0  0
    3.8050   -0.0613    0.8129 H   0  0  0  0  0  0  0  0  0  0  0  0
    5.3525   -1.7730    0.6466 H   0  0  0  0  0  0  0  0  0  0  0  0
    4.8652   -2.2177   -1.0203 H   0  0  0  0  0  0  0  0  0  0  0  0
    4.7563   -3.4287    0.2816 H   0  0  0  0  0  0  0  0  0  0  0  0
    0.1054    1.8960    0.6185 H   0  0  0  0  0  0  0  0  0  0  0  0
    1.7516    3.9011   -0.7553 H   0  0  0  0  0  0  0  0  0  0  0  0
    1.7491    4.1643    1.0129 H   0  0  0  0  0  0  0  0  0  0  0  0
    0.2088    4.1673    0.0990 H   0  0  0  0  0  0  0  0  0  0  0  0
   -6.9236   -1.8668    1.7872 H   0  0  0  0  0  0  0  0  0  0  0  0
   -6.9176   -0.1416    1.2719 H   0  0  0  0  0  0  0  0  0  0  0  0
   -8.2743   -1.0411    3.5885 H   0  0  0  0  0  0  0  0  0  0  0  0
   -6.7886    1.6253    3.2042 H   0  0  0  0  0  0  0  0  0  0  0  0
   -7.9641    1.3111    4.5212 H   0  0  0  0  0  0  0  0  0  0  0  0
   -8.4957    1.3058    2.8119 H   0  0  0  0  0  0  0  0  0  0  0  0
  1 46  1  0  0  0  0
  1 48  1  0  0  0  0
  1 47  1  0  0  0  0
  2  1  1  0  0  0  0
  3  2  1  0  0  0  0
  3 49  1  0  0  0  0
  3 50  1  0  0  0  0
  4  3  1  0  0  0  0
  5  6  1  0  0  0  0
  5  4  1  0  0  0  0
  6  8  1  0  0  0  0
  7  6  2  0  0  0  0
  7 13  1  0  0  0  0
  8 11  2  0  0  0  0
  9  8  1  0  0  0  0
  9 10  1  0  0  0  0
 10 56  1  0  0  0  0
 11 12  1  0  0  0  0
 11 57  1  0  0  0  0
 12 17  1  0  0  0  0
 13 12  2  0  0  0  0
 14 13  1  0  0  0  0
 14 15  2  0  0  0  0
 15 16  1  0  0  0  0
 16 17  2  0  0  0  0
 17 18  1  0  0  0  0
 18 59  1  0  0  0  0
 18 19  1  0  0  0  0
 19 37  1  0  0  0  0
 20 19  2  0  0  0  0
 20 21  1  0  0  0  0
 21 23  1  0  0  0  0
 22 21  2  0  0  0  0
 23 24  2  0  0  0  0
 23 39  1  0  0  0  0
 24 61  1  0  0  0  0
 26 25  1  0  0  0  0
 26 63  1  0  0  0  0
 27 28  1  6  0  0  0
 27 29  1  0  0  0  0
 27 26  1  0  0  0  0
 29 64  1  0  0  0  0
 30 29  1  0  0  0  0
 31 30  1  0  0  0  0
 31 67  1  0  0  0  0
 31 65  1  0  0  0  0
 32 30  2  0  0  0  0
 33 27  1  0  0  0  0
 34 33  1  0  0  0  0
 34 68  1  0  0  0  0
 35 34  1  0  0  0  0
 35 70  1  0  0  0  0
 36 33  2  0  0  0  0
 37 24  1  0  0  0  0
 38 37  2  0  0  0  0
 39 43  1  0  0  0  0
 40 39  1  0  0  0  0
 40 41  1  0  0  0  0
 41 45  1  0  0  0  0
 41 74  1  1  0  0  0
 41 42  1  0  0  0  0
 43 42  1  0  0  0  0
 43 44  2  0  0  0  0
 45 76  1  0  0  0  0
 51  4  1  0  0  0  0
 52  4  1  0  0  0  0
 53  7  1  0  0  0  0
 54 10  1  0  0  0  0
 55 10  1  0  0  0  0
 58 15  1  0  0  0  0
 60 20  1  0  0  0  0
 62 26  1  0  0  0  0
 66 31  1  0  0  0  0
 69 35  1  0  0  0  0
 71 35  1  0  0  0  0
 72 40  1  0  0  0  0
 73 40  1  0  0  0  0
 75 45  1  0  0  0  0
 77 45  1  0  0  0  0
M  END
