77
-1 1
C         7.815463    3.224947   -3.860103
O         7.140160    2.293951   -4.646699
C         6.381889    1.381706   -3.908422
C         5.661369    0.475650   -4.896543
O         4.923122   -0.524623   -4.245174
C         3.720471   -0.231532   -3.705484
C         3.074133    0.979354   -3.803106
C         3.102224   -1.313263   -2.993961
O         3.810505   -2.459825   -2.953918
C         3.182478   -3.605827   -2.428848
C         1.874267   -1.125345   -2.403349
C         1.219500    0.130244   -2.468025
C         1.810190    1.187682   -3.190562
N         1.215254    2.409453   -3.314319
C         0.063330    2.539006   -2.709737
N        -0.586912    1.631129   -1.962047
C        -0.030046    0.440089   -1.811508
N        -0.623009   -0.488056   -1.020569
C        -1.757134   -0.381007   -0.206350
C        -2.676281    0.606902   -0.140233
C        -3.892699    0.541725    0.733593
O        -4.772037    1.414776    0.570490
C        -3.966187   -0.541143    1.627333
C        -2.867789   -1.486206    1.792705
S        -1.681236   -0.872551    3.254776
C         0.042879   -1.358240    2.905020
C         0.876389   -0.318813    2.121009
H         0.398001   -0.166302    1.142797
N         2.236952   -0.764968    1.916125
C         2.602855   -1.702749    1.025018
C         4.094503   -1.900605    0.842552
O         1.797858   -2.366505    0.381400
C         1.005200    1.062139    2.796767
N        -0.121023    1.791083    2.841699
C        -0.195949    3.074318    3.494481
O         2.093254    1.447284    3.213295
C        -1.938073   -1.603975    0.624772
O        -1.304817   -2.616526    0.383139
N        -5.126182   -0.638881    2.439248
C        -6.415184   -0.981333    1.871820
C        -7.370404   -0.153803    2.745494
O        -6.603350    0.122281    3.917703
C        -5.274466    0.027605    3.626736
O        -4.423586    0.454416    4.360799
C        -7.780972    1.149278    2.080515
H         8.374919    3.892569   -4.529647
H         8.531666    2.739742   -3.167425
H         7.119043    3.836391   -3.253532
H         5.652534    1.902639   -3.257326
H         7.021573    0.760949   -3.248562
H         6.407048   -0.045827   -5.512511
H         5.032787    1.078285   -5.573743
H         3.497641    1.827639   -4.339369
H         3.914066   -4.420165   -2.503283
H         2.287375   -3.870802   -3.019548
H         2.878873   -3.468052   -1.377978
H         1.435435   -1.942171   -1.835037
H        -0.442855    3.507486   -2.808955
H        -0.141163   -1.372570   -0.858051
H        -2.589167    1.486304   -0.774886
H        -3.168892   -2.484544    2.129004
H         0.061387   -2.298166    2.334255
H         0.518752   -1.544596    3.880435
H         2.919428   -0.173338    2.387261
H         4.706647   -1.240027    1.471089
H         4.337973   -1.724541   -0.216066
H         4.342013   -2.947809    1.067308
H        -0.993231    1.301551    2.632561
H         0.823414    3.450352    3.645244
H        -0.697274    2.998454    4.472716
H        -0.758312    3.783511    2.870234
H        -6.611739   -2.067180    1.936976
H        -6.462463   -0.670903    0.818158
H        -8.249586   -0.733399    3.066975
H        -6.882563    1.634776    1.665052
H        -8.272725    1.813129    2.806601
H        -8.479285    0.948518    1.252504
