100
-1 1
O        -5.115779    7.474227   -3.035223
C        -4.212784    6.781691   -2.598361
N        -3.490609    5.996408   -3.477506
C        -2.738996    4.806456   -3.344831
C        -1.954987    4.416649   -4.451165
C        -1.856850    5.285283   -5.677198
C        -1.273170    3.200429   -4.368807
C        -1.312549    2.389021   -3.240651
C        -2.063840    2.801415   -2.134091
N        -2.121902    2.131488   -0.913323
C        -1.957510    0.818106   -0.619953
N        -2.139235    0.524632    0.680621
C        -1.969390   -0.721114    1.052402
N        -2.114239   -1.018162    2.402475
C        -1.637162   -2.210048    2.949972
N        -1.242795   -3.172430    2.047397
C        -1.596077   -3.155263    0.634446
C        -0.540330   -4.318372    2.528336
C        -1.213795   -5.437146    3.041002
C        -2.700913   -5.399331    3.257411
C        -0.440929   -6.556400    3.363409
C         0.944730   -6.583984    3.201687
C         1.594998   -5.447557    2.718677
N         2.989199   -5.357023    2.534450
C         3.830628   -6.336128    2.093174
C         5.187232   -5.814562    1.578664
H         5.506206   -4.978104    2.224531
C         5.044745   -5.274253    0.135658
C         4.044192   -4.153982   -0.033341
C         2.851115   -4.349337   -0.736108
C         1.901033   -3.331501   -0.834512
C         2.110490   -2.102858   -0.211456
C         3.303949   -1.892551    0.482606
C         4.263276   -2.902012    0.561744
N         6.213711   -6.834537    1.609320
O         3.558730   -7.520694    2.067303
C         0.840355   -4.321546    2.386969
O        -1.552315   -2.382717    4.150128
C        -2.484579    0.063878    3.305364
C        -1.665096   -1.747833    0.139190
C        -1.521711   -1.334332   -1.171960
N        -1.655699   -0.072844   -1.574105
C        -2.790279    3.999045   -2.209834
C        -3.848222    6.858509   -1.157450
C        -2.607831    6.809966   -0.670657
S        -1.382078    4.253336    1.346704
C         0.170920    3.280953    1.452153
C         1.070141    3.258299    0.172985
H         2.111383    3.495232    0.462158
N         0.629586    4.272151   -0.760672
C         1.358073    4.848628   -1.724679
C         0.704903    6.033202   -2.406313
O         2.473904    4.450389   -2.071564
C         1.180501    1.842896   -0.444422
N         1.668185    1.813973   -1.700809
C         1.858022    0.582123   -2.418102
O         0.908976    0.826087    0.184138
H        -3.795065    6.196357   -4.424687
H        -2.815359    5.354952   -6.222951
H        -1.115894    4.882033   -6.381104
H        -1.555140    6.314087   -5.420412
H        -0.666877    2.883937   -5.222496
H        -0.766424    1.450961   -3.200926
H        -2.180150    2.755208   -0.074964
H        -2.559852   -3.682536    0.476009
H        -0.830972   -3.724527    0.086593
H        -2.943930   -4.644070    4.020735
H        -3.081102   -6.374744    3.591311
H        -3.237672   -5.118146    2.338225
H        -0.940555   -7.445689    3.757238
H         1.519809   -7.477751    3.437513
H         3.317022   -4.409293    2.383887
H         4.770193   -6.119565   -0.516097
H         6.050635   -4.949672   -0.171935
H         2.658329   -5.318739   -1.203741
H         0.979834   -3.505489   -1.396111
H         1.373432   -1.294782   -0.246830
H         3.474381   -0.924343    0.958467
H         5.198965   -2.718099    1.099745
H         5.813837   -7.682411    1.203810
H         6.409300   -7.084909    2.577030
H         1.324857   -3.430945    1.981696
H        -3.444273    0.494961    2.993564
H        -1.737286    0.869172    3.274117
H        -2.553511   -0.352711    4.314280
H        -1.284371   -2.069886   -1.952639
H        -3.398379    4.284480   -1.354089
H        -4.698187    7.094089   -0.511691
H        -1.751684    6.603250   -1.314853
H        -2.395044    6.943343    0.391562
H        -0.060697    2.235133    1.694250
H         0.772185    3.682654    2.279879
H        -0.286090    4.661973   -0.463428
H         1.367432    6.393115   -3.201483
H         0.520322    6.843114   -1.685123
H        -0.258534    5.728017   -2.840710
H         2.072436    2.683509   -2.061288
H         2.729600    0.007294   -2.058658
H         2.003994    0.807755   -3.483525
H         0.966705   -0.054206   -2.313974
