100
-1 1
O        -2.377349    7.459474   -1.149558
C        -1.844479    6.381949   -0.857087
N        -1.384425    5.611023   -2.039465
C        -1.903984    4.395262   -2.461089
C        -1.767977    3.999493   -3.819428
C        -1.142204    4.927076   -4.823214
C        -2.237771    2.746643   -4.204973
C        -2.821677    1.848662   -3.312639
C        -2.953605    2.244395   -1.983490
N        -3.511466    1.405778   -0.986189
C        -3.162819    0.123852   -0.705704
N        -3.540527   -0.312029    0.514309
C        -3.170697   -1.529623    0.854687
N        -3.503249   -1.993198    2.123403
C        -2.733791   -2.985084    2.752676
N        -1.927074   -3.723526    1.921405
C        -2.107769   -3.743326    0.475216
C        -0.883715   -4.521573    2.482185
C        -1.140546   -5.780960    3.042365
C        -2.548186   -6.288651    3.182355
C        -0.036424   -6.519623    3.477254
C         1.271696   -6.049461    3.372074
C         1.501979   -4.784994    2.823282
N         2.779109   -4.211394    2.688119
C         3.969020   -4.854611    2.504066
C         5.121730   -3.938816    2.044780
H         5.059945   -2.993097    2.610686
C         4.980237   -3.600948    0.541898
C         3.728321   -2.837448    0.177829
C         2.697699   -3.434737   -0.554785
C         1.522137   -2.736764   -0.836682
C         1.348140   -1.431182   -0.381036
C         2.371139   -0.823239    0.349049
C         3.549047   -1.517951    0.619983
N         6.418458   -4.532782    2.286320
O         4.136533   -6.049240    2.656085
C         0.413006   -4.030172    2.381853
O        -2.771020   -3.149302    3.954759
C        -4.345871   -1.162575    2.968349
C        -2.440886   -2.369648   -0.004413
C        -2.140391   -1.825602   -1.239339
N        -2.492611   -0.599914   -1.608895
C        -2.540213    3.511876   -1.578012
C        -1.611972    5.833220    0.407681
C        -0.724245    4.702595    0.716245
S         1.102230    5.178861    0.953978
C         1.930605    3.625664    0.494238
C         1.943096    3.268321   -1.011755
H         2.949727    2.899973   -1.275312
N         1.707214    4.425923   -1.844271
C         2.300217    4.626939   -3.034427
C         2.161398    6.026716   -3.592091
O         2.950072    3.757889   -3.613355
C         1.002540    2.087065   -1.361926
N         1.110301    1.705139   -2.648821
C         0.372156    0.606790   -3.218280
O         0.292709    1.534536   -0.532402
H        -1.345219    6.290110   -2.793845
H        -1.688242    5.884214   -4.894638
H        -1.133200    4.476311   -5.825632
H        -0.103135    5.169624   -4.556008
H        -2.134336    2.453466   -5.254501
H        -3.140484    0.859039   -3.632874
H        -3.875809    1.887745   -0.173174
H        -2.899800   -4.469604    0.201734
H        -1.173388   -4.099471    0.019528
H        -3.091849   -5.677900    3.919217
H        -2.563179   -7.337797    3.508465
H        -3.097929   -6.215288    2.231278
H        -0.203395   -7.507556    3.914829
H         2.113587   -6.656079    3.699169
H         2.768903   -3.232269    2.422793
H         5.025399   -4.543419   -0.027901
H         5.877522   -3.022977    0.273624
H         2.813994   -4.465247   -0.901306
H         0.734756   -3.221542   -1.419356
H         0.443618   -0.856365   -0.592826
H         2.233819    0.205168    0.689169
H         4.349067   -1.025514    1.181650
H         6.386364   -5.494956    1.946063
H         6.564394   -4.624736    3.290042
H         0.569450   -3.047033    1.929627
H        -5.243107   -0.870643    2.409584
H        -3.821311   -0.246096    3.277411
H        -4.612417   -1.742709    3.856997
H        -1.581034   -2.413982   -1.978548
H        -2.697776    3.838702   -0.549443
H        -1.980960    6.438217    1.239889
H        -0.678196    3.930212   -0.062902
H        -0.993950    4.195490    1.654492
H         1.462667    2.793064    1.038163
H         2.964813    3.729211    0.850762
H         1.106566    5.148339   -1.441723
H         2.131379    5.980896   -4.687831
H         3.050631    6.604816   -3.297543
H         1.271668    6.541374   -3.204601
H         1.789273    2.208424   -3.222329
H         0.979327   -0.315403   -3.256097
H         0.051976    0.862324   -4.238035
H        -0.529229    0.417307   -2.621179
