100
-1 1
O         3.684417    7.249000   -9.012727
C         3.978833    6.081918   -8.765692
N         4.264838    5.280941   -9.925341
C         3.828480    4.012511  -10.296845
C         4.055078    3.582415  -11.630418
C         4.716956    4.489817  -12.630561
C         3.640341    2.304912  -11.996087
C         3.039325    1.417676  -11.105389
C         2.831361    1.844549   -9.796076
N         2.272934    1.021011   -8.793187
C         2.595954   -0.269549   -8.505084
N         2.264352   -0.662312   -7.258774
C         2.621057   -1.878629   -6.899710
N         2.326980   -2.300952   -5.608093
C         3.091419   -3.299686   -4.983512
N         3.859538   -4.068390   -5.823629
C         3.633743   -4.120948   -7.262109
C         4.906394   -4.870872   -5.274681
C         4.651096   -6.132060   -4.718288
C         3.241944   -6.632060   -4.564271
C         5.756806   -6.876760   -4.298249
C         7.065186   -6.408229   -4.411233
C         7.293297   -5.140038   -4.951732
N         8.569608   -4.565948   -5.090903
C         9.754570   -5.207747   -5.309844
C        10.899147   -4.284803   -5.774600
H        10.840317   -3.343446   -5.201203
C        10.740198   -3.936247   -7.273531
C         9.467455   -3.200541   -7.622046
C         8.443744   -3.822042   -8.344199
C         7.246447   -3.154643   -8.606743
C         7.042893   -1.857451   -8.140132
C         8.058924   -1.224619   -7.421476
C         9.259726   -1.887869   -7.171942
N        12.200533   -4.876162   -5.552217
O         9.922190   -6.405274   -5.182961
C         6.202496   -4.380877   -5.381186
O         3.084306   -3.443939   -3.778522
C         1.534530   -1.430471   -4.754904
C         3.296858   -2.756078   -7.765712
C         3.538511   -2.258443   -9.032300
N         3.189173   -1.037457   -9.422797
C         3.174975    3.143730   -9.418536
C         4.085196    5.539464   -7.441017
C         4.779293    4.401831   -7.033436
S         7.059517    4.591309   -6.611023
C         7.410616    2.875429   -7.110160
C         7.525278    2.610574   -8.640385
H         8.543501    2.252086   -8.874987
N         7.314473    3.823801   -9.399784
C         7.893729    4.084415  -10.583041
C         7.865267    5.542352  -10.990812
O         8.440776    3.226442  -11.276970
C         6.579760    1.472833   -9.107002
N         6.831411    1.073067  -10.367730
C         6.119657    0.010827  -11.028936
O         5.735946    0.966314   -8.376895
H         4.334115    5.924546  -10.706424
H         4.154003    5.429154  -12.774624
H         4.792547    4.000890  -13.611623
H         5.734810    4.765516  -12.318114
H         3.809225    1.980052  -13.027257
H         2.770000    0.408859  -11.408185
H         1.955827    1.514765   -7.967622
H         2.828277   -4.846615   -7.495236
H         4.551405   -4.495138   -7.737160
H         2.702398   -6.004532   -3.838391
H         3.224404   -7.673614   -4.214762
H         2.689203   -6.579375   -5.515071
H         5.591180   -7.866646   -3.864573
H         7.908638   -7.018625   -4.095039
H         8.556415   -3.582856   -5.340974
H        10.803006   -4.872907   -7.851172
H        11.622144   -3.335694   -7.542905
H         8.583103   -4.847669   -8.696724
H         6.463611   -3.656622   -9.181200
H         6.118241   -1.309102   -8.334739
H         7.901553   -0.202933   -7.068248
H        10.053710   -1.375942   -6.619283
H        12.165877   -5.837447   -5.894777
H        12.361352   -4.969387   -4.550916
H         6.357400   -3.395930   -5.829397
H         0.619581   -1.138226   -5.284242
H         2.087957   -0.515631   -4.495447
H         1.295405   -1.979899   -3.839388
H         4.044164   -2.882135   -9.781067
H         2.962375    3.484333   -8.406687
H         3.753266    6.250273   -6.680131
H         4.970725    3.592082   -7.741168
H         4.614991    4.047179   -6.014237
H         6.609736    2.226102   -6.725891
H         8.345989    2.557753   -6.627705
H         6.994072    4.604665   -8.809233
H         7.971108    5.619079  -12.079946
H         8.715782    6.057863  -10.518658
H         6.942033    6.035010  -10.655578
H         7.530742    1.616362  -10.882593
H         6.729128   -0.908872  -11.084532
H         5.849564    0.314362  -12.050908
H         5.193024   -0.205210  -10.481960
