-1 1
 OpenBabel05232413483D

100103  0  0  1  0  0  0  0  0999 V2000
   -6.6239    4.8935    3.5586 O   0  0  0  0  0  0  0  0  0  0  0  0
   -5.5602    4.3619    3.2764 C   0  0  0  0  0  0  0  0  0  0  0  0
   -4.7074    5.0133    2.4036 N   0  0  0  0  0  0  0  0  0  0  0  0
   -3.6714    4.5835    1.5724 C   0  0  0  0  0  0  0  0  0  0  0  0
   -2.8524    5.5664    0.9645 C   0  0  0  0  0  0  0  0  0  0  0  0
   -3.1079    7.0346    1.1763 C   0  0  0  0  0  0  0  0  0  0  0  0
   -1.8223    5.1265    0.1361 C   0  0  0  0  0  0  0  0  0  0  0  0
   -1.5678    3.7821   -0.1295 C   0  0  0  0  0  0  0  0  0  0  0  0
   -2.4060    2.8254    0.4464 C   0  0  0  0  0  0  0  0  0  0  0  0
   -2.2820    1.4362    0.2585 N   0  0  0  0  0  0  0  0  0  0  0  0
   -1.3968    0.6835   -0.4434 C   0  0  0  0  0  0  0  0  0  0  0  0
   -1.6058   -0.6468   -0.3396 N   0  0  0  0  0  0  0  0  0  0  0  0
   -0.7602   -1.4374   -0.9680 C   0  0  0  0  0  0  0  0  0  0  0  0
   -0.9597   -2.8076   -0.8948 N   0  0  0  0  0  0  0  0  0  0  0  0
   -0.3878   -3.6883   -1.8246 C   0  0  0  0  0  0  0  0  0  0  0  0
    0.6010   -3.1599   -2.6295 N   0  0  0  0  0  0  0  0  0  0  0  0
    1.2973   -1.9262   -2.2841 C   0  0  0  0  0  0  0  0  0  0  0  0
    1.1723   -3.9930   -3.6358 C   0  0  0  0  0  0  0  0  0  0  0  0
    0.4176   -4.3732   -4.7581 C   0  0  0  0  0  0  0  0  0  0  0  0
   -1.0223   -3.9741   -4.9073 C   0  0  0  0  0  0  0  0  0  0  0  0
    1.0643   -5.1477   -5.7236 C   0  0  0  0  0  0  0  0  0  0  0  0
    2.3982   -5.5340   -5.6200 C   0  0  0  0  0  0  0  0  0  0  0  0
    3.1366   -5.1396   -4.4998 C   0  0  0  0  0  0  0  0  0  0  0  0
    4.4879   -5.4706   -4.2946 N   0  0  0  0  0  0  0  0  0  0  0  0
    5.3195   -6.2193   -5.0861 C   0  0  0  0  0  0  0  0  0  0  0  0
    6.7284   -6.3483   -4.5754 C   0  0  0  0  0  0  0  0  0  0  0  0
    7.3255   -5.4439   -3.6856 C   0  0  0  0  0  0  0  0  0  0  0  0
    8.6375   -5.6049   -3.2621 C   0  0  0  0  0  0  0  0  0  0  0  0
    9.1876   -4.6701   -2.4462 O   0  0  0  0  0  0  0  0  0  0  0  0
    9.4869   -5.0828   -1.1301 C   0  0  0  0  0  0  0  0  0  0  0  0
    9.3936   -6.7017   -3.7360 C   0  0  0  0  0  0  0  0  0  0  0  0
   10.6636   -6.7834   -3.2949 O   0  0  0  0  0  0  0  0  0  0  0  0
   11.4827   -7.8226   -3.7599 C   0  0  0  0  0  0  0  0  0  0  0  0
    8.8019   -7.6025   -4.6256 C   0  0  0  0  0  0  0  0  0  0  0  0
    7.4859   -7.4188   -5.0451 C   0  0  0  0  0  0  0  0  0  0  0  0
    4.9702   -6.7641   -6.1149 O   0  0  0  0  0  0  0  0  0  0  0  0
    2.5074   -4.3705   -3.5146 C   0  0  0  0  0  0  0  0  0  0  0  0
   -0.7654   -4.8362   -1.9205 O   0  0  0  0  0  0  0  0  0  0  0  0
   -2.0266   -3.3156   -0.0462 C   0  0  0  0  0  0  0  0  0  0  0  0
    0.3274   -0.9450   -1.7126 C   0  0  0  0  0  0  0  0  0  0  0  0
    0.4143    0.4328   -1.7813 C   0  0  0  0  0  0  0  0  0  0  0  0
   -0.4296    1.2564   -1.1649 N   0  0  0  0  0  0  0  0  0  0  0  0
   -3.4566    3.2354    1.2757 C   0  0  0  0  0  0  0  0  0  0  0  0
   -5.1599    3.1023    3.9539 C   0  0  0  0  0  0  0  0  0  0  0  0
   -3.9356    2.8727    4.4451 C   0  0  0  0  0  0  0  0  0  0  0  0
   -3.7226    4.1148    7.5019 S   0  0  0  0  0  1  0  0  0  0  0  0
   -5.1915    4.9889    6.8571 C   0  0  0  0  0  0  0  0  0  0  0  0
   -5.0279    6.4258    6.3033 C   0  0  2  0  0  0  0  0  0  0  0  0
   -4.7268    7.0933    7.1260 H   0  0  0  0  0  0  0  0  0  0  0  0
   -6.3099    6.8886    5.8224 N   0  0  0  0  0  0  0  0  0  0  0  0
   -6.7097    8.1800    5.9345 C   0  0  0  0  0  0  0  0  0  0  0  0
   -7.8812    8.5420    5.0356 C   0  0  0  0  0  0  0  0  0  0  0  0
   -6.1918    8.9965    6.6755 O   0  0  0  0  0  0  0  0  0  0  0  0
   -3.9860    6.6402    5.1841 C   0  0  0  0  0  0  0  0  0  0  0  0
   -2.7775    6.1093    5.4129 N   0  0  0  0  0  0  0  0  0  0  0  0
   -1.7039    6.2130    4.4641 C   0  0  0  0  0  0  0  0  0  0  0  0
   -4.2554    7.2976    4.1759 O   0  0  0  0  0  0  0  0  0  0  0  0
   -4.8848    6.0150    2.4269 H   0  0  0  0  0  0  0  0  0  0  0  0
   -4.0336    7.3500    0.6626 H   0  0  0  0  0  0  0  0  0  0  0  0
   -2.2851    7.6336    0.7621 H   0  0  0  0  0  0  0  0  0  0  0  0
   -3.2314    7.2901    2.2415 H   0  0  0  0  0  0  0  0  0  0  0  0
   -1.1778    5.8784   -0.3280 H   0  0  0  0  0  0  0  0  0  0  0  0
   -0.7485    3.4757   -0.7730 H   0  0  0  0  0  0  0  0  0  0  0  0
   -2.9529    0.8686    0.7613 H   0  0  0  0  0  0  0  0  0  0  0  0
    1.7657   -1.5296   -3.1963 H   0  0  0  0  0  0  0  0  0  0  0  0
    2.1134   -2.1272   -1.5606 H   0  0  0  0  0  0  0  0  0  0  0  0
   -1.1766   -2.9274   -4.6046 H   0  0  0  0  0  0  0  0  0  0  0  0
   -1.6577   -4.5955   -4.2577 H   0  0  0  0  0  0  0  0  0  0  0  0
   -1.3598   -4.0911   -5.9461 H   0  0  0  0  0  0  0  0  0  0  0  0
    0.5014   -5.4582   -6.6078 H   0  0  0  0  0  0  0  0  0  0  0  0
    2.8720   -6.1351   -6.3918 H   0  0  0  0  0  0  0  0  0  0  0  0
    4.8692   -5.1671   -3.4094 H   0  0  0  0  0  0  0  0  0  0  0  0
    6.8082   -4.5541   -3.3191 H   0  0  0  0  0  0  0  0  0  0  0  0
   10.2628   -5.8635   -1.1140 H   0  0  0  0  0  0  0  0  0  0  0  0
    8.5833   -5.4581   -0.6180 H   0  0  0  0  0  0  0  0  0  0  0  0
    9.8555   -4.1979   -0.5960 H   0  0  0  0  0  0  0  0  0  0  0  0
   12.4625   -7.6837   -3.2877 H   0  0  0  0  0  0  0  0  0  0  0  0
   11.6050   -7.7839   -4.8559 H   0  0  0  0  0  0  0  0  0  0  0  0
   11.0864   -8.8135   -3.4781 H   0  0  0  0  0  0  0  0  0  0  0  0
    9.3677   -8.4514   -5.0094 H   0  0  0  0  0  0  0  0  0  0  0  0
    7.0273   -8.1098   -5.7540 H   0  0  0  0  0  0  0  0  0  0  0  0
    3.0643   -4.0668   -2.6242 H   0  0  0  0  0  0  0  0  0  0  0  0
   -1.9288   -2.8867    0.9583 H   0  0  0  0  0  0  0  0  0  0  0  0
   -1.9420   -4.4056   -0.0124 H   0  0  0  0  0  0  0  0  0  0  0  0
   -3.0145   -3.0378   -0.4427 H   0  0  0  0  0  0  0  0  0  0  0  0
    1.2170    0.9047   -2.3613 H   0  0  0  0  0  0  0  0  0  0  0  0
   -4.1087    2.4830    1.7173 H   0  0  0  0  0  0  0  0  0  0  0  0
   -6.0042    2.4654    4.2307 H   0  0  0  0  0  0  0  0  0  0  0  0
   -3.1014    3.5496    4.2480 H   0  0  0  0  0  0  0  0  0  0  0  0
   -3.7318    2.0181    5.0902 H   0  0  0  0  0  0  0  0  0  0  0  0
   -5.9422    5.0791    7.6565 H   0  0  0  0  0  0  0  0  0  0  0  0
   -5.6646    4.3852    6.0647 H   0  0  0  0  0  0  0  0  0  0  0  0
   -6.6980    6.3369    5.0601 H   0  0  0  0  0  0  0  0  0  0  0  0
   -7.4932    8.7389    4.0243 H   0  0  0  0  0  0  0  0  0  0  0  0
   -8.3615    9.4509    5.4180 H   0  0  0  0  0  0  0  0  0  0  0  0
   -8.6152    7.7262    4.9639 H   0  0  0  0  0  0  0  0  0  0  0  0
   -2.7320    5.4187    6.1969 H   0  0  0  0  0  0  0  0  0  0  0  0
   -1.8631    5.5896    3.5651 H   0  0  0  0  0  0  0  0  0  0  0  0
   -0.7698    5.8891    4.9437 H   0  0  0  0  0  0  0  0  0  0  0  0
   -1.5839    7.2534    4.1239 H   0  0  0  0  0  0  0  0  0  0  0  0
  2  1  2  0  0  0  0
  2 44  1  0  0  0  0
  3 58  1  0  0  0  0
  3  2  1  0  0  0  0
  4  3  1  0  0  0  0
  5  6  1  0  0  0  0
  5  4  2  0  0  0  0
  6 61  1  0  0  0  0
  7  5  1  0  0  0  0
  8  7  2  0  0  0  0
  8  9  1  0  0  0  0
  9 43  2  0  0  0  0
 10  9  1  0  0  0  0
 10 64  1  0  0  0  0
 11 12  2  0  0  0  0
 11 10  1  0  0  0  0
 13 14  1  0  0  0  0
 13 12  1  0  0  0  0
 14 39  1  0  0  0  0
 15 14  1  0  0  0  0
 16 17  1  0  0  0  0
 16 15  1  0  0  0  0
 17 40  1  0  0  0  0
 17 66  1  0  0  0  0
 18 37  1  0  0  0  0
 18 16  1  0  0  0  0
 19 18  2  0  0  0  0
 20 19  1  0  0  0  0
 20 67  1  0  0  0  0
 20 68  1  0  0  0  0
 21 22  2  0  0  0  0
 21 19  1  0  0  0  0
 22 23  1  0  0  0  0
 23 24  1  0  0  0  0
 23 37  2  0  0  0  0
 24 72  1  0  0  0  0
 25 26  1  0  0  0  0
 25 24  1  0  0  0  0
 26 27  1  0  0  0  0
 27 73  1  0  0  0  0
 27 28  2  0  0  0  0
 28 29  1  0  0  0  0
 29 30  1  0  0  0  0
 30 74  1  0  0  0  0
 30 75  1  0  0  0  0
 30 76  1  0  0  0  0
 31 32  1  0  0  0  0
 31 28  1  0  0  0  0
 33 79  1  0  0  0  0
 33 32  1  0  0  0  0
 33 77  1  0  0  0  0
 34 31  2  0  0  0  0
 35 34  1  0  0  0  0
 35 26  2  0  0  0  0
 36 25  2  0  0  0  0
 37 82  1  0  0  0  0
 38 15  2  0  0  0  0
 39 84  1  0  0  0  0
 39 83  1  0  0  0  0
 40 13  2  0  0  0  0
 41 40  1  0  0  0  0
 41 42  2  0  0  0  0
 42 11  1  0  0  0  0
 43  4  1  0  0  0  0
 43 87  1  0  0  0  0
 44 88  1  0  0  0  0
 44 45  2  0  0  0  0
 45 90  1  0  0  0  0
 47 46  1  0  0  0  0
 47 91  1  0  0  0  0
 48 47  1  0  0  0  0
 48 49  1  1  0  0  0
 50 51  1  0  0  0  0
 50 48  1  0  0  0  0
 51 53  2  0  0  0  0
 52 95  1  0  0  0  0
 52 51  1  0  0  0  0
 54 55  1  0  0  0  0
 54 48  1  0  0  0  0
 55 97  1  0  0  0  0
 56 99  1  0  0  0  0
 56 55  1  0  0  0  0
 57 54  2  0  0  0  0
 59  6  1  0  0  0  0
 60  6  1  0  0  0  0
 62  7  1  0  0  0  0
 63  8  1  0  0  0  0
 65 17  1  0  0  0  0
 69 20  1  0  0  0  0
 70 21  1  0  0  0  0
 71 22  1  0  0  0  0
 78 33  1  0  0  0  0
 80 34  1  0  0  0  0
 81 35  1  0  0  0  0
 85 39  1  0  0  0  0
 86 41  1  0  0  0  0
 89 45  1  0  0  0  0
 92 47  1  0  0  0  0
 93 50  1  0  0  0  0
 94 52  1  0  0  0  0
 96 52  1  0  0  0  0
 98 56  1  0  0  0  0
100 56  1  0  0  0  0
M  END
