-1 1
 OpenBabel05192410563D

100104  0  0  1  0  0  0  0  0999 V2000
   -7.2176    4.6177    2.2061 O   0  0  0  0  0  0  0  0  0  0  0  0
   -6.1358    4.2017    2.6326 C   0  0  0  0  0  0  0  0  0  0  0  0
   -4.9650    4.9981    2.2221 N   0  0  0  0  0  0  0  0  0  0  0  0
   -3.9784    4.6004    1.3446 C   0  0  0  0  0  0  0  0  0  0  0  0
   -3.2008    5.5844    0.6697 C   0  0  0  0  0  0  0  0  0  0  0  0
   -3.5099    7.0454    0.8488 C   0  0  0  0  0  0  0  0  0  0  0  0
   -2.1557    5.1585   -0.1411 C   0  0  0  0  0  0  0  0  0  0  0  0
   -1.8337    3.8135   -0.3447 C   0  0  0  0  0  0  0  0  0  0  0  0
   -2.6281    2.8549    0.2863 C   0  0  0  0  0  0  0  0  0  0  0  0
   -2.4522    1.4595    0.1585 N   0  0  0  0  0  0  0  0  0  0  0  0
   -1.5424    0.7059   -0.4981 C   0  0  0  0  0  0  0  0  0  0  0  0
   -1.7203   -0.6284   -0.3526 N   0  0  0  0  0  0  0  0  0  0  0  0
   -0.8481   -1.4180   -0.9409 C   0  0  0  0  0  0  0  0  0  0  0  0
   -1.0180   -2.7921   -0.8215 N   0  0  0  0  0  0  0  0  0  0  0  0
   -0.4178   -3.6897   -1.7119 C   0  0  0  0  0  0  0  0  0  0  0  0
    0.5661   -3.1667   -2.5288 N   0  0  0  0  0  0  0  0  0  0  0  0
    1.2347   -1.9087   -2.2157 C   0  0  0  0  0  0  0  0  0  0  0  0
    1.1586   -4.0181   -3.5052 C   0  0  0  0  0  0  0  0  0  0  0  0
    0.4130   -4.4621   -4.6108 C   0  0  0  0  0  0  0  0  0  0  0  0
   -1.0379   -4.1102   -4.7709 C   0  0  0  0  0  0  0  0  0  0  0  0
    1.0799   -5.2513   -5.5501 C   0  0  0  0  0  0  0  0  0  0  0  0
    2.4254   -5.5934   -5.4387 C   0  0  0  0  0  0  0  0  0  0  0  0
    3.1541   -5.1357   -4.3368 C   0  0  0  0  0  0  0  0  0  0  0  0
    4.5162   -5.4181   -4.1244 N   0  0  0  0  0  0  0  0  0  0  0  0
    5.3694   -6.1652   -4.8925 C   0  0  0  0  0  0  0  0  0  0  0  0
    6.7823   -6.2363   -4.3798 C   0  0  0  0  0  0  0  0  0  0  0  0
    7.3533   -5.2896   -3.5174 C   0  0  0  0  0  0  0  0  0  0  0  0
    8.6699   -5.4001   -3.0918 C   0  0  0  0  0  0  0  0  0  0  0  0
    9.1934   -4.4273   -2.3027 O   0  0  0  0  0  0  0  0  0  0  0  0
    9.5016   -4.7950   -0.9756 C   0  0  0  0  0  0  0  0  0  0  0  0
    9.4577   -6.4870   -3.5354 C   0  0  0  0  0  0  0  0  0  0  0  0
   10.7303   -6.5186   -3.0939 O   0  0  0  0  0  0  0  0  0  0  0  0
   11.5790   -7.5456   -3.5312 C   0  0  0  0  0  0  0  0  0  0  0  0
    8.8921   -7.4298   -4.3979 C   0  0  0  0  0  0  0  0  0  0  0  0
    7.5709   -7.2969   -4.8199 C   0  0  0  0  0  0  0  0  0  0  0  0
    5.0380   -6.7528   -5.9038 O   0  0  0  0  0  0  0  0  0  0  0  0
    2.5053   -4.3506   -3.3775 C   0  0  0  0  0  0  0  0  0  0  0  0
   -0.7634   -4.8512   -1.7703 O   0  0  0  0  0  0  0  0  0  0  0  0
   -2.0856   -3.2918    0.0309 C   0  0  0  0  0  0  0  0  0  0  0  0
    0.2388   -0.9297   -1.6876 C   0  0  0  0  0  0  0  0  0  0  0  0
    0.2970    0.4483   -1.7995 C   0  0  0  0  0  0  0  0  0  0  0  0
   -0.5710    1.2733   -1.2247 N   0  0  0  0  0  0  0  0  0  0  0  0
   -3.6870    3.2482    1.1120 C   0  0  0  0  0  0  0  0  0  0  0  0
   -5.8952    3.1021    3.4709 C   0  0  0  0  0  3  0  0  0  0  0  0
   -4.6572    2.8367    4.1934 C   0  0  0  0  0  0  0  0  0  0  0  0
   -4.6098    3.4028    6.0604 S   0  0  0  0  0  0  0  0  0  0  0  0
   -5.3962    5.0272    5.9500 C   0  0  0  0  0  0  0  0  0  0  0  0
   -4.4731    6.2603    6.0491 C   0  0  2  0  0  0  0  0  0  0  0  0
   -3.9070    6.1839    6.9933 H   0  0  0  0  0  0  0  0  0  0  0  0
   -5.2519    7.4749    6.0741 N   0  0  0  0  0  0  0  0  0  0  0  0
   -5.9060    7.9195    7.1702 C   0  0  0  0  0  0  0  0  0  0  0  0
   -6.6648    9.2219    6.9796 C   0  0  0  0  0  0  0  0  0  0  0  0
   -5.9240    7.3181    8.2312 O   0  0  0  0  0  0  0  0  0  0  0  0
   -3.4658    6.4236    4.8979 C   0  0  0  0  0  0  0  0  0  0  0  0
   -2.5344    5.4570    4.8148 N   0  0  0  0  0  0  0  0  0  0  0  0
   -1.5737    5.3758    3.7416 C   0  0  0  0  0  0  0  0  0  0  0  0
   -3.5110    7.4052    4.1651 O   0  0  0  0  0  0  0  0  0  0  0  0
   -5.2811    5.9475    2.0605 H   0  0  0  0  0  0  0  0  0  0  0  0
   -4.5243    7.2880    0.4844 H   0  0  0  0  0  0  0  0  0  0  0  0
   -2.8013    7.6676    0.2831 H   0  0  0  0  0  0  0  0  0  0  0  0
   -3.4642    7.3421    1.9102 H   0  0  0  0  0  0  0  0  0  0  0  0
   -1.5517    5.9183   -0.6473 H   0  0  0  0  0  0  0  0  0  0  0  0
   -1.0049    3.5159   -0.9798 H   0  0  0  0  0  0  0  0  0  0  0  0
   -3.1270    0.8991    0.6648 H   0  0  0  0  0  0  0  0  0  0  0  0
    1.7057   -1.5327   -3.1354 H   0  0  0  0  0  0  0  0  0  0  0  0
    2.0471   -2.0725   -1.4781 H   0  0  0  0  0  0  0  0  0  0  0  0
   -1.2207   -3.0574   -4.5082 H   0  0  0  0  0  0  0  0  0  0  0  0
   -1.6533   -4.7231   -4.0945 H   0  0  0  0  0  0  0  0  0  0  0  0
   -1.3741   -4.2770   -5.8033 H   0  0  0  0  0  0  0  0  0  0  0  0
    0.5238   -5.6099   -6.4203 H   0  0  0  0  0  0  0  0  0  0  0  0
    2.9147   -6.2072   -6.1905 H   0  0  0  0  0  0  0  0  0  0  0  0
    4.8885   -5.0735   -3.2506 H   0  0  0  0  0  0  0  0  0  0  0  0
    6.8101   -4.4055   -3.1753 H   0  0  0  0  0  0  0  0  0  0  0  0
   10.2963   -5.5559   -0.9374 H   0  0  0  0  0  0  0  0  0  0  0  0
    8.6071   -5.1777   -0.4530 H   0  0  0  0  0  0  0  0  0  0  0  0
    9.8482   -3.8867   -0.4666 H   0  0  0  0  0  0  0  0  0  0  0  0
   12.5552   -7.3644   -3.0657 H   0  0  0  0  0  0  0  0  0  0  0  0
   11.6983   -7.5348   -4.6281 H   0  0  0  0  0  0  0  0  0  0  0  0
   11.2130   -8.5396   -3.2204 H   0  0  0  0  0  0  0  0  0  0  0  0
    9.4822   -8.2724   -4.7585 H   0  0  0  0  0  0  0  0  0  0  0  0
    7.1317   -8.0207   -5.5081 H   0  0  0  0  0  0  0  0  0  0  0  0
    3.0559   -3.9977   -2.5015 H   0  0  0  0  0  0  0  0  0  0  0  0
   -2.0111   -2.8243    1.0201 H   0  0  0  0  0  0  0  0  0  0  0  0
   -1.9794   -4.3779    0.1052 H   0  0  0  0  0  0  0  0  0  0  0  0
   -3.0734   -3.0478   -0.3873 H   0  0  0  0  0  0  0  0  0  0  0  0
    1.0988    0.9173   -2.3841 H   0  0  0  0  0  0  0  0  0  0  0  0
   -4.3223    2.5007    1.5926 H   0  0  0  0  0  0  0  0  0  0  0  0
   -6.7847    2.5242    3.7364 H   0  0  0  0  0  0  0  0  0  0  0  0
   -3.7822    3.3199    3.7425 H   0  0  0  0  0  0  0  0  0  0  0  0
   -4.4329    1.7684    4.3404 H   0  0  0  0  0  0  0  0  0  0  0  0
   -6.1105    5.1071    6.7797 H   0  0  0  0  0  0  0  0  0  0  0  0
   -5.9680    5.0351    5.0055 H   0  0  0  0  0  0  0  0  0  0  0  0
   -5.1534    8.0439    5.2380 H   0  0  0  0  0  0  0  0  0  0  0  0
   -6.5723    9.8198    7.8955 H   0  0  0  0  0  0  0  0  0  0  0  0
   -7.7306    8.9885    6.8366 H   0  0  0  0  0  0  0  0  0  0  0  0
   -6.3164    9.8055    6.1160 H   0  0  0  0  0  0  0  0  0  0  0  0
   -2.7078    4.6289    5.3882 H   0  0  0  0  0  0  0  0  0  0  0  0
   -1.8242    4.5730    3.0300 H   0  0  0  0  0  0  0  0  0  0  0  0
   -0.5632    5.1972    4.1410 H   0  0  0  0  0  0  0  0  0  0  0  0
   -1.5780    6.3257    3.1938 H   0  0  0  0  0  0  0  0  0  0  0  0
  1  2  2  0  0  0  0
  2 44  1  0  0  0  0
  3  2  1  0  0  0  0
  4  3  1  0  0  0  0
  5  6  1  0  0  0  0
  5  4  2  0  0  0  0
  6 61  1  0  0  0  0
  7  5  1  0  0  0  0
  8  7  2  0  0  0  0
  8  9  1  0  0  0  0
  9 43  2  0  0  0  0
 10  9  1  0  0  0  0
 10 64  1  0  0  0  0
 11 12  2  0  0  0  0
 11 10  1  0  0  0  0
 13 14  1  0  0  0  0
 13 12  1  0  0  0  0
 14 39  1  0  0  0  0
 15 14  1  0  0  0  0
 16 17  1  0  0  0  0
 16 15  1  0  0  0  0
 17 40  1  0  0  0  0
 17 66  1  0  0  0  0
 18 37  1  0  0  0  0
 18 16  1  0  0  0  0
 19 18  2  0  0  0  0
 20 19  1  0  0  0  0
 20 67  1  0  0  0  0
 20 68  1  0  0  0  0
 21 22  2  0  0  0  0
 21 19  1  0  0  0  0
 22 23  1  0  0  0  0
 23 24  1  0  0  0  0
 23 37  2  0  0  0  0
 24 72  1  0  0  0  0
 25 26  1  0  0  0  0
 25 24  1  0  0  0  0
 26 27  1  0  0  0  0
 27 73  1  0  0  0  0
 27 28  2  0  0  0  0
 28 29  1  0  0  0  0
 29 30  1  0  0  0  0
 30 74  1  0  0  0  0
 30 76  1  0  0  0  0
 30 75  1  0  0  0  0
 31 32  1  0  0  0  0
 31 28  1  0  0  0  0
 33 79  1  0  0  0  0
 33 32  1  0  0  0  0
 33 77  1  0  0  0  0
 34 31  2  0  0  0  0
 35 34  1  0  0  0  0
 35 26  2  0  0  0  0
 36 25  2  0  0  0  0
 37 82  1  0  0  0  0
 38 15  2  0  0  0  0
 39 84  1  0  0  0  0
 39 83  1  0  0  0  0
 40 13  2  0  0  0  0
 41 40  1  0  0  0  0
 41 42  2  0  0  0  0
 42 11  1  0  0  0  0
 43  4  1  0  0  0  0
 43 87  1  0  0  0  0
 44 88  1  0  0  0  0
 44 45  1  0  0  0  0
 45 90  1  0  0  0  0
 45 46  1  0  0  0  0
 47 48  1  0  0  0  0
 47 46  1  0  0  0  0
 47 91  1  0  0  0  0
 48 50  1  0  0  0  0
 48 49  1  1  0  0  0
 50 51  1  0  0  0  0
 51 53  2  0  0  0  0
 52 51  1  0  0  0  0
 52 94  1  0  0  0  0
 54 48  1  0  0  0  0
 55 54  1  0  0  0  0
 55 97  1  0  0  0  0
 56 99  1  0  0  0  0
 56 55  1  0  0  0  0
 57 54  2  0  0  0  0
 58  3  1  0  0  0  0
 59  6  1  0  0  0  0
 60  6  1  0  0  0  0
 62  7  1  0  0  0  0
 63  8  1  0  0  0  0
 65 17  1  0  0  0  0
 69 20  1  0  0  0  0
 70 21  1  0  0  0  0
 71 22  1  0  0  0  0
 78 33  1  0  0  0  0
 80 34  1  0  0  0  0
 81 35  1  0  0  0  0
 85 39  1  0  0  0  0
 86 41  1  0  0  0  0
 89 45  1  0  0  0  0
 92 47  1  0  0  0  0
 93 50  1  0  0  0  0
 95 52  1  0  0  0  0
 96 52  1  0  0  0  0
 98 56  1  0  0  0  0
100 56  1  0  0  0  0
M  END
