96
-1 1
O         0.299217   -1.562499    5.828698
C        -0.632980   -1.248372    5.106605
N        -1.785620   -2.002331    5.136720
C        -2.904501   -2.100403    4.273361
C        -4.161661   -2.333670    4.855640
C        -4.323606   -2.418273    6.349724
C        -5.251689   -2.470116    3.989067
C        -5.118682   -2.346618    2.615561
C        -3.860507   -2.087067    2.042191
N        -3.816052   -1.916493    0.661697
C        -2.771067   -1.570182   -0.146700
N        -1.513621   -1.637131    0.304174
C        -0.574551   -1.157773   -0.490327
N         0.743882   -1.197172   -0.043711
C         1.826635   -1.083562   -0.917155
N         1.520317   -0.662909   -2.199035
C         0.265849    0.029811   -2.488875
C         2.562673   -0.562987   -3.162820
C         2.458036   -1.276708   -4.369369
C         1.295013   -2.191476   -4.644348
C         3.482422   -1.109103   -5.305358
C         4.585078   -0.291225   -5.077583
C         4.681132    0.396831   -3.862622
N         5.761775    1.234792   -3.525828
C         6.864877    1.559933   -4.269444
C         7.769570    2.545444   -3.568288
C         9.132560    2.243280   -3.371408
O         9.535609    1.018077   -3.747971
C        10.877911    0.653164   -3.595338
C         9.970222    3.195545   -2.780581
C         9.456564    4.433027   -2.387881
C         8.112380    4.734911   -2.568940
C         7.277585    3.782086   -3.155549
O         7.097401    1.147869   -5.385314
C         3.659692    0.260008   -2.919826
O         2.957846   -1.361560   -0.571598
C         1.002791   -1.628457    1.319908
C        -0.847579   -0.632420   -1.755270
C        -2.167153   -0.747022   -2.166165
N        -3.126680   -1.229358   -1.395282
C        -2.749044   -2.006125    2.888829
C        -0.528786   -0.020464    4.267171
C        -1.523238    0.754278    3.830178
S        -3.073890    1.740484    0.723333
C        -4.721752    1.370070    0.015936
C        -5.870937    1.185176    1.050483
H        -6.506361    2.087996    1.072168
N        -5.334259    0.990208    2.382422
C        -6.007729    1.281425    3.505814
C        -5.176635    1.265053    4.771488
O        -7.215113    1.535819    3.537434
C        -6.795397   -0.005049    0.713623
N        -8.007485    0.069284    1.308831
C        -8.930874   -1.033914    1.273032
O        -6.471686   -0.949706    0.000060
H        -1.726025   -2.704625    5.866959
H        -3.860006   -1.554059    6.852024
H        -3.853583   -3.324349    6.772171
H        -5.386801   -2.445097    6.627079
H        -6.244130   -2.652356    4.411045
H        -5.990806   -2.425645    1.964799
H        -4.723462   -1.729235    0.220484
H         0.093293    0.010641   -3.573705
H         0.347402    1.095359   -2.195327
H         0.901458   -2.623381   -3.713529
H         1.590817   -3.009280   -5.316515
H         0.461362   -1.655564   -5.128472
H         3.425263   -1.655853   -6.250654
H         5.374709   -0.188058   -5.817795
H         5.742146    1.604436   -2.583896
H        10.968654   -0.368244   -3.983633
H        11.188219    0.661500   -2.535544
H        11.549375    1.314487   -4.170363
H        11.025432    2.979044   -2.614776
H        10.125996    5.164329   -1.929169
H         7.711782    5.701901   -2.260519
H         6.220111    4.009372   -3.314538
H         3.718831    0.779627   -1.961676
H         0.404339   -1.022811    2.011221
H         2.069960   -1.497676    1.520609
H         0.731057   -2.685255    1.460788
H        -2.460510   -0.421135   -3.172096
H        -1.768756   -1.840041    2.456433
H         0.513044    0.274740    4.115231
H        -2.571183    0.499222    3.986985
H        -1.335112    1.671856    3.268886
H        -4.661007    0.458710   -0.594427
H        -5.027612    2.179930   -0.663135
H        -4.293328    1.035031    2.351594
H        -4.724257    0.271483    4.907331
H        -5.820832    1.498725    5.626806
H        -4.364730    2.004781    4.705222
H        -8.066035    0.747061    2.077678
H        -8.771817   -1.739763    2.108318
H        -8.791629   -1.585708    0.334427
H        -9.965768   -0.665115    1.326343
