-1 1
 OpenBabel05192410563D

 96100  0  0  1  0  0  0  0  0999 V2000
    0.0202   -0.0775    5.5734 O   0  0  0  0  0  0  0  0  0  0  0  0
   -0.8471    0.0307    4.6922 C   0  0  0  0  0  0  0  0  0  0  0  0
   -1.9851   -0.8386    4.9366 N   0  0  0  0  0  0  0  0  0  0  0  0
   -2.8964   -1.4715    4.1379 C   0  0  0  0  0  0  0  0  0  0  0  0
   -4.0413   -2.0865    4.7186 C   0  0  0  0  0  0  0  0  0  0  0  0
   -4.1875   -2.1325    6.2144 C   0  0  0  0  0  0  0  0  0  0  0  0
   -4.9960   -2.6391    3.8653 C   0  0  0  0  0  0  0  0  0  0  0  0
   -4.8816   -2.5847    2.4778 C   0  0  0  0  0  0  0  0  0  0  0  0
   -3.7251   -2.0282    1.9134 C   0  0  0  0  0  0  0  0  0  0  0  0
   -3.6800   -1.9228    0.5080 N   0  0  0  0  0  0  0  0  0  0  0  0
   -2.6455   -1.5743   -0.3025 C   0  0  0  0  0  0  0  0  0  0  0  0
   -1.4009   -1.5415    0.1888 N   0  0  0  0  0  0  0  0  0  0  0  0
   -0.4388   -1.1284   -0.6165 C   0  0  0  0  0  0  0  0  0  0  0  0
    0.8528   -1.0757   -0.1164 N   0  0  0  0  0  0  0  0  0  0  0  0
    1.9653   -1.0581   -0.9619 C   0  0  0  0  0  0  0  0  0  0  0  0
    1.6974   -0.8291   -2.3044 N   0  0  0  0  0  0  0  0  0  0  0  0
    0.4547   -0.1941   -2.7297 C   0  0  0  0  0  0  0  0  0  0  0  0
    2.7775   -0.8229   -3.2326 C   0  0  0  0  0  0  0  0  0  0  0  0
    2.7384   -1.6862   -4.3410 C   0  0  0  0  0  0  0  0  0  0  0  0
    1.6110   -2.6638   -4.5371 C   0  0  0  0  0  0  0  0  0  0  0  0
    3.7942   -1.6071   -5.2536 C   0  0  0  0  0  0  0  0  0  0  0  0
    4.8658   -0.7341   -5.0920 C   0  0  0  0  0  0  0  0  0  0  0  0
    4.8973    0.1040   -3.9712 C   0  0  0  0  0  0  0  0  0  0  0  0
    5.9436    1.0071   -3.7040 N   0  0  0  0  0  0  0  0  0  0  0  0
    7.0602    1.2774   -4.4506 C   0  0  0  0  0  0  0  0  0  0  0  0
    7.9159    2.3640   -3.8447 C   0  0  0  0  0  0  0  0  0  0  0  0
    9.2781    2.1261   -3.5703 C   0  0  0  0  0  0  0  0  0  0  0  0
    9.7238    0.8772   -3.7861 O   0  0  0  0  0  0  0  0  0  0  0  0
   11.0667    0.5687   -3.5401 C   0  0  0  0  0  0  0  0  0  0  0  0
   10.0706    3.1650   -3.0700 C   0  0  0  0  0  0  0  0  0  0  0  0
    9.5130    4.4248   -2.8434 C   0  0  0  0  0  0  0  0  0  0  0  0
    8.1689    4.6647   -3.1016 C   0  0  0  0  0  0  0  0  0  0  0  0
    7.3791    3.6259   -3.5972 C   0  0  0  0  0  0  0  0  0  0  0  0
    7.3361    0.7462   -5.5044 O   0  0  0  0  0  0  0  0  0  0  0  0
    3.8428    0.0569   -3.0564 C   0  0  0  0  0  0  0  0  0  0  0  0
    3.0883   -1.2581   -0.5508 O   0  0  0  0  0  0  0  0  0  0  0  0
    1.0620   -1.2974    1.3136 C   0  0  0  0  0  0  0  0  0  0  0  0
   -0.6824   -0.7550   -1.9457 C   0  0  0  0  0  0  0  0  0  0  0  0
   -1.9962   -0.9022   -2.3679 C   0  0  0  0  0  0  0  0  0  0  0  0
   -2.9807   -1.3055   -1.5787 N   0  0  0  0  0  0  0  0  0  0  0  0
   -2.7201   -1.5410    2.7474 C   0  0  0  0  0  0  0  0  0  0  0  0
   -0.8018    0.9444    3.6175 C   0  0  0  0  0  3  0  0  0  0  0  0
   -1.7804    1.3616    2.5991 C   0  0  0  0  0  0  0  0  0  0  0  0
   -3.4650    2.0119    3.2128 S   0  0  0  0  0  0  0  0  0  0  0  0
   -4.5134    1.4516    1.8304 C   0  0  0  0  0  0  0  0  0  0  0  0
   -5.9628    1.1845    2.2295 C   0  0  2  0  0  0  0  0  0  0  0  0
   -6.5087    2.1362    2.3430 H   0  0  0  0  0  0  0  0  0  0  0  0
   -6.0504    0.4966    3.5041 N   0  0  0  0  0  0  0  0  0  0  0  0
   -7.1103    0.6200    4.3257 C   0  0  0  0  0  0  0  0  0  0  0  0
   -6.9437    0.0012    5.6942 C   0  0  0  0  0  0  0  0  0  0  0  0
   -8.1511    1.1840    3.9895 O   0  0  0  0  0  0  0  0  0  0  0  0
   -6.6968    0.3591    1.1448 C   0  0  0  0  0  0  0  0  0  0  0  0
   -8.0433    0.3975    1.2731 N   0  0  0  0  0  0  0  0  0  0  0  0
   -8.9134   -0.4146    0.4641 C   0  0  0  0  0  0  0  0  0  0  0  0
   -6.1195   -0.2683    0.2704 O   0  0  0  0  0  0  0  0  0  0  0  0
   -1.9238   -1.1479    5.8990 H   0  0  0  0  0  0  0  0  0  0  0  0
   -4.1292   -1.1237    6.6571 H   0  0  0  0  0  0  0  0  0  0  0  0
   -3.3852   -2.7292    6.6837 H   0  0  0  0  0  0  0  0  0  0  0  0
   -5.1460   -2.5831    6.5104 H   0  0  0  0  0  0  0  0  0  0  0  0
   -5.8840   -3.1057    4.3042 H   0  0  0  0  0  0  0  0  0  0  0  0
   -5.6773   -2.9639    1.8344 H   0  0  0  0  0  0  0  0  0  0  0  0
   -4.5865   -1.7528    0.0754 H   0  0  0  0  0  0  0  0  0  0  0  0
    0.3162   -0.3698   -3.8057 H   0  0  0  0  0  0  0  0  0  0  0  0
    0.5304    0.9048   -2.5955 H   0  0  0  0  0  0  0  0  0  0  0  0
    1.1978   -2.9897   -3.5723 H   0  0  0  0  0  0  0  0  0  0  0  0
    1.9523   -3.5487   -5.0924 H   0  0  0  0  0  0  0  0  0  0  0  0
    0.7805   -2.2187   -5.1109 H   0  0  0  0  0  0  0  0  0  0  0  0
    3.7888   -2.2706   -6.1228 H   0  0  0  0  0  0  0  0  0  0  0  0
    5.6813   -0.7014   -5.8103 H   0  0  0  0  0  0  0  0  0  0  0  0
    5.8869    1.4803   -2.8111 H   0  0  0  0  0  0  0  0  0  0  0  0
   11.1951   -0.4890   -3.7988 H   0  0  0  0  0  0  0  0  0  0  0  0
   11.3330    0.7119   -2.4781 H   0  0  0  0  0  0  0  0  0  0  0  0
   11.7463    1.1741   -4.1650 H   0  0  0  0  0  0  0  0  0  0  0  0
   11.1242    2.9999   -2.8455 H   0  0  0  0  0  0  0  0  0  0  0  0
   10.1475    5.2236   -2.4528 H   0  0  0  0  0  0  0  0  0  0  0  0
    7.7340    5.6492   -2.9221 H   0  0  0  0  0  0  0  0  0  0  0  0
    6.3223    3.8020   -3.8146 H   0  0  0  0  0  0  0  0  0  0  0  0
    3.8529    0.6933   -2.1695 H   0  0  0  0  0  0  0  0  0  0  0  0
    0.4994   -0.5572    1.9063 H   0  0  0  0  0  0  0  0  0  0  0  0
    2.1326   -1.2007    1.5119 H   0  0  0  0  0  0  0  0  0  0  0  0
    0.7217   -2.3018    1.6014 H   0  0  0  0  0  0  0  0  0  0  0  0
   -2.2659   -0.6661   -3.4059 H   0  0  0  0  0  0  0  0  0  0  0  0
   -1.7829   -1.1941    2.3344 H   0  0  0  0  0  0  0  0  0  0  0  0
    0.0850    1.5784    3.7013 H   0  0  0  0  0  0  0  0  0  0  0  0
   -2.1132    0.5935    1.8819 H   0  0  0  0  0  0  0  0  0  0  0  0
   -1.3521    2.1821    2.0068 H   0  0  0  0  0  0  0  0  0  0  0  0
   -4.0806    0.5192    1.4407 H   0  0  0  0  0  0  0  0  0  0  0  0
   -4.5128    2.1749    1.0020 H   0  0  0  0  0  0  0  0  0  0  0  0
   -5.1984    0.0550    3.8461 H   0  0  0  0  0  0  0  0  0  0  0  0
   -6.8924   -1.0934    5.6024 H   0  0  0  0  0  0  0  0  0  0  0  0
   -7.8034    0.2778    6.3147 H   0  0  0  0  0  0  0  0  0  0  0  0
   -6.0104    0.3376    6.1672 H   0  0  0  0  0  0  0  0  0  0  0  0
   -8.3990    0.8307    2.1300 H   0  0  0  0  0  0  0  0  0  0  0  0
   -9.2757   -1.3027    1.0103 H   0  0  0  0  0  0  0  0  0  0  0  0
   -8.3509   -0.7561   -0.4142 H   0  0  0  0  0  0  0  0  0  0  0  0
   -9.7870    0.1650    0.1285 H   0  0  0  0  0  0  0  0  0  0  0  0
  2  3  1  0  0  0  0
  2  1  2  0  0  0  0
  3 56  1  0  0  0  0
  4  5  1  0  0  0  0
  4  3  1  0  0  0  0
  5  6  1  0  0  0  0
  6 59  1  0  0  0  0
  6 57  1  0  0  0  0
  6 58  1  0  0  0  0
  7 60  1  0  0  0  0
  7  5  2  0  0  0  0
  8  7  1  0  0  0  0
  9  8  2  0  0  0  0
  9 41  1  0  0  0  0
 10  9  1  0  0  0  0
 11 12  2  0  0  0  0
 11 10  1  0  0  0  0
 13 14  1  0  0  0  0
 13 12  1  0  0  0  0
 14 37  1  0  0  0  0
 15 36  2  0  0  0  0
 15 14  1  0  0  0  0
 16 15  1  0  0  0  0
 17 64  1  0  0  0  0
 17 16  1  0  0  0  0
 17 38  1  0  0  0  0
 18 35  1  0  0  0  0
 18 16  1  0  0  0  0
 19 18  2  0  0  0  0
 20 19  1  0  0  0  0
 20 65  1  0  0  0  0
 21 22  2  0  0  0  0
 21 19  1  0  0  0  0
 22 23  1  0  0  0  0
 23 24  1  0  0  0  0
 23 35  2  0  0  0  0
 24 70  1  0  0  0  0
 25 26  1  0  0  0  0
 25 24  1  0  0  0  0
 26 33  2  0  0  0  0
 26 27  1  0  0  0  0
 27 30  2  0  0  0  0
 28 27  1  0  0  0  0
 28 29  1  0  0  0  0
 29 72  1  0  0  0  0
 30 74  1  0  0  0  0
 30 31  1  0  0  0  0
 31 75  1  0  0  0  0
 32 76  1  0  0  0  0
 32 31  2  0  0  0  0
 33 32  1  0  0  0  0
 34 25  2  0  0  0  0
 35 78  1  0  0  0  0
 37 80  1  0  0  0  0
 37 81  1  0  0  0  0
 37 79  1  0  0  0  0
 38 13  2  0  0  0  0
 39 38  1  0  0  0  0
 39 40  2  0  0  0  0
 40 11  1  0  0  0  0
 41  4  2  0  0  0  0
 42 84  1  0  0  0  0
 42  2  1  0  0  0  0
 43 44  1  0  0  0  0
 43 42  1  0  0  0  0
 45 46  1  0  0  0  0
 45 44  1  0  0  0  0
 46 47  1  1  0  0  0
 46 48  1  0  0  0  0
 48 89  1  0  0  0  0
 48 49  1  0  0  0  0
 49 50  1  0  0  0  0
 50 92  1  0  0  0  0
 50 91  1  0  0  0  0
 51 49  2  0  0  0  0
 52 53  1  0  0  0  0
 52 46  1  0  0  0  0
 53 93  1  0  0  0  0
 54 94  1  0  0  0  0
 54 53  1  0  0  0  0
 55 52  2  0  0  0  0
 61  8  1  0  0  0  0
 62 10  1  0  0  0  0
 63 17  1  0  0  0  0
 66 20  1  0  0  0  0
 67 20  1  0  0  0  0
 68 21  1  0  0  0  0
 69 22  1  0  0  0  0
 71 29  1  0  0  0  0
 73 29  1  0  0  0  0
 77 33  1  0  0  0  0
 82 39  1  0  0  0  0
 83 41  1  0  0  0  0
 85 43  1  0  0  0  0
 86 43  1  0  0  0  0
 87 45  1  0  0  0  0
 88 45  1  0  0  0  0
 90 50  1  0  0  0  0
 95 54  1  0  0  0  0
 96 54  1  0  0  0  0
M  END
