-1 1
 OpenBabel05232414493D

 79 82  0  0  1  0  0  0  0  0999 V2000
   14.5549    6.2281  -18.7125 C   0  0  0  0  0  0  0  0  0  0  0  0
   13.6541    5.7971  -17.7405 O   0  0  0  0  0  0  0  0  0  0  0  0
   13.6780    4.4179  -17.4836 C   0  0  0  0  0  0  0  0  0  0  0  0
   12.7473    3.6730  -18.4447 C   0  0  0  0  0  0  0  0  0  0  0  0
   12.8537    2.2755  -18.3062 O   0  0  0  0  0  0  0  0  0  0  0  0
   12.3609    1.6841  -17.1963 C   0  0  0  0  0  0  0  0  0  0  0  0
   11.4375    2.2418  -16.3456 C   0  0  0  0  0  0  0  0  0  0  0  0
   12.8701    0.3662  -16.9402 C   0  0  0  0  0  0  0  0  0  0  0  0
   13.6659   -0.1384  -17.8990 O   0  0  0  0  0  0  0  0  0  0  0  0
   14.1721   -1.4434  -17.7356 C   0  0  0  0  0  0  0  0  0  0  0  0
   12.5527   -0.2599  -15.7578 C   0  0  0  0  0  0  0  0  0  0  0  0
   11.6674    0.3521  -14.8332 C   0  0  0  0  0  0  0  0  0  0  0  0
   11.0451    1.5738  -15.1574 C   0  0  0  0  0  0  0  0  0  0  0  0
   10.1202    2.1546  -14.3399 N   0  0  0  0  0  0  0  0  0  0  0  0
    9.8964    1.5376  -13.2092 C   0  0  0  0  0  0  0  0  0  0  0  0
   10.5432    0.4680  -12.7134 N   0  0  0  0  0  0  0  0  0  0  0  0
   11.4575   -0.0946  -13.4812 C   0  0  0  0  0  0  0  0  0  0  0  0
   12.2879   -1.0447  -12.9620 N   0  0  0  0  0  0  0  0  0  0  0  0
   12.7771   -1.0463  -11.6439 C   0  0  0  0  0  0  0  0  0  0  0  0
   12.1068   -0.8648  -10.4887 C   0  0  0  0  0  0  0  0  0  0  0  0
   12.7585   -0.8366   -9.1422 C   0  0  0  0  0  0  0  0  0  0  0  0
   12.0170   -0.7535   -8.1355 O   0  0  0  0  0  0  0  0  0  0  0  0
   14.1630   -0.9733   -9.1349 C   0  0  1  0  0  3  0  0  0  0  0  0
   14.9255   -0.9769  -10.3407 C   0  0  2  0  0  0  0  0  0  0  0  0
   15.2910    1.0276  -10.8374 S   0  0  0  0  0  0  0  0  0  0  0  0
   15.8736    1.2279  -12.5555 C   0  0  0  0  0  0  0  0  0  0  0  0
   14.8164    1.5338  -13.6457 C   0  0  2  0  0  0  0  0  0  0  0  0
   14.2007    0.6304  -13.7632 H   0  0  0  0  0  0  0  0  0  0  0  0
   15.4487    1.8433  -14.9069 N   0  0  0  0  0  0  0  0  0  0  0  0
   15.9647    0.9281  -15.7551 C   0  0  0  0  0  0  0  0  0  0  0  0
   16.3884    1.4828  -17.1028 C   0  0  0  0  0  0  0  0  0  0  0  0
   16.0528   -0.2595  -15.4836 O   0  0  0  0  0  0  0  0  0  0  0  0
   13.8676    2.7203  -13.3801 C   0  0  0  0  0  0  0  0  0  0  0  0
   13.0294    2.5853  -12.3437 N   0  0  0  0  0  0  0  0  0  0  0  0
   12.1227    3.6402  -11.9619 C   0  0  0  0  0  0  0  0  0  0  0  0
   13.8677    3.7011  -14.1201 O   0  0  0  0  0  0  0  0  0  0  0  0
   14.2358   -1.3221  -11.6112 C   0  0  0  0  0  0  0  0  0  0  0  0
   14.8112   -1.7505  -12.6003 O   0  0  0  0  0  0  0  0  0  0  0  0
   14.9172   -0.8678   -7.9775 O   0  0  0  0  0  0  0  0  0  0  0  0
   14.4980   -1.6235   -6.8624 C   0  0  0  0  0  0  0  0  0  0  0  0
   14.4449   -3.1091   -7.1467 C   0  0  0  0  0  0  0  0  0  0  0  0
   15.6030   -3.8884   -7.0717 C   0  0  0  0  0  0  0  0  0  0  0  0
   15.5391   -5.2387   -7.3865 C   0  0  0  0  0  0  0  0  0  0  0  0
   16.6529   -5.9833   -7.2990 F   0  0  0  0  0  0  0  0  0  0  0  0
   14.3551   -5.8447   -7.7866 C   0  0  0  0  0  0  0  0  0  0  0  0
   13.2050   -5.0598   -7.8713 C   0  0  0  0  0  0  0  0  0  0  0  0
   13.2454   -3.7029   -7.5563 C   0  0  0  0  0  0  0  0  0  0  0  0
   14.4332    7.3146  -18.8249 H   0  0  0  0  0  0  0  0  0  0  0  0
   14.3831    5.7607  -19.7022 H   0  0  0  0  0  0  0  0  0  0  0  0
   15.6039    6.0231  -18.4215 H   0  0  0  0  0  0  0  0  0  0  0  0
   13.3778    4.2643  -16.4359 H   0  0  0  0  0  0  0  0  0  0  0  0
   14.6994    4.0037  -17.5924 H   0  0  0  0  0  0  0  0  0  0  0  0
   13.0350    3.8805  -19.4853 H   0  0  0  0  0  0  0  0  0  0  0  0
   11.7095    4.0237  -18.3169 H   0  0  0  0  0  0  0  0  0  0  0  0
   11.0059    3.2262  -16.5202 H   0  0  0  0  0  0  0  0  0  0  0  0
   14.8552   -1.4971  -16.8730 H   0  0  0  0  0  0  0  0  0  0  0  0
   14.7279   -1.6723  -18.6534 H   0  0  0  0  0  0  0  0  0  0  0  0
   13.3513   -2.1736  -17.6222 H   0  0  0  0  0  0  0  0  0  0  0  0
   13.0118   -1.2206  -15.5278 H   0  0  0  0  0  0  0  0  0  0  0  0
    9.1171    1.9562  -12.5602 H   0  0  0  0  0  0  0  0  0  0  0  0
   13.0330   -1.3700  -13.5764 H   0  0  0  0  0  0  0  0  0  0  0  0
   11.0287   -0.7066  -10.4900 H   0  0  0  0  0  0  0  0  0  0  0  0
   15.9396   -1.3786  -10.2731 H   0  0  0  0  0  0  0  0  0  0  0  0
   16.3774    0.3003  -12.8678 H   0  0  0  0  0  0  0  0  0  0  0  0
   16.6241    2.0337  -12.5499 H   0  0  0  0  0  0  0  0  0  0  0  0
   15.2768    2.8007  -15.2077 H   0  0  0  0  0  0  0  0  0  0  0  0
   17.1751    0.8418  -17.5192 H   0  0  0  0  0  0  0  0  0  0  0  0
   15.5184    1.4517  -17.7774 H   0  0  0  0  0  0  0  0  0  0  0  0
   16.7511    2.5187  -17.0334 H   0  0  0  0  0  0  0  0  0  0  0  0
   13.2323    1.8390  -11.6756 H   0  0  0  0  0  0  0  0  0  0  0  0
   12.6543    4.4994  -11.5199 H   0  0  0  0  0  0  0  0  0  0  0  0
   11.4142    3.2404  -11.2258 H   0  0  0  0  0  0  0  0  0  0  0  0
   11.5638    3.9875  -12.8414 H   0  0  0  0  0  0  0  0  0  0  0  0
   13.5082   -1.2812   -6.5269 H   0  0  0  0  0  0  0  0  0  0  0  0
   15.2456   -1.4224   -6.0796 H   0  0  0  0  0  0  0  0  0  0  0  0
   16.5589   -3.4513   -6.7739 H   0  0  0  0  0  0  0  0  0  0  0  0
   14.3502   -6.9089   -8.0289 H   0  0  0  0  0  0  0  0  0  0  0  0
   12.2667   -5.5153   -8.1967 H   0  0  0  0  0  0  0  0  0  0  0  0
   12.3561   -3.0705   -7.6352 H   0  0  0  0  0  0  0  0  0  0  0  0
  1 50  1  0  0  0  0
  1  2  1  0  0  0  0
  2  3  1  0  0  0  0
  3 51  1  0  0  0  0
  4 54  1  0  0  0  0
  4  5  1  0  0  0  0
  4  3  1  0  0  0  0
  5  6  1  0  0  0  0
  6  8  2  0  0  0  0
  6  7  1  0  0  0  0
  7 13  2  0  0  0  0
  8 11  1  0  0  0  0
  9 10  1  0  0  0  0
  9  8  1  0  0  0  0
 10 58  1  0  0  0  0
 10 56  1  0  0  0  0
 11 59  1  0  0  0  0
 11 12  2  0  0  0  0
 12 17  1  0  0  0  0
 13 12  1  0  0  0  0
 13 14  1  0  0  0  0
 14 15  2  0  0  0  0
 15 16  1  0  0  0  0
 15 60  1  0  0  0  0
 17 18  1  0  0  0  0
 17 16  2  0  0  0  0
 18 19  1  0  0  0  0
 19 37  1  0  0  0  0
 19 20  2  0  0  0  0
 20 21  1  0  0  0  0
 21 23  1  0  0  0  0
 21 22  2  0  0  0  0
 23 39  1  1  0  0  0
 24 63  1  1  0  0  0
 24 23  1  0  0  0  0
 25 24  1  0  0  0  0
 26 65  1  0  0  0  0
 26 25  1  0  0  0  0
 27 28  1  6  0  0  0
 27 33  1  0  0  0  0
 27 26  1  0  0  0  0
 29 27  1  0  0  0  0
 30 32  2  0  0  0  0
 30 29  1  0  0  0  0
 31 69  1  0  0  0  0
 31 30  1  0  0  0  0
 33 34  1  0  0  0  0
 34 35  1  0  0  0  0
 34 70  1  0  0  0  0
 35 71  1  0  0  0  0
 35 72  1  0  0  0  0
 36 33  2  0  0  0  0
 37 24  1  0  0  0  0
 38 37  2  0  0  0  0
 39 40  1  0  0  0  0
 40 74  1  0  0  0  0
 40 75  1  0  0  0  0
 41 42  1  0  0  0  0
 41 40  1  0  0  0  0
 42 76  1  0  0  0  0
 43 44  1  0  0  0  0
 43 42  2  0  0  0  0
 45 43  1  0  0  0  0
 46 45  2  0  0  0  0
 46 47  1  0  0  0  0
 47 41  2  0  0  0  0
 48  1  1  0  0  0  0
 49  1  1  0  0  0  0
 52  3  1  0  0  0  0
 53  4  1  0  0  0  0
 55  7  1  0  0  0  0
 57 10  1  0  0  0  0
 61 18  1  0  0  0  0
 62 20  1  0  0  0  0
 64 26  1  0  0  0  0
 66 29  1  0  0  0  0
 67 31  1  0  0  0  0
 68 31  1  0  0  0  0
 73 35  1  0  0  0  0
 77 45  1  0  0  0  0
 78 46  1  0  0  0  0
 79 47  1  0  0  0  0
M  END
