-1 1
 OpenBabel05232413483D

 79 81  0  0  1  0  0  0  0  0999 V2000
    0.0020    5.9999   -6.3310 C   0  0  0  0  0  0  0  0  0  0  0  0
   -0.7630    5.4912   -5.2836 O   0  0  0  0  0  0  0  0  0  0  0  0
   -0.4511    4.1739   -4.9109 C   0  0  0  0  0  0  0  0  0  0  0  0
   -1.2441    3.1740   -5.7568 C   0  0  0  0  0  0  0  0  0  0  0  0
   -0.8677    1.8425   -5.4942 O   0  0  0  0  0  0  0  0  0  0  0  0
   -1.2123    1.2811   -4.3159 C   0  0  0  0  0  0  0  0  0  0  0  0
   -2.1892    1.7490   -3.4728 C   0  0  0  0  0  0  0  0  0  0  0  0
   -0.4739    0.0962   -3.9748 C   0  0  0  0  0  0  0  0  0  0  0  0
    0.3606   -0.3515   -4.9267 O   0  0  0  0  0  0  0  0  0  0  0  0
    1.0867   -1.5348   -4.6825 C   0  0  0  0  0  0  0  0  0  0  0  0
   -0.6384   -0.4653   -2.7306 C   0  0  0  0  0  0  0  0  0  0  0  0
   -1.5827    0.0731   -1.8170 C   0  0  0  0  0  0  0  0  0  0  0  0
   -2.4174    1.1371   -2.2144 C   0  0  0  0  0  0  0  0  0  0  0  0
   -3.4039    1.6217   -1.4082 N   0  0  0  0  0  0  0  0  0  0  0  0
   -3.4918    1.0763   -0.2246 C   0  0  0  0  0  0  0  0  0  0  0  0
   -2.6645    0.1689    0.3245 N   0  0  0  0  0  0  0  0  0  0  0  0
   -1.6878   -0.2924   -0.4319 C   0  0  0  0  0  0  0  0  0  0  0  0
   -0.7107   -1.0753    0.1135 N   0  0  0  0  0  0  0  0  0  0  0  0
   -0.3261   -1.1964    1.4267 C   0  0  0  0  0  0  0  0  0  0  0  0
   -1.0459   -0.9373    2.5445 C   0  0  0  0  0  0  0  0  0  0  0  0
   -0.4611   -1.0843    3.8717 C   0  0  0  0  0  0  0  0  0  0  0  0
   -1.0854   -0.7906    4.8846 O   0  0  0  0  0  0  0  0  0  0  0  0
    0.9441   -1.6150    3.9588 C   0  0  0  0  0  0  0  0  0  0  0  0
    1.6482   -1.9022    2.8480 C   0  0  0  0  0  0  0  0  0  0  0  0
    1.9274    1.0133    1.6573 S   0  0  0  0  0  1  0  0  0  0  0  0
    2.4495    1.7373    0.0608 C   0  0  0  0  0  0  0  0  0  0  0  0
    1.3573    1.8006   -1.0284 C   0  0  2  0  0  0  0  0  0  0  0  0
    0.9326    0.7887   -1.1057 H   0  0  0  0  0  0  0  0  0  0  0  0
    1.8732    2.1865   -2.3238 N   0  0  0  0  0  0  0  0  0  0  0  0
    2.5274    1.3510   -3.1550 C   0  0  0  0  0  0  0  0  0  0  0  0
    2.7631    1.8951   -4.5529 C   0  0  0  0  0  0  0  0  0  0  0  0
    2.8747    0.2221   -2.8369 O   0  0  0  0  0  0  0  0  0  0  0  0
    0.2071    2.7824   -0.7445 C   0  0  0  0  0  0  0  0  0  0  0  0
   -0.4219    2.6072    0.4235 N   0  0  0  0  0  0  0  0  0  0  0  0
   -1.4727    3.4899    0.8586 C   0  0  0  0  0  0  0  0  0  0  0  0
   -0.1034    3.6476   -1.5647 O   0  0  0  0  0  0  0  0  0  0  0  0
    1.0637   -1.7848    1.5091 C   0  0  0  0  0  0  0  0  0  0  0  0
    1.5569   -2.2899    0.5122 O   0  0  0  0  0  0  0  0  0  0  0  0
    1.5580   -1.7167    5.1616 O   0  0  0  0  0  0  0  0  0  0  0  0
    0.8760   -2.3036    6.2595 C   0  0  0  0  0  0  0  0  0  0  0  0
    0.3578   -3.6863    5.9371 C   0  0  0  0  0  0  0  0  0  0  0  0
    1.2625   -4.7256    5.6938 C   0  0  0  0  0  0  0  0  0  0  0  0
    0.7807   -5.9821    5.3608 C   0  0  0  0  0  0  0  0  0  0  0  0
    1.6491   -6.9757    5.1389 F   0  0  0  0  0  0  0  0  0  0  0  0
   -0.5810   -6.2435    5.2537 C   0  0  0  0  0  0  0  0  0  0  0  0
   -1.4764   -5.2023    5.4848 C   0  0  0  0  0  0  0  0  0  0  0  0
   -1.0133   -3.9298    5.8201 C   0  0  0  0  0  0  0  0  0  0  0  0
   -0.3407    7.0250   -6.5307 H   0  0  0  0  0  0  0  0  0  0  0  0
   -0.1006    5.4168   -7.2676 H   0  0  0  0  0  0  0  0  0  0  0  0
    1.0792    6.0363   -6.0746 H   0  0  0  0  0  0  0  0  0  0  0  0
   -0.6771    4.0596   -3.8396 H   0  0  0  0  0  0  0  0  0  0  0  0
    0.6283    3.9634   -5.0379 H   0  0  0  0  0  0  0  0  0  0  0  0
   -1.0294    3.3270   -6.8243 H   0  0  0  0  0  0  0  0  0  0  0  0
   -2.3266    3.3323   -5.6157 H   0  0  0  0  0  0  0  0  0  0  0  0
   -2.7880    2.6282   -3.7045 H   0  0  0  0  0  0  0  0  0  0  0  0
    1.8013   -1.3933   -3.8568 H   0  0  0  0  0  0  0  0  0  0  0  0
    1.6403   -1.7484   -5.6052 H   0  0  0  0  0  0  0  0  0  0  0  0
    0.4057   -2.3775   -4.4683 H   0  0  0  0  0  0  0  0  0  0  0  0
   -0.0135   -1.3111   -2.4460 H   0  0  0  0  0  0  0  0  0  0  0  0
   -4.3112    1.4150    0.4213 H   0  0  0  0  0  0  0  0  0  0  0  0
    0.0482   -1.3930   -0.4902 H   0  0  0  0  0  0  0  0  0  0  0  0
   -2.0593   -0.5490    2.4885 H   0  0  0  0  0  0  0  0  0  0  0  0
    2.6707   -2.2728    2.9138 H   0  0  0  0  0  0  0  0  0  0  0  0
    3.2593    1.1268   -0.3637 H   0  0  0  0  0  0  0  0  0  0  0  0
    2.8495    2.7529    0.2222 H   0  0  0  0  0  0  0  0  0  0  0  0
    1.4723    3.0562   -2.6681 H   0  0  0  0  0  0  0  0  0  0  0  0
    3.6547    1.4158   -4.9758 H   0  0  0  0  0  0  0  0  0  0  0  0
    1.8937    1.6274   -5.1739 H   0  0  0  0  0  0  0  0  0  0  0  0
    2.8883    2.9877   -4.5627 H   0  0  0  0  0  0  0  0  0  0  0  0
    0.0610    1.9900    1.1051 H   0  0  0  0  0  0  0  0  0  0  0  0
   -1.0795    4.4447    1.2490 H   0  0  0  0  0  0  0  0  0  0  0  0
   -2.0453    2.9932    1.6532 H   0  0  0  0  0  0  0  0  0  0  0  0
   -2.1445    3.7112    0.0180 H   0  0  0  0  0  0  0  0  0  0  0  0
    0.0576   -1.6570    6.5970 H   0  0  0  0  0  0  0  0  0  0  0  0
    1.6387   -2.3668    7.0492 H   0  0  0  0  0  0  0  0  0  0  0  0
    2.3402   -4.5599    5.7527 H   0  0  0  0  0  0  0  0  0  0  0  0
   -0.9160   -7.2464    4.9841 H   0  0  0  0  0  0  0  0  0  0  0  0
   -2.5493   -5.3836    5.3902 H   0  0  0  0  0  0  0  0  0  0  0  0
   -1.7127   -3.1044    5.9671 H   0  0  0  0  0  0  0  0  0  0  0  0
  1 50  1  0  0  0  0
  1  2  1  0  0  0  0
  2  3  1  0  0  0  0
  3 51  1  0  0  0  0
  4 54  1  0  0  0  0
  4  5  1  0  0  0  0
  4  3  1  0  0  0  0
  5  6  1  0  0  0  0
  6  8  2  0  0  0  0
  6  7  1  0  0  0  0
  7 13  2  0  0  0  0
  8 11  1  0  0  0  0
  9 10  1  0  0  0  0
  9  8  1  0  0  0  0
 10 58  1  0  0  0  0
 10 56  1  0  0  0  0
 11 59  1  0  0  0  0
 11 12  2  0  0  0  0
 12 17  1  0  0  0  0
 13 12  1  0  0  0  0
 13 14  1  0  0  0  0
 14 15  2  0  0  0  0
 15 16  1  0  0  0  0
 15 60  1  0  0  0  0
 17 18  1  0  0  0  0
 17 16  2  0  0  0  0
 18 19  1  0  0  0  0
 19 37  1  0  0  0  0
 19 20  2  0  0  0  0
 20 21  1  0  0  0  0
 21 23  1  0  0  0  0
 21 22  2  0  0  0  0
 23 39  1  0  0  0  0
 24 63  1  0  0  0  0
 24 23  2  0  0  0  0
 26 65  1  0  0  0  0
 26 25  1  0  0  0  0
 27 28  1  6  0  0  0
 27 33  1  0  0  0  0
 27 26  1  0  0  0  0
 29 27  1  0  0  0  0
 30 32  2  0  0  0  0
 30 29  1  0  0  0  0
 31 30  1  0  0  0  0
 33 34  1  0  0  0  0
 34 35  1  0  0  0  0
 34 70  1  0  0  0  0
 35 71  1  0  0  0  0
 35 72  1  0  0  0  0
 36 33  2  0  0  0  0
 37 24  1  0  0  0  0
 38 37  2  0  0  0  0
 39 40  1  0  0  0  0
 40 74  1  0  0  0  0
 40 75  1  0  0  0  0
 41 40  1  0  0  0  0
 42 76  1  0  0  0  0
 42 41  2  0  0  0  0
 43 42  1  0  0  0  0
 44 43  1  0  0  0  0
 45 43  2  0  0  0  0
 45 46  1  0  0  0  0
 46 47  2  0  0  0  0
 47 41  1  0  0  0  0
 47 79  1  0  0  0  0
 48  1  1  0  0  0  0
 49  1  1  0  0  0  0
 52  3  1  0  0  0  0
 53  4  1  0  0  0  0
 55  7  1  0  0  0  0
 57 10  1  0  0  0  0
 61 18  1  0  0  0  0
 62 20  1  0  0  0  0
 64 26  1  0  0  0  0
 66 29  1  0  0  0  0
 67 31  1  0  0  0  0
 68 31  1  0  0  0  0
 69 31  1  0  0  0  0
 73 35  1  0  0  0  0
 77 45  1  0  0  0  0
 78 46  1  0  0  0  0
M  END
