79
-1 1
C         0.002009    5.999923   -6.330980
O        -0.763002    5.491156   -5.283590
C        -0.451135    4.173932   -4.910916
C        -1.244121    3.174014   -5.756822
O        -0.867674    1.842467   -5.494206
C        -1.212254    1.281075   -4.315895
C        -2.189245    1.749029   -3.472805
C        -0.473858    0.096240   -3.974821
O         0.360575   -0.351533   -4.926693
C         1.086729   -1.534777   -4.682495
C        -0.638418   -0.465336   -2.730598
C        -1.582689    0.073078   -1.817049
C        -2.417417    1.137061   -2.214413
N        -3.403884    1.621729   -1.408248
C        -3.491803    1.076282   -0.224620
N        -2.664455    0.168861    0.324542
C        -1.687826   -0.292404   -0.431940
N        -0.710727   -1.075349    0.113452
C        -0.326143   -1.196435    1.426740
C        -1.045864   -0.937341    2.544493
C        -0.461146   -1.084300    3.871719
O        -1.085359   -0.790595    4.884629
C         0.944144   -1.615006    3.958752
C         1.648165   -1.902210    2.847996
S         1.927397    1.013288    1.657347
C         2.449452    1.737255    0.060827
C         1.357252    1.800642   -1.028398
H         0.932606    0.788700   -1.105693
N         1.873213    2.186479   -2.323817
C         2.527358    1.350985   -3.154972
C         2.763106    1.895061   -4.552892
O         2.874726    0.222081   -2.836949
C         0.207085    2.782371   -0.744490
N        -0.421850    2.607245    0.423461
C        -1.472679    3.489919    0.858552
O        -0.103372    3.647640   -1.564743
C         1.063724   -1.784832    1.509136
O         1.556930   -2.289874    0.512193
O         1.557995   -1.716664    5.161639
C         0.875975   -2.303612    6.259510
C         0.357807   -3.686325    5.937094
C         1.262507   -4.725551    5.693795
C         0.780695   -5.982143    5.360849
F         1.649052   -6.975655    5.138861
C        -0.581013   -6.243505    5.253658
C        -1.476433   -5.202319    5.484774
C        -1.013274   -3.929819    5.820100
H        -0.340710    7.025004   -6.530668
H        -0.100620    5.416835   -7.267616
H         1.079221    6.036331   -6.074628
H        -0.677066    4.059582   -3.839629
H         0.628282    3.963352   -5.037905
H        -1.029442    3.326965   -6.824250
H        -2.326626    3.332268   -5.615673
H        -2.787998    2.628154   -3.704507
H         1.801336   -1.393340   -3.856790
H         1.640306   -1.748364   -5.605174
H         0.405697   -2.377520   -4.468270
H        -0.013478   -1.311089   -2.446048
H        -4.311154    1.415018    0.421339
H         0.048186   -1.393039   -0.490200
H        -2.059283   -0.549041    2.488521
H         2.670676   -2.272783    2.913829
H         3.259268    1.126793   -0.363730
H         2.849507    2.752858    0.222190
H         1.472330    3.056199   -2.668050
H         3.654677    1.415838   -4.975814
H         1.893653    1.627449   -5.173893
H         2.888291    2.987704   -4.562687
H         0.060980    1.989974    1.105100
H        -1.079509    4.444716    1.248989
H        -2.045342    2.993161    1.653189
H        -2.144543    3.711160    0.017986
H         0.057555   -1.656987    6.596971
H         1.638675   -2.366791    7.049181
H         2.340187   -4.559864    5.752729
H        -0.916027   -7.246378    4.984056
H        -2.549285   -5.383578    5.390171
H        -1.712677   -3.104414    5.967095
