-1 1
 OpenBabel05192410563D

 79 82  0  0  1  0  0  0  0  0999 V2000
    0.9255    6.0584   -5.7734 C   0  0  0  0  0  0  0  0  0  0  0  0
    0.0148    5.6210   -4.8135 O   0  0  0  0  0  0  0  0  0  0  0  0
    0.0273    4.2386   -4.5746 C   0  0  0  0  0  0  0  0  0  0  0  0
   -0.9005    3.5124   -5.5526 C   0  0  0  0  0  0  0  0  0  0  0  0
   -0.8050    2.1127   -5.4312 O   0  0  0  0  0  0  0  0  0  0  0  0
   -1.3167    1.5089   -4.3365 C   0  0  0  0  0  0  0  0  0  0  0  0
   -2.2376    2.0654   -3.4825 C   0  0  0  0  0  0  0  0  0  0  0  0
   -0.8300    0.1788   -4.1005 C   0  0  0  0  0  0  0  0  0  0  0  0
   -0.0288   -0.3185   -5.0586 O   0  0  0  0  0  0  0  0  0  0  0  0
    0.4591   -1.6323   -4.9117 C   0  0  0  0  0  0  0  0  0  0  0  0
   -1.1713   -0.4660   -2.9350 C   0  0  0  0  0  0  0  0  0  0  0  0
   -2.0558    0.1413   -2.0062 C   0  0  0  0  0  0  0  0  0  0  0  0
   -2.6509    1.3817   -2.3101 C   0  0  0  0  0  0  0  0  0  0  0  0
   -3.5662    1.9673   -1.4855 N   0  0  0  0  0  0  0  0  0  0  0  0
   -3.8027    1.3379   -0.3640 C   0  0  0  0  0  0  0  0  0  0  0  0
   -3.1806    0.2462    0.1140 N   0  0  0  0  0  0  0  0  0  0  0  0
   -2.2827   -0.3289   -0.6644 C   0  0  0  0  0  0  0  0  0  0  0  0
   -1.4849   -1.3151   -0.1605 N   0  0  0  0  0  0  0  0  0  0  0  0
   -0.9493   -1.2997    1.1456 C   0  0  0  0  0  0  0  0  0  0  0  0
   -1.5863   -1.1159    2.3225 C   0  0  0  0  0  0  0  0  0  0  0  0
   -0.9121   -1.0592    3.6564 C   0  0  0  0  0  0  0  0  0  0  0  0
   -1.6474   -0.9868    4.6797 O   0  0  0  0  0  0  0  0  0  0  0  0
    0.4817   -1.1668    3.6258 C   0  0  1  0  0  3  0  0  0  0  0  0
    1.2376   -1.1458    2.3773 C   0  0  2  0  0  0  0  0  0  0  0  0
    1.6065    0.7391    1.9996 S   0  0  0  0  0  0  0  0  0  0  0  0
    2.1799    0.9422    0.2776 C   0  0  0  0  0  0  0  0  0  0  0  0
    1.1187    1.2729   -0.8021 C   0  0  2  0  0  0  0  0  0  0  0  0
    0.4932    0.3781   -0.9348 H   0  0  0  0  0  0  0  0  0  0  0  0
    1.7511    1.6011   -2.0582 N   0  0  0  0  0  0  0  0  0  0  0  0
    2.2780    0.7008   -2.9166 C   0  0  0  0  0  0  0  0  0  0  0  0
    2.7053    1.2778   -4.2535 C   0  0  0  0  0  0  0  0  0  0  0  0
    2.3723   -0.4893   -2.6606 O   0  0  0  0  0  0  0  0  0  0  0  0
    0.1885    2.4685   -0.5092 C   0  0  0  0  0  0  0  0  0  0  0  0
   -0.6686    2.3207    0.5097 N   0  0  0  0  0  0  0  0  0  0  0  0
   -1.5576    3.3845    0.9104 C   0  0  0  0  0  0  0  0  0  0  0  0
    0.2217    3.4739   -1.2143 O   0  0  0  0  0  0  0  0  0  0  0  0
    0.5051   -1.5503    1.1371 C   0  0  0  0  0  0  0  0  0  0  0  0
    1.0671   -1.9775    0.1393 O   0  0  0  0  0  0  0  0  0  0  0  0
    1.2863   -1.0504    4.7473 O   0  0  0  0  0  0  0  0  0  0  0  0
    0.8826   -1.7409    5.9106 C   0  0  0  0  0  0  0  0  0  0  0  0
    0.8196   -3.2394    5.7062 C   0  0  0  0  0  0  0  0  0  0  0  0
    1.9658   -4.0268    5.8484 C   0  0  0  0  0  0  0  0  0  0  0  0
    1.8907   -5.3917    5.6072 C   0  0  0  0  0  0  0  0  0  0  0  0
    2.9936   -6.1439    5.7587 F   0  0  0  0  0  0  0  0  0  0  0  0
    0.7073   -6.0045    5.2164 C   0  0  0  0  0  0  0  0  0  0  0  0
   -0.4309   -5.2114    5.0657 C   0  0  0  0  0  0  0  0  0  0  0  0
   -0.3805   -3.8396    5.3063 C   0  0  0  0  0  0  0  0  0  0  0  0
    0.8118    7.1470   -5.8726 H   0  0  0  0  0  0  0  0  0  0  0  0
    0.7577    5.6048   -6.7702 H   0  0  0  0  0  0  0  0  0  0  0  0
    1.9710    5.8425   -5.4774 H   0  0  0  0  0  0  0  0  0  0  0  0
   -0.2828    4.0737   -3.5315 H   0  0  0  0  0  0  0  0  0  0  0  0
    1.0467    3.8188   -4.6803 H   0  0  0  0  0  0  0  0  0  0  0  0
   -0.6025    3.7313   -6.5880 H   0  0  0  0  0  0  0  0  0  0  0  0
   -1.9370    3.8686   -5.4290 H   0  0  0  0  0  0  0  0  0  0  0  0
   -2.6510    3.0604   -3.6406 H   0  0  0  0  0  0  0  0  0  0  0  0
    1.1270   -1.7107   -4.0392 H   0  0  0  0  0  0  0  0  0  0  0  0
    1.0284   -1.8503   -5.8238 H   0  0  0  0  0  0  0  0  0  0  0  0
   -0.3719   -2.3546   -4.8263 H   0  0  0  0  0  0  0  0  0  0  0  0
   -0.7286   -1.4378   -2.7202 H   0  0  0  0  0  0  0  0  0  0  0  0
   -4.5716    1.7643    0.2924 H   0  0  0  0  0  0  0  0  0  0  0  0
   -0.7587   -1.6540   -0.7891 H   0  0  0  0  0  0  0  0  0  0  0  0
   -2.6678   -0.9787    2.3458 H   0  0  0  0  0  0  0  0  0  0  0  0
    2.2197   -1.6274    2.4389 H   0  0  0  0  0  0  0  0  0  0  0  0
    2.6821    0.0188   -0.0466 H   0  0  0  0  0  0  0  0  0  0  0  0
    2.9295    1.7481    0.2984 H   0  0  0  0  0  0  0  0  0  0  0  0
    1.5890    2.5665   -2.3384 H   0  0  0  0  0  0  0  0  0  0  0  0
    3.4891    0.6406   -4.6809 H   0  0  0  0  0  0  0  0  0  0  0  0
    1.8353    1.2640   -4.9286 H   0  0  0  0  0  0  0  0  0  0  0  0
    3.0731    2.3104   -4.1645 H   0  0  0  0  0  0  0  0  0  0  0  0
   -0.5155    1.5395    1.1471 H   0  0  0  0  0  0  0  0  0  0  0  0
   -1.0093    4.2274    1.3626 H   0  0  0  0  0  0  0  0  0  0  0  0
   -2.2685    2.9846    1.6437 H   0  0  0  0  0  0  0  0  0  0  0  0
   -2.1149    3.7541    0.0388 H   0  0  0  0  0  0  0  0  0  0  0  0
   -0.1025   -1.3774    6.2369 H   0  0  0  0  0  0  0  0  0  0  0  0
    1.6447   -1.5006    6.6678 H   0  0  0  0  0  0  0  0  0  0  0  0
    2.9211   -3.5858    6.1426 H   0  0  0  0  0  0  0  0  0  0  0  0
    0.6932   -7.0804    5.0331 H   0  0  0  0  0  0  0  0  0  0  0  0
   -1.3687   -5.6737    4.7480 H   0  0  0  0  0  0  0  0  0  0  0  0
   -1.2591   -3.1977    5.1823 H   0  0  0  0  0  0  0  0  0  0  0  0
  1 50  1  0  0  0  0
  1  2  1  0  0  0  0
  2  3  1  0  0  0  0
  3 51  1  0  0  0  0
  4  5  1  0  0  0  0
  4 54  1  0  0  0  0
  4  3  1  0  0  0  0
  5  6  1  0  0  0  0
  6  8  2  0  0  0  0
  6  7  1  0  0  0  0
  7 13  2  0  0  0  0
  8 11  1  0  0  0  0
  9 10  1  0  0  0  0
  9  8  1  0  0  0  0
 10 58  1  0  0  0  0
 10 56  1  0  0  0  0
 11 59  1  0  0  0  0
 11 12  2  0  0  0  0
 12 17  1  0  0  0  0
 13 12  1  0  0  0  0
 13 14  1  0  0  0  0
 14 15  2  0  0  0  0
 15 16  1  0  0  0  0
 15 60  1  0  0  0  0
 17 18  1  0  0  0  0
 17 16  2  0  0  0  0
 18 19  1  0  0  0  0
 19 20  2  0  0  0  0
 20 62  1  0  0  0  0
 20 21  1  0  0  0  0
 21 22  2  0  0  0  0
 23 21  1  0  0  0  0
 23 39  1  1  0  0  0
 24 63  1  1  0  0  0
 24 23  1  0  0  0  0
 25 24  1  0  0  0  0
 26 65  1  0  0  0  0
 26 25  1  0  0  0  0
 27 28  1  6  0  0  0
 27 33  1  0  0  0  0
 27 26  1  0  0  0  0
 29 27  1  0  0  0  0
 30 32  2  0  0  0  0
 30 29  1  0  0  0  0
 31 69  1  0  0  0  0
 31 30  1  0  0  0  0
 33 34  1  0  0  0  0
 34 35  1  0  0  0  0
 34 70  1  0  0  0  0
 35 71  1  0  0  0  0
 35 72  1  0  0  0  0
 36 33  2  0  0  0  0
 37 19  1  0  0  0  0
 37 24  1  0  0  0  0
 38 37  2  0  0  0  0
 39 40  1  0  0  0  0
 40 74  1  0  0  0  0
 40 75  1  0  0  0  0
 41 42  1  0  0  0  0
 41 40  1  0  0  0  0
 42 76  1  0  0  0  0
 43 44  1  0  0  0  0
 43 42  2  0  0  0  0
 45 43  1  0  0  0  0
 46 45  2  0  0  0  0
 46 47  1  0  0  0  0
 47 41  2  0  0  0  0
 48  1  1  0  0  0  0
 49  1  1  0  0  0  0
 52  3  1  0  0  0  0
 53  4  1  0  0  0  0
 55  7  1  0  0  0  0
 57 10  1  0  0  0  0
 61 18  1  0  0  0  0
 64 26  1  0  0  0  0
 66 29  1  0  0  0  0
 67 31  1  0  0  0  0
 68 31  1  0  0  0  0
 73 35  1  0  0  0  0
 77 45  1  0  0  0  0
 78 46  1  0  0  0  0
 79 47  1  0  0  0  0
M  END
