-1 1
 OpenBabel05232414493D

 95 97  0  0  1  0  0  0  0  0999 V2000
   11.5795   15.4439  -12.8526 O   0  0  0  0  0  0  0  0  0  0  0  0
   10.6173   14.7242  -12.5438 C   0  0  0  0  0  0  0  0  0  0  0  0
   10.7831   13.9284  -11.4109 N   0  0  0  0  0  0  0  0  0  0  0  0
    9.9466   12.9250  -10.8862 C   0  0  0  0  0  0  0  0  0  0  0  0
    9.7023   11.7385  -11.6086 C   0  0  0  0  0  0  0  0  0  0  0  0
   10.3353   11.5029  -12.9504 C   0  0  0  0  0  0  0  0  0  0  0  0
    8.8340   10.8026  -11.0425 C   0  0  0  0  0  0  0  0  0  0  0  0
    8.2489   11.0003   -9.7943 C   0  0  0  0  0  0  0  0  0  0  0  0
    8.5289   12.1652   -9.0770 C   0  0  0  0  0  0  0  0  0  0  0  0
    7.8615   12.3836   -7.8487 N   0  0  0  0  0  0  0  0  0  0  0  0
    8.3258   13.0265   -6.7497 C   0  0  0  0  0  0  0  0  0  0  0  0
    9.6202   13.2942   -6.6561 N   0  0  0  0  0  0  0  0  0  0  0  0
   10.0579   13.9552   -5.5813 C   0  0  0  0  0  0  0  0  0  0  0  0
   11.3596   14.2518   -5.5221 N   0  0  0  0  0  0  0  0  0  0  0  0
   12.2715   13.9754   -6.6122 C   0  0  0  0  0  0  0  0  0  0  0  0
    9.1462   14.3245   -4.5302 C   0  0  0  0  0  0  0  0  0  0  0  0
    9.5982   15.0688   -3.3465 C   0  0  0  0  0  0  0  0  0  0  0  0
    8.7046   15.1456   -2.2948 N   0  0  0  0  0  0  0  0  0  0  0  0
    8.9541   15.8390   -1.0891 C   0  0  0  0  0  0  0  0  0  0  0  0
    9.1870   17.2270   -1.0778 C   0  0  0  0  0  0  0  0  0  0  0  0
    9.1983   18.0396   -2.3405 C   0  0  0  0  0  0  0  0  0  0  0  0
    9.3884   17.8250    0.1687 C   0  0  0  0  0  0  0  0  0  0  0  0
    9.3454   17.1227    1.3705 C   0  0  0  0  0  0  0  0  0  0  0  0
    9.0964   15.7475    1.3415 C   0  0  0  0  0  0  0  0  0  0  0  0
    9.0404   14.9365    2.4916 N   0  0  0  0  0  0  0  0  0  0  0  0
    9.1320   15.3029    3.8064 C   0  0  0  0  0  0  0  0  0  0  0  0
    9.0720   14.1485    4.7784 C   0  0  0  0  0  0  0  0  0  0  0  0
    8.5981   14.4272    6.0556 C   0  0  0  0  0  0  0  0  0  0  0  0
    8.5123   13.4160    7.0198 C   0  0  0  0  0  0  0  0  0  0  0  0
    8.0242   13.7831    8.2229 O   0  0  0  0  0  0  0  0  0  0  0  0
    7.9150   12.8234    9.2365 C   0  0  0  0  0  0  0  0  0  0  0  0
    8.9257   12.1177    6.6991 C   0  0  0  0  0  0  0  0  0  0  0  0
    9.4227   11.8510    5.4220 C   0  0  0  0  0  0  0  0  0  0  0  0
    9.4995   12.8504    4.4600 C   0  0  0  0  0  0  0  0  0  0  0  0
    9.2346   16.4486    4.1959 O   0  0  0  0  0  0  0  0  0  0  0  0
    8.9121   15.1200    0.1057 C   0  0  0  0  0  0  0  0  0  0  0  0
   10.7003   15.6016   -3.2653 O   0  0  0  0  0  0  0  0  0  0  0  0
    7.8145   13.9663   -4.7636 C   0  0  0  0  0  0  0  0  0  0  0  0
    7.3759   13.3287   -5.8294 N   0  0  0  0  0  0  0  0  0  0  0  0
    9.3803   13.1223   -9.6260 C   0  0  0  0  0  0  0  0  0  0  0  0
    9.3602   14.7736  -13.2603 C   0  0  0  0  0  3  0  0  0  0  0  0
    8.1151   14.4279  -12.7755 C   0  0  0  0  0  3  0  0  0  0  0  0
    7.2407   16.0986  -11.1139 S   0  0  0  0  0  1  0  0  0  0  0  0
    8.4070   17.3805  -11.6267 C   0  0  0  0  0  0  0  0  0  0  0  0
    9.7124   17.4551  -10.8115 C   0  0  2  0  0  0  0  0  0  0  0  0
   10.2585   16.5132  -10.9179 H   0  0  0  0  0  0  0  0  0  0  0  0
    9.4702   17.6149   -9.4003 N   0  0  0  0  0  0  0  0  0  0  0  0
    9.9869   16.7887   -8.4738 C   0  0  0  0  0  0  0  0  0  0  0  0
    9.4307   16.9440   -7.0738 C   0  0  0  0  0  0  0  0  0  0  0  0
   10.8273   15.9310   -8.7334 O   0  0  0  0  0  0  0  0  0  0  0  0
   10.5674   18.6070  -11.3453 C   0  0  0  0  0  0  0  0  0  0  0  0
   11.3956   18.2497  -12.3530 N   0  0  0  0  0  0  0  0  0  0  0  0
   12.2151   19.2053  -13.0451 C   0  0  0  0  0  0  0  0  0  0  0  0
   10.4444   19.7479  -10.9218 O   0  0  0  0  0  0  0  0  0  0  0  0
   11.4246   14.3586  -10.7504 H   0  0  0  0  0  0  0  0  0  0  0  0
    9.8419   12.1085  -13.7276 H   0  0  0  0  0  0  0  0  0  0  0  0
   10.2730   10.4427  -13.2366 H   0  0  0  0  0  0  0  0  0  0  0  0
   11.3920   11.8101  -12.9403 H   0  0  0  0  0  0  0  0  0  0  0  0
    8.6205    9.8808  -11.5911 H   0  0  0  0  0  0  0  0  0  0  0  0
    7.5792   10.2483   -9.3698 H   0  0  0  0  0  0  0  0  0  0  0  0
    6.8643   12.2103   -7.8237 H   0  0  0  0  0  0  0  0  0  0  0  0
   11.6312   14.8412   -4.7390 H   0  0  0  0  0  0  0  0  0  0  0  0
   12.2514   12.9073   -6.8726 H   0  0  0  0  0  0  0  0  0  0  0  0
   11.9923   14.5595   -7.5029 H   0  0  0  0  0  0  0  0  0  0  0  0
   13.2850   14.2480   -6.2898 H   0  0  0  0  0  0  0  0  0  0  0  0
    7.9651   14.4572   -2.2706 H   0  0  0  0  0  0  0  0  0  0  0  0
    8.3977   17.7177   -3.0237 H   0  0  0  0  0  0  0  0  0  0  0  0
   10.1475   17.9013   -2.8789 H   0  0  0  0  0  0  0  0  0  0  0  0
    9.0623   19.1076   -2.1220 H   0  0  0  0  0  0  0  0  0  0  0  0
    9.5694   18.9026    0.2047 H   0  0  0  0  0  0  0  0  0  0  0  0
    9.4890   17.6263    2.3230 H   0  0  0  0  0  0  0  0  0  0  0  0
    8.8432   13.9607    2.3159 H   0  0  0  0  0  0  0  0  0  0  0  0
    8.2928   15.4428    6.3105 H   0  0  0  0  0  0  0  0  0  0  0  0
    7.5008   13.3369   10.1126 H   0  0  0  0  0  0  0  0  0  0  0  0
    8.8972   12.3964    9.5059 H   0  0  0  0  0  0  0  0  0  0  0  0
    7.2354   12.0006    8.9523 H   0  0  0  0  0  0  0  0  0  0  0  0
    8.8749   11.3117    7.4312 H   0  0  0  0  0  0  0  0  0  0  0  0
    9.7640   10.8413    5.1837 H   0  0  0  0  0  0  0  0  0  0  0  0
    9.9282   12.6221    3.4817 H   0  0  0  0  0  0  0  0  0  0  0  0
    8.7456   14.0395    0.0602 H   0  0  0  0  0  0  0  0  0  0  0  0
    7.0385   14.2502   -4.0402 H   0  0  0  0  0  0  0  0  0  0  0  0
    9.5903   14.0549   -9.1049 H   0  0  0  0  0  0  0  0  0  0  0  0
    9.4285   15.3851  -14.1641 H   0  0  0  0  0  0  0  0  0  0  0  0
    7.9739   13.6984  -11.9840 H   0  0  0  0  0  0  0  0  0  0  0  0
    7.2512   14.5730  -13.4253 H   0  0  0  0  0  0  0  0  0  0  0  0
    7.9250   18.3726  -11.6050 H   0  0  0  0  0  0  0  0  0  0  0  0
    8.7125   17.1952  -12.6719 H   0  0  0  0  0  0  0  0  0  0  0  0
    8.7751   18.2950   -9.1253 H   0  0  0  0  0  0  0  0  0  0  0  0
    8.6051   16.2244   -6.9578 H   0  0  0  0  0  0  0  0  0  0  0  0
    9.0393   17.9520   -6.8770 H   0  0  0  0  0  0  0  0  0  0  0  0
   10.2065   16.6945   -6.3391 H   0  0  0  0  0  0  0  0  0  0  0  0
   11.4653   17.2561  -12.6103 H   0  0  0  0  0  0  0  0  0  0  0  0
   12.0018   19.2103  -14.1271 H   0  0  0  0  0  0  0  0  0  0  0  0
   13.2890   18.9917  -12.9110 H   0  0  0  0  0  0  0  0  0  0  0  0
   12.0007   20.2011  -12.6348 H   0  0  0  0  0  0  0  0  0  0  0  0
  1  2  2  0  0  0  0
  2  3  1  0  0  0  0
  3  4  1  0  0  0  0
  3 55  1  0  0  0  0
  4 40  1  0  0  0  0
  5  7  1  0  0  0  0
  5  4  2  0  0  0  0
  6 58  1  0  0  0  0
  6  5  1  0  0  0  0
  7  8  2  0  0  0  0
  8 60  1  0  0  0  0
  8  9  1  0  0  0  0
  9 10  1  0  0  0  0
 10 61  1  0  0  0  0
 10 11  1  0  0  0  0
 11 12  2  0  0  0  0
 11 39  1  0  0  0  0
 12 13  1  0  0  0  0
 13 14  1  0  0  0  0
 13 16  2  0  0  0  0
 14 62  1  0  0  0  0
 15 65  1  0  0  0  0
 15 14  1  0  0  0  0
 16 17  1  0  0  0  0
 17 37  2  0  0  0  0
 17 18  1  0  0  0  0
 18 66  1  0  0  0  0
 18 19  1  0  0  0  0
 19 20  2  0  0  0  0
 19 36  1  0  0  0  0
 20 22  1  0  0  0  0
 21 69  1  0  0  0  0
 21 20  1  0  0  0  0
 22 70  1  0  0  0  0
 22 23  2  0  0  0  0
 23 71  1  0  0  0  0
 24 23  1  0  0  0  0
 24 25  1  0  0  0  0
 25 26  1  0  0  0  0
 26 35  2  0  0  0  0
 26 27  1  0  0  0  0
 27 28  1  0  0  0  0
 28 73  1  0  0  0  0
 28 29  2  0  0  0  0
 29 30  1  0  0  0  0
 30 31  1  0  0  0  0
 31 75  1  0  0  0  0
 31 74  1  0  0  0  0
 32 29  1  0  0  0  0
 32 77  1  0  0  0  0
 33 32  2  0  0  0  0
 34 27  2  0  0  0  0
 34 33  1  0  0  0  0
 36 24  2  0  0  0  0
 38 16  1  0  0  0  0
 38 81  1  0  0  0  0
 39 38  2  0  0  0  0
 40 82  1  0  0  0  0
 40  9  2  0  0  0  0
 41 42  1  0  0  0  0
 41  2  1  0  0  0  0
 42 84  1  0  0  0  0
 44 86  1  0  0  0  0
 44 43  1  0  0  0  0
 44 45  1  0  0  0  0
 45 46  1  6  0  0  0
 45 47  1  0  0  0  0
 47 88  1  0  0  0  0
 47 48  1  0  0  0  0
 48 49  1  0  0  0  0
 49 89  1  0  0  0  0
 49 90  1  0  0  0  0
 49 91  1  0  0  0  0
 50 48  2  0  0  0  0
 51 54  2  0  0  0  0
 51 45  1  0  0  0  0
 52 51  1  0  0  0  0
 53 94  1  0  0  0  0
 53 95  1  0  0  0  0
 53 52  1  0  0  0  0
 56  6  1  0  0  0  0
 57  6  1  0  0  0  0
 59  7  1  0  0  0  0
 63 15  1  0  0  0  0
 64 15  1  0  0  0  0
 67 21  1  0  0  0  0
 68 21  1  0  0  0  0
 72 25  1  0  0  0  0
 76 31  1  0  0  0  0
 78 33  1  0  0  0  0
 79 34  1  0  0  0  0
 80 36  1  0  0  0  0
 83 41  1  0  0  0  0
 85 42  1  0  0  0  0
 87 44  1  0  0  0  0
 92 52  1  0  0  0  0
 93 53  1  0  0  0  0
M  END
