95
-1 1
O        11.579483   15.443884  -12.852621
C        10.617292   14.724178  -12.543786
N        10.783103   13.928392  -11.410871
C         9.946609   12.925016  -10.886194
C         9.702252   11.738468  -11.608613
C        10.335258   11.502868  -12.950352
C         8.833984   10.802558  -11.042536
C         8.248896   11.000262   -9.794310
C         8.528858   12.165188   -9.076985
N         7.861474   12.383640   -7.848695
C         8.325770   13.026489   -6.749706
N         9.620171   13.294202   -6.656089
C        10.057879   13.955220   -5.581335
N        11.359584   14.251840   -5.522077
C        12.271530   13.975436   -6.612226
C         9.146192   14.324468   -4.530227
C         9.598200   15.068766   -3.346498
N         8.704618   15.145589   -2.294777
C         8.954069   15.838965   -1.089068
C         9.187007   17.226994   -1.077829
C         9.198316   18.039599   -2.340476
C         9.388388   17.825036    0.168722
C         9.345426   17.122739    1.370464
C         9.096410   15.747500    1.341492
N         9.040379   14.936510    2.491606
C         9.132039   15.302875    3.806356
C         9.071963   14.148488    4.778394
C         8.598087   14.427179    6.055584
C         8.512296   13.416025    7.019816
O         8.024163   13.783060    8.222875
C         7.915016   12.823367    9.236461
C         8.925738   12.117697    6.699126
C         9.422742   11.851028    5.421978
C         9.499527   12.850444    4.459984
O         9.234578   16.448568    4.195916
C         8.912067   15.119974    0.105664
O        10.700259   15.601632   -3.265259
C         7.814472   13.966276   -4.763578
N         7.375897   13.328686   -5.829418
C         9.380316   13.122326   -9.625956
C         9.360168   14.773645  -13.260274
C         8.115057   14.427910  -12.775526
S         7.240723   16.098622  -11.113913
C         8.406990   17.380465  -11.626724
C         9.712439   17.455053  -10.811513
H        10.258512   16.513161  -10.917894
N         9.470243   17.614867   -9.400303
C         9.986863   16.788720   -8.473757
C         9.430698   16.943952   -7.073814
O        10.827333   15.930991   -8.733391
C        10.567390   18.606977  -11.345262
N        11.395585   18.249684  -12.352962
C        12.215084   19.205255  -13.045079
O        10.444380   19.747878  -10.921815
H        11.424561   14.358555  -10.750401
H         9.841936   12.108491  -13.727578
H        10.272965   10.442731  -13.236631
H        11.392040   11.810086  -12.940262
H         8.620511    9.880754  -11.591128
H         7.579223   10.248310   -9.369794
H         6.864291   12.210305   -7.823723
H        11.631180   14.841219   -4.739015
H        12.251422   12.907289   -6.872572
H        11.992326   14.559540   -7.502896
H        13.284998   14.248010   -6.289766
H         7.965128   14.457169   -2.270557
H         8.397712   17.717666   -3.023725
H        10.147456   17.901258   -2.878861
H         9.062299   19.107592   -2.122005
H         9.569371   18.902557    0.204731
H         9.488964   17.626277    2.322988
H         8.843202   13.960732    2.315906
H         8.292791   15.442806    6.310496
H         7.500834   13.336922   10.112639
H         8.897204   12.396371    9.505872
H         7.235376   12.000568    8.952264
H         8.874931   11.311693    7.431176
H         9.764018   10.841322    5.183659
H         9.928192   12.622092    3.481727
H         8.745645   14.039481    0.060236
H         7.038540   14.250175   -4.040183
H         9.590291   14.054920   -9.104889
H         9.428509   15.385104  -14.164078
H         7.973903   13.698423  -11.984038
H         7.251213   14.573036  -13.425285
H         7.925035   18.372640  -11.604988
H         8.712498   17.195204  -12.671919
H         8.775080   18.295034   -9.125321
H         8.605112   16.224350   -6.957756
H         9.039328   17.952027   -6.876978
H        10.206534   16.694474   -6.339127
H        11.465269   17.256102  -12.610293
H        12.001827   19.210334  -14.127104
H        13.289044   18.991732  -12.910982
H        12.000716   20.201075  -12.634829
