95
-1 1
O         1.916105    0.684038   -7.899194
C         1.169153   -0.226131   -7.549881
N         1.265683   -0.777306   -6.309302
C         0.559874   -1.888713   -5.787170
C         0.645732   -3.166410   -6.373149
C         1.498486   -3.429810   -7.583772
C        -0.084217   -4.202906   -5.782105
C        -0.833959   -4.007923   -4.624410
C        -0.870785   -2.744443   -4.038024
N        -1.631149   -2.522364   -2.857822
C        -1.147351   -1.912173   -1.748714
N         0.165216   -1.747718   -1.645791
C         0.648979   -1.129868   -0.568389
N         1.972904   -0.935176   -0.513544
C         2.838545   -1.231103   -1.635822
C        -0.233788   -0.690502    0.478596
C         0.273739    0.014049    1.663785
N        -0.622331    0.193681    2.700629
C        -0.317396    0.864092    3.906278
C         0.059552    2.220321    3.914577
C         0.169883    3.019431    2.648106
C         0.307506    2.801034    5.160882
C         0.177153    2.113762    6.365207
C        -0.214031    0.772118    6.338786
N        -0.367800   -0.022957    7.491489
C        -0.241597    0.334610    8.805343
C        -0.431229   -0.803863    9.779917
C        -0.875538   -0.472041   11.055074
C        -1.073655   -1.465332   12.021277
O        -1.522091   -1.044116   13.222241
C        -1.737970   -1.983619   14.237445
C        -0.803359   -2.801828   11.704987
C        -0.334839   -3.124312   10.429921
C        -0.146862   -2.141672    9.465984
O        -0.014961    1.463009    9.193342
C        -0.448669    0.160447    5.103562
O         1.424334    0.429669    1.760802
C        -1.590456   -0.936149    0.233138
N        -2.073641   -1.536659   -0.834486
C        -0.184903   -1.688049   -4.627820
C         0.090490   -0.686359   -8.474878
C        -1.191972   -0.747244   -8.110126
S        -2.142796    1.136031   -5.093876
C        -1.294962    2.430702   -6.057395
C         0.196669    2.630530   -5.698659
H         0.762745    1.744240   -5.994183
N         0.386182    2.776364   -4.275697
C         0.979097    1.836085   -3.518296
C         0.678306    1.925232   -2.039483
O         1.700606    0.945707   -3.971284
C         0.749561    3.850628   -6.430491
N         1.412201    3.552654   -7.576009
C         1.942178    4.568930   -8.441884
O         0.553210    4.988791   -6.031829
H         1.701262   -0.165890   -5.605803
H         0.968739   -3.166599   -8.513519
H         1.775134   -4.492526   -7.643506
H         2.420787   -2.830401   -7.556549
H        -0.036820   -5.200811   -6.227225
H        -1.372816   -4.837116   -4.160667
H        -2.642229   -2.532365   -2.923214
H         2.292530   -0.374606    0.272514
H         2.756374   -2.289388   -1.922486
H         2.573385   -0.616547   -2.512743
H         3.873733   -1.018745   -1.337422
H        -1.436869   -0.404281    2.713395
H        -0.656716    2.784180    1.960526
H         1.101400    2.772959    2.117589
H         0.151607    4.097178    2.860160
H         0.599456    3.854024    5.194385
H         0.361650    2.604420    7.317470
H        -0.670112   -0.971599    7.316816
H        -1.069067    0.571404   11.306952
H        -2.095136   -1.425688   15.111620
H        -0.809174   -2.515242   14.510200
H        -2.503256   -2.727579   13.953529
H        -0.943846   -3.595424   12.438893
H        -0.105062   -4.165804   10.194804
H         0.256836   -2.417992    8.489489
H        -0.726509   -0.896985    5.060470
H        -2.346312   -0.588707    0.950116
H        -0.263085   -0.681077   -4.219509
H         0.404426   -0.808260   -9.516739
H        -1.524779   -0.518688   -7.083166
H        -1.965372   -0.962054   -8.853577
H        -1.796839    3.405541   -5.926578
H        -1.323749    2.207806   -7.139070
H        -0.268036    3.398257   -3.817382
H        -0.228408    1.326474   -1.858826
H         0.478067    2.955107   -1.711836
H         1.501241    1.499955   -1.454048
H         1.592998    2.570817   -7.790637
H         1.543928    4.475674   -9.466047
H         3.043303    4.526023   -8.497205
H         1.649723    5.545405   -8.033367
