-1 1
 OpenBabel05192410563D

 95 99  0  0  1  0  0  0  0  0999 V2000
   -1.7135   -0.0225   -3.4633 O   0  0  0  0  0  0  0  0  0  0  0  0
   -2.5410   -0.5278   -4.2389 C   0  0  0  0  0  0  0  0  0  0  0  0
   -2.3044   -1.8464   -4.7628 N   0  0  0  0  0  0  0  0  0  0  0  0
   -1.2921   -2.7231   -4.4387 C   0  0  0  0  0  0  0  0  0  0  0  0
   -0.9515   -3.7412   -5.3680 C   0  0  0  0  0  0  0  0  0  0  0  0
   -1.6460   -3.8253   -6.7005 C   0  0  0  0  0  0  0  0  0  0  0  0
    0.0573   -4.6392   -5.0255 C   0  0  0  0  0  0  0  0  0  0  0  0
    0.7388   -4.5638   -3.8159 C   0  0  0  0  0  0  0  0  0  0  0  0
    0.4057   -3.5473   -2.9097 C   0  0  0  0  0  0  0  0  0  0  0  0
    1.1638   -3.5041   -1.7189 N   0  0  0  0  0  0  0  0  0  0  0  0
    1.0295   -2.7827   -0.5787 C   0  0  0  0  0  0  0  0  0  0  0  0
    2.0218   -2.9745    0.3211 N   0  0  0  0  0  0  0  0  0  0  0  0
    1.9611   -2.2645    1.4293 C   0  0  0  0  0  0  0  0  0  0  0  0
    2.9583   -2.4472    2.3830 N   0  0  0  0  0  0  0  0  0  0  0  0
    2.7785   -2.0740    3.7191 C   0  0  0  0  0  0  0  0  0  0  0  0
    1.6914   -1.2634    3.9796 N   0  0  0  0  0  0  0  0  0  0  0  0
    1.0328   -0.5032    2.9210 C   0  0  0  0  0  0  0  0  0  0  0  0
    1.4169   -0.9113    5.3318 C   0  0  0  0  0  0  0  0  0  0  0  0
    0.9843   -1.8847    6.2497 C   0  0  0  0  0  0  0  0  0  0  0  0
    0.8466   -3.3274    5.8574 C   0  0  0  0  0  0  0  0  0  0  0  0
    0.6903   -1.4510    7.5437 C   0  0  0  0  0  0  0  0  0  0  0  0
    0.7914   -0.1199    7.9415 C   0  0  0  0  0  0  0  0  0  0  0  0
    1.2105    0.8368    7.0124 C   0  0  0  0  0  0  0  0  0  0  0  0
    1.3473    2.2092    7.2946 N   0  0  0  0  0  0  0  0  0  0  0  0
    1.1179    2.8584    8.4693 C   0  0  0  0  0  0  0  0  0  0  0  0
    1.3524    4.3578    8.4648 C   0  0  0  0  0  0  0  0  0  0  0  0
    1.7893    5.1484    7.3990 C   0  0  0  0  0  0  0  0  0  0  0  0
    2.0595    4.6022    6.1973 F   0  0  0  0  0  0  0  0  0  0  0  0
    1.9699    6.5189    7.5208 C   0  0  0  0  0  0  0  0  0  0  0  0
    1.7084    7.1339    8.7393 C   0  0  0  0  0  0  0  0  0  0  0  0
    1.2658    6.3899    9.8403 C   0  0  0  0  0  0  0  0  0  0  0  0
    0.9516    7.0591   11.1531 C   0  0  0  0  0  0  0  0  0  0  0  0
    1.1000    5.0157    9.6758 C   0  0  0  0  0  0  0  0  0  0  0  0
    0.7433    2.3124    9.4895 O   0  0  0  0  0  0  0  0  0  0  0  0
    1.5239    0.4241    5.7124 C   0  0  0  0  0  0  0  0  0  0  0  0
    3.5281   -2.4631    4.5914 O   0  0  0  0  0  0  0  0  0  0  0  0
    4.0730   -3.3246    2.0687 C   0  0  0  0  0  0  0  0  0  0  0  0
    0.9365   -1.3408    1.6888 C   0  0  0  0  0  0  0  0  0  0  0  0
   -0.0479   -1.2678    0.7158 C   0  0  0  0  0  0  0  0  0  0  0  0
   -0.0208   -1.9791   -0.4030 N   0  0  0  0  0  0  0  0  0  0  0  0
   -0.6012   -2.6338   -3.2148 C   0  0  0  0  0  0  0  0  0  0  0  0
   -3.6911    0.0900   -4.7680 C   0  0  0  0  0  3  0  0  0  0  0  0
   -4.7919   -0.6423   -5.4203 C   0  0  0  0  0  0  0  0  0  0  0  0
   -4.5789   -1.1561   -7.2506 S   0  0  0  0  0  0  0  0  0  0  0  0
   -4.1043    0.4259   -8.0001 C   0  0  0  0  0  0  0  0  0  0  0  0
   -2.6430    0.5189   -8.4260 C   0  0  2  0  0  0  0  0  0  0  0  0
   -2.3978   -0.3096   -9.1140 H   0  0  0  0  0  0  0  0  0  0  0  0
   -1.7610    0.4113   -7.2766 N   0  0  0  0  0  0  0  0  0  0  0  0
   -0.4902   -0.0300   -7.3878 C   0  0  0  0  0  0  0  0  0  0  0  0
    0.2772   -0.2541   -6.1097 C   0  0  0  0  0  0  0  0  0  0  0  0
    0.0356   -0.2357   -8.4862 O   0  0  0  0  0  0  0  0  0  0  0  0
   -2.4062    1.8340   -9.2053 C   0  0  0  0  0  0  0  0  0  0  0  0
   -1.1883    1.8971   -9.7955 N   0  0  0  0  0  0  0  0  0  0  0  0
   -0.7304    3.0657  -10.4952 C   0  0  0  0  0  0  0  0  0  0  0  0
   -3.2514    2.7099   -9.2883 O   0  0  0  0  0  0  0  0  0  0  0  0
   -2.7714   -2.0237   -5.6462 H   0  0  0  0  0  0  0  0  0  0  0  0
   -1.5338   -2.8935   -7.2806 H   0  0  0  0  0  0  0  0  0  0  0  0
   -2.7314   -3.9952   -6.5965 H   0  0  0  0  0  0  0  0  0  0  0  0
   -1.2366   -4.6468   -7.3052 H   0  0  0  0  0  0  0  0  0  0  0  0
    0.3250   -5.4247   -5.7385 H   0  0  0  0  0  0  0  0  0  0  0  0
    1.5281   -5.2828   -3.5792 H   0  0  0  0  0  0  0  0  0  0  0  0
    1.9782   -4.1038   -1.7007 H   0  0  0  0  0  0  0  0  0  0  0  0
    1.5879    0.4337    2.7115 H   0  0  0  0  0  0  0  0  0  0  0  0
    0.0340   -0.2136    3.2773 H   0  0  0  0  0  0  0  0  0  0  0  0
    0.3946   -3.4227    4.8587 H   0  0  0  0  0  0  0  0  0  0  0  0
    0.2237   -3.8753    6.5776 H   0  0  0  0  0  0  0  0  0  0  0  0
    1.8377   -3.8039    5.8100 H   0  0  0  0  0  0  0  0  0  0  0  0
    0.3509   -2.1873    8.2770 H   0  0  0  0  0  0  0  0  0  0  0  0
    0.5449    0.1836    8.9553 H   0  0  0  0  0  0  0  0  0  0  0  0
    1.6586    2.7778    6.5184 H   0  0  0  0  0  0  0  0  0  0  0  0
    2.3164    7.0826    6.6536 H   0  0  0  0  0  0  0  0  0  0  0  0
    1.8535    8.2131    8.8340 H   0  0  0  0  0  0  0  0  0  0  0  0
   -0.0684    7.4761   11.1459 H   0  0  0  0  0  0  0  0  0  0  0  0
    1.6448    7.8880   11.3573 H   0  0  0  0  0  0  0  0  0  0  0  0
    1.0120    6.3479   11.9884 H   0  0  0  0  0  0  0  0  0  0  0  0
    0.7621    4.3880   10.5033 H   0  0  0  0  0  0  0  0  0  0  0  0
    1.8708    1.1572    4.9799 H   0  0  0  0  0  0  0  0  0  0  0  0
    4.4944   -3.0420    1.0964 H   0  0  0  0  0  0  0  0  0  0  0  0
    3.7482   -4.3744    2.0071 H   0  0  0  0  0  0  0  0  0  0  0  0
    4.8203   -3.2224    2.8611 H   0  0  0  0  0  0  0  0  0  0  0  0
   -0.9041   -0.5934    0.8395 H   0  0  0  0  0  0  0  0  0  0  0  0
   -0.8538   -1.8277   -2.5354 H   0  0  0  0  0  0  0  0  0  0  0  0
   -3.8718    1.1127   -4.4311 H   0  0  0  0  0  0  0  0  0  0  0  0
   -5.7243   -0.0615   -5.4052 H   0  0  0  0  0  0  0  0  0  0  0  0
   -5.0098   -1.6315   -4.9790 H   0  0  0  0  0  0  0  0  0  0  0  0
   -4.3215    1.2270   -7.2774 H   0  0  0  0  0  0  0  0  0  0  0  0
   -4.7392    0.6077   -8.8760 H   0  0  0  0  0  0  0  0  0  0  0  0
   -2.2134    0.4869   -6.3513 H   0  0  0  0  0  0  0  0  0  0  0  0
    0.5098   -1.3271   -6.0345 H   0  0  0  0  0  0  0  0  0  0  0  0
   -0.2540    0.0496   -5.1966 H   0  0  0  0  0  0  0  0  0  0  0  0
    1.2345    0.2799   -6.1932 H   0  0  0  0  0  0  0  0  0  0  0  0
   -0.5476    1.1228   -9.5911 H   0  0  0  0  0  0  0  0  0  0  0  0
   -1.5642    3.7772  -10.5561 H   0  0  0  0  0  0  0  0  0  0  0  0
   -0.3998    2.8182  -11.5175 H   0  0  0  0  0  0  0  0  0  0  0  0
    0.1098    3.5532   -9.9719 H   0  0  0  0  0  0  0  0  0  0  0  0
  2  1  2  0  0  0  0
  3  4  1  0  0  0  0
  3  2  1  0  0  0  0
  4 41  1  0  0  0  0
  5  7  1  0  0  0  0
  5  4  2  0  0  0  0
  6 58  1  0  0  0  0
  6  5  1  0  0  0  0
  7  8  2  0  0  0  0
  8 61  1  0  0  0  0
  8  9  1  0  0  0  0
  9 10  1  0  0  0  0
 10 62  1  0  0  0  0
 10 11  1  0  0  0  0
 11 40  1  0  0  0  0
 11 12  2  0  0  0  0
 12 13  1  0  0  0  0
 13 38  2  0  0  0  0
 13 14  1  0  0  0  0
 14 15  1  0  0  0  0
 15 16  1  0  0  0  0
 15 36  2  0  0  0  0
 16 18  1  0  0  0  0
 17 64  1  0  0  0  0
 17 16  1  0  0  0  0
 18 35  2  0  0  0  0
 18 19  1  0  0  0  0
 19 21  2  0  0  0  0
 20 19  1  0  0  0  0
 20 66  1  0  0  0  0
 21 22  1  0  0  0  0
 21 68  1  0  0  0  0
 22 69  1  0  0  0  0
 23 24  1  0  0  0  0
 23 22  2  0  0  0  0
 24 25  1  0  0  0  0
 25 34  2  0  0  0  0
 26 25  1  0  0  0  0
 26 33  1  0  0  0  0
 27 29  1  0  0  0  0
 27 26  2  0  0  0  0
 28 27  1  0  0  0  0
 29 30  2  0  0  0  0
 30 72  1  0  0  0  0
 30 31  1  0  0  0  0
 31 32  1  0  0  0  0
 32 74  1  0  0  0  0
 32 75  1  0  0  0  0
 33 31  2  0  0  0  0
 33 76  1  0  0  0  0
 35 23  1  0  0  0  0
 37 14  1  0  0  0  0
 37 80  1  0  0  0  0
 38 17  1  0  0  0  0
 39 81  1  0  0  0  0
 39 38  1  0  0  0  0
 40 39  2  0  0  0  0
 41  9  2  0  0  0  0
 41 82  1  0  0  0  0
 42 83  1  0  0  0  0
 42  2  1  0  0  0  0
 43 84  1  0  0  0  0
 43 85  1  0  0  0  0
 43 42  1  0  0  0  0
 44 43  1  0  0  0  0
 45 86  1  0  0  0  0
 45 44  1  0  0  0  0
 46 47  1  6  0  0  0
 46 45  1  0  0  0  0
 46 48  1  0  0  0  0
 48 88  1  0  0  0  0
 49 48  1  0  0  0  0
 49 50  1  0  0  0  0
 50 89  1  0  0  0  0
 50 90  1  0  0  0  0
 51 49  2  0  0  0  0
 52 46  1  0  0  0  0
 53 92  1  0  0  0  0
 53 52  1  0  0  0  0
 54 95  1  0  0  0  0
 54 53  1  0  0  0  0
 55 52  2  0  0  0  0
 56  3  1  0  0  0  0
 57  6  1  0  0  0  0
 59  6  1  0  0  0  0
 60  7  1  0  0  0  0
 63 17  1  0  0  0  0
 65 20  1  0  0  0  0
 67 20  1  0  0  0  0
 70 24  1  0  0  0  0
 71 29  1  0  0  0  0
 73 32  1  0  0  0  0
 77 35  1  0  0  0  0
 78 37  1  0  0  0  0
 79 37  1  0  0  0  0
 87 45  1  0  0  0  0
 91 50  1  0  0  0  0
 93 54  1  0  0  0  0
 94 54  1  0  0  0  0
M  END
