-1 1
 OpenBabel05232414493D

 94 97  0  0  1  0  0  0  0  0999 V2000
   -3.2340   11.3486    4.0573 O   0  0  0  0  0  0  0  0  0  0  0  0
   -2.8531   10.1943    3.8295 C   0  0  0  0  0  0  0  0  0  0  0  0
   -2.6536    9.8565    2.4436 N   0  0  0  0  0  0  0  0  0  0  0  0
   -1.5402    9.2525    1.8406 C   0  0  0  0  0  0  0  0  0  0  0  0
   -0.2105    9.4960    2.2523 C   0  0  0  0  0  0  0  0  0  0  0  0
    0.1077   10.4061    3.4033 C   0  0  0  0  0  0  0  0  0  0  0  0
    0.8101    8.8745    1.5260 C   0  0  0  0  0  0  0  0  0  0  0  0
    0.5616    8.0438    0.4390 C   0  0  0  0  0  0  0  0  0  0  0  0
   -0.7591    7.7964    0.0399 C   0  0  0  0  0  0  0  0  0  0  0  0
   -0.9547    6.8801   -1.0092 N   0  0  0  0  0  0  0  0  0  0  0  0
   -2.0843    6.2645   -1.4505 C   0  0  0  0  0  0  0  0  0  0  0  0
   -3.2782    6.7885   -1.2220 N   0  0  0  0  0  0  0  0  0  0  0  0
   -4.3613    6.0660   -1.5315 C   0  0  1  0  0  3  0  0  0  0  0  0
   -5.5281    6.7294   -1.3755 N   0  0  0  0  0  0  0  0  0  0  0  0
   -6.8307    6.3751   -1.8747 C   0  0  0  0  0  0  0  0  0  0  0  0
   -4.2318    4.7337   -2.0243 C   0  0  2  0  0  3  0  0  0  0  0  0
   -5.3032    3.7247   -1.8672 C   0  0  0  0  0  0  0  0  0  0  0  0
   -5.3605    2.6310   -2.7151 N   0  0  0  0  0  0  0  0  0  0  0  0
   -4.5157    2.2772   -3.7940 C   0  0  0  0  0  0  0  0  0  0  0  0
   -4.5052    3.0280   -4.9827 C   0  0  0  0  0  0  0  0  0  0  0  0
   -5.4145    4.2091   -5.1678 C   0  0  0  0  0  0  0  0  0  0  0  0
   -3.6007    2.6508   -5.9821 C   0  0  0  0  0  0  0  0  0  0  0  0
   -2.7422    1.5699   -5.8225 C   0  0  0  0  0  0  0  0  0  0  0  0
   -2.7611    0.8267   -4.6390 C   0  0  0  0  0  0  0  0  0  0  0  0
   -1.8172   -0.3381   -4.5307 C   0  0  0  0  0  0  0  0  0  0  0  0
   -1.3188   -0.6800   -3.2975 N   0  0  0  0  0  0  0  0  0  0  0  0
   -1.2838    0.0290   -2.0692 C   0  0  0  0  0  0  0  0  0  0  0  0
   -1.5485   -0.6719   -0.8911 C   0  0  0  0  0  0  0  0  0  0  0  0
   -1.4984   -0.0147    0.3381 C   0  0  0  0  0  0  0  0  0  0  0  0
   -1.7368   -0.7852    1.6130 C   0  0  0  0  0  0  0  0  0  0  0  0
   -2.2530   -2.0046    1.3694 F   0  0  0  0  0  0  0  0  0  0  0  0
   -0.6028   -0.9798    2.2927 F   0  0  0  0  0  0  0  0  0  0  0  0
   -2.5862   -0.1580    2.4249 F   0  0  0  0  0  0  0  0  0  0  0  0
   -1.2221    1.3514    0.4078 C   0  0  0  0  0  0  0  0  0  0  0  0
   -0.9697    2.0478   -0.7731 C   0  0  0  0  0  0  0  0  0  0  0  0
   -0.9716    1.3907   -2.0013 C   0  0  0  0  0  0  0  0  0  0  0  0
   -1.5111   -0.9836   -5.5156 O   0  0  0  0  0  0  0  0  0  0  0  0
   -3.6709    1.1748   -3.6423 C   0  0  0  0  0  0  0  0  0  0  0  0
   -6.1280    3.7919   -0.9671 O   0  0  0  0  0  0  0  0  0  0  0  0
   -2.9129    4.3838   -2.3637 C   0  0  0  0  0  0  0  0  0  0  0  0
   -1.8520    5.1283   -2.1463 N   0  0  0  0  0  0  0  0  0  0  0  0
   -1.7940    8.4156    0.7407 C   0  0  0  0  0  0  0  0  0  0  0  0
   -2.7056    9.1607    4.7836 C   0  0  0  0  0  3  0  0  0  0  0  0
   -2.5513    7.7673    4.4923 C   0  0  0  0  0  0  0  0  0  0  0  0
   -0.7101    6.9217    4.8882 S   0  0  0  0  0  0  0  0  0  0  0  0
   -0.2352    6.0461    3.3577 C   0  0  0  0  0  0  0  0  0  0  0  0
   -0.9354    4.7237    3.0210 C   0  0  2  0  0  0  0  0  0  0  0  0
   -0.6003    4.4150    2.0216 H   0  0  0  0  0  0  0  0  0  0  0  0
   -2.3691    4.8974    2.9090 N   0  0  0  0  0  0  0  0  0  0  0  0
   -3.0235    4.8090    1.7211 C   0  0  0  0  0  0  0  0  0  0  0  0
   -4.4554    5.2884    1.7348 C   0  0  0  0  0  0  0  0  0  0  0  0
   -2.4798    4.4061    0.7043 O   0  0  0  0  0  0  0  0  0  0  0  0
   -0.6384    3.5115    3.9158 C   0  0  0  0  0  0  0  0  0  0  0  0
   -0.6022    3.7562    5.2439 N   0  0  0  0  0  0  0  0  0  0  0  0
   -0.3877    2.7174    6.2170 C   0  0  0  0  0  0  0  0  0  0  0  0
   -0.4948    2.3986    3.4287 O   0  0  0  0  0  0  0  0  0  0  0  0
   -3.1263   10.5355    1.8563 H   0  0  0  0  0  0  0  0  0  0  0  0
   -0.0835    9.8933    4.3593 H   0  0  0  0  0  0  0  0  0  0  0  0
   -0.5380   11.2965    3.3954 H   0  0  0  0  0  0  0  0  0  0  0  0
    1.1614   10.7208    3.3719 H   0  0  0  0  0  0  0  0  0  0  0  0
    1.8469    9.0546    1.8240 H   0  0  0  0  0  0  0  0  0  0  0  0
    1.3924    7.5672   -0.0889 H   0  0  0  0  0  0  0  0  0  0  0  0
   -0.1287    6.3646   -1.2864 H   0  0  0  0  0  0  0  0  0  0  0  0
   -5.3965    7.6548   -0.9867 H   0  0  0  0  0  0  0  0  0  0  0  0
   -7.4122    7.2963   -2.0176 H   0  0  0  0  0  0  0  0  0  0  0  0
   -7.3703    5.6932   -1.2020 H   0  0  0  0  0  0  0  0  0  0  0  0
   -6.7452    5.8744   -2.8525 H   0  0  0  0  0  0  0  0  0  0  0  0
   -5.9563    1.9031   -2.3345 H   0  0  0  0  0  0  0  0  0  0  0  0
   -5.0002    5.0997   -4.6683 H   0  0  0  0  0  0  0  0  0  0  0  0
   -6.4007    4.0182   -4.7200 H   0  0  0  0  0  0  0  0  0  0  0  0
   -5.5447    4.4436   -6.2332 H   0  0  0  0  0  0  0  0  0  0  0  0
   -3.5756    3.2229   -6.9131 H   0  0  0  0  0  0  0  0  0  0  0  0
   -2.0474    1.2823   -6.6133 H   0  0  0  0  0  0  0  0  0  0  0  0
   -0.7934   -1.5476   -3.3328 H   0  0  0  0  0  0  0  0  0  0  0  0
   -1.8027   -1.7318   -0.9397 H   0  0  0  0  0  0  0  0  0  0  0  0
   -1.1835    1.8634    1.3745 H   0  0  0  0  0  0  0  0  0  0  0  0
   -0.7897    3.1232   -0.7339 H   0  0  0  0  0  0  0  0  0  0  0  0
   -0.7458    1.9434   -2.9159 H   0  0  0  0  0  0  0  0  0  0  0  0
   -3.7072    0.6255   -2.7003 H   0  0  0  0  0  0  0  0  0  0  0  0
   -2.7100    3.4069   -2.8036 H   0  0  0  0  0  0  0  0  0  0  0  0
   -2.8256    8.2315    0.4557 H   0  0  0  0  0  0  0  0  0  0  0  0
   -2.8749    9.4724    5.8172 H   0  0  0  0  0  0  0  0  0  0  0  0
   -2.6744    7.5094    3.4327 H   0  0  0  0  0  0  0  0  0  0  0  0
   -3.1409    7.0959    5.1334 H   0  0  0  0  0  0  0  0  0  0  0  0
    0.8514    5.8767    3.4107 H   0  0  0  0  0  0  0  0  0  0  0  0
   -0.4082    6.7268    2.5147 H   0  0  0  0  0  0  0  0  0  0  0  0
   -2.8439    5.3208    3.6973 H   0  0  0  0  0  0  0  0  0  0  0  0
   -4.9270    5.1795    2.7216 H   0  0  0  0  0  0  0  0  0  0  0  0
   -5.0342    4.7486    0.9736 H   0  0  0  0  0  0  0  0  0  0  0  0
   -4.4543    6.3579    1.4717 H   0  0  0  0  0  0  0  0  0  0  0  0
   -0.7059    4.7326    5.5426 H   0  0  0  0  0  0  0  0  0  0  0  0
    0.5699    2.8487    6.7473 H   0  0  0  0  0  0  0  0  0  0  0  0
   -0.3694    1.7545    5.6902 H   0  0  0  0  0  0  0  0  0  0  0  0
   -1.1969    2.7021    6.9643 H   0  0  0  0  0  0  0  0  0  0  0  0
  2  1  2  0  0  0  0
  2 43  1  0  0  0  0
  3  2  1  0  0  0  0
  4  5  1  0  0  0  0
  4  3  1  0  0  0  0
  5  6  1  0  0  0  0
  6 58  1  0  0  0  0
  7 61  1  0  0  0  0
  7  5  2  0  0  0  0
  8  7  1  0  0  0  0
  9  8  2  0  0  0  0
  9 42  1  0  0  0  0
 10  9  1  0  0  0  0
 11 12  2  0  0  0  0
 11 10  1  0  0  0  0
 13 14  1  6  0  0  0
 13 12  1  0  0  0  0
 14 64  1  0  0  0  0
 15 14  1  0  0  0  0
 15 66  1  0  0  0  0
 16 17  1  1  0  0  0
 16 13  1  0  0  0  0
 17 39  2  0  0  0  0
 18 68  1  0  0  0  0
 18 17  1  0  0  0  0
 19 38  1  0  0  0  0
 19 18  1  0  0  0  0
 20 19  2  0  0  0  0
 21 20  1  0  0  0  0
 21 70  1  0  0  0  0
 21 69  1  0  0  0  0
 22 23  2  0  0  0  0
 22 20  1  0  0  0  0
 23 24  1  0  0  0  0
 24 25  1  0  0  0  0
 24 38  2  0  0  0  0
 25 26  1  0  0  0  0
 26 27  1  0  0  0  0
 27 36  2  0  0  0  0
 27 28  1  0  0  0  0
 28 29  2  0  0  0  0
 29 34  1  0  0  0  0
 29 30  1  0  0  0  0
 30 32  1  0  0  0  0
 30 33  1  0  0  0  0
 31 30  1  0  0  0  0
 34 76  1  0  0  0  0
 35 77  1  0  0  0  0
 35 34  2  0  0  0  0
 36 35  1  0  0  0  0
 37 25  2  0  0  0  0
 38 79  1  0  0  0  0
 40 41  2  0  0  0  0
 40 16  1  0  0  0  0
 41 11  1  0  0  0  0
 42  4  2  0  0  0  0
 43 82  1  0  0  0  0
 44 43  1  0  0  0  0
 44 45  1  0  0  0  0
 44 84  1  0  0  0  0
 46 85  1  0  0  0  0
 46 45  1  0  0  0  0
 47 48  1  6  0  0  0
 47 46  1  0  0  0  0
 47 53  1  0  0  0  0
 49 47  1  0  0  0  0
 49 87  1  0  0  0  0
 50 51  1  0  0  0  0
 50 49  1  0  0  0  0
 51 88  1  0  0  0  0
 52 50  2  0  0  0  0
 53 54  1  0  0  0  0
 54 91  1  0  0  0  0
 54 55  1  0  0  0  0
 55 92  1  0  0  0  0
 55 94  1  0  0  0  0
 56 53  2  0  0  0  0
 57  3  1  0  0  0  0
 59  6  1  0  0  0  0
 60  6  1  0  0  0  0
 62  8  1  0  0  0  0
 63 10  1  0  0  0  0
 65 15  1  0  0  0  0
 67 15  1  0  0  0  0
 71 21  1  0  0  0  0
 72 22  1  0  0  0  0
 73 23  1  0  0  0  0
 74 26  1  0  0  0  0
 75 28  1  0  0  0  0
 78 36  1  0  0  0  0
 80 40  1  0  0  0  0
 81 42  1  0  0  0  0
 83 44  1  0  0  0  0
 86 46  1  0  0  0  0
 89 51  1  0  0  0  0
 90 51  1  0  0  0  0
 93 55  1  0  0  0  0
M  END
