94
-1 1
O        -3.234021   11.348562    4.057307
C        -2.853120   10.194282    3.829543
N        -2.653554    9.856534    2.443593
C        -1.540196    9.252469    1.840640
C        -0.210455    9.495952    2.252317
C         0.107704   10.406106    3.403317
C         0.810083    8.874461    1.525963
C         0.561625    8.043778    0.438965
C        -0.759137    7.796443    0.039859
N        -0.954702    6.880066   -1.009193
C        -2.084348    6.264543   -1.450494
N        -3.278171    6.788514   -1.222001
C        -4.361340    6.065982   -1.531513
N        -5.528082    6.729425   -1.375541
C        -6.830734    6.375052   -1.874718
C        -4.231841    4.733690   -2.024274
C        -5.303183    3.724669   -1.867188
N        -5.360487    2.630979   -2.715139
C        -4.515685    2.277172   -3.794014
C        -4.505198    3.027972   -4.982673
C        -5.414491    4.209128   -5.167789
C        -3.600749    2.650800   -5.982127
C        -2.742203    1.569915   -5.822521
C        -2.761079    0.826709   -4.639027
C        -1.817193   -0.338140   -4.530658
N        -1.318829   -0.679950   -3.297539
C        -1.283822    0.028996   -2.069152
C        -1.548494   -0.671932   -0.891088
C        -1.498391   -0.014747    0.338065
C        -1.736782   -0.785224    1.612991
F        -2.253044   -2.004614    1.369390
F        -0.602807   -0.979750    2.292683
F        -2.586185   -0.157981    2.424929
C        -1.222086    1.351387    0.407751
C        -0.969734    2.047846   -0.773051
C        -0.971606    1.390736   -2.001330
O        -1.511078   -0.983630   -5.515583
C        -3.670890    1.174839   -3.642302
O        -6.128029    3.791946   -0.967113
C        -2.912891    4.383792   -2.363732
N        -1.851996    5.128337   -2.146350
C        -1.794049    8.415638    0.740728
C        -2.705581    9.160670    4.783587
C        -2.551348    7.767325    4.492329
S        -0.710098    6.921713    4.888185
C        -0.235165    6.046060    3.357728
C        -0.935441    4.723693    3.021040
H        -0.600326    4.415006    2.021574
N        -2.369064    4.897443    2.909040
C        -3.023458    4.809007    1.721077
C        -4.455353    5.288443    1.734826
O        -2.479806    4.406066    0.704270
C        -0.638362    3.511496    3.915806
N        -0.602169    3.756206    5.243920
C        -0.387686    2.717356    6.216980
O        -0.494828    2.398614    3.428678
H        -3.126293   10.535509    1.856337
H        -0.083474    9.893272    4.359290
H        -0.538039   11.296526    3.395364
H         1.161350   10.720829    3.371901
H         1.846855    9.054557    1.823992
H         1.392381    7.567218   -0.088864
H        -0.128700    6.364588   -1.286396
H        -5.396460    7.654843   -0.986733
H        -7.412243    7.296290   -2.017562
H        -7.370310    5.693250   -1.202045
H        -6.745190    5.874413   -2.852488
H        -5.956294    1.903123   -2.334540
H        -5.000240    5.099728   -4.668325
H        -6.400716    4.018240   -4.720002
H        -5.544737    4.443650   -6.233192
H        -3.575551    3.222861   -6.913107
H        -2.047420    1.282255   -6.613273
H        -0.793360   -1.547644   -3.332805
H        -1.802712   -1.731839   -0.939656
H        -1.183471    1.863430    1.374535
H        -0.789665    3.123239   -0.733906
H        -0.745828    1.943351   -2.915884
H        -3.707193    0.625520   -2.700329
H        -2.709950    3.406906   -2.803607
H        -2.825556    8.231506    0.455690
H        -2.874928    9.472438    5.817205
H        -2.674421    7.509359    3.432692
H        -3.140900    7.095938    5.133447
H         0.851378    5.876670    3.410656
H        -0.408178    6.726802    2.514730
H        -2.843917    5.320812    3.697300
H        -4.926994    5.179534    2.721607
H        -5.034192    4.748646    0.973616
H        -4.454254    6.357893    1.471657
H        -0.705916    4.732592    5.542642
H         0.569872    2.848733    6.747275
H        -0.369438    1.754547    5.690232
H        -1.196917    2.702055    6.964266
