-1 1
 OpenBabel05232414493D

104108  0  0  1  0  0  0  0  0999 V2000
    7.2093   10.2869   16.9166 O   0  0  0  0  0  0  0  0  0  0  0  0
    6.5353    9.6620   16.0969 C   0  0  0  0  0  0  0  0  0  0  0  0
    5.7229    8.6296   16.6747 N   0  0  0  0  0  0  0  0  0  0  0  0
    5.3343    7.3723   16.2580 C   0  0  0  0  0  0  0  0  0  0  0  0
    4.3378    6.6919   17.0010 C   0  0  0  0  0  0  0  0  0  0  0  0
    3.7140    7.3421   18.2038 C   0  0  0  0  0  0  0  0  0  0  0  0
    3.9142    5.4452   16.5454 C   0  0  0  0  0  0  0  0  0  0  0  0
    4.4012    4.8802   15.3722 C   0  0  0  0  0  0  0  0  0  0  0  0
    5.3757    5.5665   14.6335 C   0  0  0  0  0  0  0  0  0  0  0  0
    5.7547    4.9916   13.4066 N   0  0  0  0  0  0  0  0  0  0  0  0
    6.5487    5.4787   12.4171 C   0  0  0  0  0  0  0  0  0  0  0  0
    6.4029    4.8567   11.2276 N   0  0  0  0  0  0  0  0  0  0  0  0
    7.1032    5.3338   10.2206 C   0  0  0  0  0  0  0  0  0  0  0  0
    6.9682    4.7242    8.9778 N   0  0  0  0  0  0  0  0  0  0  0  0
    7.9419    4.8570    7.9833 C   0  0  0  0  0  0  0  0  0  0  0  0
    8.8850    5.8456    8.1934 N   0  0  0  0  0  0  0  0  0  0  0  0
    8.6140    6.9571    9.1030 C   0  0  0  0  0  0  0  0  0  0  0  0
    9.9494    5.9806    7.2594 C   0  0  0  0  0  0  0  0  0  0  0  0
   10.9037    4.9578    7.1200 C   0  0  0  0  0  0  0  0  0  0  0  0
   10.8259    3.6862    7.9146 C   0  0  0  0  0  0  0  0  0  0  0  0
   11.9405    5.1757    6.2087 C   0  0  0  0  0  0  0  0  0  0  0  0
   12.0510    6.3549    5.4830 C   0  0  0  0  0  0  0  0  0  0  0  0
   11.1043    7.3720    5.6475 C   0  0  0  0  0  0  0  0  0  0  0  0
   11.2701    8.5495    4.8952 N   0  0  0  0  0  0  0  0  0  0  0  0
   10.4987    9.6815    4.8890 C   0  0  0  0  0  0  0  0  0  0  0  0
   10.9998   10.7804    3.9871 C   0  0  0  0  0  0  0  0  0  0  0  0
   10.0483   11.6953    3.5406 C   0  0  0  0  0  0  0  0  0  0  0  0
   10.4326   12.7437    2.7011 C   0  0  0  0  0  0  0  0  0  0  0  0
    9.5890   13.6651    2.1995 O   0  0  0  0  0  0  0  0  0  0  0  0
    8.2384   13.6219    2.5813 C   0  0  0  0  0  0  0  0  0  0  0  0
   11.7809   12.8908    2.3308 C   0  0  0  0  0  0  0  0  0  0  0  0
   12.1733   13.9311    1.5579 O   0  0  0  0  0  0  0  0  0  0  0  0
   11.9930   13.7448    0.1733 C   0  0  0  0  0  0  0  0  0  0  0  0
   12.7338   11.9648    2.7872 C   0  0  0  0  0  0  0  0  0  0  0  0
   13.9984   12.1801    2.3729 O   0  0  0  0  0  0  0  0  0  0  0  0
   15.0144   11.3318    2.8277 C   0  0  0  0  0  0  0  0  0  0  0  0
   12.3442   10.9157    3.6277 C   0  0  0  0  0  0  0  0  0  0  0  0
    9.4754    9.8120    5.5310 O   0  0  0  0  0  0  0  0  0  0  0  0
   10.0479    7.1735    6.5394 C   0  0  0  0  0  0  0  0  0  0  0  0
    7.9594    4.1273    7.0131 O   0  0  0  0  0  0  0  0  0  0  0  0
    5.9629    3.6871    8.8145 C   0  0  0  0  0  0  0  0  0  0  0  0
    7.9726    6.4303   10.3440 C   0  0  0  0  0  0  0  0  0  0  0  0
    8.0928    6.9409   11.6246 C   0  0  0  0  0  0  0  0  0  0  0  0
    7.4033    6.4739   12.6602 N   0  0  0  0  0  0  0  0  0  0  0  0
    5.8789    6.7756   15.1105 C   0  0  0  0  0  0  0  0  0  0  0  0
    6.4796    9.9805   14.7020 C   0  0  0  0  0  3  0  0  0  0  0  0
    5.5696    9.5695   13.7140 C   0  0  0  0  0  0  0  0  0  0  0  0
    3.4906   10.4090   13.7316 S   0  0  0  0  0  0  0  0  0  0  0  0
    2.7018    8.9704   14.5172 C   0  0  0  0  0  0  0  0  0  0  0  0
    2.0247    7.9030   13.6202 C   0  0  2  0  0  0  0  0  0  0  0  0
    1.1759    8.3824   13.1037 H   0  0  0  0  0  0  0  0  0  0  0  0
    1.5300    6.8227   14.4402 N   0  0  0  0  0  0  0  0  0  0  0  0
    0.4409    6.9083   15.2321 C   0  0  0  0  0  0  0  0  0  0  0  0
    0.1977    5.6912   16.1103 C   0  0  0  0  0  0  0  0  0  0  0  0
   -0.2908    7.8837   15.2773 O   0  0  0  0  0  0  0  0  0  0  0  0
    2.9192    7.2537   12.5499 C   0  0  0  0  0  0  0  0  0  0  0  0
    3.4385    8.1117   11.6504 N   0  0  0  0  0  0  0  0  0  0  0  0
    4.4128    7.6917   10.6773 C   0  0  0  0  0  0  0  0  0  0  0  0
    3.1005    6.0408   12.5172 O   0  0  0  0  0  0  0  0  0  0  0  0
    5.6743    8.7943   17.6733 H   0  0  0  0  0  0  0  0  0  0  0  0
    4.4454    7.5223   19.0116 H   0  0  0  0  0  0  0  0  0  0  0  0
    2.9133    6.7152   18.6216 H   0  0  0  0  0  0  0  0  0  0  0  0
    3.2810    8.3209   17.9371 H   0  0  0  0  0  0  0  0  0  0  0  0
    3.1422    4.9140   17.1101 H   0  0  0  0  0  0  0  0  0  0  0  0
    4.0102    3.9259   15.0110 H   0  0  0  0  0  0  0  0  0  0  0  0
    5.0834    4.3260   13.0426 H   0  0  0  0  0  0  0  0  0  0  0  0
    7.9627    7.7096    8.6165 H   0  0  0  0  0  0  0  0  0  0  0  0
    9.5665    7.4546    9.3319 H   0  0  0  0  0  0  0  0  0  0  0  0
   11.7955    3.1696    7.9296 H   0  0  0  0  0  0  0  0  0  0  0  0
   10.0692    3.0130    7.4841 H   0  0  0  0  0  0  0  0  0  0  0  0
   10.5216    3.8906    8.9522 H   0  0  0  0  0  0  0  0  0  0  0  0
   12.6988    4.3996    6.0769 H   0  0  0  0  0  0  0  0  0  0  0  0
   12.8865    6.4907    4.7904 H   0  0  0  0  0  0  0  0  0  0  0  0
   12.0221    8.5211    4.2208 H   0  0  0  0  0  0  0  0  0  0  0  0
    9.0196   11.5627    3.8727 H   0  0  0  0  0  0  0  0  0  0  0  0
    8.1209   13.7285    3.6728 H   0  0  0  0  0  0  0  0  0  0  0  0
    7.7522   12.6846    2.2605 H   0  0  0  0  0  0  0  0  0  0  0  0
    7.7469   14.4672    2.0850 H   0  0  0  0  0  0  0  0  0  0  0  0
   12.3573   14.6525   -0.3249 H   0  0  0  0  0  0  0  0  0  0  0  0
   10.9285   13.6014   -0.0773 H   0  0  0  0  0  0  0  0  0  0  0  0
   12.5732   12.8794   -0.1917 H   0  0  0  0  0  0  0  0  0  0  0  0
   15.1123   11.3605    3.9270 H   0  0  0  0  0  0  0  0  0  0  0  0
   15.9487   11.6929    2.3810 H   0  0  0  0  0  0  0  0  0  0  0  0
   14.8509   10.2858    2.5116 H   0  0  0  0  0  0  0  0  0  0  0  0
   13.0947   10.2357    4.0302 H   0  0  0  0  0  0  0  0  0  0  0  0
    9.2984    7.9521    6.6558 H   0  0  0  0  0  0  0  0  0  0  0  0
    6.2344    2.7783    9.3726 H   0  0  0  0  0  0  0  0  0  0  0  0
    5.8894    3.4504    7.7489 H   0  0  0  0  0  0  0  0  0  0  0  0
    5.0029    4.0495    9.2017 H   0  0  0  0  0  0  0  0  0  0  0  0
    8.7664    7.7812   11.8315 H   0  0  0  0  0  0  0  0  0  0  0  0
    6.6715    7.2870   14.5737 H   0  0  0  0  0  0  0  0  0  0  0  0
    7.1111   10.8444   14.4783 H   0  0  0  0  0  0  0  0  0  0  0  0
    5.1743    8.5514   13.7234 H   0  0  0  0  0  0  0  0  0  0  0  0
    5.8047    9.9057   12.6991 H   0  0  0  0  0  0  0  0  0  0  0  0
    1.9132    9.3323   15.1908 H   0  0  0  0  0  0  0  0  0  0  0  0
    3.4473    8.4544   15.1372 H   0  0  0  0  0  0  0  0  0  0  0  0
    2.0992    5.9820   14.4181 H   0  0  0  0  0  0  0  0  0  0  0  0
    0.7128    4.7887   15.7525 H   0  0  0  0  0  0  0  0  0  0  0  0
   -0.8829    5.5076   16.1704 H   0  0  0  0  0  0  0  0  0  0  0  0
    0.5585    5.9192   17.1249 H   0  0  0  0  0  0  0  0  0  0  0  0
    3.3990    9.1052   11.9233 H   0  0  0  0  0  0  0  0  0  0  0  0
    4.2701    8.2350    9.7313 H   0  0  0  0  0  0  0  0  0  0  0  0
    4.2973    6.6149   10.4987 H   0  0  0  0  0  0  0  0  0  0  0  0
    5.4432    7.8720   11.0304 H   0  0  0  0  0  0  0  0  0  0  0  0
  2  3  1  0  0  0  0
  2  1  2  0  0  0  0
  3 60  1  0  0  0  0
  4  3  1  0  0  0  0
  4  5  1  0  0  0  0
  5  6  1  0  0  0  0
  6 62  1  0  0  0  0
  6 61  1  0  0  0  0
  7  5  2  0  0  0  0
  7 64  1  0  0  0  0
  8  7  1  0  0  0  0
  9 45  1  0  0  0  0
  9  8  2  0  0  0  0
 10  9  1  0  0  0  0
 11 44  1  0  0  0  0
 11 10  1  0  0  0  0
 12 11  2  0  0  0  0
 13 42  2  0  0  0  0
 13 12  1  0  0  0  0
 14 13  1  0  0  0  0
 15 16  1  0  0  0  0
 15 14  1  0  0  0  0
 16 17  1  0  0  0  0
 17 68  1  0  0  0  0
 17 42  1  0  0  0  0
 18 16  1  0  0  0  0
 19 18  1  0  0  0  0
 19 20  1  0  0  0  0
 20 69  1  0  0  0  0
 20 71  1  0  0  0  0
 21 19  2  0  0  0  0
 22 23  2  0  0  0  0
 22 21  1  0  0  0  0
 23 39  1  0  0  0  0
 24 23  1  0  0  0  0
 25 24  1  0  0  0  0
 25 38  2  0  0  0  0
 26 25  1  0  0  0  0
 27 75  1  0  0  0  0
 27 26  2  0  0  0  0
 28 27  1  0  0  0  0
 29 30  1  0  0  0  0
 29 28  1  0  0  0  0
 30 76  1  0  0  0  0
 31 28  2  0  0  0  0
 31 34  1  0  0  0  0
 32 31  1  0  0  0  0
 33 32  1  0  0  0  0
 34 37  2  0  0  0  0
 35 34  1  0  0  0  0
 35 36  1  0  0  0  0
 36 82  1  0  0  0  0
 37 26  1  0  0  0  0
 37 85  1  0  0  0  0
 39 86  1  0  0  0  0
 39 18  2  0  0  0  0
 40 15  2  0  0  0  0
 41 14  1  0  0  0  0
 41 89  1  0  0  0  0
 41 87  1  0  0  0  0
 42 43  1  0  0  0  0
 43 90  1  0  0  0  0
 43 44  2  0  0  0  0
 45  4  2  0  0  0  0
 46  2  1  0  0  0  0
 47 93  1  0  0  0  0
 47 48  1  0  0  0  0
 47 46  1  0  0  0  0
 48 49  1  0  0  0  0
 49 96  1  0  0  0  0
 49 95  1  0  0  0  0
 50 51  1  6  0  0  0
 50 52  1  0  0  0  0
 50 49  1  0  0  0  0
 52 53  1  0  0  0  0
 53 55  2  0  0  0  0
 53 54  1  0  0  0  0
 54 99  1  0  0  0  0
 54100  1  0  0  0  0
 56 50  1  0  0  0  0
 57101  1  0  0  0  0
 57 56  1  0  0  0  0
 58104  1  0  0  0  0
 58 57  1  0  0  0  0
 59 56  2  0  0  0  0
 63  6  1  0  0  0  0
 65  8  1  0  0  0  0
 66 10  1  0  0  0  0
 67 17  1  0  0  0  0
 70 20  1  0  0  0  0
 72 21  1  0  0  0  0
 73 22  1  0  0  0  0
 74 24  1  0  0  0  0
 77 30  1  0  0  0  0
 78 30  1  0  0  0  0
 79 33  1  0  0  0  0
 80 33  1  0  0  0  0
 81 33  1  0  0  0  0
 83 36  1  0  0  0  0
 84 36  1  0  0  0  0
 88 41  1  0  0  0  0
 91 45  1  0  0  0  0
 92 46  1  0  0  0  0
 94 47  1  0  0  0  0
 97 52  1  0  0  0  0
 98 54  1  0  0  0  0
102 58  1  0  0  0  0
103 58  1  0  0  0  0
M  END
