-1 1
 OpenBabel05232413483D

 99101  0  0  1  0  0  0  0  0999 V2000
   -4.6329    1.3184   -3.4644 O   0  0  0  0  0  0  0  0  0  0  0  0
   -4.2967    0.9880   -2.3362 C   0  0  0  0  0  0  0  0  0  0  0  0
   -5.1859    1.1969   -1.2972 N   0  0  0  0  0  0  0  0  0  0  0  0
   -5.0386    1.3412    0.0835 C   0  0  0  0  0  0  0  0  0  0  0  0
   -6.2131    1.3771    0.8718 C   0  0  0  0  0  0  0  0  0  0  0  0
   -7.5796    1.2870    0.2469 C   0  0  0  0  0  0  0  0  0  0  0  0
   -6.0618    1.5288    2.2503 C   0  0  0  0  0  0  0  0  0  0  0  0
   -4.8175    1.6437    2.8580 C   0  0  0  0  0  0  0  0  0  0  0  0
   -3.6641    1.6364    2.0644 C   0  0  0  0  0  0  0  0  0  0  0  0
   -2.4312    1.7787    2.7264 N   0  0  0  0  0  0  0  0  0  0  0  0
   -1.1518    1.5614    2.3116 C   0  0  0  0  0  0  0  0  0  0  0  0
   -0.2251    1.7066    3.2816 N   0  0  0  0  0  0  0  0  0  0  0  0
    1.0277    1.4690    2.9432 C   0  0  0  0  0  0  0  0  0  0  0  0
    2.0134    1.6303    3.9062 N   0  0  0  0  0  0  0  0  0  0  0  0
    3.3599    1.8241    3.5586 C   0  0  0  0  0  0  0  0  0  0  0  0
    3.6866    1.5528    2.2473 N   0  0  0  0  0  0  0  0  0  0  0  0
    2.8341    0.7059    1.4167 C   0  0  0  0  0  0  0  0  0  0  0  0
    5.0218    1.7936    1.8098 C   0  0  0  0  0  0  0  0  0  0  0  0
    5.5202    3.1055    1.7454 C   0  0  0  0  0  0  0  0  0  0  0  0
    4.6981    4.2880    2.1708 C   0  0  0  0  0  0  0  0  0  0  0  0
    6.8218    3.2662    1.2614 C   0  0  0  0  0  0  0  0  0  0  0  0
    7.5926    2.1903    0.8393 C   0  0  0  0  0  0  0  0  0  0  0  0
    7.0749    0.8912    0.8934 C   0  0  0  0  0  0  0  0  0  0  0  0
    7.8855   -0.1633    0.4496 N   0  0  0  0  0  0  0  0  0  0  0  0
    7.5997   -1.4898    0.3737 C   0  0  0  0  0  0  0  0  0  0  0  0
    8.7388   -2.3201   -0.2489 C   0  0  2  0  0  0  0  0  0  0  0  0
    8.4208   -2.4707   -1.2946 H   0  0  0  0  0  0  0  0  0  0  0  0
    8.9129   -3.6949    0.4154 C   0  0  0  0  0  0  0  0  0  0  0  0
    7.7611   -4.7080    0.3370 C   0  0  0  0  0  0  0  0  0  0  0  0
    7.2395   -4.8887   -1.0876 C   0  0  0  0  0  0  0  0  0  0  0  0
    8.2166   -6.0410    0.9318 C   0  0  0  0  0  0  0  0  0  0  0  0
    9.9812   -1.5506   -0.2911 N   0  0  0  0  0  0  0  0  0  0  0  0
    6.5485   -2.0034    0.7099 O   0  0  0  0  0  0  0  0  0  0  0  0
    5.7821    0.7012    1.3889 C   0  0  0  0  0  0  0  0  0  0  0  0
    4.1640    2.2306    4.3710 O   0  0  0  0  0  0  0  0  0  0  0  0
    1.6166    1.9358    5.2702 C   0  0  0  0  0  0  0  0  0  0  0  0
    1.4035    1.0649    1.6503 C   0  0  0  0  0  0  0  0  0  0  0  0
    0.3711    0.9911    0.7335 C   0  0  0  0  0  0  0  0  0  0  0  0
   -0.8981    1.2438    1.0434 N   0  0  0  0  0  0  0  0  0  0  0  0
   -3.7816    1.5066    0.6801 C   0  0  0  0  0  0  0  0  0  0  0  0
   -3.0121    0.2738   -2.1298 C   0  0  0  0  0  0  0  0  0  0  0  0
   -2.8689   -0.7972   -1.3424 C   0  0  0  0  0  0  0  0  0  0  0  0
   -3.7294   -3.5735   -3.1016 S   0  0  0  0  0  1  0  0  0  0  0  0
   -4.4565   -2.2258   -4.1002 C   0  0  0  0  0  0  0  0  0  0  0  0
   -5.9631   -1.9069   -3.9432 C   0  0  2  0  0  0  0  0  0  0  0  0
   -6.5493   -2.7798   -4.2718 H   0  0  0  0  0  0  0  0  0  0  0  0
   -6.3024   -0.8077   -4.8188 N   0  0  0  0  0  0  0  0  0  0  0  0
   -7.4936   -0.7238   -5.4613 C   0  0  0  0  0  0  0  0  0  0  0  0
   -7.8070    0.6645   -5.9969 C   0  0  0  0  0  0  0  0  0  0  0  0
   -8.2637   -1.6567   -5.6062 O   0  0  0  0  0  0  0  0  0  0  0  0
   -6.4707   -1.5664   -2.5251 C   0  0  0  0  0  0  0  0  0  0  0  0
   -6.0598   -2.3891   -1.5518 N   0  0  0  0  0  0  0  0  0  0  0  0
   -6.4450   -2.2060   -0.1804 C   0  0  0  0  0  0  0  0  0  0  0  0
   -7.2375   -0.6196   -2.3308 O   0  0  0  0  0  0  0  0  0  0  0  0
   -6.1365    1.2275   -1.6586 H   0  0  0  0  0  0  0  0  0  0  0  0
   -7.8131    2.2034   -0.3240 H   0  0  0  0  0  0  0  0  0  0  0  0
   -8.3529    1.1785    1.0202 H   0  0  0  0  0  0  0  0  0  0  0  0
   -7.6625    0.4434   -0.4582 H   0  0  0  0  0  0  0  0  0  0  0  0
   -6.9598    1.5484    2.8739 H   0  0  0  0  0  0  0  0  0  0  0  0
   -4.7410    1.7394    3.9443 H   0  0  0  0  0  0  0  0  0  0  0  0
   -2.4848    1.9832    3.7156 H   0  0  0  0  0  0  0  0  0  0  0  0
    3.0085   -0.3643    1.6418 H   0  0  0  0  0  0  0  0  0  0  0  0
    3.1131    0.8632    0.3659 H   0  0  0  0  0  0  0  0  0  0  0  0
    4.6714    4.3594    3.2688 H   0  0  0  0  0  0  0  0  0  0  0  0
    3.6570    4.1865    1.8288 H   0  0  0  0  0  0  0  0  0  0  0  0
    5.1090    5.2223    1.7640 H   0  0  0  0  0  0  0  0  0  0  0  0
    7.2395    4.2744    1.1974 H   0  0  0  0  0  0  0  0  0  0  0  0
    8.6017    2.3587    0.4543 H   0  0  0  0  0  0  0  0  0  0  0  0
    8.8191    0.0544    0.1033 H   0  0  0  0  0  0  0  0  0  0  0  0
    9.1769   -3.5338    1.4767 H   0  0  0  0  0  0  0  0  0  0  0  0
    9.8044   -4.1497   -0.0561 H   0  0  0  0  0  0  0  0  0  0  0  0
    6.9330   -4.3172    0.9447 H   0  0  0  0  0  0  0  0  0  0  0  0
    8.0523   -5.1583   -1.7847 H   0  0  0  0  0  0  0  0  0  0  0  0
    6.7517   -3.9741   -1.4556 H   0  0  0  0  0  0  0  0  0  0  0  0
    6.4883   -5.6917   -1.1281 H   0  0  0  0  0  0  0  0  0  0  0  0
    9.0299   -6.4870    0.3338 H   0  0  0  0  0  0  0  0  0  0  0  0
    7.3880   -6.7647    0.9600 H   0  0  0  0  0  0  0  0  0  0  0  0
    8.5875   -5.9170    1.9616 H   0  0  0  0  0  0  0  0  0  0  0  0
   10.5815   -1.8725   -1.0452 H   0  0  0  0  0  0  0  0  0  0  0  0
   10.5048   -1.6792    0.5743 H   0  0  0  0  0  0  0  0  0  0  0  0
    5.3810   -0.3080    1.4442 H   0  0  0  0  0  0  0  0  0  0  0  0
    0.8578    1.2151    5.5982 H   0  0  0  0  0  0  0  0  0  0  0  0
    1.1842    2.9453    5.3427 H   0  0  0  0  0  0  0  0  0  0  0  0
    2.5067    1.8768    5.9035 H   0  0  0  0  0  0  0  0  0  0  0  0
    0.5683    0.7057   -0.3066 H   0  0  0  0  0  0  0  0  0  0  0  0
   -2.8817    1.5068    0.0767 H   0  0  0  0  0  0  0  0  0  0  0  0
   -2.2352    0.5543   -2.8455 H   0  0  0  0  0  0  0  0  0  0  0  0
   -3.6692   -1.1353   -0.6809 H   0  0  0  0  0  0  0  0  0  0  0  0
   -1.9581   -1.3959   -1.3550 H   0  0  0  0  0  0  0  0  0  0  0  0
   -4.3272   -2.4540   -5.1688 H   0  0  0  0  0  0  0  0  0  0  0  0
   -3.9033   -1.2891   -3.9206 H   0  0  0  0  0  0  0  0  0  0  0  0
   -5.8126    0.0607   -4.6131 H   0  0  0  0  0  0  0  0  0  0  0  0
   -8.2003    1.2737   -5.1686 H   0  0  0  0  0  0  0  0  0  0  0  0
   -8.5728    0.5851   -6.7781 H   0  0  0  0  0  0  0  0  0  0  0  0
   -6.9124    1.1675   -6.3919 H   0  0  0  0  0  0  0  0  0  0  0  0
   -5.2820   -3.0406   -1.8087 H   0  0  0  0  0  0  0  0  0  0  0  0
   -7.5323   -2.0510   -0.0979 H   0  0  0  0  0  0  0  0  0  0  0  0
   -5.9524   -1.3363    0.2916 H   0  0  0  0  0  0  0  0  0  0  0  0
   -6.1725   -3.1045    0.3908 H   0  0  0  0  0  0  0  0  0  0  0  0
  1  2  2  0  0  0  0
  2 41  1  0  0  0  0
  2  3  1  0  0  0  0
  3  4  1  0  0  0  0
  4 40  2  0  0  0  0
  4  5  1  0  0  0  0
  5  7  2  0  0  0  0
  6  5  1  0  0  0  0
  6 57  1  0  0  0  0
  7  8  1  0  0  0  0
  7 59  1  0  0  0  0
  8 60  1  0  0  0  0
  9 10  1  0  0  0  0
  9  8  2  0  0  0  0
 10 61  1  0  0  0  0
 11 10  1  0  0  0  0
 11 12  2  0  0  0  0
 13 12  1  0  0  0  0
 13 14  1  0  0  0  0
 14 36  1  0  0  0  0
 15 14  1  0  0  0  0
 15 35  2  0  0  0  0
 16 15  1  0  0  0  0
 17 62  1  0  0  0  0
 17 37  1  0  0  0  0
 17 16  1  0  0  0  0
 18 16  1  0  0  0  0
 19 18  1  0  0  0  0
 19 20  1  0  0  0  0
 20 64  1  0  0  0  0
 21 19  2  0  0  0  0
 22 23  2  0  0  0  0
 22 21  1  0  0  0  0
 23 34  1  0  0  0  0
 24 23  1  0  0  0  0
 25 24  1  0  0  0  0
 25 33  2  0  0  0  0
 26 27  1  6  0  0  0
 26 25  1  0  0  0  0
 26 28  1  0  0  0  0
 28 70  1  0  0  0  0
 29 28  1  0  0  0  0
 29 31  1  0  0  0  0
 29 72  1  0  0  0  0
 30 29  1  0  0  0  0
 31 77  1  0  0  0  0
 31 78  1  0  0  0  0
 32 26  1  0  0  0  0
 32 80  1  0  0  0  0
 34 81  1  0  0  0  0
 34 18  2  0  0  0  0
 36 83  1  0  0  0  0
 36 82  1  0  0  0  0
 36 84  1  0  0  0  0
 37 13  2  0  0  0  0
 38 39  2  0  0  0  0
 38 37  1  0  0  0  0
 39 11  1  0  0  0  0
 40  9  1  0  0  0  0
 41 42  2  0  0  0  0
 42 88  1  0  0  0  0
 44 45  1  0  0  0  0
 44 91  1  0  0  0  0
 44 43  1  0  0  0  0
 45 46  1  6  0  0  0
 45 51  1  0  0  0  0
 47 92  1  0  0  0  0
 47 45  1  0  0  0  0
 48 47  1  0  0  0  0
 49 48  1  0  0  0  0
 49 93  1  0  0  0  0
 50 48  2  0  0  0  0
 51 54  2  0  0  0  0
 51 52  1  0  0  0  0
 52 53  1  0  0  0  0
 53 97  1  0  0  0  0
 53 98  1  0  0  0  0
 53 99  1  0  0  0  0
 55  3  1  0  0  0  0
 56  6  1  0  0  0  0
 58  6  1  0  0  0  0
 63 17  1  0  0  0  0
 65 20  1  0  0  0  0
 66 20  1  0  0  0  0
 67 21  1  0  0  0  0
 68 22  1  0  0  0  0
 69 24  1  0  0  0  0
 71 28  1  0  0  0  0
 73 30  1  0  0  0  0
 74 30  1  0  0  0  0
 75 30  1  0  0  0  0
 76 31  1  0  0  0  0
 79 32  1  0  0  0  0
 85 38  1  0  0  0  0
 86 40  1  0  0  0  0
 87 41  1  0  0  0  0
 89 42  1  0  0  0  0
 90 44  1  0  0  0  0
 94 49  1  0  0  0  0
 95 49  1  0  0  0  0
 96 52  1  0  0  0  0
M  END
