99
-1 1
O        -4.528249    3.126909   -2.998762
C        -4.179335    2.118791   -2.374259
N        -5.179935    1.626851   -1.406653
C        -5.084651    1.648206   -0.033120
C        -6.274935    1.602584    0.745938
C        -7.620769    1.606571    0.074478
C        -6.158107    1.533576    2.130318
C        -4.924866    1.510630    2.778677
C        -3.757852    1.598629    2.009290
N        -2.534687    1.622077    2.714118
C        -1.258056    1.388162    2.315194
N        -0.340162    1.483167    3.303605
C         0.913071    1.244674    2.971427
N         1.887904    1.352239    3.958203
C         3.237481    1.552583    3.640846
N         3.582665    1.346184    2.321377
C         2.738916    0.548192    1.434790
C         4.922702    1.608343    1.916334
C         5.421281    2.922201    1.927915
C         4.590382    4.080263    2.400453
C         6.729462    3.109257    1.472377
C         7.508055    2.057346    1.006057
C         6.990739    0.757458    0.984250
N         7.811862   -0.271364    0.497724
C         7.536522   -1.593175    0.352906
C         8.690225   -2.384529   -0.294587
H         8.391723   -2.478608   -1.352532
C         8.858677   -3.792890    0.296975
C         7.713234   -4.804475    0.143100
C         7.218134   -4.909832   -1.298520
C         8.163667   -6.166082    0.673294
N         9.929894   -1.610234   -0.273180
O         6.485223   -2.131459    0.648689
C         5.691062    0.540380    1.449109
O         4.036298    1.909514    4.482995
C         1.470984    1.600394    5.327257
C         1.305667    0.896010    1.669368
C         0.280809    0.856747    0.738375
N        -0.989020    1.096693    1.041974
C        -3.837613    1.684978    0.620603
C        -2.994308    1.382428   -2.503160
C        -2.734515    0.064185   -1.940595
S        -2.945502   -1.447998   -3.156589
C        -4.488118   -1.004739   -3.989469
C        -5.754647   -1.781307   -3.571680
H        -5.548791   -2.857950   -3.699403
N        -6.871532   -1.421367   -4.412171
C        -7.044296   -1.890838   -5.667361
C        -8.293281   -1.389274   -6.373027
O        -6.253658   -2.636225   -6.221749
C        -6.222254   -1.551814   -2.123619
N        -5.369272   -1.975934   -1.175024
C        -5.583119   -1.760193    0.235444
O        -7.323345   -1.062810   -1.895252
H        -6.090980    1.912520   -1.746922
H        -7.772546    2.525496   -0.519780
H        -8.429945    1.559686    0.817918
H        -7.727768    0.747790   -0.609535
H        -7.072301    1.484145    2.730057
H        -4.869606    1.431826    3.867752
H        -2.604934    1.787798    3.709369
H         2.912887   -0.532991    1.602367
H         3.030656    0.764071    0.397695
H         4.541862    4.091501    3.499968
H         3.556490    3.997584    2.032760
H         5.008640    5.034944    2.052851
H         7.145979    4.119858    1.466958
H         8.522538    2.246254    0.645260
H         8.748324   -0.030253    0.176191
H         9.102366   -3.688694    1.370190
H         9.760821   -4.218459   -0.181811
H         6.872777   -4.449069    0.755421
H         8.044626   -5.137767   -1.994437
H         6.732558   -3.978539   -1.624983
H         6.471935   -5.712831   -1.395971
H         8.990054   -6.576202    0.067450
H         7.338093   -6.893495    0.647051
H         8.514976   -6.096600    1.714957
H        10.549424   -1.896694   -1.026111
H        10.433051   -1.774581    0.598240
H         5.289731   -0.470219    1.445288
H         0.706077    0.868228    5.613589
H         1.037076    2.606087    5.435351
H         2.351682    1.513769    5.970576
H         0.489407    0.610825   -0.310204
H        -2.934838    1.770831    0.023444
H        -2.273876    1.795240   -3.214590
H        -3.380467   -0.181114   -1.090573
H        -1.691005   -0.106622   -1.636054
H        -4.352330   -1.187311   -5.063445
H        -4.620904    0.081470   -3.840797
H        -7.597716   -0.901312   -3.927499
H        -8.722721   -2.214414   -6.956007
H        -8.002084   -0.596338   -7.078141
H        -9.049390   -0.985389   -5.685401
H        -4.434314   -2.226798   -1.503371
H        -6.599781   -1.376248    0.380937
H        -4.877943   -1.018292    0.642222
H        -5.472032   -2.703355    0.793728
