-1 1
 OpenBabel05192410563D

 99102  0  0  1  0  0  0  0  0999 V2000
   -4.5282    3.1269   -2.9988 O   0  0  0  0  0  0  0  0  0  0  0  0
   -4.1793    2.1188   -2.3743 C   0  0  0  0  0  0  0  0  0  0  0  0
   -5.1799    1.6269   -1.4067 N   0  0  0  0  0  0  0  0  0  0  0  0
   -5.0847    1.6482   -0.0331 C   0  0  0  0  0  0  0  0  0  0  0  0
   -6.2749    1.6026    0.7459 C   0  0  0  0  0  0  0  0  0  0  0  0
   -7.6208    1.6066    0.0745 C   0  0  0  0  0  0  0  0  0  0  0  0
   -6.1581    1.5336    2.1303 C   0  0  0  0  0  0  0  0  0  0  0  0
   -4.9249    1.5106    2.7787 C   0  0  0  0  0  0  0  0  0  0  0  0
   -3.7579    1.5986    2.0093 C   0  0  0  0  0  0  0  0  0  0  0  0
   -2.5347    1.6221    2.7141 N   0  0  0  0  0  0  0  0  0  0  0  0
   -1.2581    1.3882    2.3152 C   0  0  0  0  0  0  0  0  0  0  0  0
   -0.3402    1.4832    3.3036 N   0  0  0  0  0  0  0  0  0  0  0  0
    0.9131    1.2447    2.9714 C   0  0  0  0  0  0  0  0  0  0  0  0
    1.8879    1.3522    3.9582 N   0  0  0  0  0  0  0  0  0  0  0  0
    3.2375    1.5526    3.6408 C   0  0  0  0  0  0  0  0  0  0  0  0
    3.5827    1.3462    2.3214 N   0  0  0  0  0  0  0  0  0  0  0  0
    2.7389    0.5482    1.4348 C   0  0  0  0  0  0  0  0  0  0  0  0
    4.9227    1.6083    1.9163 C   0  0  0  0  0  0  0  0  0  0  0  0
    5.4213    2.9222    1.9279 C   0  0  0  0  0  0  0  0  0  0  0  0
    4.5904    4.0803    2.4005 C   0  0  0  0  0  0  0  0  0  0  0  0
    6.7295    3.1093    1.4724 C   0  0  0  0  0  0  0  0  0  0  0  0
    7.5081    2.0573    1.0061 C   0  0  0  0  0  0  0  0  0  0  0  0
    6.9907    0.7575    0.9842 C   0  0  0  0  0  0  0  0  0  0  0  0
    7.8119   -0.2714    0.4977 N   0  0  0  0  0  0  0  0  0  0  0  0
    7.5365   -1.5932    0.3529 C   0  0  0  0  0  0  0  0  0  0  0  0
    8.6902   -2.3845   -0.2946 C   0  0  2  0  0  0  0  0  0  0  0  0
    8.3917   -2.4786   -1.3525 H   0  0  0  0  0  0  0  0  0  0  0  0
    8.8587   -3.7929    0.2970 C   0  0  0  0  0  0  0  0  0  0  0  0
    7.7132   -4.8045    0.1431 C   0  0  0  0  0  0  0  0  0  0  0  0
    7.2181   -4.9098   -1.2985 C   0  0  0  0  0  0  0  0  0  0  0  0
    8.1637   -6.1661    0.6733 C   0  0  0  0  0  0  0  0  0  0  0  0
    9.9299   -1.6102   -0.2732 N   0  0  0  0  0  0  0  0  0  0  0  0
    6.4852   -2.1315    0.6487 O   0  0  0  0  0  0  0  0  0  0  0  0
    5.6911    0.5404    1.4491 C   0  0  0  0  0  0  0  0  0  0  0  0
    4.0363    1.9095    4.4830 O   0  0  0  0  0  0  0  0  0  0  0  0
    1.4710    1.6004    5.3273 C   0  0  0  0  0  0  0  0  0  0  0  0
    1.3057    0.8960    1.6694 C   0  0  0  0  0  0  0  0  0  0  0  0
    0.2808    0.8567    0.7384 C   0  0  0  0  0  0  0  0  0  0  0  0
   -0.9890    1.0967    1.0420 N   0  0  0  0  0  0  0  0  0  0  0  0
   -3.8376    1.6850    0.6206 C   0  0  0  0  0  0  0  0  0  0  0  0
   -2.9943    1.3824   -2.5032 C   0  0  0  0  0  3  0  0  0  0  0  0
   -2.7345    0.0642   -1.9406 C   0  0  0  0  0  0  0  0  0  0  0  0
   -2.9455   -1.4480   -3.1566 S   0  0  0  0  0  0  0  0  0  0  0  0
   -4.4881   -1.0047   -3.9895 C   0  0  0  0  0  0  0  0  0  0  0  0
   -5.7546   -1.7813   -3.5717 C   0  0  2  0  0  0  0  0  0  0  0  0
   -5.5488   -2.8580   -3.6994 H   0  0  0  0  0  0  0  0  0  0  0  0
   -6.8715   -1.4214   -4.4122 N   0  0  0  0  0  0  0  0  0  0  0  0
   -7.0443   -1.8908   -5.6674 C   0  0  0  0  0  0  0  0  0  0  0  0
   -8.2933   -1.3893   -6.3730 C   0  0  0  0  0  0  0  0  0  0  0  0
   -6.2537   -2.6362   -6.2217 O   0  0  0  0  0  0  0  0  0  0  0  0
   -6.2223   -1.5518   -2.1236 C   0  0  0  0  0  0  0  0  0  0  0  0
   -5.3693   -1.9759   -1.1750 N   0  0  0  0  0  0  0  0  0  0  0  0
   -5.5831   -1.7602    0.2354 C   0  0  0  0  0  0  0  0  0  0  0  0
   -7.3233   -1.0628   -1.8953 O   0  0  0  0  0  0  0  0  0  0  0  0
   -6.0910    1.9125   -1.7469 H   0  0  0  0  0  0  0  0  0  0  0  0
   -7.7725    2.5255   -0.5198 H   0  0  0  0  0  0  0  0  0  0  0  0
   -8.4299    1.5597    0.8179 H   0  0  0  0  0  0  0  0  0  0  0  0
   -7.7278    0.7478   -0.6095 H   0  0  0  0  0  0  0  0  0  0  0  0
   -7.0723    1.4841    2.7301 H   0  0  0  0  0  0  0  0  0  0  0  0
   -4.8696    1.4318    3.8678 H   0  0  0  0  0  0  0  0  0  0  0  0
   -2.6049    1.7878    3.7094 H   0  0  0  0  0  0  0  0  0  0  0  0
    2.9129   -0.5330    1.6024 H   0  0  0  0  0  0  0  0  0  0  0  0
    3.0307    0.7641    0.3977 H   0  0  0  0  0  0  0  0  0  0  0  0
    4.5419    4.0915    3.5000 H   0  0  0  0  0  0  0  0  0  0  0  0
    3.5565    3.9976    2.0328 H   0  0  0  0  0  0  0  0  0  0  0  0
    5.0086    5.0349    2.0529 H   0  0  0  0  0  0  0  0  0  0  0  0
    7.1460    4.1199    1.4670 H   0  0  0  0  0  0  0  0  0  0  0  0
    8.5225    2.2463    0.6453 H   0  0  0  0  0  0  0  0  0  0  0  0
    8.7483   -0.0303    0.1762 H   0  0  0  0  0  0  0  0  0  0  0  0
    9.1024   -3.6887    1.3702 H   0  0  0  0  0  0  0  0  0  0  0  0
    9.7608   -4.2185   -0.1818 H   0  0  0  0  0  0  0  0  0  0  0  0
    6.8728   -4.4491    0.7554 H   0  0  0  0  0  0  0  0  0  0  0  0
    8.0446   -5.1378   -1.9944 H   0  0  0  0  0  0  0  0  0  0  0  0
    6.7326   -3.9785   -1.6250 H   0  0  0  0  0  0  0  0  0  0  0  0
    6.4719   -5.7128   -1.3960 H   0  0  0  0  0  0  0  0  0  0  0  0
    8.9901   -6.5762    0.0674 H   0  0  0  0  0  0  0  0  0  0  0  0
    7.3381   -6.8935    0.6471 H   0  0  0  0  0  0  0  0  0  0  0  0
    8.5150   -6.0966    1.7150 H   0  0  0  0  0  0  0  0  0  0  0  0
   10.5494   -1.8967   -1.0261 H   0  0  0  0  0  0  0  0  0  0  0  0
   10.4331   -1.7746    0.5982 H   0  0  0  0  0  0  0  0  0  0  0  0
    5.2897   -0.4702    1.4453 H   0  0  0  0  0  0  0  0  0  0  0  0
    0.7061    0.8682    5.6136 H   0  0  0  0  0  0  0  0  0  0  0  0
    1.0371    2.6061    5.4354 H   0  0  0  0  0  0  0  0  0  0  0  0
    2.3517    1.5138    5.9706 H   0  0  0  0  0  0  0  0  0  0  0  0
    0.4894    0.6108   -0.3102 H   0  0  0  0  0  0  0  0  0  0  0  0
   -2.9348    1.7708    0.0234 H   0  0  0  0  0  0  0  0  0  0  0  0
   -2.2739    1.7952   -3.2146 H   0  0  0  0  0  0  0  0  0  0  0  0
   -3.3805   -0.1811   -1.0906 H   0  0  0  0  0  0  0  0  0  0  0  0
   -1.6910   -0.1066   -1.6361 H   0  0  0  0  0  0  0  0  0  0  0  0
   -4.3523   -1.1873   -5.0634 H   0  0  0  0  0  0  0  0  0  0  0  0
   -4.6209    0.0815   -3.8408 H   0  0  0  0  0  0  0  0  0  0  0  0
   -7.5977   -0.9013   -3.9275 H   0  0  0  0  0  0  0  0  0  0  0  0
   -8.7227   -2.2144   -6.9560 H   0  0  0  0  0  0  0  0  0  0  0  0
   -8.0021   -0.5963   -7.0781 H   0  0  0  0  0  0  0  0  0  0  0  0
   -9.0494   -0.9854   -5.6854 H   0  0  0  0  0  0  0  0  0  0  0  0
   -4.4343   -2.2268   -1.5034 H   0  0  0  0  0  0  0  0  0  0  0  0
   -6.5998   -1.3762    0.3809 H   0  0  0  0  0  0  0  0  0  0  0  0
   -4.8779   -1.0183    0.6422 H   0  0  0  0  0  0  0  0  0  0  0  0
   -5.4720   -2.7034    0.7937 H   0  0  0  0  0  0  0  0  0  0  0  0
  1  2  2  0  0  0  0
  2  3  1  0  0  0  0
  3  4  1  0  0  0  0
  4 40  2  0  0  0  0
  4  5  1  0  0  0  0
  5  7  2  0  0  0  0
  6  5  1  0  0  0  0
  6 57  1  0  0  0  0
  7 59  1  0  0  0  0
  7  8  1  0  0  0  0
  8 60  1  0  0  0  0
  9 10  1  0  0  0  0
  9  8  2  0  0  0  0
 10 61  1  0  0  0  0
 11 10  1  0  0  0  0
 11 12  2  0  0  0  0
 13 12  1  0  0  0  0
 13 14  1  0  0  0  0
 14 36  1  0  0  0  0
 15 14  1  0  0  0  0
 15 35  2  0  0  0  0
 16 15  1  0  0  0  0
 17 62  1  0  0  0  0
 17 37  1  0  0  0  0
 17 16  1  0  0  0  0
 18 19  1  0  0  0  0
 18 16  1  0  0  0  0
 19 20  1  0  0  0  0
 20 64  1  0  0  0  0
 21 19  2  0  0  0  0
 22 21  1  0  0  0  0
 23 22  2  0  0  0  0
 23 34  1  0  0  0  0
 24 23  1  0  0  0  0
 25 24  1  0  0  0  0
 25 33  2  0  0  0  0
 26 27  1  6  0  0  0
 26 32  1  0  0  0  0
 26 28  1  0  0  0  0
 26 25  1  0  0  0  0
 28 70  1  0  0  0  0
 29 28  1  0  0  0  0
 29 31  1  0  0  0  0
 29 72  1  0  0  0  0
 30 29  1  0  0  0  0
 31 78  1  0  0  0  0
 32 80  1  0  0  0  0
 34 18  2  0  0  0  0
 36 83  1  0  0  0  0
 36 82  1  0  0  0  0
 36 84  1  0  0  0  0
 37 13  2  0  0  0  0
 38 39  2  0  0  0  0
 38 37  1  0  0  0  0
 39 11  1  0  0  0  0
 40  9  1  0  0  0  0
 41  2  1  0  0  0  0
 41 42  1  0  0  0  0
 42 89  1  0  0  0  0
 42 88  1  0  0  0  0
 43 42  1  0  0  0  0
 44 91  1  0  0  0  0
 44 45  1  0  0  0  0
 44 43  1  0  0  0  0
 45 46  1  6  0  0  0
 45 51  1  0  0  0  0
 47 92  1  0  0  0  0
 47 45  1  0  0  0  0
 48 47  1  0  0  0  0
 49 95  1  0  0  0  0
 49 48  1  0  0  0  0
 50 48  2  0  0  0  0
 51 54  2  0  0  0  0
 51 52  1  0  0  0  0
 52 53  1  0  0  0  0
 53 97  1  0  0  0  0
 53 98  1  0  0  0  0
 53 99  1  0  0  0  0
 55  3  1  0  0  0  0
 56  6  1  0  0  0  0
 58  6  1  0  0  0  0
 63 17  1  0  0  0  0
 65 20  1  0  0  0  0
 66 20  1  0  0  0  0
 67 21  1  0  0  0  0
 68 22  1  0  0  0  0
 69 24  1  0  0  0  0
 71 28  1  0  0  0  0
 73 30  1  0  0  0  0
 74 30  1  0  0  0  0
 75 30  1  0  0  0  0
 76 31  1  0  0  0  0
 77 31  1  0  0  0  0
 79 32  1  0  0  0  0
 81 34  1  0  0  0  0
 85 38  1  0  0  0  0
 86 40  1  0  0  0  0
 87 41  1  0  0  0  0
 90 44  1  0  0  0  0
 93 49  1  0  0  0  0
 94 49  1  0  0  0  0
 96 52  1  0  0  0  0
M  END
