-1 1
 OpenBabel05232414493D

 99101  0  0  1  0  0  0  0  0999 V2000
    4.0707    0.1583  -15.7544 O   0  0  0  0  0  0  0  0  0  0  0  0
    4.4539   -0.6718  -14.9365 C   0  0  0  0  0  0  0  0  0  0  0  0
    3.5244   -0.9849  -13.8800 N   0  0  0  0  0  0  0  0  0  0  0  0
    3.6723   -0.8659  -12.5096 C   0  0  0  0  0  0  0  0  0  0  0  0
    2.5011   -0.8310  -11.7056 C   0  0  0  0  0  0  0  0  0  0  0  0
    1.1363   -0.8574  -12.3391 C   0  0  0  0  0  0  0  0  0  0  0  0
    2.6540   -0.7638  -10.3235 C   0  0  0  0  0  0  0  0  0  0  0  0
    3.9023   -0.7250   -9.7089 C   0  0  0  0  0  0  0  0  0  0  0  0
    5.0513   -0.7268  -10.5093 C   0  0  0  0  0  0  0  0  0  0  0  0
    6.2896   -0.6540   -9.8398 N   0  0  0  0  0  0  0  0  0  0  0  0
    7.5620   -0.8840  -10.2603 C   0  0  0  0  0  0  0  0  0  0  0  0
    8.4973   -0.7565   -9.2935 N   0  0  0  0  0  0  0  0  0  0  0  0
    9.7457   -0.9962   -9.6441 C   0  0  0  0  0  0  0  0  0  0  0  0
   10.7394   -0.8542   -8.6823 N   0  0  0  0  0  0  0  0  0  0  0  0
   12.0813   -0.6532   -9.0344 C   0  0  0  0  0  0  0  0  0  0  0  0
   12.4004   -0.9007  -10.3529 N   0  0  0  0  0  0  0  0  0  0  0  0
   11.5431   -1.7315  -11.1952 C   0  0  0  0  0  0  0  0  0  0  0  0
   13.7301   -0.6440  -10.7952 C   0  0  0  0  0  0  0  0  0  0  0  0
   14.2187    0.6726  -10.8413 C   0  0  0  0  0  0  0  0  0  0  0  0
   13.3899    1.8413  -10.3916 C   0  0  0  0  0  0  0  0  0  0  0  0
   15.5153    0.8520  -11.3318 C   0  0  0  0  0  0  0  0  0  0  0  0
   16.2913   -0.2107  -11.7773 C   0  0  0  0  0  0  0  0  0  0  0  0
   15.7836   -1.5142  -11.7412 C   0  0  0  0  0  0  0  0  0  0  0  0
   16.6008   -2.5541  -12.2094 N   0  0  0  0  0  0  0  0  0  0  0  0
   16.3314   -3.8823  -12.2997 C   0  0  0  0  0  0  0  0  0  0  0  0
   17.4738   -4.6891  -12.9478 C   0  0  2  0  0  0  0  0  0  0  0  0
   17.1483   -4.8239  -13.9934 H   0  0  0  0  0  0  0  0  0  0  0  0
   17.6682   -6.0738  -12.3103 C   0  0  0  0  0  0  0  0  0  0  0  0
   16.5266   -7.0976  -12.3977 C   0  0  0  0  0  0  0  0  0  0  0  0
   15.9943   -7.2569  -13.8210 C   0  0  0  0  0  0  0  0  0  0  0  0
   17.0011   -8.4366  -11.8323 C   0  0  0  0  0  0  0  0  0  0  0  0
   18.7077   -3.9061  -12.9872 N   0  0  0  0  0  0  0  0  0  0  0  0
   15.2916   -4.4155  -11.9580 O   0  0  0  0  0  0  0  0  0  0  0  0
   14.4960   -1.7231  -11.2402 C   0  0  0  0  0  0  0  0  0  0  0  0
   12.8928   -0.2616   -8.2207 O   0  0  0  0  0  0  0  0  0  0  0  0
   10.3501   -0.5689   -7.3123 C   0  0  0  0  0  0  0  0  0  0  0  0
   10.1135   -1.3803  -10.9442 C   0  0  0  0  0  0  0  0  0  0  0  0
    9.0724   -1.4447  -11.8545 C   0  0  0  0  0  0  0  0  0  0  0  0
    7.8075   -1.1989  -11.5316 N   0  0  0  0  0  0  0  0  0  0  0  0
    4.9348   -0.7817  -11.8982 C   0  0  0  0  0  0  0  0  0  0  0  0
    5.7032   -1.3734  -14.9934 C   0  0  0  0  0  3  0  0  0  0  0  0
    6.0076   -2.5723  -14.3538 C   0  0  0  0  0  3  0  0  0  0  0  0
    5.5518   -4.4615  -15.6705 S   0  0  0  0  0  1  0  0  0  0  0  0
    4.2532   -3.6856  -16.6578 C   0  0  0  0  0  0  0  0  0  0  0  0
    2.7940   -4.1171  -16.3796 C   0  0  2  0  0  0  0  0  0  0  0  0
    2.7278   -5.2045  -16.5542 H   0  0  0  0  0  0  0  0  0  0  0  0
    1.8799   -3.4457  -17.2742 N   0  0  0  0  0  0  0  0  0  0  0  0
    1.6887   -3.7987  -18.5633 C   0  0  0  0  0  0  0  0  0  0  0  0
    0.6832   -2.9413  -19.3163 C   0  0  0  0  0  0  0  0  0  0  0  0
    2.2868   -4.7088  -19.1133 O   0  0  0  0  0  0  0  0  0  0  0  0
    2.2801   -3.8361  -14.9572 C   0  0  0  0  0  0  0  0  0  0  0  0
    2.9560   -4.4606  -13.9803 N   0  0  0  0  0  0  0  0  0  0  0  0
    2.6780   -4.2584  -12.5820 C   0  0  0  0  0  0  0  0  0  0  0  0
    1.2925   -3.1264  -14.7732 O   0  0  0  0  0  0  0  0  0  0  0  0
    2.5873   -0.7886  -14.2116 H   0  0  0  0  0  0  0  0  0  0  0  0
    0.9535    0.0584  -12.9299 H   0  0  0  0  0  0  0  0  0  0  0  0
    0.3505   -0.9135  -11.5721 H   0  0  0  0  0  0  0  0  0  0  0  0
    1.0160   -1.7111  -13.0272 H   0  0  0  0  0  0  0  0  0  0  0  0
    1.7557   -0.7475   -9.6991 H   0  0  0  0  0  0  0  0  0  0  0  0
    3.9836   -0.6924   -8.6191 H   0  0  0  0  0  0  0  0  0  0  0  0
    6.2407   -0.4579   -8.8488 H   0  0  0  0  0  0  0  0  0  0  0  0
   11.7234   -2.8057  -10.9942 H   0  0  0  0  0  0  0  0  0  0  0  0
   11.8138   -1.5505  -12.2445 H   0  0  0  0  0  0  0  0  0  0  0  0
   13.3716    1.8958   -9.2925 H   0  0  0  0  0  0  0  0  0  0  0  0
   12.3471    1.7353  -10.7267 H   0  0  0  0  0  0  0  0  0  0  0  0
   13.7893    2.7851  -10.7876 H   0  0  0  0  0  0  0  0  0  0  0  0
   15.9242    1.8645  -11.3823 H   0  0  0  0  0  0  0  0  0  0  0  0
   17.2962   -0.0281  -12.1668 H   0  0  0  0  0  0  0  0  0  0  0  0
   17.5273   -2.3190  -12.5626 H   0  0  0  0  0  0  0  0  0  0  0  0
   17.9391   -5.9293  -11.2483 H   0  0  0  0  0  0  0  0  0  0  0  0
   18.5606   -6.5105  -12.7971 H   0  0  0  0  0  0  0  0  0  0  0  0
   15.7000   -6.7264  -11.7759 H   0  0  0  0  0  0  0  0  0  0  0  0
   16.8037   -7.5043  -14.5302 H   0  0  0  0  0  0  0  0  0  0  0  0
   15.4937   -6.3408  -14.1671 H   0  0  0  0  0  0  0  0  0  0  0  0
   15.2514   -8.0673  -13.8703 H   0  0  0  0  0  0  0  0  0  0  0  0
   17.8138   -8.8627  -12.4455 H   0  0  0  0  0  0  0  0  0  0  0  0
   16.1804   -9.1697  -11.8105 H   0  0  0  0  0  0  0  0  0  0  0  0
   17.3798   -8.3281  -10.8036 H   0  0  0  0  0  0  0  0  0  0  0  0
   19.3081   -4.2138  -13.7472 H   0  0  0  0  0  0  0  0  0  0  0  0
   19.2362   -4.0378  -12.1253 H   0  0  0  0  0  0  0  0  0  0  0  0
   14.1022   -2.7358  -11.1989 H   0  0  0  0  0  0  0  0  0  0  0  0
    9.5881   -1.2904   -6.9933 H   0  0  0  0  0  0  0  0  0  0  0  0
    9.9228    0.4413   -7.2211 H   0  0  0  0  0  0  0  0  0  0  0  0
   11.2422   -0.6430   -6.6833 H   0  0  0  0  0  0  0  0  0  0  0  0
    9.2604   -1.7162  -12.9003 H   0  0  0  0  0  0  0  0  0  0  0  0
    5.8273   -0.7753  -12.5144 H   0  0  0  0  0  0  0  0  0  0  0  0
    6.3832   -0.9873  -15.7571 H   0  0  0  0  0  0  0  0  0  0  0  0
    5.3910   -2.8937  -13.5122 H   0  0  0  0  0  0  0  0  0  0  0  0
    7.0527   -2.8744  -14.2772 H   0  0  0  0  0  0  0  0  0  0  0  0
    4.4322   -3.9007  -17.7200 H   0  0  0  0  0  0  0  0  0  0  0  0
    4.3390   -2.5902  -16.5234 H   0  0  0  0  0  0  0  0  0  0  0  0
    1.2807   -2.7655  -16.8162 H   0  0  0  0  0  0  0  0  0  0  0  0
    0.1175   -3.5842  -20.0031 H   0  0  0  0  0  0  0  0  0  0  0  0
    1.2340   -2.2045  -19.9203 H   0  0  0  0  0  0  0  0  0  0  0  0
   -0.0088   -2.4009  -18.6551 H   0  0  0  0  0  0  0  0  0  0  0  0
    3.8810   -4.8215  -14.2601 H   0  0  0  0  0  0  0  0  0  0  0  0
    1.6302   -3.9543  -12.4613 H   0  0  0  0  0  0  0  0  0  0  0  0
    3.3124   -3.4733  -12.1392 H   0  0  0  0  0  0  0  0  0  0  0  0
    2.8421   -5.1953  -12.0286 H   0  0  0  0  0  0  0  0  0  0  0  0
  1  2  2  0  0  0  0
  2  3  1  0  0  0  0
  3  4  1  0  0  0  0
  4 40  2  0  0  0  0
  4  5  1  0  0  0  0
  5  7  2  0  0  0  0
  6  5  1  0  0  0  0
  6 57  1  0  0  0  0
  7  8  1  0  0  0  0
  7 59  1  0  0  0  0
  8 60  1  0  0  0  0
  9 10  1  0  0  0  0
  9  8  2  0  0  0  0
 10 61  1  0  0  0  0
 11 10  1  0  0  0  0
 11 12  2  0  0  0  0
 13 12  1  0  0  0  0
 13 14  1  0  0  0  0
 14 36  1  0  0  0  0
 15 14  1  0  0  0  0
 15 35  2  0  0  0  0
 16 15  1  0  0  0  0
 17 62  1  0  0  0  0
 17 37  1  0  0  0  0
 17 16  1  0  0  0  0
 18 16  1  0  0  0  0
 19 18  1  0  0  0  0
 19 20  1  0  0  0  0
 20 64  1  0  0  0  0
 21 19  2  0  0  0  0
 22 23  2  0  0  0  0
 22 21  1  0  0  0  0
 23 34  1  0  0  0  0
 24 23  1  0  0  0  0
 25 24  1  0  0  0  0
 25 33  2  0  0  0  0
 26 27  1  6  0  0  0
 26 28  1  0  0  0  0
 26 25  1  0  0  0  0
 28 70  1  0  0  0  0
 29 28  1  0  0  0  0
 29 31  1  0  0  0  0
 29 72  1  0  0  0  0
 30 29  1  0  0  0  0
 31 77  1  0  0  0  0
 31 78  1  0  0  0  0
 32 26  1  0  0  0  0
 32 80  1  0  0  0  0
 34 81  1  0  0  0  0
 34 18  2  0  0  0  0
 36 83  1  0  0  0  0
 36 82  1  0  0  0  0
 36 84  1  0  0  0  0
 37 13  2  0  0  0  0
 38 39  2  0  0  0  0
 38 37  1  0  0  0  0
 39 11  1  0  0  0  0
 40  9  1  0  0  0  0
 41  2  1  0  0  0  0
 41 42  1  0  0  0  0
 42 89  1  0  0  0  0
 42 88  1  0  0  0  0
 44 91  1  0  0  0  0
 44 45  1  0  0  0  0
 44 43  1  0  0  0  0
 45 46  1  6  0  0  0
 45 51  1  0  0  0  0
 47 92  1  0  0  0  0
 47 45  1  0  0  0  0
 48 47  1  0  0  0  0
 49 95  1  0  0  0  0
 49 48  1  0  0  0  0
 50 48  2  0  0  0  0
 51 54  2  0  0  0  0
 51 52  1  0  0  0  0
 52 53  1  0  0  0  0
 53 97  1  0  0  0  0
 53 98  1  0  0  0  0
 53 99  1  0  0  0  0
 55  3  1  0  0  0  0
 56  6  1  0  0  0  0
 58  6  1  0  0  0  0
 63 17  1  0  0  0  0
 65 20  1  0  0  0  0
 66 20  1  0  0  0  0
 67 21  1  0  0  0  0
 68 22  1  0  0  0  0
 69 24  1  0  0  0  0
 71 28  1  0  0  0  0
 73 30  1  0  0  0  0
 74 30  1  0  0  0  0
 75 30  1  0  0  0  0
 76 31  1  0  0  0  0
 79 32  1  0  0  0  0
 85 38  1  0  0  0  0
 86 40  1  0  0  0  0
 87 41  1  0  0  0  0
 90 44  1  0  0  0  0
 93 49  1  0  0  0  0
 94 49  1  0  0  0  0
 96 52  1  0  0  0  0
M  END
