99
-1 1
O        -4.632931    1.318352   -3.464376
C        -4.296653    0.987974   -2.336174
N        -5.185865    1.196853   -1.297182
C        -5.038596    1.341222    0.083533
C        -6.213069    1.377116    0.871761
C        -7.579618    1.286970    0.246891
C        -6.061837    1.528767    2.250254
C        -4.817528    1.643663    2.857963
C        -3.664062    1.636435    2.064411
N        -2.431219    1.778690    2.726379
C        -1.151753    1.561447    2.311571
N        -0.225144    1.706576    3.281569
C         1.027698    1.469013    2.943231
N         2.013396    1.630325    3.906170
C         3.359892    1.824090    3.558582
N         3.686627    1.552819    2.247304
C         2.834136    0.705915    1.416734
C         5.021800    1.793601    1.809751
C         5.520208    3.105496    1.745443
C         4.698095    4.288004    2.170806
C         6.821846    3.266242    1.261379
C         7.592589    2.190265    0.839314
C         7.074871    0.891168    0.893440
N         7.885493   -0.163315    0.449591
C         7.599656   -1.489795    0.373698
C         8.738846   -2.320085   -0.248938
H         8.420792   -2.470657   -1.294605
C         8.912890   -3.694922    0.415386
C         7.761097   -4.707999    0.337049
C         7.239518   -4.888663   -1.087622
C         8.216557   -6.040955    0.931820
N         9.981166   -1.550558   -0.291061
O         6.548512   -2.003380    0.709937
C         5.782059    0.701235    1.388900
O         4.164012    2.230553    4.371048
C         1.616639    1.935809    5.270184
C         1.403523    1.064881    1.650318
C         0.371055    0.991064    0.733539
N        -0.898149    1.243775    1.043413
C        -3.781587    1.506611    0.680092
C        -3.012084    0.273841   -2.129764
C        -2.868853   -0.797228   -1.342383
S        -3.729353   -3.573477   -3.101605
C        -4.456530   -2.225791   -4.100189
C        -5.963065   -1.906934   -3.943230
H        -6.549336   -2.779805   -4.271835
N        -6.302417   -0.807654   -4.818751
C        -7.493619   -0.723763   -5.461292
C        -7.806996    0.664462   -5.996897
O        -8.263696   -1.656729   -5.606204
C        -6.470670   -1.566380   -2.525137
N        -6.059834   -2.389091   -1.551804
C        -6.445037   -2.206001   -0.180354
O        -7.237477   -0.619598   -2.330802
H        -6.136522    1.227514   -1.658630
H        -7.813128    2.203380   -0.323984
H        -8.352884    1.178517    1.020215
H        -7.662516    0.443393   -0.458232
H        -6.959812    1.548369    2.873860
H        -4.740971    1.739366    3.944291
H        -2.484839    1.983164    3.715627
H         3.008496   -0.364281    1.641835
H         3.113118    0.863199    0.365880
H         4.671370    4.359387    3.268800
H         3.657011    4.186463    1.828766
H         5.109031    5.222253    1.763979
H         7.239473    4.274364    1.197429
H         8.601664    2.358734    0.454308
H         8.819120    0.054423    0.103280
H         9.176922   -3.533769    1.476724
H         9.804428   -4.149741   -0.056123
H         6.933000   -4.317195    0.944706
H         8.052346   -5.158315   -1.784661
H         6.751720   -3.974147   -1.455641
H         6.488327   -5.691710   -1.128144
H         9.029851   -6.486993    0.333796
H         7.387960   -6.764686    0.960012
H         8.587496   -5.916995    1.961566
H        10.581525   -1.872470   -1.045189
H        10.504759   -1.679194    0.574298
H         5.381001   -0.307981    1.444216
H         0.857837    1.215053    5.598170
H         1.184190    2.945294    5.342742
H         2.506675    1.876805    5.903488
H         0.568268    0.705668   -0.306595
H        -2.881684    1.506849    0.076685
H        -2.235190    0.554283   -2.845481
H        -3.669187   -1.135303   -0.680906
H        -1.958078   -1.395867   -1.355015
H        -4.327174   -2.453989   -5.168849
H        -3.903255   -1.289068   -3.920599
H        -5.812552    0.060740   -4.613092
H        -8.200325    1.273718   -5.168574
H        -8.572813    0.585125   -6.778134
H        -6.912366    1.167526   -6.391867
H        -5.281992   -3.040578   -1.808650
H        -7.532251   -2.050958   -0.097915
H        -5.952368   -1.336294    0.291571
H        -6.172540   -3.104484    0.390801
