-1 1
 OpenBabel05192410563D

 95 98  0  0  1  0  0  0  0  0999 V2000
    2.5457   -3.3678   -6.1187 O   0  0  0  0  0  0  0  0  0  0  0  0
    2.1720   -2.2624   -5.6300 C   0  0  0  0  0  0  0  0  0  0  0  0
    3.2552   -1.4376   -5.1568 N   0  0  0  0  0  0  0  0  0  0  0  0
    3.3958   -0.7833   -3.9464 C   0  0  0  0  0  0  0  0  0  0  0  0
    4.5866   -0.0498   -3.7025 C   0  0  0  0  0  0  0  0  0  0  0  0
    5.6245    0.0709   -4.7831 C   0  0  0  0  0  0  0  0  0  0  0  0
    4.7288    0.5855   -2.4739 C   0  0  0  0  0  0  0  0  0  0  0  0
    3.7527    0.5516   -1.4756 C   0  0  0  0  0  0  0  0  0  0  0  0
    2.5766   -0.1559   -1.7331 C   0  0  0  0  0  0  0  0  0  0  0  0
    1.5005   -0.2742   -0.8280 N   0  0  0  0  0  0  0  0  0  0  0  0
    1.2458    0.2768    0.3788 C   0  0  0  0  0  0  0  0  0  0  0  0
    2.1147    1.0981    0.9593 N   0  0  0  0  0  0  0  0  0  0  0  0
    1.8203    1.6177    2.1573 C   0  0  0  0  0  0  0  0  0  0  0  0
    2.7313    2.5096    2.6101 N   0  0  0  0  0  0  0  0  0  0  0  0
    2.5888    3.4655    3.6789 C   0  0  0  0  0  0  0  0  0  0  0  0
    0.6113    1.2668    2.8245 C   0  0  0  0  0  0  0  0  0  0  0  0
    0.2857    1.5627    4.2455 C   0  0  0  0  0  0  0  0  0  0  0  0
   -1.0363    1.8956    4.4602 N   0  0  0  0  0  0  0  0  0  0  0  0
   -1.6668    1.9349    5.7315 C   0  0  0  0  0  0  0  0  0  0  0  0
   -1.3129    2.8930    6.6968 C   0  0  0  0  0  0  0  0  0  0  0  0
   -0.2418    3.9138    6.4383 C   0  0  0  0  0  0  0  0  0  0  0  0
   -2.0156    2.8632    7.9044 C   0  0  0  0  0  0  0  0  0  0  0  0
   -3.0389    1.9565    8.1693 C   0  0  0  0  0  0  0  0  0  0  0  0
   -3.3895    1.0184    7.1918 C   0  0  0  0  0  0  0  0  0  0  0  0
   -4.3960    0.0516    7.3407 N   0  0  0  0  0  0  0  0  0  0  0  0
   -5.2345   -0.1452    8.3952 C   0  0  0  0  0  0  0  0  0  0  0  0
   -6.2239   -1.2907    8.2655 C   0  0  0  0  0  0  0  0  0  0  0  0
   -6.3550   -2.1932    7.1839 C   0  0  0  0  0  0  0  0  0  0  0  0
   -5.5227   -2.0477    6.1220 O   0  0  0  0  0  0  0  0  0  0  0  0
   -5.5912   -2.9336    5.0313 C   0  0  0  0  0  0  0  0  0  0  0  0
   -7.3238   -3.2020    7.2277 C   0  0  0  0  0  0  0  0  0  0  0  0
   -8.1640   -3.3247    8.3319 C   0  0  0  0  0  0  0  0  0  0  0  0
   -8.0491   -2.4459    9.4037 C   0  0  0  0  0  0  0  0  0  0  0  0
   -7.0845   -1.4456    9.3563 C   0  0  0  0  0  0  0  0  0  0  0  0
   -5.2286    0.5372    9.4039 O   0  0  0  0  0  0  0  0  0  0  0  0
   -2.6873    1.0196    5.9812 C   0  0  0  0  0  0  0  0  0  0  0  0
    1.0869    1.4822    5.1583 O   0  0  0  0  0  0  0  0  0  0  0  0
   -0.2227    0.4099    2.0896 C   0  0  0  0  0  0  0  0  0  0  0  0
    0.0440   -0.0815    0.9019 N   0  0  0  0  0  0  0  0  0  0  0  0
    2.4089   -0.8172   -2.9539 C   0  0  0  0  0  0  0  0  0  0  0  0
    0.8866   -1.7469   -5.5885 C   0  0  0  0  0  3  0  0  0  0  0  0
    0.5834   -0.2970   -5.5670 C   0  0  0  0  0  0  0  0  0  0  0  0
   -0.0243    0.3725   -7.2249 S   0  0  0  0  0  0  0  0  0  0  0  0
    0.9090   -0.6711   -8.3678 C   0  0  0  0  0  0  0  0  0  0  0  0
    2.4318   -0.4507   -8.3942 C   0  0  2  0  0  0  0  0  0  0  0  0
    2.8276   -0.5160   -7.3709 H   0  0  0  0  0  0  0  0  0  0  0  0
    2.7984    0.8362   -8.9256 N   0  0  0  0  0  0  0  0  0  0  0  0
    3.3717    1.8186   -8.1894 C   0  0  0  0  0  0  0  0  0  0  0  0
    3.7115    3.0784   -8.9683 C   0  0  0  0  0  0  0  0  0  0  0  0
    3.5751    1.7452   -6.9904 O   0  0  0  0  0  0  0  0  0  0  0  0
    3.0617   -1.5318   -9.2858 C   0  0  0  0  0  0  0  0  0  0  0  0
    3.1810   -2.7487   -8.7348 N   0  0  0  0  0  0  0  0  0  0  0  0
    3.6839   -3.8531   -9.5089 C   0  0  0  0  0  0  0  0  0  0  0  0
    3.3800   -1.2733  -10.4443 O   0  0  0  0  0  0  0  0  0  0  0  0
    4.1254   -1.7461   -5.5735 H   0  0  0  0  0  0  0  0  0  0  0  0
    5.1748    0.5195   -5.6849 H   0  0  0  0  0  0  0  0  0  0  0  0
    6.0497   -0.9087   -5.0666 H   0  0  0  0  0  0  0  0  0  0  0  0
    6.4601    0.7063   -4.4559 H   0  0  0  0  0  0  0  0  0  0  0  0
    5.6451    1.1543   -2.2876 H   0  0  0  0  0  0  0  0  0  0  0  0
    3.8893    1.0696   -0.5318 H   0  0  0  0  0  0  0  0  0  0  0  0
    0.7343   -0.8542   -1.1483 H   0  0  0  0  0  0  0  0  0  0  0  0
    3.5001    2.6253    1.9620 H   0  0  0  0  0  0  0  0  0  0  0  0
    1.5845    3.9210    3.6730 H   0  0  0  0  0  0  0  0  0  0  0  0
    2.7434    3.0131    4.6684 H   0  0  0  0  0  0  0  0  0  0  0  0
    3.3208    4.2690    3.5232 H   0  0  0  0  0  0  0  0  0  0  0  0
   -1.6401    1.9278    3.6492 H   0  0  0  0  0  0  0  0  0  0  0  0
   -0.3538    4.3501    5.4336 H   0  0  0  0  0  0  0  0  0  0  0  0
    0.7500    3.4400    6.4728 H   0  0  0  0  0  0  0  0  0  0  0  0
   -0.2829    4.7255    7.1777 H   0  0  0  0  0  0  0  0  0  0  0  0
   -1.7610    3.5967    8.6743 H   0  0  0  0  0  0  0  0  0  0  0  0
   -3.5714    1.9686    9.1168 H   0  0  0  0  0  0  0  0  0  0  0  0
   -4.5121   -0.5947    6.5675 H   0  0  0  0  0  0  0  0  0  0  0  0
   -4.8158   -2.6153    4.3247 H   0  0  0  0  0  0  0  0  0  0  0  0
   -6.5730   -2.8848    4.5328 H   0  0  0  0  0  0  0  0  0  0  0  0
   -5.3883   -3.9714    5.3421 H   0  0  0  0  0  0  0  0  0  0  0  0
   -7.4303   -3.9007    6.3989 H   0  0  0  0  0  0  0  0  0  0  0  0
   -8.9132   -4.1194    8.3447 H   0  0  0  0  0  0  0  0  0  0  0  0
   -8.7044   -2.5377   10.2714 H   0  0  0  0  0  0  0  0  0  0  0  0
   -6.9601   -0.7372   10.1770 H   0  0  0  0  0  0  0  0  0  0  0  0
   -2.9270    0.2815    5.2106 H   0  0  0  0  0  0  0  0  0  0  0  0
   -1.1684    0.0772    2.5387 H   0  0  0  0  0  0  0  0  0  0  0  0
    1.4925   -1.3730   -3.1652 H   0  0  0  0  0  0  0  0  0  0  0  0
    0.0972   -2.4363   -5.9028 H   0  0  0  0  0  0  0  0  0  0  0  0
    1.4658    0.3037   -5.3118 H   0  0  0  0  0  0  0  0  0  0  0  0
   -0.2369    0.0021   -4.8924 H   0  0  0  0  0  0  0  0  0  0  0  0
    0.4951   -0.4766   -9.3700 H   0  0  0  0  0  0  0  0  0  0  0  0
    0.7127   -1.7213   -8.1129 H   0  0  0  0  0  0  0  0  0  0  0  0
    2.8614    0.8631   -9.9377 H   0  0  0  0  0  0  0  0  0  0  0  0
    3.7938    2.9119  -10.0518 H   0  0  0  0  0  0  0  0  0  0  0  0
    4.6530    3.4890   -8.5816 H   0  0  0  0  0  0  0  0  0  0  0  0
    2.9192    3.8199   -8.7865 H   0  0  0  0  0  0  0  0  0  0  0  0
    2.8929   -2.9473   -7.7500 H   0  0  0  0  0  0  0  0  0  0  0  0
    4.6746   -3.6273   -9.9361 H   0  0  0  0  0  0  0  0  0  0  0  0
    3.0168   -4.1029  -10.3517 H   0  0  0  0  0  0  0  0  0  0  0  0
    3.7671   -4.7283   -8.8515 H   0  0  0  0  0  0  0  0  0  0  0  0
  1  2  2  0  0  0  0
  2 41  1  0  0  0  0
  2  3  1  0  0  0  0
  3  4  1  0  0  0  0
  4  5  2  0  0  0  0
  4 40  1  0  0  0  0
  5  7  1  0  0  0  0
  6 58  1  0  0  0  0
  6  5  1  0  0  0  0
  7 59  1  0  0  0  0
  7  8  2  0  0  0  0
  8 60  1  0  0  0  0
  9  8  1  0  0  0  0
  9 10  1  0  0  0  0
 10 11  1  0  0  0  0
 11 39  1  0  0  0  0
 11 12  2  0  0  0  0
 12 13  1  0  0  0  0
 13 14  1  0  0  0  0
 13 16  2  0  0  0  0
 14 15  1  0  0  0  0
 15 64  1  0  0  0  0
 16 17  1  0  0  0  0
 17 18  1  0  0  0  0
 17 37  2  0  0  0  0
 18 19  1  0  0  0  0
 19 36  2  0  0  0  0
 19 20  1  0  0  0  0
 20 22  2  0  0  0  0
 21 68  1  0  0  0  0
 21 20  1  0  0  0  0
 21 69  1  0  0  0  0
 22 23  1  0  0  0  0
 22 70  1  0  0  0  0
 23 71  1  0  0  0  0
 24 25  1  0  0  0  0
 24 23  2  0  0  0  0
 25 26  1  0  0  0  0
 26 35  2  0  0  0  0
 27 26  1  0  0  0  0
 27 34  1  0  0  0  0
 28 31  1  0  0  0  0
 28 27  2  0  0  0  0
 29 28  1  0  0  0  0
 30 75  1  0  0  0  0
 30 29  1  0  0  0  0
 31 32  2  0  0  0  0
 32 77  1  0  0  0  0
 32 33  1  0  0  0  0
 33 78  1  0  0  0  0
 34 33  2  0  0  0  0
 34 79  1  0  0  0  0
 36 24  1  0  0  0  0
 38 81  1  0  0  0  0
 38 16  1  0  0  0  0
 39 38  2  0  0  0  0
 40  9  2  0  0  0  0
 41 42  1  0  0  0  0
 42 84  1  0  0  0  0
 42 85  1  0  0  0  0
 43 42  1  0  0  0  0
 44 87  1  0  0  0  0
 44 43  1  0  0  0  0
 45 44  1  0  0  0  0
 45 46  1  1  0  0  0
 47 45  1  0  0  0  0
 47 48  1  0  0  0  0
 48 50  2  0  0  0  0
 49 91  1  0  0  0  0
 49 90  1  0  0  0  0
 49 48  1  0  0  0  0
 51 52  1  0  0  0  0
 51 45  1  0  0  0  0
 52 92  1  0  0  0  0
 53 95  1  0  0  0  0
 53 52  1  0  0  0  0
 54 51  2  0  0  0  0
 55  3  1  0  0  0  0
 56  6  1  0  0  0  0
 57  6  1  0  0  0  0
 61 10  1  0  0  0  0
 62 14  1  0  0  0  0
 63 15  1  0  0  0  0
 65 15  1  0  0  0  0
 66 18  1  0  0  0  0
 67 21  1  0  0  0  0
 72 25  1  0  0  0  0
 73 30  1  0  0  0  0
 74 30  1  0  0  0  0
 76 31  1  0  0  0  0
 80 36  1  0  0  0  0
 82 40  1  0  0  0  0
 83 41  1  0  0  0  0
 86 44  1  0  0  0  0
 88 47  1  0  0  0  0
 89 49  1  0  0  0  0
 93 53  1  0  0  0  0
 94 53  1  0  0  0  0
M  END
