-1 1
 OpenBabel05232413483D

 95 97  0  0  1  0  0  0  0  0999 V2000
    2.4162   -3.4311   -6.5071 O   0  0  0  0  0  0  0  0  0  0  0  0
    2.1096   -2.5154   -5.7465 C   0  0  0  0  0  0  0  0  0  0  0  0
    3.1466   -1.8373   -5.1235 N   0  0  0  0  0  0  0  0  0  0  0  0
    3.2396   -1.0591   -3.9617 C   0  0  0  0  0  0  0  0  0  0  0  0
    4.3745   -0.2307   -3.8128 C   0  0  0  0  0  0  0  0  0  0  0  0
    5.4410   -0.1784   -4.8720 C   0  0  0  0  0  0  0  0  0  0  0  0
    4.4717    0.5189   -2.6418 C   0  0  0  0  0  0  0  0  0  0  0  0
    3.5117    0.4893   -1.6319 C   0  0  0  0  0  0  0  0  0  0  0  0
    2.4050   -0.3493   -1.7854 C   0  0  0  0  0  0  0  0  0  0  0  0
    1.3669   -0.4840   -0.8467 N   0  0  0  0  0  0  0  0  0  0  0  0
    1.1197    0.1157    0.3453 C   0  0  0  0  0  0  0  0  0  0  0  0
    1.9647    1.0036    0.8531 N   0  0  0  0  0  0  0  0  0  0  0  0
    1.6815    1.5676    2.0360 C   0  0  0  0  0  0  0  0  0  0  0  0
    2.5592    2.5209    2.4181 N   0  0  0  0  0  0  0  0  0  0  0  0
    2.4130    3.5034    3.4627 C   0  0  0  0  0  0  0  0  0  0  0  0
    0.5118    1.1896    2.7554 C   0  0  0  0  0  0  0  0  0  0  0  0
    0.2126    1.5398    4.1729 C   0  0  0  0  0  0  0  0  0  0  0  0
   -1.1087    1.8538    4.4044 N   0  0  0  0  0  0  0  0  0  0  0  0
   -1.7101    1.9494    5.6881 C   0  0  0  0  0  0  0  0  0  0  0  0
   -1.3484    2.9605    6.5940 C   0  0  0  0  0  0  0  0  0  0  0  0
   -0.3003    3.9830    6.2595 C   0  0  0  0  0  0  0  0  0  0  0  0
   -2.0221    2.9818    7.8184 C   0  0  0  0  0  0  0  0  0  0  0  0
   -3.0248    2.0753    8.1527 C   0  0  0  0  0  0  0  0  0  0  0  0
   -3.3849    1.0842    7.2323 C   0  0  0  0  0  0  0  0  0  0  0  0
   -4.3758    0.1158    7.4531 N   0  0  0  0  0  0  0  0  0  0  0  0
   -5.1835   -0.0388    8.5392 C   0  0  0  0  0  0  0  0  0  0  0  0
   -6.1691   -1.1933    8.4885 C   0  0  0  0  0  0  0  0  0  0  0  0
   -6.3274   -2.1416    7.4507 C   0  0  0  0  0  0  0  0  0  0  0  0
   -5.5265   -2.0391    6.3594 O   0  0  0  0  0  0  0  0  0  0  0  0
   -5.6286   -2.9673    5.3075 C   0  0  0  0  0  0  0  0  0  0  0  0
   -7.2899   -3.1508    7.5653 C   0  0  0  0  0  0  0  0  0  0  0  0
   -8.0972   -3.2291    8.6976 C   0  0  0  0  0  0  0  0  0  0  0  0
   -7.9552   -2.3051    9.7273 C   0  0  0  0  0  0  0  0  0  0  0  0
   -6.9970   -1.3045    9.6096 C   0  0  0  0  0  0  0  0  0  0  0  0
   -5.1527    0.6881    9.5155 O   0  0  0  0  0  0  0  0  0  0  0  0
   -2.7104    1.0334    6.0069 C   0  0  0  0  0  0  0  0  0  0  0  0
    1.0405    1.5105    5.0639 O   0  0  0  0  0  0  0  0  0  0  0  0
   -0.2994    0.2591    2.0925 C   0  0  0  0  0  0  0  0  0  0  0  0
   -0.0424   -0.2773    0.9194 N   0  0  0  0  0  0  0  0  0  0  0  0
    2.2918   -1.1316   -2.9405 C   0  0  0  0  0  0  0  0  0  0  0  0
    0.7084   -2.1073   -5.5802 C   0  0  0  0  0  0  0  0  0  0  0  0
    0.2775   -0.8449   -5.3782 C   0  0  0  0  0  0  0  0  0  0  0  0
   -0.0940    0.6082   -7.8901 S   0  0  0  0  0  1  0  0  0  0  0  0
    1.0375   -0.5998   -8.6441 C   0  0  0  0  0  0  0  0  0  0  0  0
    2.5412   -0.2960   -8.4193 C   0  0  2  0  0  0  0  0  0  0  0  0
    2.8221   -0.5946   -7.3948 H   0  0  0  0  0  0  0  0  0  0  0  0
    2.7815    1.1106   -8.5767 N   0  0  0  0  0  0  0  0  0  0  0  0
    3.9496    1.6780   -8.2342 C   0  0  0  0  0  0  0  0  0  0  0  0
    4.0079    3.1873   -8.3882 C   0  0  0  0  0  0  0  0  0  0  0  0
    4.9254    1.0423   -7.8506 O   0  0  0  0  0  0  0  0  0  0  0  0
    3.3810   -1.1108   -9.4115 C   0  0  0  0  0  0  0  0  0  0  0  0
    3.5788   -2.4024   -9.0291 N   0  0  0  0  0  0  0  0  0  0  0  0
    4.2465   -3.3506   -9.8770 C   0  0  0  0  0  0  0  0  0  0  0  0
    3.7860   -0.6574  -10.4660 O   0  0  0  0  0  0  0  0  0  0  0  0
    4.0325   -2.0719   -5.5590 H   0  0  0  0  0  0  0  0  0  0  0  0
    5.0552    0.1114   -5.8643 H   0  0  0  0  0  0  0  0  0  0  0  0
    5.9421   -1.1568   -4.9865 H   0  0  0  0  0  0  0  0  0  0  0  0
    6.2198    0.5472   -4.6005 H   0  0  0  0  0  0  0  0  0  0  0  0
    5.3414    1.1696   -2.5155 H   0  0  0  0  0  0  0  0  0  0  0  0
    3.6123    1.0979   -0.7388 H   0  0  0  0  0  0  0  0  0  0  0  0
    0.6213   -1.1176   -1.1081 H   0  0  0  0  0  0  0  0  0  0  0  0
    3.3102    2.6389    1.7500 H   0  0  0  0  0  0  0  0  0  0  0  0
    1.3876    3.9071    3.4849 H   0  0  0  0  0  0  0  0  0  0  0  0
    2.6317    3.0919    4.4579 H   0  0  0  0  0  0  0  0  0  0  0  0
    3.0956    4.3366    3.2505 H   0  0  0  0  0  0  0  0  0  0  0  0
   -1.7304    1.8488    3.6062 H   0  0  0  0  0  0  0  0  0  0  0  0
   -0.4449    4.3705    5.2389 H   0  0  0  0  0  0  0  0  0  0  0  0
    0.6998    3.5266    6.2916 H   0  0  0  0  0  0  0  0  0  0  0  0
   -0.3354    4.8284    6.9602 H   0  0  0  0  0  0  0  0  0  0  0  0
   -1.7609    3.7566    8.5442 H   0  0  0  0  0  0  0  0  0  0  0  0
   -3.5350    2.1282    9.1109 H   0  0  0  0  0  0  0  0  0  0  0  0
   -4.5092   -0.5649    6.7130 H   0  0  0  0  0  0  0  0  0  0  0  0
   -4.8761   -2.6774    4.5646 H   0  0  0  0  0  0  0  0  0  0  0  0
   -6.6256   -2.9379    4.8385 H   0  0  0  0  0  0  0  0  0  0  0  0
   -5.4152   -3.9921    5.6523 H   0  0  0  0  0  0  0  0  0  0  0  0
   -7.4174   -3.8844    6.7703 H   0  0  0  0  0  0  0  0  0  0  0  0
   -8.8424   -4.0248    8.7659 H   0  0  0  0  0  0  0  0  0  0  0  0
   -8.5848   -2.3619   10.6168 H   0  0  0  0  0  0  0  0  0  0  0  0
   -6.8538   -0.5619   10.3960 H   0  0  0  0  0  0  0  0  0  0  0  0
   -2.9573    0.2545    5.2801 H   0  0  0  0  0  0  0  0  0  0  0  0
   -1.2133   -0.0954    2.5875 H   0  0  0  0  0  0  0  0  0  0  0  0
    1.4349   -1.7947   -3.0601 H   0  0  0  0  0  0  0  0  0  0  0  0
    0.0044   -2.8942   -5.8618 H   0  0  0  0  0  0  0  0  0  0  0  0
    0.9553   -0.0207   -5.1538 H   0  0  0  0  0  0  0  0  0  0  0  0
   -0.7859   -0.6138   -5.3596 H   0  0  0  0  0  0  0  0  0  0  0  0
    0.8568   -0.6482   -9.7305 H   0  0  0  0  0  0  0  0  0  0  0  0
    0.8489   -1.6097   -8.2419 H   0  0  0  0  0  0  0  0  0  0  0  0
    1.9183    1.6608   -8.6097 H   0  0  0  0  0  0  0  0  0  0  0  0
    4.5695    3.4220   -9.3049 H   0  0  0  0  0  0  0  0  0  0  0  0
    4.5592    3.6087   -7.5371 H   0  0  0  0  0  0  0  0  0  0  0  0
    3.0136    3.6501   -8.4562 H   0  0  0  0  0  0  0  0  0  0  0  0
    3.1583   -2.7451   -8.1664 H   0  0  0  0  0  0  0  0  0  0  0  0
    4.6457   -2.8036  -10.7413 H   0  0  0  0  0  0  0  0  0  0  0  0
    3.5602   -4.1343  -10.2423 H   0  0  0  0  0  0  0  0  0  0  0  0
    5.0798   -3.8443   -9.3501 H   0  0  0  0  0  0  0  0  0  0  0  0
  1  2  2  0  0  0  0
  2 41  1  0  0  0  0
  2  3  1  0  0  0  0
  3  4  1  0  0  0  0
  4  5  2  0  0  0  0
  4 40  1  0  0  0  0
  5  7  1  0  0  0  0
  6 58  1  0  0  0  0
  6  5  1  0  0  0  0
  7 59  1  0  0  0  0
  7  8  2  0  0  0  0
  8 60  1  0  0  0  0
  9  8  1  0  0  0  0
  9 10  1  0  0  0  0
 10 11  1  0  0  0  0
 11 12  2  0  0  0  0
 11 39  1  0  0  0  0
 12 13  1  0  0  0  0
 13 14  1  0  0  0  0
 13 16  2  0  0  0  0
 14 15  1  0  0  0  0
 15 63  1  0  0  0  0
 15 64  1  0  0  0  0
 16 17  1  0  0  0  0
 17 18  1  0  0  0  0
 17 37  2  0  0  0  0
 18 19  1  0  0  0  0
 19 36  2  0  0  0  0
 19 20  1  0  0  0  0
 20 22  2  0  0  0  0
 21 68  1  0  0  0  0
 21 20  1  0  0  0  0
 21 69  1  0  0  0  0
 22 23  1  0  0  0  0
 22 70  1  0  0  0  0
 23 71  1  0  0  0  0
 24 25  1  0  0  0  0
 24 23  2  0  0  0  0
 25 26  1  0  0  0  0
 26 35  2  0  0  0  0
 27 26  1  0  0  0  0
 27 34  1  0  0  0  0
 28 31  1  0  0  0  0
 28 27  2  0  0  0  0
 29 28  1  0  0  0  0
 30 75  1  0  0  0  0
 30 29  1  0  0  0  0
 31 32  2  0  0  0  0
 32 77  1  0  0  0  0
 32 33  1  0  0  0  0
 33 78  1  0  0  0  0
 34 33  2  0  0  0  0
 34 79  1  0  0  0  0
 36 24  1  0  0  0  0
 38 81  1  0  0  0  0
 38 16  1  0  0  0  0
 39 38  2  0  0  0  0
 40  9  2  0  0  0  0
 41 42  2  0  0  0  0
 42 85  1  0  0  0  0
 42 84  1  0  0  0  0
 44 45  1  0  0  0  0
 44 87  1  0  0  0  0
 44 43  1  0  0  0  0
 45 46  1  1  0  0  0
 47 45  1  0  0  0  0
 47 48  1  0  0  0  0
 48 50  2  0  0  0  0
 49 48  1  0  0  0  0
 49 90  1  0  0  0  0
 51 52  1  0  0  0  0
 51 45  1  0  0  0  0
 52 92  1  0  0  0  0
 53 95  1  0  0  0  0
 53 52  1  0  0  0  0
 54 51  2  0  0  0  0
 55  3  1  0  0  0  0
 56  6  1  0  0  0  0
 57  6  1  0  0  0  0
 61 10  1  0  0  0  0
 62 14  1  0  0  0  0
 65 15  1  0  0  0  0
 66 18  1  0  0  0  0
 67 21  1  0  0  0  0
 72 25  1  0  0  0  0
 73 30  1  0  0  0  0
 74 30  1  0  0  0  0
 76 31  1  0  0  0  0
 80 36  1  0  0  0  0
 82 40  1  0  0  0  0
 83 41  1  0  0  0  0
 86 44  1  0  0  0  0
 88 47  1  0  0  0  0
 89 49  1  0  0  0  0
 91 49  1  0  0  0  0
 93 53  1  0  0  0  0
 94 53  1  0  0  0  0
M  END
