95
-1 1
O         2.416160   -3.431074   -6.507144
C         2.109635   -2.515369   -5.746505
N         3.146627   -1.837315   -5.123492
C         3.239614   -1.059090   -3.961672
C         4.374460   -0.230673   -3.812768
C         5.440979   -0.178431   -4.872011
C         4.471660    0.518872   -2.641792
C         3.511678    0.489267   -1.631851
C         2.404975   -0.349281   -1.785356
N         1.366894   -0.484044   -0.846710
C         1.119748    0.115708    0.345275
N         1.964656    1.003577    0.853118
C         1.681457    1.567612    2.036049
N         2.559162    2.520868    2.418127
C         2.413035    3.503406    3.462721
C         0.511769    1.189587    2.755402
C         0.212569    1.539775    4.172947
N        -1.108651    1.853753    4.404378
C        -1.710085    1.949429    5.688077
C        -1.348414    2.960529    6.594047
C        -0.300284    3.982985    6.259475
C        -2.022093    2.981760    7.818426
C        -3.024767    2.075327    8.152710
C        -3.384881    1.084176    7.232278
N        -4.375795    0.115827    7.453084
C        -5.183540   -0.038755    8.539185
C        -6.169108   -1.193287    8.488488
C        -6.327358   -2.141590    7.450672
O        -5.526485   -2.039050    6.359403
C        -5.628582   -2.967272    5.307488
C        -7.289887   -3.150766    7.565294
C        -8.097237   -3.229058    8.697624
C        -7.955178   -2.305147    9.727332
C        -6.997029   -1.304516    9.609568
O        -5.152692    0.688102    9.515547
C        -2.710448    1.033434    6.006941
O         1.040470    1.510467    5.063853
C        -0.299371    0.259100    2.092498
N        -0.042415   -0.277325    0.919400
C         2.291844   -1.131564   -2.940512
C         0.708441   -2.107287   -5.580196
C         0.277530   -0.844899   -5.378206
S        -0.093954    0.608170   -7.890080
C         1.037481   -0.599823   -8.644116
C         2.541189   -0.295970   -8.419324
H         2.822128   -0.594598   -7.394779
N         2.781546    1.110617   -8.576738
C         3.949583    1.678041   -8.234185
C         4.007897    3.187285   -8.388248
O         4.925422    1.042290   -7.850584
C         3.381018   -1.110834   -9.411458
N         3.578773   -2.402388   -9.029117
C         4.246512   -3.350576   -9.877019
O         3.786050   -0.657404  -10.465980
H         4.032478   -2.071891   -5.558979
H         5.055213    0.111423   -5.864278
H         5.942078   -1.156796   -4.986474
H         6.219771    0.547171   -4.600537
H         5.341377    1.169624   -2.515469
H         3.612331    1.097931   -0.738820
H         0.621269   -1.117571   -1.108150
H         3.310151    2.638879    1.749954
H         1.387614    3.907139    3.484944
H         2.631742    3.091871    4.457875
H         3.095611    4.336633    3.250488
H        -1.730408    1.848804    3.606192
H        -0.444892    4.370456    5.238945
H         0.699836    3.526627    6.291591
H        -0.335447    4.828408    6.960170
H        -1.760928    3.756596    8.544162
H        -3.535020    2.128229    9.110894
H        -4.509190   -0.564914    6.712972
H        -4.876145   -2.677405    4.564637
H        -6.625646   -2.937947    4.838494
H        -5.415185   -3.992123    5.652315
H        -7.417445   -3.884395    6.770344
H        -8.842353   -4.024798    8.765931
H        -8.584785   -2.361852   10.616761
H        -6.853774   -0.561898   10.395985
H        -2.957315    0.254530    5.280105
H        -1.213310   -0.095410    2.587457
H         1.434911   -1.794694   -3.060115
H         0.004443   -2.894183   -5.861798
H         0.955321   -0.020668   -5.153813
H        -0.785893   -0.613823   -5.359567
H         0.856758   -0.648222   -9.730532
H         0.848905   -1.609689   -8.241946
H         1.918281    1.660816   -8.609742
H         4.569550    3.422009   -9.304931
H         4.559204    3.608710   -7.537143
H         3.013579    3.650060   -8.456169
H         3.158277   -2.745137   -8.166430
H         4.645725   -2.803557  -10.741262
H         3.560156   -4.134286  -10.242344
H         5.079779   -3.844282   -9.350065
