-1 1
 OpenBabel05232413483D

 99101  0  0  1  0  0  0  0  0999 V2000
   -4.0512   -0.0629   -5.2459 O   0  0  0  0  0  0  0  0  0  0  0  0
   -4.5964    1.0291   -5.3368 C   0  0  0  0  0  0  0  0  0  0  0  0
   -4.3547    2.0841   -4.5003 N   0  0  0  0  0  0  0  0  0  0  0  0
   -3.4961    2.0609   -3.3852 C   0  0  0  0  0  0  0  0  0  0  0  0
   -3.7419    2.9552   -2.3176 C   0  0  0  0  0  0  0  0  0  0  0  0
   -4.9346    3.8706   -2.3111 C   0  0  0  0  0  0  0  0  0  0  0  0
   -2.8505    2.9419   -1.2452 C   0  0  0  0  0  0  0  0  0  0  0  0
   -1.7561    2.0824   -1.1677 C   0  0  0  0  0  0  0  0  0  0  0  0
   -1.5460    1.1820   -2.2128 C   0  0  0  0  0  0  0  0  0  0  0  0
   -0.4953    0.2417   -2.2676 N   0  0  0  0  0  0  0  0  0  0  0  0
    0.4937   -0.0833   -1.4063 C   0  0  0  0  0  0  0  0  0  0  0  0
    1.3058   -1.0615   -1.8361 N   0  0  0  0  0  0  0  0  0  0  0  0
    2.2814   -1.4751   -1.0327 C   0  0  0  0  0  0  0  0  0  0  0  0
    3.1057   -2.4335   -1.4837 N   0  0  0  0  0  0  0  0  0  0  0  0
    2.9826   -3.0068   -2.7992 C   0  0  0  0  0  0  0  0  0  0  0  0
    2.4393   -0.9112    0.2829 C   0  0  0  0  0  0  0  0  0  0  0  0
    3.4688   -1.4013    1.2164 C   0  0  0  0  0  0  0  0  0  0  0  0
    3.3210   -1.0159    2.5321 N   0  0  0  0  0  0  0  0  0  0  0  0
    4.1905   -1.4017    3.5800 C   0  0  0  0  0  0  0  0  0  0  0  0
    5.5488   -1.0367    3.5769 C   0  0  0  0  0  0  0  0  0  0  0  0
    6.1517   -0.2350    2.4595 C   0  0  0  0  0  0  0  0  0  0  0  0
    6.3138   -1.4381    4.6751 C   0  0  0  0  0  0  0  0  0  0  0  0
    5.7908   -2.1469    5.7533 C   0  0  0  0  0  0  0  0  0  0  0  0
    4.4337   -2.4843    5.7486 C   0  0  0  0  0  0  0  0  0  0  0  0
    3.7969   -3.1861    6.7885 N   0  0  0  0  0  0  0  0  0  0  0  0
    4.3331   -3.6747    7.9514 C   0  0  0  0  0  0  0  0  0  0  0  0
    3.3303   -4.3444    8.8597 C   0  0  0  0  0  0  0  0  0  0  0  0
    3.8032   -5.3527    9.6835 C   0  0  0  0  0  0  0  0  0  0  0  0
    2.9182   -6.0153   10.5491 C   0  0  0  0  0  0  0  0  0  0  0  0
    3.4521   -6.9947   11.3045 O   0  0  0  0  0  0  0  0  0  0  0  0
    2.6271   -7.6964   12.1933 C   0  0  0  0  0  0  0  0  0  0  0  0
    1.5754   -5.6478   10.5902 C   0  0  0  0  0  0  0  0  0  0  0  0
    1.1103   -4.6086    9.7689 C   0  0  0  0  0  0  0  0  0  0  0  0
   -0.1983   -4.3104    9.9014 O   0  0  0  0  0  0  0  0  0  0  0  0
   -0.7501   -3.2925    9.1112 C   0  0  0  0  0  0  0  0  0  0  0  0
    1.9801   -3.9527    8.8985 C   0  0  0  0  0  0  0  0  0  0  0  0
    5.5085   -3.6050    8.2460 O   0  0  0  0  0  0  0  0  0  0  0  0
    3.6503   -2.1123    4.6517 C   0  0  0  0  0  0  0  0  0  0  0  0
    4.4005   -2.1210    0.8726 O   0  0  0  0  0  0  0  0  0  0  0  0
    1.5665    0.1383    0.5669 C   0  0  0  0  0  0  0  0  0  0  0  0
    0.6080    0.5681   -0.2332 N   0  0  0  0  0  0  0  0  0  0  0  0
   -2.4149    1.1787   -3.3095 C   0  0  0  0  0  0  0  0  0  0  0  0
   -5.6224    1.2290   -6.4068 C   0  0  0  0  0  0  0  0  0  0  0  0
   -6.5132    2.2171   -6.5020 C   0  0  0  0  0  0  0  0  0  0  0  0
   -4.8690    5.1992   -5.5134 S   0  0  0  0  0  1  0  0  0  0  0  0
   -4.9307    5.1937   -7.3406 C   0  0  0  0  0  0  0  0  0  0  0  0
   -3.5746    5.3650   -8.0594 C   0  0  2  0  0  0  0  0  0  0  0  0
   -3.0740    6.2417   -7.6130 H   0  0  0  0  0  0  0  0  0  0  0  0
   -3.7370    5.5712   -9.4826 N   0  0  0  0  0  0  0  0  0  0  0  0
   -4.1354    6.7301  -10.0480 C   0  0  0  0  0  0  0  0  0  0  0  0
   -4.1436    6.7293  -11.5712 C   0  0  0  0  0  0  0  0  0  0  0  0
   -4.4811    7.7168   -9.4205 O   0  0  0  0  0  0  0  0  0  0  0  0
   -2.6448    4.1446   -7.9334 C   0  0  0  0  0  0  0  0  0  0  0  0
   -2.3376    3.7819   -6.6792 N   0  0  0  0  0  0  0  0  0  0  0  0
   -1.5374    2.6167   -6.4065 C   0  0  0  0  0  0  0  0  0  0  0  0
   -2.2155    3.5692   -8.9316 O   0  0  0  0  0  0  0  0  0  0  0  0
   -4.6890    3.0272   -4.7971 H   0  0  0  0  0  0  0  0  0  0  0  0
   -4.8110    4.7099   -3.0125 H   0  0  0  0  0  0  0  0  0  0  0  0
   -5.1007    4.2815   -1.3054 H   0  0  0  0  0  0  0  0  0  0  0  0
   -5.8445    3.3365   -2.6250 H   0  0  0  0  0  0  0  0  0  0  0  0
   -3.0283    3.6327   -0.4162 H   0  0  0  0  0  0  0  0  0  0  0  0
   -1.0848    2.0947   -0.3137 H   0  0  0  0  0  0  0  0  0  0  0  0
   -0.4705   -0.3228   -3.1085 H   0  0  0  0  0  0  0  0  0  0  0  0
    3.8810   -2.6640   -0.8660 H   0  0  0  0  0  0  0  0  0  0  0  0
    1.9830   -3.4409   -2.9528 H   0  0  0  0  0  0  0  0  0  0  0  0
    3.1362   -2.2547   -3.5901 H   0  0  0  0  0  0  0  0  0  0  0  0
    3.7354   -3.7978   -2.9096 H   0  0  0  0  0  0  0  0  0  0  0  0
    2.4039   -0.6946    2.8109 H   0  0  0  0  0  0  0  0  0  0  0  0
    5.4718    0.5707    2.1427 H   0  0  0  0  0  0  0  0  0  0  0  0
    6.3233   -0.8707    1.5784 H   0  0  0  0  0  0  0  0  0  0  0  0
    7.1050    0.2149    2.7686 H   0  0  0  0  0  0  0  0  0  0  0  0
    7.3729   -1.1681    4.6978 H   0  0  0  0  0  0  0  0  0  0  0  0
    6.4157   -2.4374    6.5939 H   0  0  0  0  0  0  0  0  0  0  0  0
    2.8300   -3.4257    6.6147 H   0  0  0  0  0  0  0  0  0  0  0  0
    4.8563   -5.6326    9.6631 H   0  0  0  0  0  0  0  0  0  0  0  0
    3.2634   -8.4344   12.6965 H   0  0  0  0  0  0  0  0  0  0  0  0
    1.8141   -8.2256   11.6664 H   0  0  0  0  0  0  0  0  0  0  0  0
    2.1837   -7.0296   12.9534 H   0  0  0  0  0  0  0  0  0  0  0  0
    0.8528   -6.1286   11.2478 H   0  0  0  0  0  0  0  0  0  0  0  0
   -1.8132   -3.2320    9.3731 H   0  0  0  0  0  0  0  0  0  0  0  0
   -0.6615   -3.5175    8.0339 H   0  0  0  0  0  0  0  0  0  0  0  0
   -0.2776   -2.3154    9.3126 H   0  0  0  0  0  0  0  0  0  0  0  0
    1.6333   -3.1146    8.2946 H   0  0  0  0  0  0  0  0  0  0  0  0
    2.5924   -2.3895    4.6164 H   0  0  0  0  0  0  0  0  0  0  0  0
    1.6667    0.6915    1.5100 H   0  0  0  0  0  0  0  0  0  0  0  0
   -2.2723    0.4669   -4.1205 H   0  0  0  0  0  0  0  0  0  0  0  0
   -5.6191    0.4017   -7.1222 H   0  0  0  0  0  0  0  0  0  0  0  0
   -6.5274    3.0723   -5.8160 H   0  0  0  0  0  0  0  0  0  0  0  0
   -7.2375    2.2232   -7.3212 H   0  0  0  0  0  0  0  0  0  0  0  0
   -5.5523    6.0365   -7.6731 H   0  0  0  0  0  0  0  0  0  0  0  0
   -5.3973    4.2663   -7.7164 H   0  0  0  0  0  0  0  0  0  0  0  0
   -3.3204    4.8271  -10.0379 H   0  0  0  0  0  0  0  0  0  0  0  0
   -5.1735    6.9060  -11.9137 H   0  0  0  0  0  0  0  0  0  0  0  0
   -3.7713    5.7961  -12.0165 H   0  0  0  0  0  0  0  0  0  0  0  0
   -3.5323    7.5719  -11.9243 H   0  0  0  0  0  0  0  0  0  0  0  0
   -2.9102    4.2153   -5.9353 H   0  0  0  0  0  0  0  0  0  0  0  0
   -1.1296    2.6867   -5.3888 H   0  0  0  0  0  0  0  0  0  0  0  0
   -0.7104    2.5580   -7.1283 H   0  0  0  0  0  0  0  0  0  0  0  0
   -2.1151    1.6787   -6.4821 H   0  0  0  0  0  0  0  0  0  0  0  0
  2  1  2  0  0  0  0
  2  3  1  0  0  0  0
  3  4  1  0  0  0  0
  4 42  2  0  0  0  0
  4  5  1  0  0  0  0
  5  6  1  0  0  0  0
  5  7  2  0  0  0  0
  6 59  1  0  0  0  0
  7  8  1  0  0  0  0
  7 61  1  0  0  0  0
  8 62  1  0  0  0  0
  9  8  2  0  0  0  0
 10  9  1  0  0  0  0
 10 11  1  0  0  0  0
 11 41  1  0  0  0  0
 12 11  2  0  0  0  0
 12 13  1  0  0  0  0
 13 16  2  0  0  0  0
 14 13  1  0  0  0  0
 14 64  1  0  0  0  0
 15 14  1  0  0  0  0
 16 40  1  0  0  0  0
 16 17  1  0  0  0  0
 17 18  1  0  0  0  0
 18 68  1  0  0  0  0
 18 19  1  0  0  0  0
 19 38  1  0  0  0  0
 20 19  2  0  0  0  0
 20 22  1  0  0  0  0
 21 71  1  0  0  0  0
 21 20  1  0  0  0  0
 22 72  1  0  0  0  0
 22 23  2  0  0  0  0
 23 73  1  0  0  0  0
 24 23  1  0  0  0  0
 24 25  1  0  0  0  0
 25 26  1  0  0  0  0
 26 37  2  0  0  0  0
 26 27  1  0  0  0  0
 27 36  2  0  0  0  0
 27 28  1  0  0  0  0
 28 29  2  0  0  0  0
 29 32  1  0  0  0  0
 29 30  1  0  0  0  0
 30 31  1  0  0  0  0
 31 76  1  0  0  0  0
 31 78  1  0  0  0  0
 32 79  1  0  0  0  0
 33 34  1  0  0  0  0
 33 32  2  0  0  0  0
 35 82  1  0  0  0  0
 35 80  1  0  0  0  0
 35 34  1  0  0  0  0
 36 33  1  0  0  0  0
 38 24  2  0  0  0  0
 39 17  2  0  0  0  0
 40 85  1  0  0  0  0
 41 40  2  0  0  0  0
 42  9  1  0  0  0  0
 43  2  1  0  0  0  0
 44 43  2  0  0  0  0
 44 88  1  0  0  0  0
 46 45  1  0  0  0  0
 47 53  1  0  0  0  0
 47 48  1  1  0  0  0
 47 46  1  0  0  0  0
 49 47  1  0  0  0  0
 50 49  1  0  0  0  0
 50 52  2  0  0  0  0
 51 50  1  0  0  0  0
 53 54  1  0  0  0  0
 54 55  1  0  0  0  0
 54 96  1  0  0  0  0
 55 97  1  0  0  0  0
 56 53  2  0  0  0  0
 57  3  1  0  0  0  0
 58  6  1  0  0  0  0
 60  6  1  0  0  0  0
 63 10  1  0  0  0  0
 65 15  1  0  0  0  0
 66 15  1  0  0  0  0
 67 15  1  0  0  0  0
 69 21  1  0  0  0  0
 70 21  1  0  0  0  0
 74 25  1  0  0  0  0
 75 28  1  0  0  0  0
 77 31  1  0  0  0  0
 81 35  1  0  0  0  0
 83 36  1  0  0  0  0
 84 38  1  0  0  0  0
 86 42  1  0  0  0  0
 87 43  1  0  0  0  0
 89 44  1  0  0  0  0
 90 46  1  0  0  0  0
 91 46  1  0  0  0  0
 92 49  1  0  0  0  0
 93 51  1  0  0  0  0
 94 51  1  0  0  0  0
 95 51  1  0  0  0  0
 98 55  1  0  0  0  0
 99 55  1  0  0  0  0
M  END
