99
-1 1
O        -4.051223   -0.062852   -5.245937
C        -4.596365    1.029087   -5.336849
N        -4.354737    2.084064   -4.500344
C        -3.496075    2.060877   -3.385234
C        -3.741864    2.955198   -2.317613
C        -4.934601    3.870601   -2.311063
C        -2.850469    2.941856   -1.245163
C        -1.756067    2.082382   -1.167661
C        -1.545997    1.182024   -2.212840
N        -0.495299    0.241668   -2.267565
C         0.493729   -0.083322   -1.406299
N         1.305810   -1.061526   -1.836089
C         2.281431   -1.475093   -1.032728
N         3.105706   -2.433506   -1.483685
C         2.982582   -3.006836   -2.799195
C         2.439266   -0.911166    0.282906
C         3.468846   -1.401301    1.216355
N         3.321024   -1.015946    2.532107
C         4.190519   -1.401720    3.579970
C         5.548785   -1.036727    3.576927
C         6.151675   -0.235007    2.459540
C         6.313827   -1.438124    4.675115
C         5.790805   -2.146923    5.753309
C         4.433700   -2.484313    5.748636
N         3.796883   -3.186091    6.788501
C         4.333128   -3.674675    7.951411
C         3.330330   -4.344350    8.859669
C         3.803178   -5.352695    9.683522
C         2.918181   -6.015345   10.549058
O         3.452076   -6.994732   11.304468
C         2.627137   -7.696356   12.193344
C         1.575439   -5.647811   10.590211
C         1.110256   -4.608562    9.768888
O        -0.198287   -4.310405    9.901448
C        -0.750131   -3.292454    9.111185
C         1.980147   -3.952677    8.898467
O         5.508474   -3.605009    8.245967
C         3.650255   -2.112346    4.651654
O         4.400527   -2.121002    0.872634
C         1.566497    0.138307    0.566943
N         0.607952    0.568075   -0.233192
C        -2.414851    1.178661   -3.309536
C        -5.622364    1.229015   -6.406785
C        -6.513192    2.217146   -6.501968
S        -4.869026    5.199156   -5.513428
C        -4.930711    5.193738   -7.340632
C        -3.574567    5.364957   -8.059441
H        -3.074003    6.241706   -7.612962
N        -3.737044    5.571224   -9.482621
C        -4.135428    6.730062  -10.047988
C        -4.143585    6.729282  -11.571198
O        -4.481086    7.716805   -9.420489
C        -2.644769    4.144593   -7.933442
N        -2.337638    3.781945   -6.679163
C        -1.537380    2.616701   -6.406540
O        -2.215481    3.569184   -8.931566
H        -4.688995    3.027215   -4.797077
H        -4.811009    4.709943   -3.012538
H        -5.100654    4.281527   -1.305375
H        -5.844472    3.336521   -2.624971
H        -3.028341    3.632721   -0.416191
H        -1.084758    2.094720   -0.313729
H        -0.470484   -0.322833   -3.108472
H         3.881046   -2.663986   -0.866012
H         1.982976   -3.440869   -2.952780
H         3.136163   -2.254744   -3.590073
H         3.735414   -3.797803   -2.909644
H         2.403931   -0.694552    2.810917
H         5.471824    0.570690    2.142734
H         6.323279   -0.870740    1.578375
H         7.105047    0.214913    2.768640
H         7.372908   -1.168079    4.697762
H         6.415651   -2.437366    6.593932
H         2.830032   -3.425669    6.614727
H         4.856299   -5.632561    9.663145
H         3.263430   -8.434443   12.696491
H         1.814061   -8.225648   11.666409
H         2.183689   -7.029592   12.953367
H         0.852766   -6.128634   11.247805
H        -1.813212   -3.232032    9.373106
H        -0.661532   -3.517493    8.033945
H        -0.277576   -2.315406    9.312572
H         1.633284   -3.114647    8.294628
H         2.592406   -2.389496    4.616440
H         1.666722    0.691477    1.509978
H        -2.272325    0.466949   -4.120537
H        -5.619074    0.401657   -7.122211
H        -6.527437    3.072297   -5.815971
H        -7.237520    2.223165   -7.321245
H        -5.552350    6.036508   -7.673150
H        -5.397256    4.266254   -7.716394
H        -3.320392    4.827075  -10.037865
H        -5.173453    6.905973  -11.913706
H        -3.771293    5.796147  -12.016486
H        -3.532330    7.571886  -11.924276
H        -2.910203    4.215314   -5.935325
H        -1.129623    2.686668   -5.388836
H        -0.710374    2.557951   -7.128259
H        -2.115065    1.678681   -6.482130
