62
-1 1
O         6.745525    5.601000   -9.044642
C         5.784112    5.257739   -8.322220
N         4.647409    4.655568   -8.945039
C         4.467475    4.917837  -10.359258
C         5.230682    3.967612  -11.297353
H         6.300681    4.194839  -11.163108
C         4.980630    2.511891  -10.888242
C         5.200966    2.295319   -9.390965
H         4.937412    1.266414   -9.115404
C         4.333079    3.281813   -8.589066
N         6.598584    2.508759   -9.036833
C         7.226534    1.831821   -8.052359
N         6.835426    0.591361   -7.725853
C         7.527366   -0.073833   -6.796112
N         8.584344    0.329990   -6.106645
C         8.322536    2.410939   -7.363180
C         8.938146    1.588875   -6.410807
N         9.936144    2.315225   -5.828304
H        10.521256    1.976004   -5.079777
C         9.946978    3.588740   -6.375940
C         8.968234    3.691675   -7.327086
C         4.865520    4.219201  -12.755315
C         5.744345    5.459123   -6.919283
C         4.642699    5.220097   -6.076366
S         4.739210    3.358739   -4.890624
C         3.334915    2.260009   -5.292993
C         3.729418    0.854180   -5.802082
H         4.398484    0.965129   -6.672772
N         2.566496    0.078365   -6.173084
C         1.910790    0.184949   -7.346504
C         0.801718   -0.833785   -7.558560
O         2.161569    1.021978   -8.198362
C         4.462720   -0.003389   -4.752262
N         5.676990    0.441696   -4.395929
C         6.511854   -0.219105   -3.427304
O         3.953352   -1.030947   -4.312494
H         4.770953    5.954144  -10.565244
H         3.384377    4.830758  -10.580717
H         5.626422    1.831301  -11.468157
H         3.933146    2.242463  -11.115506
H         4.528943    3.126148   -7.521553
H         3.269872    3.062658   -8.772762
H         6.925589    3.466953   -9.164090
H         7.163787   -1.084593   -6.573517
H        10.654387    4.334832   -6.021451
H         8.688262    4.575829   -7.901906
H         5.080163    5.259667  -13.047884
H         3.791082    4.035942  -12.930321
H         5.430030    3.555393  -13.429786
H         6.672466    5.840031   -6.486799
H         3.666789    5.063311   -6.551020
H         4.580642    5.816805   -5.162928
H         2.736925    2.727629   -6.090915
H         2.678419    2.142097   -4.415781
H         2.411406   -0.713375   -5.552160
H         0.606768   -1.463912   -6.679891
H         1.076339   -1.474792   -8.408877
H        -0.116170   -0.296889   -7.835079
H         5.940910    1.371084   -4.732390
H         6.120756   -1.231342   -3.263391
H         6.514386    0.315235   -2.462309
H         7.541676   -0.276603   -3.811328
