62
-1 1
O         1.064733    3.855387   -1.992344
C         0.457140    3.173915   -1.171844
N        -0.705533    2.518395   -1.496040
C        -1.218810    2.703248   -2.843456
C        -0.692081    1.634704   -3.810841
H         0.395923    1.805540   -3.904773
C        -0.931836    0.235281   -3.228680
C        -0.462965    0.109685   -1.780326
H        -0.778043   -0.858549   -1.377995
C        -1.084243    1.227961   -0.926658
N         0.990648    0.158742   -1.685510
C         1.668505   -0.430520   -0.666530
N         1.106827   -1.445588   -0.009724
C         1.782918   -2.037137    0.982470
N         2.991730   -1.733755    1.432383
C         2.966977    0.000695   -0.293845
C         3.541607   -0.707633    0.772649
N         4.760130   -0.144751    1.030065
H         5.376369   -0.449430    1.769142
C         4.966130    0.910394    0.163320
C         3.887392    1.036027   -0.671452
C        -1.311351    1.787591   -5.195088
C         0.981810    3.088988    0.224277
C         0.249854    3.072211    1.339929
S        -2.345629    1.106108    2.774929
C        -3.085556   -0.407203    2.052505
C        -2.071299   -1.373385    1.407926
H        -1.403433   -0.783995    0.763504
N        -2.698709   -2.411619    0.614494
C        -3.205365   -2.229032   -0.617384
C        -3.648071   -3.498440   -1.328491
O        -3.310249   -1.140113   -1.168829
C        -1.160175   -2.109578    2.400756
N        -0.496846   -1.316673    3.249459
C         0.405493   -1.829286    4.245032
O        -1.045936   -3.337663    2.368617
H        -0.936518    3.704727   -3.191731
H        -2.320398    2.641447   -2.794148
H        -0.435935   -0.528115   -3.850843
H        -2.012007    0.011278   -3.231412
H        -0.766072    1.147520    0.118088
H        -2.178498    1.122221   -0.927664
H         1.439273    0.973301   -2.085846
H         1.259864   -2.864205    1.476205
H         5.877020    1.502090    0.215466
H         3.760877    1.794262   -1.441825
H        -1.111408    2.785066   -5.617403
H        -2.404753    1.651394   -5.149593
H        -0.911648    1.036207   -5.893990
H         2.072034    3.168524    0.271172
H        -0.841976    2.995438    1.348373
H         0.734047    3.098309    2.319479
H        -3.782083   -0.123100    1.250146
H        -3.666960   -0.965611    2.807287
H        -2.474907   -3.346856    0.949781
H        -3.681263   -4.379312   -0.672648
H        -2.951041   -3.695148   -2.156719
H        -4.641251   -3.326521   -1.765066
H        -0.801069   -0.319196    3.259394
H         0.183426   -2.889396    4.432060
H         0.286801   -1.263943    5.181335
H         1.457963   -1.752526    3.919324
