-1 1
 OpenBabel05232414493D

 62 64  0  0  1  0  0  0  0  0999 V2000
    6.7455    5.6010   -9.0446 O   0  0  0  0  0  0  0  0  0  0  0  0
    5.7841    5.2577   -8.3222 C   0  0  0  0  0  0  0  0  0  0  0  0
    4.6474    4.6556   -8.9450 N   0  0  0  0  0  0  0  0  0  0  0  0
    4.4675    4.9178  -10.3593 C   0  0  0  0  0  0  0  0  0  0  0  0
    5.2307    3.9676  -11.2974 C   0  0  1  0  0  0  0  0  0  0  0  0
    6.3007    4.1948  -11.1631 H   0  0  0  0  0  0  0  0  0  0  0  0
    4.9806    2.5119  -10.8882 C   0  0  0  0  0  0  0  0  0  0  0  0
    5.2010    2.2953   -9.3910 C   0  0  2  0  0  0  0  0  0  0  0  0
    4.9374    1.2664   -9.1154 H   0  0  0  0  0  0  0  0  0  0  0  0
    4.3331    3.2818   -8.5891 C   0  0  0  0  0  0  0  0  0  0  0  0
    6.5986    2.5088   -9.0368 N   0  0  0  0  0  0  0  0  0  0  0  0
    7.2265    1.8318   -8.0524 C   0  0  1  0  0  3  0  0  0  0  0  0
    6.8354    0.5914   -7.7259 N   0  0  0  0  0  0  0  0  0  0  0  0
    7.5274   -0.0738   -6.7961 C   0  0  0  0  0  0  0  0  0  0  0  0
    8.5843    0.3300   -6.1066 N   0  0  0  0  0  2  0  0  0  0  0  0
    8.3225    2.4109   -7.3632 C   0  0  0  0  0  0  0  0  0  0  0  0
    8.9381    1.5889   -6.4108 C   0  0  0  0  0  0  0  0  0  0  0  0
    9.9361    2.3152   -5.8283 N   0  0  0  0  0  0  0  0  0  0  0  0
   10.5213    1.9760   -5.0798 H   0  0  0  0  0  0  0  0  0  0  0  0
    9.9470    3.5887   -6.3759 C   0  0  0  0  0  0  0  0  0  0  0  0
    8.9682    3.6917   -7.3271 C   0  0  0  0  0  0  0  0  0  0  0  0
    4.8655    4.2192  -12.7553 C   0  0  0  0  0  0  0  0  0  0  0  0
    5.7443    5.4591   -6.9193 C   0  0  0  0  0  3  0  0  0  0  0  0
    4.6427    5.2201   -6.0764 C   0  0  0  0  0  0  0  0  0  0  0  0
    4.7392    3.3587   -4.8906 S   0  0  0  0  0  0  0  0  0  0  0  0
    3.3349    2.2600   -5.2930 C   0  0  0  0  0  0  0  0  0  0  0  0
    3.7294    0.8542   -5.8021 C   0  0  2  0  0  0  0  0  0  0  0  0
    4.3985    0.9651   -6.6728 H   0  0  0  0  0  0  0  0  0  0  0  0
    2.5665    0.0784   -6.1731 N   0  0  0  0  0  0  0  0  0  0  0  0
    1.9108    0.1849   -7.3465 C   0  0  0  0  0  0  0  0  0  0  0  0
    0.8017   -0.8338   -7.5586 C   0  0  0  0  0  0  0  0  0  0  0  0
    2.1616    1.0220   -8.1984 O   0  0  0  0  0  0  0  0  0  0  0  0
    4.4627   -0.0034   -4.7523 C   0  0  0  0  0  0  0  0  0  0  0  0
    5.6770    0.4417   -4.3959 N   0  0  0  0  0  0  0  0  0  0  0  0
    6.5119   -0.2191   -3.4273 C   0  0  0  0  0  0  0  0  0  0  0  0
    3.9534   -1.0309   -4.3125 O   0  0  0  0  0  0  0  0  0  0  0  0
    4.7710    5.9541  -10.5652 H   0  0  0  0  0  0  0  0  0  0  0  0
    3.3844    4.8308  -10.5807 H   0  0  0  0  0  0  0  0  0  0  0  0
    5.6264    1.8313  -11.4682 H   0  0  0  0  0  0  0  0  0  0  0  0
    3.9331    2.2425  -11.1155 H   0  0  0  0  0  0  0  0  0  0  0  0
    4.5289    3.1261   -7.5216 H   0  0  0  0  0  0  0  0  0  0  0  0
    3.2699    3.0627   -8.7728 H   0  0  0  0  0  0  0  0  0  0  0  0
    6.9256    3.4670   -9.1641 H   0  0  0  0  0  0  0  0  0  0  0  0
    7.1638   -1.0846   -6.5735 H   0  0  0  0  0  0  0  0  0  0  0  0
   10.6544    4.3348   -6.0215 H   0  0  0  0  0  0  0  0  0  0  0  0
    8.6883    4.5758   -7.9019 H   0  0  0  0  0  0  0  0  0  0  0  0
    5.0802    5.2597  -13.0479 H   0  0  0  0  0  0  0  0  0  0  0  0
    3.7911    4.0359  -12.9303 H   0  0  0  0  0  0  0  0  0  0  0  0
    5.4300    3.5554  -13.4298 H   0  0  0  0  0  0  0  0  0  0  0  0
    6.6725    5.8400   -6.4868 H   0  0  0  0  0  0  0  0  0  0  0  0
    3.6668    5.0633   -6.5510 H   0  0  0  0  0  0  0  0  0  0  0  0
    4.5806    5.8168   -5.1629 H   0  0  0  0  0  0  0  0  0  0  0  0
    2.7369    2.7276   -6.0909 H   0  0  0  0  0  0  0  0  0  0  0  0
    2.6784    2.1421   -4.4158 H   0  0  0  0  0  0  0  0  0  0  0  0
    2.4114   -0.7134   -5.5522 H   0  0  0  0  0  0  0  0  0  0  0  0
    0.6068   -1.4639   -6.6799 H   0  0  0  0  0  0  0  0  0  0  0  0
    1.0763   -1.4748   -8.4089 H   0  0  0  0  0  0  0  0  0  0  0  0
   -0.1162   -0.2969   -7.8351 H   0  0  0  0  0  0  0  0  0  0  0  0
    5.9409    1.3711   -4.7324 H   0  0  0  0  0  0  0  0  0  0  0  0
    6.1208   -1.2313   -3.2634 H   0  0  0  0  0  0  0  0  0  0  0  0
    6.5144    0.3152   -2.4623 H   0  0  0  0  0  0  0  0  0  0  0  0
    7.5417   -0.2766   -3.8113 H   0  0  0  0  0  0  0  0  0  0  0  0
  1  2  2  0  0  0  0
  2 23  1  0  0  0  0
  3 10  1  0  0  0  0
  3  2  1  0  0  0  0
  4  3  1  0  0  0  0
  5  6  1  1  0  0  0
  5  7  1  0  0  0  0
  5  4  1  0  0  0  0
  7  8  1  0  0  0  0
  8  9  1  1  0  0  0
  8 11  1  0  0  0  0
  8 10  1  0  0  0  0
 10 41  1  0  0  0  0
 12 11  1  6  0  0  0
 12 13  1  0  0  0  0
 12 16  1  0  0  0  0
 13 14  2  0  0  0  0
 14 44  1  0  0  0  0
 14 15  1  0  0  0  0
 16 21  1  0  0  0  0
 16 17  2  0  0  0  0
 17 15  1  0  0  0  0
 17 18  1  0  0  0  0
 18 19  1  0  0  0  0
 20 45  1  0  0  0  0
 20 18  1  0  0  0  0
 21 20  2  0  0  0  0
 22  5  1  0  0  0  0
 23 50  1  0  0  0  0
 23 24  1  0  0  0  0
 24 52  1  0  0  0  0
 24 25  1  0  0  0  0
 26 25  1  0  0  0  0
 26 54  1  0  0  0  0
 27 28  1  6  0  0  0
 27 26  1  0  0  0  0
 27 33  1  0  0  0  0
 29 27  1  0  0  0  0
 29 55  1  0  0  0  0
 30 29  1  0  0  0  0
 31 30  1  0  0  0  0
 31 56  1  0  0  0  0
 32 30  2  0  0  0  0
 33 34  1  0  0  0  0
 33 36  2  0  0  0  0
 34 35  1  0  0  0  0
 35 60  1  0  0  0  0
 35 61  1  0  0  0  0
 37  4  1  0  0  0  0
 38  4  1  0  0  0  0
 39  7  1  0  0  0  0
 40  7  1  0  0  0  0
 42 10  1  0  0  0  0
 43 11  1  0  0  0  0
 46 21  1  0  0  0  0
 47 22  1  0  0  0  0
 48 22  1  0  0  0  0
 49 22  1  0  0  0  0
 51 24  1  0  0  0  0
 53 26  1  0  0  0  0
 57 31  1  0  0  0  0
 58 31  1  0  0  0  0
 59 34  1  0  0  0  0
 62 35  1  0  0  0  0
M  END
