-1 1
 OpenBabel05232414493D

 63 65  0  0  1  0  0  0  0  0999 V2000
    4.2584    2.5468   -8.4689 O   0  0  0  0  0  0  0  0  0  0  0  0
    3.6981    1.7489   -9.2262 C   0  0  0  0  0  0  0  0  0  0  0  0
    4.2257    0.4419   -9.3508 N   0  0  0  0  0  0  0  0  0  0  0  0
    4.3539   -0.1658  -10.6688 C   0  0  0  0  0  0  0  0  0  0  0  0
    5.0205   -1.5411  -10.5656 C   0  0  0  0  0  0  0  0  0  0  0  0
    4.6068   -2.2505   -9.2781 C   0  0  1  0  0  0  0  0  0  0  0  0
    3.5122   -2.3571   -9.2772 H   0  0  0  0  0  0  0  0  0  0  0  0
    5.2930   -3.6046   -9.0816 C   0  0  0  0  0  0  0  0  0  0  0  0
    6.6197   -3.2518   -8.4122 C   0  0  0  0  0  0  0  0  0  0  0  0
    6.2861   -2.0898   -7.6086 N   0  0  1  0  0  0  0  0  0  0  0  0
    5.0532   -1.4212   -8.0494 C   0  0  1  0  0  0  0  0  0  0  0  0
    4.3042   -1.4794   -7.2435 H   0  0  0  0  0  0  0  0  0  0  0  0
    5.2593    0.0565   -8.4188 C   0  0  0  0  0  0  0  0  0  0  0  0
    6.9372   -1.7343   -6.4793 C   0  0  1  0  0  3  0  0  0  0  0  0
    6.3474   -0.8283   -5.6865 N   0  0  0  0  0  0  0  0  0  0  0  0
    6.9380   -0.4630   -4.5498 C   0  0  0  0  0  0  0  0  0  0  0  0
    8.0895   -0.8898   -4.0553 N   0  0  0  0  0  2  0  0  0  0  0  0
    8.2012   -2.2694   -6.0871 C   0  0  0  0  0  0  0  0  0  0  0  0
    8.6839   -1.7798   -4.8567 C   0  0  0  0  0  0  0  0  0  0  0  0
    9.9010   -2.3529   -4.6256 N   0  0  0  0  0  0  0  0  0  0  0  0
   10.4678   -2.1540   -3.8142 H   0  0  0  0  0  0  0  0  0  0  0  0
   10.2236   -3.1801   -5.6801 C   0  0  0  0  0  0  0  0  0  0  0  0
    9.2116   -3.1596   -6.6008 C   0  0  0  0  0  0  0  0  0  0  0  0
    2.5164    2.0955   -9.9751 C   0  0  0  0  0  3  0  0  0  0  0  0
    1.5510    1.2057  -10.4735 C   0  0  0  0  0  3  0  0  0  0  0  0
    1.3201    0.7385  -12.6995 S   0  0  0  0  0  1  0  0  0  0  0  0
    2.8543    0.8275  -13.6862 C   0  0  0  0  0  0  0  0  0  0  0  0
    3.4118    2.2326  -13.9225 C   0  0  2  0  0  0  0  0  0  0  0  0
    4.3046    2.1578  -14.5635 H   0  0  0  0  0  0  0  0  0  0  0  0
    3.8083    2.8607  -12.6836 N   0  0  0  0  0  0  0  0  0  0  0  0
    4.8093    3.7850  -12.6503 C   0  0  0  0  0  0  0  0  0  0  0  0
    5.0750    4.4090  -11.2946 C   0  0  0  0  0  0  0  0  0  0  0  0
    5.4224    4.1249  -13.6491 O   0  0  0  0  0  0  0  0  0  0  0  0
    2.4158    3.0524  -14.7558 C   0  0  0  0  0  0  0  0  0  0  0  0
    1.8076    4.0714  -14.1009 N   0  0  0  0  0  0  0  0  0  0  0  0
    0.7404    4.8336  -14.6856 C   0  0  0  0  0  0  0  0  0  0  0  0
    2.2039    2.7730  -15.9231 O   0  0  0  0  0  0  0  0  0  0  0  0
    4.9453    0.4813  -11.3471 H   0  0  0  0  0  0  0  0  0  0  0  0
    3.3662   -0.2821  -11.1331 H   0  0  0  0  0  0  0  0  0  0  0  0
    6.1191   -1.4414  -10.5896 H   0  0  0  0  0  0  0  0  0  0  0  0
    4.7435   -2.1460  -11.4428 H   0  0  0  0  0  0  0  0  0  0  0  0
    5.4287   -4.1573  -10.0228 H   0  0  0  0  0  0  0  0  0  0  0  0
    4.6987   -4.2357   -8.4023 H   0  0  0  0  0  0  0  0  0  0  0  0
    7.4036   -3.0212   -9.1579 H   0  0  0  0  0  0  0  0  0  0  0  0
    6.9925   -4.0692   -7.7778 H   0  0  0  0  0  0  0  0  0  0  0  0
    6.2781    0.1921   -8.8369 H   0  0  0  0  0  0  0  0  0  0  0  0
    5.1993    0.6983   -7.5359 H   0  0  0  0  0  0  0  0  0  0  0  0
    6.3962    0.2820   -3.9552 H   0  0  0  0  0  0  0  0  0  0  0  0
   11.1647   -3.7244   -5.6949 H   0  0  0  0  0  0  0  0  0  0  0  0
    9.2106   -3.7084   -7.5375 H   0  0  0  0  0  0  0  0  0  0  0  0
    2.2630    3.1575   -9.9063 H   0  0  0  0  0  0  0  0  0  0  0  0
    0.5218    1.5707  -10.5179 H   0  0  0  0  0  0  0  0  0  0  0  0
    1.6175    0.1574  -10.1744 H   0  0  0  0  0  0  0  0  0  0  0  0
    2.6155    0.3991  -14.6707 H   0  0  0  0  0  0  0  0  0  0  0  0
    3.6498    0.2076  -13.2472 H   0  0  0  0  0  0  0  0  0  0  0  0
    3.3695    2.5584  -11.8039 H   0  0  0  0  0  0  0  0  0  0  0  0
    6.1135    4.7628  -11.2760 H   0  0  0  0  0  0  0  0  0  0  0  0
    4.8859    3.7438  -10.4400 H   0  0  0  0  0  0  0  0  0  0  0  0
    4.4191    5.2873  -11.1821 H   0  0  0  0  0  0  0  0  0  0  0  0
    1.9773    4.1237  -13.1049 H   0  0  0  0  0  0  0  0  0  0  0  0
    0.8875    5.9139  -14.5270 H   0  0  0  0  0  0  0  0  0  0  0  0
   -0.2424    4.5459  -14.2748 H   0  0  0  0  0  0  0  0  0  0  0  0
    0.7368    4.6274  -15.7639 H   0  0  0  0  0  0  0  0  0  0  0  0
  2  1  2  0  0  0  0
  3  2  1  0  0  0  0
  3 13  1  0  0  0  0
  4  5  1  0  0  0  0
  4  3  1  0  0  0  0
  5  6  1  0  0  0  0
  6  7  1  1  0  0  0
  6  8  1  0  0  0  0
  6 11  1  0  0  0  0
  8  9  1  0  0  0  0
  8 43  1  0  0  0  0
  9 45  1  0  0  0  0
 10  9  1  1  0  0  0
 10 14  1  0  0  0  0
 11 10  1  0  0  0  0
 11 12  1  1  0  0  0
 13 11  1  0  0  0  0
 13 47  1  0  0  0  0
 14 18  1  1  0  0  0
 14 15  1  0  0  0  0
 15 16  2  0  0  0  0
 16 17  1  0  0  0  0
 16 48  1  0  0  0  0
 18 19  2  0  0  0  0
 19 20  1  0  0  0  0
 19 17  1  0  0  0  0
 20 21  1  0  0  0  0
 22 20  1  0  0  0  0
 23 18  1  0  0  0  0
 23 22  2  0  0  0  0
 24 51  1  0  0  0  0
 24  2  1  0  0  0  0
 25 53  1  0  0  0  0
 25 24  1  0  0  0  0
 27 55  1  0  0  0  0
 27 26  1  0  0  0  0
 28 29  1  6  0  0  0
 28 27  1  0  0  0  0
 28 30  1  0  0  0  0
 30 31  1  0  0  0  0
 30 56  1  0  0  0  0
 31 32  1  0  0  0  0
 32 57  1  0  0  0  0
 32 59  1  0  0  0  0
 32 58  1  0  0  0  0
 33 31  2  0  0  0  0
 34 35  1  0  0  0  0
 34 28  1  0  0  0  0
 35 60  1  0  0  0  0
 36 61  1  0  0  0  0
 36 62  1  0  0  0  0
 36 35  1  0  0  0  0
 37 34  2  0  0  0  0
 38  4  1  0  0  0  0
 39  4  1  0  0  0  0
 40  5  1  0  0  0  0
 41  5  1  0  0  0  0
 42  8  1  0  0  0  0
 44  9  1  0  0  0  0
 46 13  1  0  0  0  0
 49 22  1  0  0  0  0
 50 23  1  0  0  0  0
 52 25  1  0  0  0  0
 54 27  1  0  0  0  0
 63 36  1  0  0  0  0
M  END
