-1 1
 OpenBabel05192410563D

 63 66  0  0  1  0  0  0  0  0999 V2000
   -0.6827    2.0056    1.1219 O   0  0  0  0  0  0  0  0  0  0  0  0
   -1.2878    1.1914    0.4034 C   0  0  0  0  0  0  0  0  0  0  0  0
   -0.7414   -0.1466    0.3296 N   0  0  0  0  0  0  0  0  0  0  0  0
   -0.4920   -0.7147   -0.9874 C   0  0  0  0  0  0  0  0  0  0  0  0
    0.4136   -1.9452   -0.8973 C   0  0  0  0  0  0  0  0  0  0  0  0
    0.0579   -2.7880    0.3246 C   0  0  1  0  0  0  0  0  0  0  0  0
   -0.9928   -3.1016    0.2327 H   0  0  0  0  0  0  0  0  0  0  0  0
    0.9752   -3.9988    0.5212 C   0  0  0  0  0  0  0  0  0  0  0  0
    2.1366   -3.4526    1.3488 C   0  0  0  0  0  0  0  0  0  0  0  0
    1.5013   -2.4520    2.1838 N   0  0  1  0  0  0  0  0  0  0  0  0
    0.2410   -1.9501    1.6152 C   0  0  1  0  0  0  0  0  0  0  0  0
   -0.5752   -2.1385    2.3293 H   0  0  0  0  0  0  0  0  0  0  0  0
    0.2819   -0.4476    1.3036 C   0  0  0  0  0  0  0  0  0  0  0  0
    1.9442   -2.0822    3.4048 C   0  0  1  0  0  3  0  0  0  0  0  0
    1.1118   -1.3630    4.1715 N   0  0  0  0  0  0  0  0  0  0  0  0
    1.4907   -0.9998    5.3952 C   0  0  0  0  0  0  0  0  0  0  0  0
    2.6360   -1.2610    6.0066 N   0  0  0  0  0  2  0  0  0  0  0  0
    3.2325   -2.4183    3.9211 C   0  0  0  0  0  0  0  0  0  0  0  0
    3.4720   -1.9605    5.2324 C   0  0  0  0  0  0  0  0  0  0  0  0
    4.7399   -2.3282    5.5804 N   0  0  0  0  0  0  0  0  0  0  0  0
    5.1636   -2.1016    6.4682 H   0  0  0  0  0  0  0  0  0  0  0  0
    5.3297   -2.9891    4.5242 C   0  0  0  0  0  0  0  0  0  0  0  0
    4.4435   -3.0668    3.4845 C   0  0  0  0  0  0  0  0  0  0  0  0
   -2.4195    1.5064   -0.3828 C   0  0  0  0  0  3  0  0  0  0  0  0
   -3.4637    0.5488   -0.8298 C   0  0  0  0  0  0  0  0  0  0  0  0
   -4.1636    0.7466   -2.5558 S   0  0  0  0  0  0  0  0  0  0  0  0
   -2.7685    0.5356   -3.7120 C   0  0  0  0  0  0  0  0  0  0  0  0
   -1.9468    1.7885   -4.0398 C   0  0  2  0  0  0  0  0  0  0  0  0
   -1.2607    1.5458   -4.8683 H   0  0  0  0  0  0  0  0  0  0  0  0
   -1.1471    2.2204   -2.9239 N   0  0  0  0  0  0  0  0  0  0  0  0
    0.1307    2.6515   -3.0944 C   0  0  0  0  0  0  0  0  0  0  0  0
    0.8909    2.9343   -1.8124 C   0  0  0  0  0  0  0  0  0  0  0  0
    0.6470    2.8001   -4.1928 O   0  0  0  0  0  0  0  0  0  0  0  0
   -2.8794    2.8674   -4.6114 C   0  0  0  0  0  0  0  0  0  0  0  0
   -2.9255    4.0179   -3.9025 N   0  0  0  0  0  0  0  0  0  0  0  0
   -3.8105    5.0998   -4.2305 C   0  0  0  0  0  0  0  0  0  0  0  0
   -3.5213    2.6631   -5.6287 O   0  0  0  0  0  0  0  0  0  0  0  0
   -0.0424    0.0256   -1.6775 H   0  0  0  0  0  0  0  0  0  0  0  0
   -1.4401   -1.0269   -1.4521 H   0  0  0  0  0  0  0  0  0  0  0  0
    1.4726   -1.6422   -0.8405 H   0  0  0  0  0  0  0  0  0  0  0  0
    0.3114   -2.5415   -1.8180 H   0  0  0  0  0  0  0  0  0  0  0  0
    1.3064   -4.4444   -0.4286 H   0  0  0  0  0  0  0  0  0  0  0  0
    0.4559   -4.7805    1.0976 H   0  0  0  0  0  0  0  0  0  0  0  0
    2.9223   -3.0115    0.7061 H   0  0  0  0  0  0  0  0  0  0  0  0
    2.6067   -4.2323    1.9649 H   0  0  0  0  0  0  0  0  0  0  0  0
    1.3041   -0.1709    0.9673 H   0  0  0  0  0  0  0  0  0  0  0  0
    0.0945    0.1436    2.2040 H   0  0  0  0  0  0  0  0  0  0  0  0
    0.7570   -0.4138    5.9614 H   0  0  0  0  0  0  0  0  0  0  0  0
    6.3515   -3.3541    4.5946 H   0  0  0  0  0  0  0  0  0  0  0  0
    4.6525   -3.5211    2.5208 H   0  0  0  0  0  0  0  0  0  0  0  0
   -2.7672    2.5314   -0.2081 H   0  0  0  0  0  0  0  0  0  0  0  0
   -4.4123    0.6486   -0.2676 H   0  0  0  0  0  0  0  0  0  0  0  0
   -3.1580   -0.4997   -0.7105 H   0  0  0  0  0  0  0  0  0  0  0  0
   -3.2338    0.1879   -4.6444 H   0  0  0  0  0  0  0  0  0  0  0  0
   -2.1012   -0.2588   -3.3501 H   0  0  0  0  0  0  0  0  0  0  0  0
   -1.5066    1.9974   -1.9576 H   0  0  0  0  0  0  0  0  0  0  0  0
    1.7527    2.2507   -1.7726 H   0  0  0  0  0  0  0  0  0  0  0  0
    0.3038    2.8142   -0.8900 H   0  0  0  0  0  0  0  0  0  0  0  0
    1.2966    3.9550   -1.8684 H   0  0  0  0  0  0  0  0  0  0  0  0
   -2.3957    4.0295   -3.0393 H   0  0  0  0  0  0  0  0  0  0  0  0
   -3.2655    6.0537   -4.3174 H   0  0  0  0  0  0  0  0  0  0  0  0
   -4.6068    5.2172   -3.4768 H   0  0  0  0  0  0  0  0  0  0  0  0
   -4.2771    4.8664   -5.1966 H   0  0  0  0  0  0  0  0  0  0  0  0
  2  1  2  0  0  0  0
  3  2  1  0  0  0  0
  3 13  1  0  0  0  0
  4  5  1  0  0  0  0
  4  3  1  0  0  0  0
  5 40  1  0  0  0  0
  5  6  1  0  0  0  0
  6  7  1  6  0  0  0
  6  8  1  0  0  0  0
  6 11  1  0  0  0  0
  8 43  1  0  0  0  0
  8  9  1  0  0  0  0
  9 45  1  0  0  0  0
 10  9  1  1  0  0  0
 10 14  1  0  0  0  0
 11 10  1  0  0  0  0
 11 12  1  1  0  0  0
 13 11  1  0  0  0  0
 13 47  1  0  0  0  0
 14 18  1  1  0  0  0
 14 15  1  0  0  0  0
 15 16  2  0  0  0  0
 16 48  1  0  0  0  0
 16 17  1  0  0  0  0
 18 19  2  0  0  0  0
 19 20  1  0  0  0  0
 19 17  1  0  0  0  0
 20 21  1  0  0  0  0
 22 49  1  0  0  0  0
 22 20  1  0  0  0  0
 23 18  1  0  0  0  0
 23 22  2  0  0  0  0
 24 51  1  0  0  0  0
 24  2  1  0  0  0  0
 25 53  1  0  0  0  0
 25 24  1  0  0  0  0
 25 52  1  0  0  0  0
 26 25  1  0  0  0  0
 27 55  1  0  0  0  0
 27 26  1  0  0  0  0
 28 29  1  6  0  0  0
 28 27  1  0  0  0  0
 28 30  1  0  0  0  0
 30 56  1  0  0  0  0
 31 30  1  0  0  0  0
 31 32  1  0  0  0  0
 32 57  1  0  0  0  0
 32 58  1  0  0  0  0
 33 31  2  0  0  0  0
 34 28  1  0  0  0  0
 34 35  1  0  0  0  0
 35 60  1  0  0  0  0
 36 35  1  0  0  0  0
 36 62  1  0  0  0  0
 37 34  2  0  0  0  0
 38  4  1  0  0  0  0
 39  4  1  0  0  0  0
 41  5  1  0  0  0  0
 42  8  1  0  0  0  0
 44  9  1  0  0  0  0
 46 13  1  0  0  0  0
 50 23  1  0  0  0  0
 54 27  1  0  0  0  0
 59 32  1  0  0  0  0
 61 36  1  0  0  0  0
 63 36  1  0  0  0  0
M  END
