-1 1
 OpenBabel05232413483D

 63 65  0  0  1  0  0  0  0  0999 V2000
   -1.0312    2.0508    3.5909 O   0  0  0  0  0  0  0  0  0  0  0  0
   -0.9548    2.1338    2.3745 C   0  0  0  0  0  0  0  0  0  0  0  0
   -0.1734    1.3059    1.6197 N   0  0  0  0  0  0  0  0  0  0  0  0
    0.1591    1.5609    0.2154 C   0  0  0  0  0  0  0  0  0  0  0  0
    0.9313    0.3855   -0.3710 C   0  0  0  0  0  0  0  0  0  0  0  0
    0.2341   -0.9131    0.0284 C   0  0  1  0  0  0  0  0  0  0  0  0
   -0.8195   -0.8377   -0.2892 H   0  0  0  0  0  0  0  0  0  0  0  0
    0.8950   -2.1724   -0.5299 C   0  0  0  0  0  0  0  0  0  0  0  0
    1.9796   -2.5111    0.4900 C   0  0  0  0  0  0  0  0  0  0  0  0
    1.4156   -2.0461    1.7475 N   0  0  1  0  0  0  0  0  0  0  0  0
    0.3048   -1.1006    1.5600 C   0  0  1  0  0  0  0  0  0  0  0  0
   -0.6244   -1.5502    1.9438 H   0  0  0  0  0  0  0  0  0  0  0  0
    0.5450    0.2348    2.2838 C   0  0  0  0  0  0  0  0  0  0  0  0
    1.7543   -2.5364    2.9587 C   0  0  2  0  0  3  0  0  0  0  0  0
    0.9732   -2.2078    3.9990 N   0  0  0  0  0  0  0  0  0  0  0  0
    1.2519   -2.6855    5.2107 C   0  0  0  0  0  0  0  0  0  0  0  0
    2.2464   -3.4844    5.5638 N   0  0  0  0  0  2  0  0  0  0  0  0
    2.8856   -3.3765    3.1915 C   0  0  0  0  0  0  0  0  0  0  0  0
    3.0351   -3.7950    4.5291 C   0  0  0  0  0  0  0  0  0  0  0  0
    4.1592   -4.5652    4.6049 N   0  0  0  0  0  0  0  0  0  0  0  0
    4.4943   -4.9827    5.4607 H   0  0  0  0  0  0  0  0  0  0  0  0
    4.7464   -4.6395    3.3598 C   0  0  0  0  0  0  0  0  0  0  0  0
    4.0017   -3.9242    2.4622 C   0  0  0  0  0  0  0  0  0  0  0  0
   -1.7622    3.2031    1.6933 C   0  0  0  0  0  0  0  0  0  0  0  0
   -2.6359    3.0191    0.7016 C   0  0  0  0  0  0  0  0  0  0  0  0
   -2.9647    0.0386   -1.6647 S   0  0  0  0  0  1  0  0  0  0  0  0
   -1.7099   -0.2937   -2.9628 C   0  0  0  0  0  0  0  0  0  0  0  0
   -1.3891    0.9035   -3.8817 C   0  0  2  0  0  0  0  0  0  0  0  0
   -0.4462    0.7342   -4.4187 H   0  0  0  0  0  0  0  0  0  0  0  0
   -1.2153    2.1121   -3.1018 N   0  0  0  0  0  0  0  0  0  0  0  0
   -0.0722    2.8381   -3.0667 C   0  0  0  0  0  0  0  0  0  0  0  0
   -0.1348    4.0671   -2.1737 C   0  0  0  0  0  0  0  0  0  0  0  0
    0.9252    2.5791   -3.7199 O   0  0  0  0  0  0  0  0  0  0  0  0
   -2.4397    1.1345   -4.9835 C   0  0  0  0  0  0  0  0  0  0  0  0
   -3.7211    1.1485   -4.5428 N   0  0  0  0  0  0  0  0  0  0  0  0
   -4.8368    1.3291   -5.4287 C   0  0  0  0  0  0  0  0  0  0  0  0
   -2.1186    1.3083   -6.1491 O   0  0  0  0  0  0  0  0  0  0  0  0
    0.7375    2.4963    0.1189 H   0  0  0  0  0  0  0  0  0  0  0  0
   -0.7600    1.6617   -0.3727 H   0  0  0  0  0  0  0  0  0  0  0  0
    1.9831    0.3879   -0.0354 H   0  0  0  0  0  0  0  0  0  0  0  0
    0.9511    0.5008   -1.4650 H   0  0  0  0  0  0  0  0  0  0  0  0
    1.2969   -2.0283   -1.5431 H   0  0  0  0  0  0  0  0  0  0  0  0
    0.1591   -2.9896   -0.5749 H   0  0  0  0  0  0  0  0  0  0  0  0
    2.9317   -1.9965    0.2611 H   0  0  0  0  0  0  0  0  0  0  0  0
    2.1845   -3.5906    0.5349 H   0  0  0  0  0  0  0  0  0  0  0  0
    1.6297    0.4468    2.2993 H   0  0  0  0  0  0  0  0  0  0  0  0
    0.2066    0.1868    3.3220 H   0  0  0  0  0  0  0  0  0  0  0  0
    0.5668   -2.3748    6.0086 H   0  0  0  0  0  0  0  0  0  0  0  0
    5.6639   -5.2028    3.2079 H   0  0  0  0  0  0  0  0  0  0  0  0
    4.2418   -3.8022    1.4106 H   0  0  0  0  0  0  0  0  0  0  0  0
   -1.7047    4.1666    2.2108 H   0  0  0  0  0  0  0  0  0  0  0  0
   -3.2758    3.8447    0.3756 H   0  0  0  0  0  0  0  0  0  0  0  0
   -2.7625    2.0601    0.1800 H   0  0  0  0  0  0  0  0  0  0  0  0
   -2.0274   -1.1374   -3.5974 H   0  0  0  0  0  0  0  0  0  0  0  0
   -0.7635   -0.6018   -2.4897 H   0  0  0  0  0  0  0  0  0  0  0  0
   -1.9240    2.2278   -2.3766 H   0  0  0  0  0  0  0  0  0  0  0  0
    0.8599    4.2429   -1.7442 H   0  0  0  0  0  0  0  0  0  0  0  0
   -0.8781    3.9836   -1.3682 H   0  0  0  0  0  0  0  0  0  0  0  0
   -0.3916    4.9363   -2.7987 H   0  0  0  0  0  0  0  0  0  0  0  0
   -3.8752    0.8852   -3.5570 H   0  0  0  0  0  0  0  0  0  0  0  0
   -5.4865    2.1551   -5.0940 H   0  0  0  0  0  0  0  0  0  0  0  0
   -5.4549    0.4177   -5.5007 H   0  0  0  0  0  0  0  0  0  0  0  0
   -4.4450    1.5661   -6.4270 H   0  0  0  0  0  0  0  0  0  0  0  0
  2  1  2  0  0  0  0
  3 13  1  0  0  0  0
  3  2  1  0  0  0  0
  4  3  1  0  0  0  0
  5 40  1  0  0  0  0
  5  6  1  0  0  0  0
  5  4  1  0  0  0  0
  6  7  1  6  0  0  0
  6 11  1  0  0  0  0
  8  6  1  0  0  0  0
  8  9  1  0  0  0  0
  9 45  1  0  0  0  0
 10  9  1  6  0  0  0
 10 14  1  0  0  0  0
 11 10  1  0  0  0  0
 11 12  1  1  0  0  0
 11 13  1  0  0  0  0
 13 46  1  0  0  0  0
 13 47  1  0  0  0  0
 14 18  1  1  0  0  0
 14 15  1  0  0  0  0
 15 16  2  0  0  0  0
 16 17  1  0  0  0  0
 16 48  1  0  0  0  0
 18 19  2  0  0  0  0
 19 20  1  0  0  0  0
 19 17  1  0  0  0  0
 20 21  1  0  0  0  0
 22 20  1  0  0  0  0
 23 18  1  0  0  0  0
 23 22  2  0  0  0  0
 24 51  1  0  0  0  0
 24  2  1  0  0  0  0
 25 24  2  0  0  0  0
 27 55  1  0  0  0  0
 27 26  1  0  0  0  0
 28 29  1  6  0  0  0
 28 30  1  0  0  0  0
 28 27  1  0  0  0  0
 30 31  1  0  0  0  0
 30 56  1  0  0  0  0
 31 32  1  0  0  0  0
 32 57  1  0  0  0  0
 32 58  1  0  0  0  0
 33 31  2  0  0  0  0
 34 35  1  0  0  0  0
 34 28  1  0  0  0  0
 35 60  1  0  0  0  0
 36 61  1  0  0  0  0
 36 35  1  0  0  0  0
 37 34  2  0  0  0  0
 38  4  1  0  0  0  0
 39  4  1  0  0  0  0
 41  5  1  0  0  0  0
 42  8  1  0  0  0  0
 43  8  1  0  0  0  0
 44  9  1  0  0  0  0
 49 22  1  0  0  0  0
 50 23  1  0  0  0  0
 52 25  1  0  0  0  0
 53 25  1  0  0  0  0
 54 27  1  0  0  0  0
 59 32  1  0  0  0  0
 62 36  1  0  0  0  0
 63 36  1  0  0  0  0
M  END
