62
-1 1
O         5.435361    9.543360   -2.413322
C         6.601717    9.433577   -2.796652
N         6.842024    9.060615   -4.189440
C         7.319825   10.196505   -4.971891
C         7.837793    9.719467   -6.326122
H         8.269585   10.557927   -6.890061
C         6.681241    9.087611   -7.102571
C         6.069319    7.967236   -6.268686
C         5.712455    8.373655   -4.828789
H         4.840907    9.061038   -4.860480
C         5.307868    7.124994   -4.049526
N         8.893279    8.756543   -6.074164
C         9.979864    8.558405   -6.834941
N        10.104013    9.214708   -7.997025
C        11.228985    9.064569   -8.700319
N        12.292547    8.332136   -8.406066
C        11.028562    7.697167   -6.411785
C        12.151847    7.673479   -7.246092
N        13.093210    6.883107   -6.647708
H        14.006146    6.696330   -7.035654
C        12.594141    6.411257   -5.448708
C        11.323601    6.884608   -5.266940
C         7.741789    9.600630   -1.960566
C         9.089563    9.377023   -2.302454
S        10.243622   11.134065   -2.946244
C        11.352314   10.397651   -4.186374
C        12.837804   10.212543   -3.804014
H        13.221836   11.188490   -3.461682
N        13.615821    9.776707   -4.937887
C        14.084396   10.620846   -5.889248
C        14.933936    9.964175   -6.962345
O        13.827685   11.812354   -5.904199
C        13.067562    9.174003   -2.695383
N        12.483986    9.467662   -1.516257
C        12.503975    8.549411   -0.407650
O        13.747857    8.171740   -2.883870
H         8.121761   10.707556   -4.419374
H         6.510093   10.937559   -5.144379
H         7.037855    8.712564   -8.074682
H         5.929813    9.869995   -7.304535
H         6.782421    7.125503   -6.226848
H         5.159792    7.577902   -6.754703
H         6.180882    6.464000   -3.923452
H         4.531669    6.570914   -4.601243
H         4.919448    7.393232   -3.060842
H         8.795299    8.254023   -5.198011
H        11.276383    9.629748   -9.639107
H        13.205790    5.801025   -4.790072
H        10.698658    6.700750   -4.396149
H         7.501086    9.938234   -0.949338
H         9.287854    8.784001   -3.203094
H         9.759142    9.112625   -1.479476
H        11.340466   11.027868   -5.086908
H        10.950908    9.416444   -4.472992
H        13.930027    8.812789   -4.885099
H        14.275020    9.577614   -7.756834
H        15.530139    9.127861   -6.566900
H        15.600228   10.721828   -7.392808
H        11.792555   10.228082   -1.539476
H        13.417573    7.943068   -0.463065
H        11.638212    7.864022   -0.417480
H        12.494219    9.104710    0.541280
