62
-1 1
O        -4.982328   -0.424357    2.614298
C        -3.884499   -0.166705    2.148138
N        -3.637484   -0.184337    0.772739
C        -2.957870    1.000500    0.223152
C        -2.353145    0.700254   -1.140012
H        -1.821537    1.594888   -1.496460
C        -3.473831    0.318520   -2.105847
C        -4.219041   -0.881216   -1.541622
C        -4.705770   -0.730562   -0.088510
H        -5.559834   -0.022084   -0.072591
C        -5.196049   -2.103020    0.376005
N        -1.387252   -0.371238   -0.988261
C        -0.333762   -0.575718   -1.804456
N        -0.264648    0.094156   -2.959148
C         0.809223   -0.080328   -3.736281
N         1.860685   -0.852900   -3.518095
C         0.717906   -1.454949   -1.443005
C         1.781790   -1.508712   -2.351998
N         2.745510   -2.311901   -1.811350
H         3.640953   -2.489407   -2.242036
C         2.328147   -2.746775   -0.568862
C         1.081362   -2.249644   -0.306042
C        -2.763743    0.125306    3.081644
C        -1.453286   -0.020499    2.863230
S         0.181068    2.530259    1.678483
C         1.110276    1.497074    0.490136
C         2.590346    1.224929    0.839490
H         3.045233    2.192945    1.113402
N         3.326892    0.646073   -0.262666
C         3.850539    1.368158   -1.281149
C         4.687355    0.566704   -2.266987
O         3.654934    2.561020   -1.434687
C         2.754534    0.244963    2.011480
N         2.084359    0.579101    3.126314
C         2.071878   -0.285991    4.273132
O         3.448075   -0.767148    1.919315
H        -2.174967    1.367942    0.904825
H        -3.687651    1.823751    0.098687
H        -3.052417    0.092907   -3.096328
H        -4.149999    1.182860   -2.219343
H        -3.551822   -1.758388   -1.587990
H        -5.095495   -1.123878   -2.163210
H        -4.335945   -2.780569    0.500896
H        -5.853511   -2.531788   -0.395857
H        -5.740140   -2.048936    1.322856
H        -1.444287   -0.911657   -0.135590
H         0.815630    0.496793   -4.668386
H         2.976897   -3.351327    0.058872
H         0.524139   -2.401672    0.615104
H        -3.122961    0.416197    4.072115
H        -1.034004   -0.328139    1.903822
H        -0.729947    0.159059    3.658146
H         1.113870    1.980390   -0.498050
H         0.619002    0.519816    0.367206
H         3.643835   -0.302659   -0.084063
H         4.029422    0.201900   -3.072026
H         5.183517   -0.296052   -1.796659
H         5.442166    1.232076   -2.704813
H         1.388523    1.349458    3.019636
H         3.091813   -0.622028    4.513451
H         1.459028   -1.192620    4.114736
H         1.664359    0.261313    5.134892
