65
-1 1
C         3.512379   10.233866    1.244741
O         2.928942    9.471680    0.237637
C         1.828804    8.723572    0.668140
C         1.315685    7.913694   -0.504533
O         0.139867    7.238298   -0.102126
C         0.023914    5.916446   -0.384494
C        -1.026609    5.474583   -1.148920
C         0.947505    4.974745    0.173883
O         1.922564    5.502178    0.948202
C         2.859995    4.637273    1.531515
C         0.790209    3.631070   -0.087784
C        -0.285310    3.172670   -0.889117
C        -1.217104    4.093786   -1.413463
N        -2.286091    3.700194   -2.165278
C        -2.395089    2.413149   -2.364890
N        -1.575716    1.434345   -1.939327
C        -0.521916    1.783618   -1.221253
N         0.348918    0.847705   -0.786911
C         0.362804   -0.540494   -0.930548
C        -0.507740   -1.343447   -1.580595
C        -0.359935   -2.834647   -1.693742
O        -1.307274   -3.464899   -2.229122
C         0.832046   -3.345433   -1.180736
C         1.638055   -2.620480   -0.192342
S         1.142125   -2.994665    1.624628
C        -0.643085   -2.661308    1.599362
C        -1.501374   -3.763351    2.222533
H        -2.535176   -3.367784    2.230102
N        -1.112047   -4.074124    3.574944
C        -1.295667   -3.229266    4.614686
C        -0.817458   -3.753672    5.957005
O        -1.770071   -2.111631    4.494244
C        -1.562969   -5.110284    1.471153
N        -1.864859   -5.077586    0.164770
C        -1.994172   -6.302129   -0.590679
O        -1.428880   -6.155340    2.098550
C         1.577745   -1.115915   -0.298892
O         2.451301   -0.381104    0.132046
Br         1.239966   -5.187048   -1.402656
H         4.364146   10.776705    0.812011
H         3.882882    9.605318    2.079176
H         2.803794   10.973026    1.669760
H         1.017064    9.380415    1.042541
H         2.100720    8.030758    1.487252
H         2.093807    7.211722   -0.838788
H         1.076343    8.585460   -1.346563
H        -1.737747    6.192442   -1.557708
H         3.552580    5.265675    2.104489
H         3.428794    4.077517    0.769104
H         2.378718    3.916803    2.214888
H         1.486605    2.918055    0.352565
H        -3.254795    2.073875   -2.955889
H         1.187388    1.147590   -0.295858
H        -1.385807   -0.922768   -2.068301
H         2.695436   -2.917087   -0.164386
H        -0.948836   -2.506962    0.557381
H        -0.842879   -1.731828    2.148304
H        -0.878251   -5.056016    3.706401
H        -0.762335   -4.850531    5.996732
H        -1.489886   -3.383518    6.741322
H         0.186963   -3.348225    6.151117
H        -1.803756   -4.234062   -0.409046
H        -2.950372   -6.807323   -0.372848
H        -1.176291   -6.995718   -0.348075
H        -1.942771   -6.038551   -1.653890
