-1 1
 OpenBabel05192410563D

 65 67  0  0  1  0  0  0  0  0999 V2000
    3.5124   10.2339    1.2447 C   0  0  0  0  0  0  0  0  0  0  0  0
    2.9289    9.4717    0.2376 O   0  0  0  0  0  0  0  0  0  0  0  0
    1.8288    8.7236    0.6681 C   0  0  0  0  0  0  0  0  0  0  0  0
    1.3157    7.9137   -0.5045 C   0  0  0  0  0  0  0  0  0  0  0  0
    0.1399    7.2383   -0.1021 O   0  0  0  0  0  0  0  0  0  0  0  0
    0.0239    5.9164   -0.3845 C   0  0  0  0  0  0  0  0  0  0  0  0
   -1.0266    5.4746   -1.1489 C   0  0  0  0  0  0  0  0  0  0  0  0
    0.9475    4.9747    0.1739 C   0  0  0  0  0  0  0  0  0  0  0  0
    1.9226    5.5022    0.9482 O   0  0  0  0  0  0  0  0  0  0  0  0
    2.8600    4.6373    1.5315 C   0  0  0  0  0  0  0  0  0  0  0  0
    0.7902    3.6311   -0.0878 C   0  0  0  0  0  0  0  0  0  0  0  0
   -0.2853    3.1727   -0.8891 C   0  0  0  0  0  0  0  0  0  0  0  0
   -1.2171    4.0938   -1.4135 C   0  0  0  0  0  0  0  0  0  0  0  0
   -2.2861    3.7002   -2.1653 N   0  0  0  0  0  0  0  0  0  0  0  0
   -2.3951    2.4131   -2.3649 C   0  0  0  0  0  0  0  0  0  0  0  0
   -1.5757    1.4343   -1.9393 N   0  0  0  0  0  0  0  0  0  0  0  0
   -0.5219    1.7836   -1.2213 C   0  0  0  0  0  0  0  0  0  0  0  0
    0.3489    0.8477   -0.7869 N   0  0  0  0  0  0  0  0  0  0  0  0
    0.3628   -0.5405   -0.9305 C   0  0  0  0  0  0  0  0  0  0  0  0
   -0.5077   -1.3434   -1.5806 C   0  0  0  0  0  0  0  0  0  0  0  0
   -0.3599   -2.8346   -1.6937 C   0  0  0  0  0  0  0  0  0  0  0  0
   -1.3073   -3.4649   -2.2291 O   0  0  0  0  0  0  0  0  0  0  0  0
    0.8320   -3.3454   -1.1807 C   0  0  1  0  0  3  0  0  0  0  0  0
    1.6381   -2.6205   -0.1923 C   0  0  2  0  0  0  0  0  0  0  0  0
    1.1421   -2.9947    1.6246 S   0  0  0  0  0  0  0  0  0  0  0  0
   -0.6431   -2.6613    1.5994 C   0  0  0  0  0  0  0  0  0  0  0  0
   -1.5014   -3.7634    2.2225 C   0  0  2  0  0  0  0  0  0  0  0  0
   -2.5352   -3.3678    2.2301 H   0  0  0  0  0  0  0  0  0  0  0  0
   -1.1120   -4.0741    3.5749 N   0  0  0  0  0  0  0  0  0  0  0  0
   -1.2957   -3.2293    4.6147 C   0  0  0  0  0  0  0  0  0  0  0  0
   -0.8175   -3.7537    5.9570 C   0  0  0  0  0  0  0  0  0  0  0  0
   -1.7701   -2.1116    4.4942 O   0  0  0  0  0  0  0  0  0  0  0  0
   -1.5630   -5.1103    1.4712 C   0  0  0  0  0  0  0  0  0  0  0  0
   -1.8649   -5.0776    0.1648 N   0  0  0  0  0  0  0  0  0  0  0  0
   -1.9942   -6.3021   -0.5907 C   0  0  0  0  0  0  0  0  0  0  0  0
   -1.4289   -6.1553    2.0985 O   0  0  0  0  0  0  0  0  0  0  0  0
    1.5777   -1.1159   -0.2989 C   0  0  0  0  0  0  0  0  0  0  0  0
    2.4513   -0.3811    0.1320 O   0  0  0  0  0  0  0  0  0  0  0  0
    1.2400   -5.1870   -1.4027 Br  0  0  0  0  0  0  0  0  0  0  0  0
    4.3641   10.7767    0.8120 H   0  0  0  0  0  0  0  0  0  0  0  0
    3.8829    9.6053    2.0792 H   0  0  0  0  0  0  0  0  0  0  0  0
    2.8038   10.9730    1.6698 H   0  0  0  0  0  0  0  0  0  0  0  0
    1.0171    9.3804    1.0425 H   0  0  0  0  0  0  0  0  0  0  0  0
    2.1007    8.0308    1.4873 H   0  0  0  0  0  0  0  0  0  0  0  0
    2.0938    7.2117   -0.8388 H   0  0  0  0  0  0  0  0  0  0  0  0
    1.0763    8.5855   -1.3466 H   0  0  0  0  0  0  0  0  0  0  0  0
   -1.7377    6.1924   -1.5577 H   0  0  0  0  0  0  0  0  0  0  0  0
    3.5526    5.2657    2.1045 H   0  0  0  0  0  0  0  0  0  0  0  0
    3.4288    4.0775    0.7691 H   0  0  0  0  0  0  0  0  0  0  0  0
    2.3787    3.9168    2.2149 H   0  0  0  0  0  0  0  0  0  0  0  0
    1.4866    2.9181    0.3526 H   0  0  0  0  0  0  0  0  0  0  0  0
   -3.2548    2.0739   -2.9559 H   0  0  0  0  0  0  0  0  0  0  0  0
    1.1874    1.1476   -0.2959 H   0  0  0  0  0  0  0  0  0  0  0  0
   -1.3858   -0.9228   -2.0683 H   0  0  0  0  0  0  0  0  0  0  0  0
    2.6954   -2.9171   -0.1644 H   0  0  0  0  0  0  0  0  0  0  0  0
   -0.9488   -2.5070    0.5574 H   0  0  0  0  0  0  0  0  0  0  0  0
   -0.8429   -1.7318    2.1483 H   0  0  0  0  0  0  0  0  0  0  0  0
   -0.8783   -5.0560    3.7064 H   0  0  0  0  0  0  0  0  0  0  0  0
   -0.7623   -4.8505    5.9967 H   0  0  0  0  0  0  0  0  0  0  0  0
   -1.4899   -3.3835    6.7413 H   0  0  0  0  0  0  0  0  0  0  0  0
    0.1870   -3.3482    6.1511 H   0  0  0  0  0  0  0  0  0  0  0  0
   -1.8038   -4.2341   -0.4090 H   0  0  0  0  0  0  0  0  0  0  0  0
   -2.9504   -6.8073   -0.3728 H   0  0  0  0  0  0  0  0  0  0  0  0
   -1.1763   -6.9957   -0.3481 H   0  0  0  0  0  0  0  0  0  0  0  0
   -1.9428   -6.0386   -1.6539 H   0  0  0  0  0  0  0  0  0  0  0  0
  1 42  1  0  0  0  0
  1 41  1  0  0  0  0
  2  3  1  0  0  0  0
  2  1  1  0  0  0  0
  3 43  1  0  0  0  0
  3 44  1  0  0  0  0
  4  5  1  0  0  0  0
  4  3  1  0  0  0  0
  6  5  1  0  0  0  0
  6  8  1  0  0  0  0
  7  6  2  0  0  0  0
  8  9  1  0  0  0  0
  9 10  1  0  0  0  0
 10 48  1  0  0  0  0
 10 50  1  0  0  0  0
 11  8  2  0  0  0  0
 11 51  1  0  0  0  0
 12 11  1  0  0  0  0
 13  7  1  0  0  0  0
 13 12  2  0  0  0  0
 14 13  1  0  0  0  0
 15 14  2  0  0  0  0
 15 16  1  0  0  0  0
 16 17  2  0  0  0  0
 17 12  1  0  0  0  0
 17 18  1  0  0  0  0
 18 53  1  0  0  0  0
 19 18  1  0  0  0  0
 19 37  1  0  0  0  0
 20 19  2  0  0  0  0
 21 20  1  0  0  0  0
 21 23  1  0  0  0  0
 22 21  2  0  0  0  0
 23 39  1  1  0  0  0
 23 24  1  0  0  0  0
 24 55  1  6  0  0  0
 24 25  1  0  0  0  0
 26 25  1  0  0  0  0
 26 57  1  0  0  0  0
 26 27  1  0  0  0  0
 27 28  1  1  0  0  0
 27 29  1  0  0  0  0
 29 58  1  0  0  0  0
 29 30  1  0  0  0  0
 30 31  1  0  0  0  0
 31 59  1  0  0  0  0
 31 61  1  0  0  0  0
 31 60  1  0  0  0  0
 32 30  2  0  0  0  0
 33 36  2  0  0  0  0
 33 27  1  0  0  0  0
 34 33  1  0  0  0  0
 35 63  1  0  0  0  0
 35 64  1  0  0  0  0
 35 34  1  0  0  0  0
 37 24  1  0  0  0  0
 37 38  2  0  0  0  0
 40  1  1  0  0  0  0
 45  4  1  0  0  0  0
 46  4  1  0  0  0  0
 47  7  1  0  0  0  0
 49 10  1  0  0  0  0
 52 15  1  0  0  0  0
 54 20  1  0  0  0  0
 56 26  1  0  0  0  0
 62 34  1  0  0  0  0
 65 35  1  0  0  0  0
M  END
