65
-1 1
C         4.018908    9.277633    2.005637
O         3.235967    8.803685    0.957773
C         2.155843    8.020283    1.376589
C         1.418891    7.530912    0.146876
O         0.260498    6.833963    0.563406
C         0.010262    5.610831    0.034160
C        -1.179591    5.384280   -0.611417
C         0.940542    4.535757    0.220236
O         2.053543    4.840059    0.922749
C         2.992154    3.824046    1.166212
C         0.652106    3.290065   -0.291021
C        -0.565120    3.060072   -0.979337
C        -1.508176    4.100703   -1.118786
N        -2.718685    3.905065   -1.717036
C        -2.955089    2.691680   -2.140042
N        -2.135214    1.623616   -2.096194
C        -0.945783    1.790395   -1.550471
N        -0.050818    0.771402   -1.519350
C        -0.174917   -0.568155   -1.800899
C        -1.221748   -1.222215   -2.359209
C        -1.175331   -2.662631   -2.631007
O        -2.101946   -3.253747   -3.160607
C         0.073075   -3.361750   -2.210018
C         1.122888   -2.730804   -1.647692
S         0.477525   -1.672365    0.886592
C        -1.167312   -2.418731    0.846464
C        -1.460753   -3.308529    2.059396
H        -2.459805   -3.761317    1.949121
N        -1.496723   -2.525949    3.265909
C        -2.301385   -2.855328    4.312662
C        -1.935060   -2.174734    5.618441
O        -3.237158   -3.627686    4.223469
C        -0.458853   -4.471042    2.239621
N        -0.240211   -5.223830    1.131214
C         0.744118   -6.274805    1.106591
O         0.045259   -4.713572    3.320428
C         1.125486   -1.262442   -1.473879
O         2.158965   -0.593254   -1.399184
Br         0.111858   -5.238180   -2.503524
H         4.837454    9.873102    1.577985
H         4.457976    8.452779    2.601738
H         3.440359    9.921709    2.698158
H         1.458879    8.603266    2.012927
H         2.489798    7.144017    1.964030
H         2.083300    6.893557   -0.454831
H         1.116170    8.391729   -0.473375
H        -1.895829    6.197791   -0.726630
H         3.802225    4.280151    1.747991
H         3.406246    3.418652    0.227245
H         2.552000    2.995274    1.746178
H         1.345696    2.466845   -0.123233
H        -3.933877    2.507326   -2.599458
H         0.901888    0.954185   -1.202156
H        -2.134148   -0.697361   -2.631742
H         2.043944   -3.245455   -1.373497
H        -1.259674   -3.014315   -0.082583
H        -1.948855   -1.646453    0.784189
H        -0.646537   -2.006204    3.456505
H        -1.609616   -1.135411    5.465589
H        -1.104238   -2.732010    6.077992
H        -2.799197   -2.202450    6.292693
H        -0.581307   -4.887054    0.239730
H         0.965275   -6.555070    2.143982
H         1.680167   -5.946798    0.624097
H         0.361916   -7.152895    0.564560
