62
-1 1
O        -0.782217   -0.134766    2.490310
C        -0.794596    0.923290    1.844873
N        -1.965046    1.378535    1.275620
C        -2.049877    1.998405   -0.045024
C        -2.531600    0.981148   -1.098468
H        -2.797265    1.569631   -1.992685
C        -3.810690    0.269760   -0.626754
C        -3.717471   -0.300600    0.797968
H        -4.726436   -0.623150    1.110743
C        -3.222385    0.806742    1.730761
N        -2.792021   -1.408556    0.945459
C        -2.826095   -2.572904    0.281264
N        -3.888801   -2.905251   -0.465697
C        -3.873625   -4.078508   -1.110351
N        -2.925526   -5.000709   -1.126921
C        -1.726308   -3.470559    0.355700
C        -1.864948   -4.652163   -0.382530
N        -0.715228   -5.372450   -0.221816
H        -0.538103   -6.262799   -0.663031
C         0.150729   -4.669317    0.594468
C        -0.433283   -3.489545    0.975663
C        -1.420819    0.012066   -1.513315
C         0.431629    1.725938    1.745101
C         0.521795    3.053193    1.527898
S         1.010847    3.656945   -1.357684
C         1.656668    1.966835   -1.342254
C         2.981282    1.759783   -0.564901
H         2.791704    1.913955    0.504753
N         3.993445    2.715374   -0.913629
C         4.315059    3.735731   -0.076424
C         5.052268    4.883483   -0.737345
O         4.036134    3.750788    1.111035
C         3.467067    0.328583   -0.784469
N         2.710174   -0.606632   -0.139029
C         2.890315   -2.022224   -0.320603
O         4.403161    0.040005   -1.508482
H        -1.084938    2.434470   -0.350744
H        -2.769310    2.835150    0.012405
H        -4.095474   -0.533676   -1.320851
H        -4.643098    0.995878   -0.619808
H        -3.091234    0.426116    2.752079
H        -3.974825    1.613404    1.753095
H        -1.977272   -1.216536    1.537095
H        -4.770415   -4.297378   -1.703699
H         1.131460   -5.070480    0.839119
H         0.001157   -2.722783    1.614966
H        -0.921965   -0.444827   -0.645383
H        -0.656006    0.537729   -2.100684
H        -1.823964   -0.811022   -2.123812
H         1.329107    1.157713    2.007023
H         1.487527    3.560016    1.582388
H        -0.358205    3.678873    1.376163
H         1.799613    1.593616   -2.372853
H         0.923435    1.287891   -0.872835
H         4.170842    2.838741   -1.901550
H         5.631550    5.424196    0.020850
H         4.297896    5.562478   -1.163589
H         5.715352    4.546583   -1.547792
H         1.919801   -0.282563    0.404542
H         3.157442   -2.524294    0.624865
H         3.712201   -2.160804   -1.035059
H         1.979257   -2.498721   -0.716889
