62
-1 1
O         7.784566   -9.322864    8.625103
C         7.680443   -8.193280    8.108758
N         6.453922   -7.787908    7.585712
C         6.313822   -7.163941    6.276453
C         5.920059   -8.202225    5.205187
H         5.622961   -7.629944    4.309431
C         4.686664   -8.998815    5.662383
C         4.810522   -9.579288    7.080731
H         3.819000   -9.957585    7.385983
C         5.250190   -8.464226    8.033760
N         5.780488  -10.648562    7.210547
C         5.711847  -11.850627    6.627178
N         4.634155  -12.202537    5.907987
C         4.612071  -13.415150    5.342416
N         5.531831  -14.365297    5.383159
C         6.781822  -12.778524    6.762042
C         6.603499  -14.001941    6.105416
N         7.721331  -14.754283    6.331682
H         7.863299  -15.682792    5.962550
C         8.602695  -14.033826    7.116630
C         8.061508  -12.809003    7.407645
C         7.094834   -9.098460    4.801260
C         8.798702   -7.274946    8.115624
C         8.763783   -5.917086    7.929759
S         9.380290   -5.199258    5.500500
C         9.958927   -6.878402    5.206086
C        11.318480   -7.243394    5.839363
H        11.251445   -7.102830    6.926266
N        12.391242   -6.399689    5.398482
C        13.045951   -5.546289    6.224319
C        13.965381   -4.568300    5.514437
O        12.906601   -5.530657    7.434211
C        11.621001   -8.710248    5.522424
N        10.851992   -9.597220    6.211128
C        10.861551  -11.011215    5.941456
O        12.436336   -9.044204    4.679010
H         7.237012   -6.636965    5.990652
H         5.522492   -6.393865    6.339643
H         4.454959   -9.812504    4.959761
H         3.810826   -8.325457    5.670893
H         5.419930   -8.865892    9.041681
H         4.440632   -7.715361    8.092755
H         6.616782  -10.408910    7.761559
H         3.706022  -13.645749    4.767449
H         9.561577  -14.457606    7.405753
H         8.515700  -12.017658    8.001278
H         7.601078   -9.536336    5.673788
H         7.842906   -8.526012    4.235917
H         6.752120   -9.934398    4.171514
H         9.733353   -7.743608    8.436006
H         9.630036   -5.319062    8.206998
H         7.816766   -5.385379    7.833146
H        10.003319   -7.093092    4.123580
H         9.227707   -7.586329    5.631752
H        12.571285   -6.367533    4.404847
H        14.765050   -4.267067    6.202121
H        13.377412   -3.676962    5.247403
H        14.401108   -4.985335    4.594541
H        10.166580   -9.233383    6.864203
H        11.139376  -11.592504    6.835994
H        11.605435  -11.193852    5.155404
H         9.876614  -11.365602    5.598109
