-1 1
 OpenBabel05192410563D

 62 64  0  0  1  0  0  0  0  0999 V2000
    0.7275    1.8043    0.6540 O   0  0  0  0  0  0  0  0  0  0  0  0
    1.0313    0.6823    1.1237 C   0  0  0  0  0  0  0  0  0  0  0  0
   -0.0195   -0.0974    1.7110 N   0  0  0  0  0  0  0  0  0  0  0  0
   -1.2567    0.6087    1.9670 C   0  0  0  0  0  0  0  0  0  0  0  0
   -2.1990    0.6453    0.7500 C   0  0  1  0  0  0  0  0  0  0  0  0
   -1.6981    1.2308   -0.0360 H   0  0  0  0  0  0  0  0  0  0  0  0
   -2.4334   -0.7746    0.2326 C   0  0  0  0  0  0  0  0  0  0  0  0
   -1.1131   -1.5079    0.0127 C   0  0  0  0  0  0  0  0  0  0  0  0
   -0.2040   -1.4739    1.2548 C   0  0  2  0  0  0  0  0  0  0  0  0
    0.7764   -1.8515    0.9433 H   0  0  0  0  0  0  0  0  0  0  0  0
   -0.6796   -2.4002    2.3731 C   0  0  0  0  0  0  0  0  0  0  0  0
   -3.4831    1.2471    1.0531 N   0  0  0  0  0  0  0  0  0  0  0  0
   -3.8425    2.5495    1.0347 C   0  0  2  0  0  3  0  0  0  0  0  0
   -5.1466    2.7908    1.2637 N   0  0  0  0  0  0  0  0  0  0  0  0
   -5.5909    4.0465    1.2251 C   0  0  0  0  0  0  0  0  0  0  0  0
   -4.9045    5.1511    0.9809 N   0  0  0  0  0  2  0  0  0  0  0  0
   -2.9683    3.6414    0.7873 C   0  0  0  0  0  0  0  0  0  0  0  0
   -3.6045    4.9015    0.7746 C   0  0  0  0  0  0  0  0  0  0  0  0
   -2.6502    5.8417    0.5309 N   0  0  0  0  0  0  0  0  0  0  0  0
   -2.8374    6.8318    0.4798 H   0  0  0  0  0  0  0  0  0  0  0  0
   -1.4203    5.2175    0.4063 C   0  0  0  0  0  0  0  0  0  0  0  0
   -1.5630    3.8664    0.5567 C   0  0  0  0  0  0  0  0  0  0  0  0
    2.3335    0.1452    1.0835 C   0  0  0  0  0  3  0  0  0  0  0  0
    2.8634   -0.9376    1.9433 C   0  0  0  0  0  0  0  0  0  0  0  0
    3.1574   -2.6663    1.2046 S   0  0  0  0  0  0  0  0  0  0  0  0
    3.6453   -2.3064   -0.5069 C   0  0  0  0  0  0  0  0  0  0  0  0
    2.5877   -2.6715   -1.5860 C   0  0  2  0  0  0  0  0  0  0  0  0
    1.6857   -3.0294   -1.0577 H   0  0  0  0  0  0  0  0  0  0  0  0
    3.0397   -3.6865   -2.5067 N   0  0  0  0  0  0  0  0  0  0  0  0
    3.2483   -4.9755   -2.1611 C   0  0  0  0  0  0  0  0  0  0  0  0
    3.6173   -5.9005   -3.3108 C   0  0  0  0  0  0  0  0  0  0  0  0
    3.1695   -5.3898   -1.0176 O   0  0  0  0  0  0  0  0  0  0  0  0
    2.1497   -1.4861   -2.4764 C   0  0  0  0  0  0  0  0  0  0  0  0
    1.7747   -0.3845   -1.8210 N   0  0  0  0  0  0  0  0  0  0  0  0
    1.3135    0.8018   -2.5031 C   0  0  0  0  0  0  0  0  0  0  0  0
    2.1294   -1.5977   -3.7000 O   0  0  0  0  0  0  0  0  0  0  0  0
   -1.0207    1.6330    2.2804 H   0  0  0  0  0  0  0  0  0  0  0  0
   -1.7964    0.1220    2.8006 H   0  0  0  0  0  0  0  0  0  0  0  0
   -3.0241   -0.7398   -0.6975 H   0  0  0  0  0  0  0  0  0  0  0  0
   -3.0456   -1.3209    0.9758 H   0  0  0  0  0  0  0  0  0  0  0  0
   -0.5672   -1.0291   -0.8165 H   0  0  0  0  0  0  0  0  0  0  0  0
   -1.3009   -2.5514   -0.2905 H   0  0  0  0  0  0  0  0  0  0  0  0
   -0.7014   -3.4421    2.0190 H   0  0  0  0  0  0  0  0  0  0  0  0
   -1.6863   -2.1480    2.7431 H   0  0  0  0  0  0  0  0  0  0  0  0
    0.0152   -2.3427    3.2236 H   0  0  0  0  0  0  0  0  0  0  0  0
   -4.2550    0.6296    1.2755 H   0  0  0  0  0  0  0  0  0  0  0  0
   -6.6641    4.1734    1.4182 H   0  0  0  0  0  0  0  0  0  0  0  0
   -0.5188    5.7976    0.2237 H   0  0  0  0  0  0  0  0  0  0  0  0
   -0.7483    3.1344    0.5382 H   0  0  0  0  0  0  0  0  0  0  0  0
    3.0635    0.8493    0.6723 H   0  0  0  0  0  0  0  0  0  0  0  0
    2.1858   -1.1753    2.7796 H   0  0  0  0  0  0  0  0  0  0  0  0
    3.8365   -0.6610    2.3745 H   0  0  0  0  0  0  0  0  0  0  0  0
    4.5595   -2.8757   -0.7195 H   0  0  0  0  0  0  0  0  0  0  0  0
    3.9009   -1.2378   -0.5550 H   0  0  0  0  0  0  0  0  0  0  0  0
    2.9696   -3.3925   -3.4794 H   0  0  0  0  0  0  0  0  0  0  0  0
    4.6113   -6.3257   -3.1116 H   0  0  0  0  0  0  0  0  0  0  0  0
    3.6264   -5.4046   -4.2913 H   0  0  0  0  0  0  0  0  0  0  0  0
    2.9021   -6.7349   -3.3304 H   0  0  0  0  0  0  0  0  0  0  0  0
    1.9210   -0.3162   -0.7927 H   0  0  0  0  0  0  0  0  0  0  0  0
    2.0850    1.2063   -3.1793 H   0  0  0  0  0  0  0  0  0  0  0  0
    1.0634    1.5449   -1.7345 H   0  0  0  0  0  0  0  0  0  0  0  0
    0.4215    0.5844   -3.1126 H   0  0  0  0  0  0  0  0  0  0  0  0
  1  2  2  0  0  0  0
  2  3  1  0  0  0  0
  3  4  1  0  0  0  0
  4 37  1  0  0  0  0
  4 38  1  0  0  0  0
  5  6  1  6  0  0  0
  5 12  1  0  0  0  0
  5  4  1  0  0  0  0
  7  5  1  0  0  0  0
  7 40  1  0  0  0  0
  8  7  1  0  0  0  0
  8  9  1  0  0  0  0
  9 10  1  6  0  0  0
  9  3  1  0  0  0  0
  9 11  1  0  0  0  0
 11 44  1  0  0  0  0
 11 45  1  0  0  0  0
 12 46  1  0  0  0  0
 13 12  1  6  0  0  0
 13 14  1  0  0  0  0
 15 14  2  0  0  0  0
 15 47  1  0  0  0  0
 16 15  1  0  0  0  0
 17 13  1  0  0  0  0
 18 17  2  0  0  0  0
 18 16  1  0  0  0  0
 19 18  1  0  0  0  0
 20 19  1  0  0  0  0
 21 19  1  0  0  0  0
 21 22  2  0  0  0  0
 22 17  1  0  0  0  0
 23  2  1  0  0  0  0
 23 24  1  0  0  0  0
 24 52  1  0  0  0  0
 24 51  1  0  0  0  0
 25 24  1  0  0  0  0
 26 25  1  0  0  0  0
 27 28  1  1  0  0  0
 27 26  1  0  0  0  0
 29 30  1  0  0  0  0
 29 27  1  0  0  0  0
 30 32  2  0  0  0  0
 31 56  1  0  0  0  0
 31 30  1  0  0  0  0
 33 34  1  0  0  0  0
 33 27  1  0  0  0  0
 34 59  1  0  0  0  0
 35 34  1  0  0  0  0
 35 61  1  0  0  0  0
 36 33  2  0  0  0  0
 39  7  1  0  0  0  0
 41  8  1  0  0  0  0
 42  8  1  0  0  0  0
 43 11  1  0  0  0  0
 48 21  1  0  0  0  0
 49 22  1  0  0  0  0
 50 23  1  0  0  0  0
 53 26  1  0  0  0  0
 54 26  1  0  0  0  0
 55 29  1  0  0  0  0
 57 31  1  0  0  0  0
 58 31  1  0  0  0  0
 60 35  1  0  0  0  0
 62 35  1  0  0  0  0
M  END
