62
-1 1
O         0.965064    2.157243    0.240439
C         0.973224    0.935163    0.327616
N         0.028991    0.237878    1.031289
C        -0.941518    0.987824    1.805767
C        -2.306417    1.031078    1.103381
H        -2.178383    1.552280    0.139332
C        -2.775356   -0.397906    0.824452
C        -1.712001   -1.186443    0.065465
C        -0.336555   -1.161270    0.746808
H         0.377392   -1.551190    0.015028
C        -0.257685   -2.058188    1.976379
N        -3.304970    1.728921    1.883729
C        -3.598684    3.051292    1.880614
N        -4.718725    3.392262    2.537978
C        -5.101981    4.668784    2.552823
N        -4.509856    5.703968    1.980540
C        -2.829515    4.062088    1.244206
C        -3.383128    5.357589    1.347522
N        -2.548936    6.217900    0.700303
H        -2.709564    7.212091    0.633466
C        -1.467342    5.515335    0.204667
C        -1.592759    4.189609    0.512582
C         2.089312    0.162773   -0.302305
C         2.839874   -0.718778    0.357559
S        -0.071613   -4.499073   -0.849508
C         1.689689   -4.039098   -0.640137
C         2.423970   -3.650392   -1.941646
H         2.218051   -4.453155   -2.673598
N         3.856562   -3.504055   -1.763473
C         4.718603   -4.526373   -1.559127
C         6.187309   -4.122027   -1.528649
O         4.385688   -5.685152   -1.386536
C         1.971133   -2.316678   -2.565485
N         0.648364   -2.134326   -2.648804
C         0.088253   -0.932661   -3.201993
O         2.796390   -1.490390   -2.962593
H        -0.553430    1.999419    1.971106
H        -1.072531    0.506581    2.790030
H        -3.719625   -0.375661    0.257579
H        -2.994784   -0.888151    1.790841
H        -1.601936   -0.750176   -0.940674
H        -2.001053   -2.237637   -0.078757
H        -0.388377   -3.099159    1.640397
H        -1.026441   -1.825501    2.730403
H         0.727515   -1.965776    2.457424
H        -3.986350    1.173686    2.387894
H        -6.026098    4.879053    3.105619
H        -0.669656    6.023513   -0.331500
H        -0.848236    3.429606    0.275813
H         2.329827    0.421520   -1.337310
H         2.624719   -0.992267    1.394631
H         3.679003   -1.220254   -0.128906
H         2.240945   -4.897631   -0.233144
H         1.807029   -3.208320    0.080277
H         4.197330   -2.611013   -2.114948
H         6.584844   -4.334362   -0.525517
H         6.361853   -3.063197   -1.765710
H         6.739024   -4.752891   -2.239643
H         0.055583   -2.859974   -2.178926
H         0.659038   -0.616268   -4.087387
H         0.102030   -0.090151   -2.486149
H        -0.955443   -1.118699   -3.491950
