54
-1 1
O        -1.796100    2.410537    0.187179
C        -1.198169    1.312672    0.022006
N        -1.767029    0.488696   -1.015837
C        -2.087403   -0.856174   -0.977739
C        -1.801565   -1.665013    0.134307
C        -2.101066   -3.026988    0.149465
C        -1.756574   -3.869364    1.324537
N        -2.266683   -5.106679    1.350557
C        -1.990952   -5.924508    2.364815
N        -1.230542   -5.670726    3.420225
C        -0.919513   -3.461567    2.392133
C        -0.716559   -4.444502    3.396713
N         0.112913   -3.921201    4.343729
H         0.421226   -4.421487    5.164199
C         0.451985   -2.635281    3.977044
C        -0.150575   -2.307420    2.795746
C        -2.732906   -3.611765   -0.959194
C        -3.045087   -2.814385   -2.055479
C        -2.727418   -1.458650   -2.076784
C        -0.039335    0.886470    0.668156
C         0.989016    0.032269    0.035883
S         2.367065    0.996342   -0.827585
C         1.390165    2.110908   -1.880369
C         1.723755    3.600207   -1.722319
H         1.003064    4.152218   -2.353068
N         3.060637    3.910960   -2.166065
C         3.427071    3.958963   -3.463964
C         4.887915    4.300361   -3.706325
O         2.667118    3.719027   -4.389004
C         1.617780    4.150609   -0.285436
N         0.424430    4.064280    0.313933
C         0.277667    4.454854    1.693769
O         2.594481    4.678512    0.240703
H        -2.366090    1.052165   -1.608300
H        -1.352711   -1.169532    0.987660
H        -2.445996   -6.921198    2.318319
H         1.111311   -2.034699    4.599420
H        -0.049616   -1.342670    2.302153
H        -2.964513   -4.676120   -0.938747
H        -3.538601   -3.258438   -2.924164
H        -2.964597   -0.851802   -2.955072
H         0.306373    1.549447    1.465827
H         0.577806   -0.655619   -0.715326
H         1.575639   -0.575056    0.744991
H         0.332824    1.938606   -1.641472
H         1.537413    1.852513   -2.937855
H         3.662534    4.238667   -1.413415
H         5.422918    3.373821   -3.963106
H         5.378062    4.757806   -2.835704
H         4.954147    4.975486   -4.569640
H        -0.362124    3.488024   -0.031581
H        -0.702469    4.093459    2.030025
H         0.334384    5.549028    1.818424
H         1.066886    4.007564    2.319534
