-1 1
 OpenBabel05232413483D

 54 55  0  0  1  0  0  0  0  0999 V2000
   -0.4962    2.8340    1.5552 O   0  0  0  0  0  0  0  0  0  0  0  0
   -0.3867    1.6141    1.4604 C   0  0  0  0  0  0  0  0  0  0  0  0
   -0.4765    0.9719    0.2786 N   0  0  0  0  0  0  0  0  0  0  0  0
   -0.3379   -0.3956   -0.0088 C   0  0  0  0  0  0  0  0  0  0  0  0
   -1.0438   -1.3826    0.6842 C   0  0  0  0  0  0  0  0  0  0  0  0
   -0.8818   -2.7353    0.3672 C   0  0  0  0  0  0  0  0  0  0  0  0
   -1.5920   -3.7908    1.1264 C   0  0  1  0  0  3  0  0  0  0  0  0
   -1.8680   -4.9349    0.4934 N   0  0  0  0  0  0  0  0  0  0  0  0
   -2.5190   -5.9059    1.1370 C   0  0  0  0  0  0  0  0  0  0  0  0
   -2.9540   -5.8948    2.3897 N   0  0  0  0  0  2  0  0  0  0  0  0
   -1.9651   -3.6574    2.4818 C   0  0  0  0  0  0  0  0  0  0  0  0
   -2.6548   -4.7672    3.0276 C   0  0  0  0  0  0  0  0  0  0  0  0
   -2.9337   -4.4888    4.3341 N   0  0  0  0  0  0  0  0  0  0  0  0
   -3.4155   -5.1195    4.9582 H   0  0  0  0  0  0  0  0  0  0  0  0
   -2.4240   -3.2445    4.6445 C   0  0  0  0  0  0  0  0  0  0  0  0
   -1.8206   -2.6979    3.5462 C   0  0  0  0  0  0  0  0  0  0  0  0
   -0.0491   -3.0938   -0.7022 C   0  0  0  0  0  0  0  0  0  0  0  0
    0.6247   -2.1087   -1.4163 C   0  0  0  0  0  0  0  0  0  0  0  0
    0.4949   -0.7639   -1.0735 C   0  0  0  0  0  0  0  0  0  0  0  0
   -0.0701    0.8731    2.7325 C   0  0  0  0  0  0  0  0  0  0  0  0
    0.8769   -0.0509    2.8997 C   0  0  0  0  0  0  0  0  0  0  0  0
   -0.9386    2.4452   -2.4403 S   0  0  0  0  0  1  0  0  0  0  0  0
   -0.2641    4.0398   -1.8532 C   0  0  0  0  0  0  0  0  0  0  0  0
    1.2242    4.2132   -2.1931 C   0  0  2  0  0  0  0  0  0  0  0  0
    1.5729    5.2137   -1.8851 H   0  0  0  0  0  0  0  0  0  0  0  0
    1.4103    4.1095   -3.6131 N   0  0  0  0  0  0  0  0  0  0  0  0
    2.4242    4.7135   -4.2730 C   0  0  0  0  0  0  0  0  0  0  0  0
    2.6412    4.2011   -5.6871 C   0  0  0  0  0  0  0  0  0  0  0  0
    3.1213    5.5933   -3.7947 O   0  0  0  0  0  0  0  0  0  0  0  0
    2.1389    3.1954   -1.4822 C   0  0  0  0  0  0  0  0  0  0  0  0
    1.9721    3.1036   -0.1359 N   0  0  0  0  0  0  0  0  0  0  0  0
    2.7274    2.1333    0.6117 C   0  0  0  0  0  0  0  0  0  0  0  0
    2.9969    2.5601   -2.0692 O   0  0  0  0  0  0  0  0  0  0  0  0
   -0.6207    1.5738   -0.5973 H   0  0  0  0  0  0  0  0  0  0  0  0
   -1.7484   -1.0759    1.4561 H   0  0  0  0  0  0  0  0  0  0  0  0
   -2.7187   -6.8157    0.5591 H   0  0  0  0  0  0  0  0  0  0  0  0
   -2.5316   -2.8373    5.6472 H   0  0  0  0  0  0  0  0  0  0  0  0
   -1.3195   -1.7347    3.5081 H   0  0  0  0  0  0  0  0  0  0  0  0
    0.0470   -4.1493   -0.9603 H   0  0  0  0  0  0  0  0  0  0  0  0
    1.2695   -2.3871   -2.2527 H   0  0  0  0  0  0  0  0  0  0  0  0
    1.0156    0.0199   -1.6296 H   0  0  0  0  0  0  0  0  0  0  0  0
   -0.5959    1.2889    3.5980 H   0  0  0  0  0  0  0  0  0  0  0  0
    1.4436   -0.4596    2.0591 H   0  0  0  0  0  0  0  0  0  0  0  0
    1.1219   -0.4302    3.8957 H   0  0  0  0  0  0  0  0  0  0  0  0
   -0.4196    4.1405   -0.7664 H   0  0  0  0  0  0  0  0  0  0  0  0
   -0.8064    4.8762   -2.3220 H   0  0  0  0  0  0  0  0  0  0  0  0
    0.9236    3.3107   -4.0173 H   0  0  0  0  0  0  0  0  0  0  0  0
    1.6989    3.9162   -6.1772 H   0  0  0  0  0  0  0  0  0  0  0  0
    3.2841    3.3090   -5.6349 H   0  0  0  0  0  0  0  0  0  0  0  0
    3.1540    4.9728   -6.2745 H   0  0  0  0  0  0  0  0  0  0  0  0
    1.1084    3.4380    0.2837 H   0  0  0  0  0  0  0  0  0  0  0  0
    2.5331    2.2743    1.6835 H   0  0  0  0  0  0  0  0  0  0  0  0
    3.8031    2.2536    0.4168 H   0  0  0  0  0  0  0  0  0  0  0  0
    2.4583    1.0963    0.3398 H   0  0  0  0  0  0  0  0  0  0  0  0
  2  1  2  0  0  0  0
  2 20  1  0  0  0  0
  3  2  1  0  0  0  0
  4  3  1  0  0  0  0
  4  5  1  0  0  0  0
  5 35  1  0  0  0  0
  6  5  2  0  0  0  0
  7  6  1  1  0  0  0
  7 11  1  0  0  0  0
  8  7  1  0  0  0  0
  8  9  2  0  0  0  0
  9 10  1  0  0  0  0
 10 12  1  0  0  0  0
 11 12  2  0  0  0  0
 11 16  1  0  0  0  0
 12 13  1  0  0  0  0
 13 15  1  0  0  0  0
 13 14  1  0  0  0  0
 15 37  1  0  0  0  0
 16 15  2  0  0  0  0
 17  6  1  0  0  0  0
 18 19  1  0  0  0  0
 18 17  2  0  0  0  0
 19  4  2  0  0  0  0
 20 21  2  0  0  0  0
 20 42  1  0  0  0  0
 21 44  1  0  0  0  0
 22 23  1  0  0  0  0
 23 45  1  0  0  0  0
 24 25  1  1  0  0  0
 24 23  1  0  0  0  0
 24 30  1  0  0  0  0
 26 24  1  0  0  0  0
 27 29  2  0  0  0  0
 27 26  1  0  0  0  0
 28 49  1  0  0  0  0
 28 27  1  0  0  0  0
 30 31  1  0  0  0  0
 31 51  1  0  0  0  0
 31 32  1  0  0  0  0
 32 52  1  0  0  0  0
 33 30  2  0  0  0  0
 34  3  1  0  0  0  0
 36  9  1  0  0  0  0
 38 16  1  0  0  0  0
 39 17  1  0  0  0  0
 40 18  1  0  0  0  0
 41 19  1  0  0  0  0
 43 21  1  0  0  0  0
 46 23  1  0  0  0  0
 47 26  1  0  0  0  0
 48 28  1  0  0  0  0
 50 28  1  0  0  0  0
 53 32  1  0  0  0  0
 54 32  1  0  0  0  0
M  END
