62
-1 1
O         3.995839    0.648304    1.736167
C         3.195725    1.187307    0.983792
N         2.096833    1.853963    1.453116
C         1.261313    2.771273    0.692943
C        -0.218004    2.480791    0.920308
C        -0.536964    2.519757    2.412530
C         0.360817    1.559703    3.212376
H         0.224379    1.779195    4.279771
C         1.828937    1.829113    2.881750
N        -0.055015    0.165774    3.022821
C        -1.200506   -0.232166    3.642667
N        -1.629843    0.491801    4.691742
C        -2.691002    0.081298    5.386019
N        -3.441813   -0.986566    5.177841
C        -1.969872   -1.363085    3.242222
C        -3.059523   -1.663630    4.086571
N        -3.715996   -2.732852    3.555726
H        -4.560179   -3.123212    3.946882
C        -3.110131   -3.090085    2.364630
C        -2.035854   -2.279030    2.130795
C         0.651929   -0.740464    2.129660
C         3.398892    1.062551   -0.494372
C         2.483011    0.600552   -1.347275
S        -1.053002   -0.756150   -1.225918
C        -0.058834   -1.540301   -2.545687
C        -0.171746   -0.890676   -3.945295
H        -1.244997   -0.848360   -4.197808
N         0.534484   -1.648607   -4.955616
C         0.074146   -2.786321   -5.517841
C         0.968482   -3.371307   -6.602893
O        -0.963121   -3.339204   -5.194227
C         0.411486    0.528920   -4.016013
N        -0.162387    1.425933   -3.199143
C         0.373201    2.755460   -3.080317
O         1.344365    0.802841   -4.771518
H         1.519057    2.709043   -0.367674
H         1.487980    3.804852    1.027547
H        -0.468127    1.498618    0.483209
H        -0.820064    3.228925    0.380079
H        -1.591137    2.277748    2.608634
H        -0.371132    3.543021    2.797584
H         2.503505    1.099207    3.343272
H         2.078017    2.816677    3.314905
H        -2.969217    0.713133    6.239489
H        -3.513506   -3.892153    1.751482
H        -1.432913   -2.278563    1.223777
H         0.473458   -1.770698    2.461424
H         1.732873   -0.574226    2.203590
H         0.336133   -0.655940    1.074119
H         4.434151    1.224827   -0.810668
H         1.450631    0.372371   -1.041588
H         2.733543    0.426527   -2.398090
H        -0.392010   -2.579247   -2.678759
H         1.011691   -1.576385   -2.275006
H         1.329805   -1.150424   -5.346888
H         0.354225   -3.572375   -7.491569
H         1.359381   -4.336470   -6.248802
H         1.812532   -2.723768   -6.878718
H        -0.723385    1.009727   -2.425069
H         1.433836    2.751170   -2.771534
H        -0.211203    3.308487   -2.332300
H         0.317167    3.292329   -4.040263
