-1 1
 OpenBabel05232414493D

 62 64  0  0  1  0  0  0  0  0999 V2000
    8.6253   -6.2287    7.8752 O   0  0  0  0  0  0  0  0  0  0  0  0
    7.5046   -6.5665    7.4750 C   0  0  0  0  0  0  0  0  0  0  0  0
    6.3683   -5.9923    8.1278 N   0  0  0  0  0  0  0  0  0  0  0  0
    5.2789   -5.4012    7.3787 C   0  0  0  0  0  0  0  0  0  0  0  0
    3.9900   -5.4293    8.1953 C   0  0  0  0  0  0  0  0  0  0  0  0
    4.1935   -4.7089    9.5254 C   0  0  0  0  0  0  0  0  0  0  0  0
    5.4138   -5.2404   10.2926 C   0  0  2  0  0  0  0  0  0  0  0  0
    5.6423   -4.5194   11.0867 H   0  0  0  0  0  0  0  0  0  0  0  0
    6.6397   -5.3090    9.3745 C   0  0  0  0  0  0  0  0  0  0  0  0
    5.1231   -6.5051   10.9956 N   0  0  0  0  0  0  0  0  0  0  0  0
    4.5244   -6.4486   12.2089 C   0  0  2  0  0  3  0  0  0  0  0  0
    4.1889   -5.2358   12.6855 N   0  0  0  0  0  0  0  0  0  0  0  0
    3.5974   -5.1207   13.8712 C   0  0  0  0  0  0  0  0  0  0  0  0
    3.2596   -6.0836   14.7115 N   0  0  0  0  0  2  0  0  0  0  0  0
    4.2284   -7.5937   13.0199 C   0  0  0  0  0  0  0  0  0  0  0  0
    3.5954   -7.2926   14.2455 C   0  0  0  0  0  0  0  0  0  0  0  0
    3.3801   -8.4626   14.9117 N   0  0  0  0  0  0  0  0  0  0  0  0
    2.9415   -8.5147   15.8192 H   0  0  0  0  0  0  0  0  0  0  0  0
    3.8602   -9.5118   14.1582 C   0  0  0  0  0  0  0  0  0  0  0  0
    4.3890   -9.0285   12.9936 C   0  0  0  0  0  0  0  0  0  0  0  0
    5.4360   -7.7895   10.3984 C   0  0  0  0  0  0  0  0  0  0  0  0
    7.2903   -7.5554    6.4657 C   0  0  0  0  0  3  0  0  0  0  0  0
    6.0820   -8.1935    6.1264 C   0  0  0  0  0  0  0  0  0  0  0  0
    4.9816   -7.4149    4.3790 S   0  0  0  0  0  0  0  0  0  0  0  0
    6.3091   -7.6710    3.1622 C   0  0  0  0  0  0  0  0  0  0  0  0
    6.6579   -6.4302    2.3117 C   0  0  2  0  0  0  0  0  0  0  0  0
    5.7111   -5.9432    2.0197 H   0  0  0  0  0  0  0  0  0  0  0  0
    7.3992   -6.7841    1.1224 N   0  0  0  0  0  0  0  0  0  0  0  0
    6.8454   -7.3518    0.0289 C   0  0  0  0  0  0  0  0  0  0  0  0
    7.7937   -7.5420   -1.1458 C   0  0  0  0  0  0  0  0  0  0  0  0
    5.6820   -7.7112   -0.0358 O   0  0  0  0  0  0  0  0  0  0  0  0
    7.5416   -5.4026    3.0494 C   0  0  0  0  0  0  0  0  0  0  0  0
    7.0739   -4.9792    4.2329 N   0  0  0  0  0  0  0  0  0  0  0  0
    7.8382   -4.1178    5.1044 C   0  0  0  0  0  0  0  0  0  0  0  0
    8.5930   -5.0169    2.5463 O   0  0  0  0  0  0  0  0  0  0  0  0
    5.1444   -5.9223    6.4240 H   0  0  0  0  0  0  0  0  0  0  0  0
    5.5148   -4.3401    7.1317 H   0  0  0  0  0  0  0  0  0  0  0  0
    3.6940   -6.4783    8.3663 H   0  0  0  0  0  0  0  0  0  0  0  0
    3.1754   -4.9580    7.6228 H   0  0  0  0  0  0  0  0  0  0  0  0
    3.3058   -4.7607   10.1726 H   0  0  0  0  0  0  0  0  0  0  0  0
    4.3735   -3.6382    9.3217 H   0  0  0  0  0  0  0  0  0  0  0  0
    7.4860   -5.8019    9.8692 H   0  0  0  0  0  0  0  0  0  0  0  0
    6.9633   -4.2621    9.1932 H   0  0  0  0  0  0  0  0  0  0  0  0
    3.3604   -4.0956   14.1831 H   0  0  0  0  0  0  0  0  0  0  0  0
    3.7871  -10.5365   14.5140 H   0  0  0  0  0  0  0  0  0  0  0  0
    4.8380   -9.6420   12.2205 H   0  0  0  0  0  0  0  0  0  0  0  0
    6.2183   -8.3203   10.9649 H   0  0  0  0  0  0  0  0  0  0  0  0
    5.7968   -7.6288    9.3773 H   0  0  0  0  0  0  0  0  0  0  0  0
    4.5393   -8.4267   10.3470 H   0  0  0  0  0  0  0  0  0  0  0  0
    8.2129   -7.8715    5.9726 H   0  0  0  0  0  0  0  0  0  0  0  0
    5.2415   -8.1171    6.8260 H   0  0  0  0  0  0  0  0  0  0  0  0
    6.1644   -9.1976    5.7004 H   0  0  0  0  0  0  0  0  0  0  0  0
    5.9998   -8.4591    2.4633 H   0  0  0  0  0  0  0  0  0  0  0  0
    7.2174   -8.0073    3.6921 H   0  0  0  0  0  0  0  0  0  0  0  0
    8.3206   -6.3524    1.0903 H   0  0  0  0  0  0  0  0  0  0  0  0
    7.3439   -7.0805   -2.0361 H   0  0  0  0  0  0  0  0  0  0  0  0
    7.8875   -8.6190   -1.3469 H   0  0  0  0  0  0  0  0  0  0  0  0
    8.7941   -7.1192   -0.9797 H   0  0  0  0  0  0  0  0  0  0  0  0
    6.2680   -5.4892    4.6062 H   0  0  0  0  0  0  0  0  0  0  0  0
    8.2928   -4.6785    5.9365 H   0  0  0  0  0  0  0  0  0  0  0  0
    7.1916   -3.3304    5.5219 H   0  0  0  0  0  0  0  0  0  0  0  0
    8.6356   -3.6491    4.5144 H   0  0  0  0  0  0  0  0  0  0  0  0
  2  1  2  0  0  0  0
  2  3  1  0  0  0  0
  3  9  1  0  0  0  0
  4  3  1  0  0  0  0
  4  5  1  0  0  0  0
  5 38  1  0  0  0  0
  5  6  1  0  0  0  0
  6 40  1  0  0  0  0
  6  7  1  0  0  0  0
  7 10  1  0  0  0  0
  7  8  1  1  0  0  0
  9 42  1  0  0  0  0
  9  7  1  0  0  0  0
 11 10  1  1  0  0  0
 11 12  1  0  0  0  0
 11 15  1  0  0  0  0
 12 13  2  0  0  0  0
 13 44  1  0  0  0  0
 13 14  1  0  0  0  0
 15 16  2  0  0  0  0
 16 14  1  0  0  0  0
 16 17  1  0  0  0  0
 17 18  1  0  0  0  0
 19 45  1  0  0  0  0
 19 17  1  0  0  0  0
 20 15  1  0  0  0  0
 20 19  2  0  0  0  0
 21 47  1  0  0  0  0
 21 10  1  0  0  0  0
 22  2  1  0  0  0  0
 23 22  1  0  0  0  0
 23 51  1  0  0  0  0
 24 23  1  0  0  0  0
 25 54  1  0  0  0  0
 25 24  1  0  0  0  0
 26 27  1  6  0  0  0
 26 32  1  0  0  0  0
 26 25  1  0  0  0  0
 28 26  1  0  0  0  0
 29 28  1  0  0  0  0
 30 58  1  0  0  0  0
 30 29  1  0  0  0  0
 31 29  2  0  0  0  0
 32 33  1  0  0  0  0
 33 59  1  0  0  0  0
 33 34  1  0  0  0  0
 34 61  1  0  0  0  0
 34 60  1  0  0  0  0
 35 32  2  0  0  0  0
 36  4  1  0  0  0  0
 37  4  1  0  0  0  0
 39  5  1  0  0  0  0
 41  6  1  0  0  0  0
 43  9  1  0  0  0  0
 46 20  1  0  0  0  0
 48 21  1  0  0  0  0
 49 21  1  0  0  0  0
 50 22  1  0  0  0  0
 52 23  1  0  0  0  0
 53 25  1  0  0  0  0
 55 28  1  0  0  0  0
 56 30  1  0  0  0  0
 57 30  1  0  0  0  0
 62 34  1  0  0  0  0
M  END
