-1 1
 OpenBabel05232413483D

 62 63  0  0  1  0  0  0  0  0999 V2000
    3.9958    0.6483    1.7362 O   0  0  0  0  0  0  0  0  0  0  0  0
    3.1957    1.1873    0.9838 C   0  0  0  0  0  0  0  0  0  0  0  0
    2.0968    1.8540    1.4531 N   0  0  0  0  0  0  0  0  0  0  0  0
    1.2613    2.7713    0.6929 C   0  0  0  0  0  0  0  0  0  0  0  0
   -0.2180    2.4808    0.9203 C   0  0  0  0  0  0  0  0  0  0  0  0
   -0.5370    2.5198    2.4125 C   0  0  0  0  0  0  0  0  0  0  0  0
    0.3608    1.5597    3.2124 C   0  0  2  0  0  0  0  0  0  0  0  0
    0.2244    1.7792    4.2798 H   0  0  0  0  0  0  0  0  0  0  0  0
    1.8289    1.8291    2.8817 C   0  0  0  0  0  0  0  0  0  0  0  0
   -0.0550    0.1658    3.0228 N   0  0  0  0  0  0  0  0  0  0  0  0
   -1.2005   -0.2322    3.6427 C   0  0  1  0  0  3  0  0  0  0  0  0
   -1.6298    0.4918    4.6917 N   0  0  0  0  0  0  0  0  0  0  0  0
   -2.6910    0.0813    5.3860 C   0  0  0  0  0  0  0  0  0  0  0  0
   -3.4418   -0.9866    5.1778 N   0  0  0  0  0  2  0  0  0  0  0  0
   -1.9699   -1.3631    3.2422 C   0  0  0  0  0  0  0  0  0  0  0  0
   -3.0595   -1.6636    4.0866 C   0  0  0  0  0  0  0  0  0  0  0  0
   -3.7160   -2.7329    3.5557 N   0  0  0  0  0  0  0  0  0  0  0  0
   -4.5602   -3.1232    3.9469 H   0  0  0  0  0  0  0  0  0  0  0  0
   -3.1101   -3.0901    2.3646 C   0  0  0  0  0  0  0  0  0  0  0  0
   -2.0359   -2.2790    2.1308 C   0  0  0  0  0  0  0  0  0  0  0  0
    0.6519   -0.7405    2.1297 C   0  0  0  0  0  0  0  0  0  0  0  0
    3.3989    1.0626   -0.4944 C   0  0  0  0  0  0  0  0  0  0  0  0
    2.4830    0.6006   -1.3473 C   0  0  0  0  0  0  0  0  0  0  0  0
   -1.0530   -0.7561   -1.2259 S   0  0  0  0  0  1  0  0  0  0  0  0
   -0.0588   -1.5403   -2.5457 C   0  0  0  0  0  0  0  0  0  0  0  0
   -0.1717   -0.8907   -3.9453 C   0  0  2  0  0  0  0  0  0  0  0  0
   -1.2450   -0.8484   -4.1978 H   0  0  0  0  0  0  0  0  0  0  0  0
    0.5345   -1.6486   -4.9556 N   0  0  0  0  0  0  0  0  0  0  0  0
    0.0741   -2.7863   -5.5178 C   0  0  0  0  0  0  0  0  0  0  0  0
    0.9685   -3.3713   -6.6029 C   0  0  0  0  0  0  0  0  0  0  0  0
   -0.9631   -3.3392   -5.1942 O   0  0  0  0  0  0  0  0  0  0  0  0
    0.4115    0.5289   -4.0160 C   0  0  0  0  0  0  0  0  0  0  0  0
   -0.1624    1.4259   -3.1991 N   0  0  0  0  0  0  0  0  0  0  0  0
    0.3732    2.7555   -3.0803 C   0  0  0  0  0  0  0  0  0  0  0  0
    1.3444    0.8028   -4.7715 O   0  0  0  0  0  0  0  0  0  0  0  0
    1.5191    2.7090   -0.3677 H   0  0  0  0  0  0  0  0  0  0  0  0
    1.4880    3.8049    1.0275 H   0  0  0  0  0  0  0  0  0  0  0  0
   -0.4681    1.4986    0.4832 H   0  0  0  0  0  0  0  0  0  0  0  0
   -0.8201    3.2289    0.3801 H   0  0  0  0  0  0  0  0  0  0  0  0
   -1.5911    2.2777    2.6086 H   0  0  0  0  0  0  0  0  0  0  0  0
   -0.3711    3.5430    2.7976 H   0  0  0  0  0  0  0  0  0  0  0  0
    2.5035    1.0992    3.3433 H   0  0  0  0  0  0  0  0  0  0  0  0
    2.0780    2.8167    3.3149 H   0  0  0  0  0  0  0  0  0  0  0  0
   -2.9692    0.7131    6.2395 H   0  0  0  0  0  0  0  0  0  0  0  0
   -3.5135   -3.8922    1.7515 H   0  0  0  0  0  0  0  0  0  0  0  0
   -1.4329   -2.2786    1.2238 H   0  0  0  0  0  0  0  0  0  0  0  0
    0.4735   -1.7707    2.4614 H   0  0  0  0  0  0  0  0  0  0  0  0
    1.7329   -0.5742    2.2036 H   0  0  0  0  0  0  0  0  0  0  0  0
    0.3361   -0.6559    1.0741 H   0  0  0  0  0  0  0  0  0  0  0  0
    4.4342    1.2248   -0.8107 H   0  0  0  0  0  0  0  0  0  0  0  0
    1.4506    0.3724   -1.0416 H   0  0  0  0  0  0  0  0  0  0  0  0
    2.7335    0.4265   -2.3981 H   0  0  0  0  0  0  0  0  0  0  0  0
   -0.3920   -2.5792   -2.6788 H   0  0  0  0  0  0  0  0  0  0  0  0
    1.0117   -1.5764   -2.2750 H   0  0  0  0  0  0  0  0  0  0  0  0
    1.3298   -1.1504   -5.3469 H   0  0  0  0  0  0  0  0  0  0  0  0
    0.3542   -3.5724   -7.4916 H   0  0  0  0  0  0  0  0  0  0  0  0
    1.3594   -4.3365   -6.2488 H   0  0  0  0  0  0  0  0  0  0  0  0
    1.8125   -2.7238   -6.8787 H   0  0  0  0  0  0  0  0  0  0  0  0
   -0.7234    1.0097   -2.4251 H   0  0  0  0  0  0  0  0  0  0  0  0
    1.4338    2.7512   -2.7715 H   0  0  0  0  0  0  0  0  0  0  0  0
   -0.2112    3.3085   -2.3323 H   0  0  0  0  0  0  0  0  0  0  0  0
    0.3172    3.2923   -4.0403 H   0  0  0  0  0  0  0  0  0  0  0  0
  2  3  1  0  0  0  0
  2  1  2  0  0  0  0
  3  9  1  0  0  0  0
  4  5  1  0  0  0  0
  4 37  1  0  0  0  0
  4  3  1  0  0  0  0
  5  6  1  0  0  0  0
  6 40  1  0  0  0  0
  6 41  1  0  0  0  0
  6  7  1  0  0  0  0
  7  8  1  1  0  0  0
  9  7  1  0  0  0  0
  9 43  1  0  0  0  0
  9 42  1  0  0  0  0
 10  7  1  0  0  0  0
 11 10  1  6  0  0  0
 11 12  1  0  0  0  0
 12 13  2  0  0  0  0
 13 44  1  0  0  0  0
 14 13  1  0  0  0  0
 15 11  1  0  0  0  0
 15 16  2  0  0  0  0
 16 14  1  0  0  0  0
 17 18  1  0  0  0  0
 17 16  1  0  0  0  0
 19 17  1  0  0  0  0
 20 19  2  0  0  0  0
 20 15  1  0  0  0  0
 21 48  1  0  0  0  0
 21 47  1  0  0  0  0
 21 10  1  0  0  0  0
 22  2  1  0  0  0  0
 23 51  1  0  0  0  0
 23 22  2  0  0  0  0
 25 54  1  0  0  0  0
 25 24  1  0  0  0  0
 26 27  1  6  0  0  0
 26 25  1  0  0  0  0
 28 26  1  0  0  0  0
 29 31  2  0  0  0  0
 29 28  1  0  0  0  0
 30 57  1  0  0  0  0
 30 29  1  0  0  0  0
 32 26  1  0  0  0  0
 32 33  1  0  0  0  0
 33 34  1  0  0  0  0
 33 59  1  0  0  0  0
 34 60  1  0  0  0  0
 34 61  1  0  0  0  0
 35 32  2  0  0  0  0
 36  4  1  0  0  0  0
 38  5  1  0  0  0  0
 39  5  1  0  0  0  0
 45 19  1  0  0  0  0
 46 20  1  0  0  0  0
 49 21  1  0  0  0  0
 50 22  1  0  0  0  0
 52 23  1  0  0  0  0
 53 25  1  0  0  0  0
 55 28  1  0  0  0  0
 56 30  1  0  0  0  0
 58 30  1  0  0  0  0
 62 34  1  0  0  0  0
M  END
