62
-1 1
O         8.625341   -6.228651    7.875184
C         7.504561   -6.566487    7.475037
N         6.368292   -5.992334    8.127795
C         5.278948   -5.401164    7.378676
C         3.990047   -5.429292    8.195349
C         4.193536   -4.708924    9.525391
C         5.413806   -5.240358   10.292555
H         5.642342   -4.519418   11.086725
C         6.639664   -5.309042    9.374504
N         5.123078   -6.505053   10.995649
C         4.524448   -6.448639   12.208923
N         4.188923   -5.235763   12.685484
C         3.597420   -5.120736   13.871218
N         3.259554   -6.083610   14.711542
C         4.228428   -7.593732   13.019930
C         3.595382   -7.292634   14.245513
N         3.380114   -8.462615   14.911683
H         2.941461   -8.514715   15.819192
C         3.860222   -9.511812   14.158200
C         4.389010   -9.028531   12.993565
C         5.435992   -7.789514   10.398379
C         7.290320   -7.555390    6.465670
C         6.081951   -8.193457    6.126390
S         4.981587   -7.414934    4.378971
C         6.309068   -7.670986    3.162153
C         6.657897   -6.430179    2.311684
H         5.711115   -5.943163    2.019711
N         7.399175   -6.784101    1.122445
C         6.845419   -7.351786    0.028883
C         7.793690   -7.542023   -1.145810
O         5.682006   -7.711187   -0.035788
C         7.541573   -5.402591    3.049406
N         7.073924   -4.979181    4.232903
C         7.838219   -4.117778    5.104405
O         8.593009   -5.016862    2.546344
H         5.144363   -5.922319    6.423966
H         5.514754   -4.340141    7.131728
H         3.694009   -6.478265    8.366302
H         3.175357   -4.957953    7.622806
H         3.305750   -4.760706   10.172581
H         4.373540   -3.638176    9.321659
H         7.486038   -5.801865    9.869165
H         6.963291   -4.262117    9.193207
H         3.360432   -4.095625   14.183057
H         3.787093  -10.536533   14.513963
H         4.837955   -9.642005   12.220528
H         6.218257   -8.320261   10.964946
H         5.796844   -7.628780    9.377262
H         4.539295   -8.426715   10.346983
H         8.212859   -7.871459    5.972640
H         5.241476   -8.117085    6.826044
H         6.164360   -9.197642    5.700400
H         5.999832   -8.459079    2.463283
H         7.217420   -8.007320    3.692058
H         8.320567   -6.352410    1.090333
H         7.343910   -7.080549   -2.036064
H         7.887491   -8.619004   -1.346910
H         8.794128   -7.119239   -0.979721
H         6.268026   -5.489189    4.606229
H         8.292794   -4.678460    5.936506
H         7.191552   -3.330422    5.521922
H         8.635575   -3.649123    4.514372
