-1 1
 OpenBabel05232413483D

 62 63  0  0  1  0  0  0  0  0999 V2000
   -2.1305   -4.2802   -3.0121 C   0  0  0  0  0  0  0  0  0  0  0  0
   -1.9887   -2.8589   -2.5696 C   0  0  0  0  0  0  0  0  0  0  0  0
   -0.6941   -1.8405    0.6134 S   0  0  0  0  0  1  0  0  0  0  0  0
    0.6556   -0.6332    0.3481 C   0  0  0  0  0  0  0  0  0  0  0  0
    2.0836   -1.1921    0.1906 C   0  0  2  0  0  0  0  0  0  0  0  0
    2.2322   -1.9778    0.9505 H   0  0  0  0  0  0  0  0  0  0  0  0
    3.0588   -0.1394    0.3816 N   0  0  0  0  0  0  0  0  0  0  0  0
    3.4073    0.3709    1.5809 C   0  0  0  0  0  0  0  0  0  0  0  0
    4.2891    1.6076    1.5225 C   0  0  0  0  0  0  0  0  0  0  0  0
    3.0211   -0.0731    2.6513 O   0  0  0  0  0  0  0  0  0  0  0  0
    2.3450   -1.7648   -1.2065 C   0  0  0  0  0  0  0  0  0  0  0  0
    1.4472   -2.6728   -1.6319 N   0  0  0  0  0  0  0  0  0  0  0  0
    1.4797   -3.1194   -3.0005 C   0  0  0  0  0  0  0  0  0  0  0  0
    3.3022   -1.3979   -1.8803 O   0  0  0  0  0  0  0  0  0  0  0  0
   -1.6349   -1.8453   -3.3634 C   0  0  0  0  0  0  0  0  0  0  0  0
   -1.3097   -0.4603   -2.8877 C   0  0  0  0  0  0  0  0  0  0  0  0
   -2.2572    0.2430   -2.1913 N   0  0  0  0  0  0  0  0  0  0  0  0
   -3.6649   -0.1077   -2.1345 C   0  0  0  0  0  0  0  0  0  0  0  0
   -4.2212    0.0931   -0.7307 C   0  0  0  0  0  0  0  0  0  0  0  0
   -4.0231    1.5456   -0.3077 C   0  0  0  0  0  0  0  0  0  0  0  0
   -2.5448    1.9473   -0.3818 C   0  0  2  0  0  0  0  0  0  0  0  0
   -2.4568    3.0374   -0.2860 H   0  0  0  0  0  0  0  0  0  0  0  0
   -1.9450    1.5941   -1.7532 C   0  0  0  0  0  0  0  0  0  0  0  0
   -1.8194    1.4024    0.7451 N   0  0  0  0  0  0  0  0  0  0  0  0
   -0.9379    2.1467    1.4578 C   0  0  2  0  0  3  0  0  0  0  0  0
   -0.6298    3.3855    1.0457 N   0  0  0  0  0  0  0  0  0  0  0  0
    0.3130    4.0687    1.7030 C   0  0  0  0  0  0  0  0  0  0  0  0
    1.0262    3.6865    2.7491 N   0  0  0  0  0  2  0  0  0  0  0  0
   -0.3221    1.6449    2.6320 C   0  0  0  0  0  0  0  0  0  0  0  0
    0.6698    2.4687    3.1887 C   0  0  0  0  0  0  0  0  0  0  0  0
    1.1956    1.8118    4.2604 N   0  0  0  0  0  0  0  0  0  0  0  0
    2.0397    2.0957    4.7342 H   0  0  0  0  0  0  0  0  0  0  0  0
    0.5843    0.5793    4.3753 C   0  0  0  0  0  0  0  0  0  0  0  0
   -0.3745    0.4423    3.4125 C   0  0  0  0  0  0  0  0  0  0  0  0
   -0.2143    0.0096   -3.1550 O   0  0  0  0  0  0  0  0  0  0  0  0
   -1.4346   -4.9246   -2.4498 H   0  0  0  0  0  0  0  0  0  0  0  0
   -1.9291   -4.4032   -4.0874 H   0  0  0  0  0  0  0  0  0  0  0  0
   -3.1441   -4.6597   -2.8008 H   0  0  0  0  0  0  0  0  0  0  0  0
   -2.1077   -2.6517   -1.4969 H   0  0  0  0  0  0  0  0  0  0  0  0
    0.7129    0.0143    1.2283 H   0  0  0  0  0  0  0  0  0  0  0  0
    0.4443    0.0062   -0.5259 H   0  0  0  0  0  0  0  0  0  0  0  0
    3.5256    0.1541   -0.4707 H   0  0  0  0  0  0  0  0  0  0  0  0
    3.6491    2.4846    1.7109 H   0  0  0  0  0  0  0  0  0  0  0  0
    4.7943    1.7416    0.5553 H   0  0  0  0  0  0  0  0  0  0  0  0
    5.0343    1.5537    2.3274 H   0  0  0  0  0  0  0  0  0  0  0  0
    0.5791   -2.7440   -1.0791 H   0  0  0  0  0  0  0  0  0  0  0  0
    2.4996   -3.4293   -3.2715 H   0  0  0  0  0  0  0  0  0  0  0  0
    1.1694   -2.3163   -3.6903 H   0  0  0  0  0  0  0  0  0  0  0  0
    0.8010   -3.9747   -3.1211 H   0  0  0  0  0  0  0  0  0  0  0  0
   -1.3951   -2.0149   -4.4197 H   0  0  0  0  0  0  0  0  0  0  0  0
   -3.7978   -1.1398   -2.4689 H   0  0  0  0  0  0  0  0  0  0  0  0
   -4.2268    0.5409   -2.8407 H   0  0  0  0  0  0  0  0  0  0  0  0
   -3.6940   -0.5882   -0.0415 H   0  0  0  0  0  0  0  0  0  0  0  0
   -5.2898   -0.1757   -0.7157 H   0  0  0  0  0  0  0  0  0  0  0  0
   -4.3927    1.7247    0.7130 H   0  0  0  0  0  0  0  0  0  0  0  0
   -4.6017    2.1980   -0.9868 H   0  0  0  0  0  0  0  0  0  0  0  0
   -0.8558    1.7109   -1.7350 H   0  0  0  0  0  0  0  0  0  0  0  0
   -2.3421    2.3159   -2.4965 H   0  0  0  0  0  0  0  0  0  0  0  0
   -1.7662    0.3792    0.8542 H   0  0  0  0  0  0  0  0  0  0  0  0
    0.5292    5.0696    1.3075 H   0  0  0  0  0  0  0  0  0  0  0  0
    0.9184   -0.1334    5.1241 H   0  0  0  0  0  0  0  0  0  0  0  0
   -0.9675   -0.4466    3.2070 H   0  0  0  0  0  0  0  0  0  0  0  0
  1 38  1  0  0  0  0
  1  2  1  0  0  0  0
  1 36  1  0  0  0  0
  2 39  1  0  0  0  0
  4  3  1  0  0  0  0
  4 40  1  0  0  0  0
  5  4  1  0  0  0  0
  5  7  1  0  0  0  0
  5  6  1  1  0  0  0
  7  8  1  0  0  0  0
  8 10  2  0  0  0  0
  9  8  1  0  0  0  0
  9 43  1  0  0  0  0
  9 45  1  0  0  0  0
 11  5  1  0  0  0  0
 12 11  1  0  0  0  0
 12 46  1  0  0  0  0
 13 12  1  0  0  0  0
 14 11  2  0  0  0  0
 15 16  1  0  0  0  0
 15  2  2  0  0  0  0
 16 17  1  0  0  0  0
 17 18  1  0  0  0  0
 17 23  1  0  0  0  0
 18 19  1  0  0  0  0
 19 54  1  0  0  0  0
 19 20  1  0  0  0  0
 19 53  1  0  0  0  0
 20 55  1  0  0  0  0
 21 20  1  0  0  0  0
 21 22  1  1  0  0  0
 21 24  1  0  0  0  0
 23 57  1  0  0  0  0
 23 21  1  0  0  0  0
 24 59  1  0  0  0  0
 25 24  1  6  0  0  0
 25 29  1  0  0  0  0
 26 25  1  0  0  0  0
 26 27  2  0  0  0  0
 27 28  1  0  0  0  0
 28 30  1  0  0  0  0
 29 30  2  0  0  0  0
 29 34  1  0  0  0  0
 30 31  1  0  0  0  0
 31 33  1  0  0  0  0
 31 32  1  0  0  0  0
 33 61  1  0  0  0  0
 34 33  2  0  0  0  0
 35 16  2  0  0  0  0
 37  1  1  0  0  0  0
 41  4  1  0  0  0  0
 42  7  1  0  0  0  0
 44  9  1  0  0  0  0
 47 13  1  0  0  0  0
 48 13  1  0  0  0  0
 49 13  1  0  0  0  0
 50 15  1  0  0  0  0
 51 18  1  0  0  0  0
 52 18  1  0  0  0  0
 56 20  1  0  0  0  0
 58 23  1  0  0  0  0
 60 27  1  0  0  0  0
 62 34  1  0  0  0  0
M  END
