62
-1 1
C        -2.130540   -4.280238   -3.012133
C        -1.988741   -2.858897   -2.569572
S        -0.694060   -1.840508    0.613409
C         0.655558   -0.633200    0.348084
C         2.083614   -1.192110    0.190627
H         2.232247   -1.977840    0.950541
N         3.058838   -0.139425    0.381565
C         3.407342    0.370894    1.580881
C         4.289137    1.607602    1.522489
O         3.021066   -0.073144    2.651298
C         2.345036   -1.764787   -1.206466
N         1.447197   -2.672815   -1.631877
C         1.479677   -3.119381   -3.000548
O         3.302159   -1.397923   -1.880340
C        -1.634893   -1.845348   -3.363383
C        -1.309658   -0.460322   -2.887741
N        -2.257234    0.243038   -2.191347
C        -3.664875   -0.107663   -2.134518
C        -4.221179    0.093145   -0.730655
C        -4.023109    1.545649   -0.307739
C        -2.544825    1.947312   -0.381762
H        -2.456833    3.037386   -0.285965
C        -1.945031    1.594146   -1.753220
N        -1.819394    1.402368    0.745123
C        -0.937883    2.146694    1.457762
N        -0.629841    3.385474    1.045651
C         0.313015    4.068669    1.703036
N         1.026204    3.686541    2.749131
C        -0.322144    1.644913    2.631983
C         0.669848    2.468674    3.188678
N         1.195625    1.811801    4.260408
H         2.039674    2.095745    4.734177
C         0.584330    0.579281    4.375270
C        -0.374485    0.442328    3.412471
O        -0.214322    0.009588   -3.155031
H        -1.434567   -4.924570   -2.449841
H        -1.929062   -4.403155   -4.087400
H        -3.144108   -4.659746   -2.800751
H        -2.107655   -2.651674   -1.496867
H         0.712853    0.014311    1.228297
H         0.444296    0.006240   -0.525877
H         3.525582    0.154086   -0.470749
H         3.649051    2.484569    1.710862
H         4.794254    1.741609    0.555345
H         5.034304    1.553708    2.327402
H         0.579110   -2.744047   -1.079070
H         2.499629   -3.429286   -3.271475
H         1.169445   -2.316260   -3.690328
H         0.800971   -3.974692   -3.121137
H        -1.395110   -2.014932   -4.419688
H        -3.797784   -1.139800   -2.468869
H        -4.226826    0.540921   -2.840651
H        -3.694012   -0.588195   -0.041516
H        -5.289802   -0.175684   -0.715655
H        -4.392675    1.724654    0.712976
H        -4.601746    2.197991   -0.986763
H        -0.855807    1.710933   -1.734975
H        -2.342077    2.315941   -2.496510
H        -1.766180    0.379225    0.854219
H         0.529217    5.069562    1.307474
H         0.918440   -0.133401    5.124111
H        -0.967451   -0.446595    3.206997
