-1 1
 OpenBabel05192410563D

 62 64  0  0  1  0  0  0  0  0999 V2000
   -2.0112   -3.8731   -0.0434 C   0  0  0  0  0  0  0  0  0  0  0  0
   -1.2791   -2.5779   -0.3954 C   0  0  1  0  0  0  0  0  0  0  0  0
    0.4005   -2.7307    0.4678 S   0  0  0  0  0  0  0  0  0  0  0  0
    1.0587   -1.0429    0.3086 C   0  0  0  0  0  0  0  0  0  0  0  0
    2.5060   -0.9944   -0.2160 C   0  0  2  0  0  0  0  0  0  0  0  0
    2.9956   -1.9522    0.0398 H   0  0  0  0  0  0  0  0  0  0  0  0
    3.2730    0.0964    0.3533 N   0  0  0  0  0  0  0  0  0  0  0  0
    3.6244    0.2246    1.6461 C   0  0  0  0  0  0  0  0  0  0  0  0
    4.4515    1.4505    1.9696 C   0  0  0  0  0  0  0  0  0  0  0  0
    3.2590   -0.5451    2.5318 O   0  0  0  0  0  0  0  0  0  0  0  0
    2.6542   -0.8137   -1.7451 C   0  0  0  0  0  0  0  0  0  0  0  0
    1.7099   -1.3625   -2.5124 N   0  0  0  0  0  0  0  0  0  0  0  0
    1.7008   -1.2246   -3.9525 C   0  0  0  0  0  0  0  0  0  0  0  0
    3.6140   -0.1841   -2.1851 O   0  0  0  0  0  0  0  0  0  0  0  0
   -1.1657   -2.3060   -1.8464 C   0  0  0  0  0  3  0  0  0  0  0  0
   -1.6224   -1.1767   -2.5209 C   0  0  0  0  0  0  0  0  0  0  0  0
   -2.3894   -0.2036   -1.7108 N   0  0  0  0  0  0  0  0  0  0  0  0
   -3.7995   -0.2757   -2.0696 C   0  0  0  0  0  0  0  0  0  0  0  0
   -4.6505    0.6413   -1.1937 C   0  0  0  0  0  0  0  0  0  0  0  0
   -4.1054    2.0716   -1.2010 C   0  0  0  0  0  0  0  0  0  0  0  0
   -2.6041    2.0866   -0.9027 C   0  0  2  0  0  0  0  0  0  0  0  0
   -2.2006    3.1024   -1.0022 H   0  0  0  0  0  0  0  0  0  0  0  0
   -1.8810    1.1480   -1.8757 C   0  0  0  0  0  0  0  0  0  0  0  0
   -2.3707    1.6671    0.4741 N   0  0  0  0  0  0  0  0  0  0  0  0
   -1.2162    1.9676    1.1265 C   0  0  2  0  0  3  0  0  0  0  0  0
   -0.4658    2.9953    0.7196 N   0  0  0  0  0  0  0  0  0  0  0  0
    0.7099    3.2035    1.3216 C   0  0  0  0  0  0  0  0  0  0  0  0
    1.2742    2.4912    2.2817 N   0  0  0  0  0  2  0  0  0  0  0  0
   -0.7806    1.1755    2.2155 C   0  0  0  0  0  0  0  0  0  0  0  0
    0.5048    1.4720    2.6939 C   0  0  0  0  0  0  0  0  0  0  0  0
    0.8557    0.5072    3.5948 N   0  0  0  0  0  0  0  0  0  0  0  0
    1.8337    0.2754    3.7699 H   0  0  0  0  0  0  0  0  0  0  0  0
   -0.1679   -0.4151    3.6663 C   0  0  0  0  0  0  0  0  0  0  0  0
   -1.2065   -0.0328    2.8616 C   0  0  0  0  0  0  0  0  0  0  0  0
   -1.4717   -0.8980   -3.7272 O   0  0  0  0  0  0  0  0  0  0  0  0
   -2.0650   -4.0426    1.0447 H   0  0  0  0  0  0  0  0  0  0  0  0
   -1.5125   -4.7418   -0.5039 H   0  0  0  0  0  0  0  0  0  0  0  0
   -3.0339   -3.8275   -0.4483 H   0  0  0  0  0  0  0  0  0  0  0  0
   -1.7760   -1.7275    0.0934 H   0  0  0  0  0  0  0  0  0  0  0  0
    1.0488   -0.5949    1.3041 H   0  0  0  0  0  0  0  0  0  0  0  0
    0.3743   -0.4678   -0.3356 H   0  0  0  0  0  0  0  0  0  0  0  0
    3.7486    0.6448   -0.3603 H   0  0  0  0  0  0  0  0  0  0  0  0
    3.7445    2.2225    2.3136 H   0  0  0  0  0  0  0  0  0  0  0  0
    5.0088    1.8363    1.1044 H   0  0  0  0  0  0  0  0  0  0  0  0
    5.1445    1.2085    2.7855 H   0  0  0  0  0  0  0  0  0  0  0  0
    0.8595   -1.7596   -2.0957 H   0  0  0  0  0  0  0  0  0  0  0  0
    2.1785   -0.2757   -4.2341 H   0  0  0  0  0  0  0  0  0  0  0  0
    0.6509   -1.2311   -4.2811 H   0  0  0  0  0  0  0  0  0  0  0  0
    2.2588   -2.0427   -4.4398 H   0  0  0  0  0  0  0  0  0  0  0  0
   -0.7339   -3.0977   -2.4709 H   0  0  0  0  0  0  0  0  0  0  0  0
   -4.1274   -1.3214   -1.9602 H   0  0  0  0  0  0  0  0  0  0  0  0
   -3.9424   -0.0025   -3.1386 H   0  0  0  0  0  0  0  0  0  0  0  0
   -4.6689    0.2512   -0.1607 H   0  0  0  0  0  0  0  0  0  0  0  0
   -5.6953    0.6288   -1.5449 H   0  0  0  0  0  0  0  0  0  0  0  0
   -4.6417    2.7066   -0.4780 H   0  0  0  0  0  0  0  0  0  0  0  0
   -4.2555    2.5089   -2.2026 H   0  0  0  0  0  0  0  0  0  0  0  0
   -0.8011    1.1536   -1.6589 H   0  0  0  0  0  0  0  0  0  0  0  0
   -2.0024    1.5129   -2.9166 H   0  0  0  0  0  0  0  0  0  0  0  0
   -2.6713    0.7113    0.6349 H   0  0  0  0  0  0  0  0  0  0  0  0
    1.2843    4.0617    0.9516 H   0  0  0  0  0  0  0  0  0  0  0  0
   -0.0618   -1.3066    4.2788 H   0  0  0  0  0  0  0  0  0  0  0  0
   -2.1391   -0.5749    2.7256 H   0  0  0  0  0  0  0  0  0  0  0  0
  1 36  1  0  0  0  0
  2  1  1  0  0  0  0
  2 39  1  1  0  0  0
  2  3  1  0  0  0  0
  4  3  1  0  0  0  0
  4 40  1  0  0  0  0
  5  6  1  1  0  0  0
  5  4  1  0  0  0  0
  5  7  1  0  0  0  0
  7  8  1  0  0  0  0
  8  9  1  0  0  0  0
  8 10  2  0  0  0  0
  9 43  1  0  0  0  0
  9 45  1  0  0  0  0
 11  5  1  0  0  0  0
 12 46  1  0  0  0  0
 12 11  1  0  0  0  0
 13 12  1  0  0  0  0
 14 11  2  0  0  0  0
 15  2  1  0  0  0  0
 16 15  1  0  0  0  0
 16 17  1  0  0  0  0
 18 51  1  0  0  0  0
 18 17  1  0  0  0  0
 18 19  1  0  0  0  0
 19 53  1  0  0  0  0
 20 19  1  0  0  0  0
 20 21  1  0  0  0  0
 20 55  1  0  0  0  0
 21 22  1  6  0  0  0
 21 24  1  0  0  0  0
 23 17  1  0  0  0  0
 23 57  1  0  0  0  0
 23 21  1  0  0  0  0
 24 59  1  0  0  0  0
 25 24  1  6  0  0  0
 25 29  1  0  0  0  0
 26 25  1  0  0  0  0
 26 27  2  0  0  0  0
 27 28  1  0  0  0  0
 28 30  1  0  0  0  0
 29 30  2  0  0  0  0
 29 34  1  0  0  0  0
 30 31  1  0  0  0  0
 31 33  1  0  0  0  0
 31 32  1  0  0  0  0
 33 61  1  0  0  0  0
 34 33  2  0  0  0  0
 35 16  2  0  0  0  0
 37  1  1  0  0  0  0
 38  1  1  0  0  0  0
 41  4  1  0  0  0  0
 42  7  1  0  0  0  0
 44  9  1  0  0  0  0
 47 13  1  0  0  0  0
 48 13  1  0  0  0  0
 49 13  1  0  0  0  0
 50 15  1  0  0  0  0
 52 18  1  0  0  0  0
 54 19  1  0  0  0  0
 56 20  1  0  0  0  0
 58 23  1  0  0  0  0
 60 27  1  0  0  0  0
 62 34  1  0  0  0  0
M  END
