62
-1 1
O         1.229219    0.040524    2.106876
C         0.472371    0.584220    1.248585
N        -0.130466   -0.238006    0.218294
C         0.443134   -0.160978   -1.110558
C         1.556968   -1.192298   -1.328365
C         1.048697   -2.601079   -1.025308
C         0.431419   -2.672696    0.381334
H        -0.037692   -3.662324    0.510977
C        -0.642091   -1.567142    0.529973
H        -1.394397   -1.782531   -0.254203
C        -1.365180   -1.607080    1.870201
N         1.429283   -2.490920    1.409680
C         2.260113   -3.430849    1.851448
N         2.213829   -4.688536    1.365704
C         3.065117   -5.593978    1.855438
N         3.998185   -5.448603    2.784821
C         3.221264   -3.129088    2.861881
C         4.038359   -4.191186    3.260280
N         4.885600   -3.715862    4.222201
H         5.585691   -4.275017    4.685550
C         4.618955   -2.373480    4.439177
C         3.596981   -1.971463    3.619182
C         0.135569    1.931932    1.227769
C        -0.898948    2.498601    0.363522
S        -0.267990    3.446892   -1.204181
C        -1.366671    2.761854   -2.480873
C        -2.863230    3.112552   -2.342154
H        -3.143782    2.968968   -1.284264
N        -3.681037    2.255370   -3.164946
C        -3.940106    0.965019   -2.839307
C        -4.872431    0.230682   -3.786180
O        -3.450030    0.412691   -1.870906
C        -3.200305    4.555871   -2.748185
N        -2.527081    5.510181   -2.075733
C        -2.672606    6.912529   -2.369635
O        -4.031755    4.788830   -3.616925
H         0.820131    0.858669   -1.275163
H        -0.361062   -0.341078   -1.854228
H         2.398182   -0.952241   -0.657010
H         1.936409   -1.130591   -2.362666
H         1.850093   -3.352186   -1.101513
H         0.271464   -2.878919   -1.760719
H        -0.672808   -1.404028    2.697645
H        -1.823491   -2.596224    2.022697
H        -2.155696   -0.842737    1.887012
H         1.493338   -1.504982    1.782783
H         2.976008   -6.599359    1.421285
H         5.190217   -1.808265    5.172235
H         3.150346   -0.980564    3.543280
H         0.641186    2.572592    1.954770
H        -1.519490    3.256600    0.864661
H        -1.536585    1.708875   -0.062711
H        -1.283504    1.667438   -2.434082
H        -0.990186    3.090176   -3.462235
H        -4.206275    2.745510   -3.883356
H        -5.326031    0.878440   -4.549012
H        -5.662428   -0.251192   -3.194346
H        -4.303499   -0.567385   -4.284652
H        -1.752221    5.191024   -1.483415
H        -2.809051    7.491851   -1.443729
H        -3.555105    7.043566   -3.008368
H        -1.793381    7.311805   -2.902040
