-1 1
 OpenBabel05192410563D

 62 64  0  0  1  0  0  0  0  0999 V2000
    1.2292    0.0405    2.1069 O   0  0  0  0  0  0  0  0  0  0  0  0
    0.4724    0.5842    1.2486 C   0  0  0  0  0  0  0  0  0  0  0  0
   -0.1305   -0.2380    0.2183 N   0  0  0  0  0  0  0  0  0  0  0  0
    0.4431   -0.1610   -1.1106 C   0  0  0  0  0  0  0  0  0  0  0  0
    1.5570   -1.1923   -1.3284 C   0  0  0  0  0  0  0  0  0  0  0  0
    1.0487   -2.6011   -1.0253 C   0  0  0  0  0  0  0  0  0  0  0  0
    0.4314   -2.6727    0.3813 C   0  0  2  0  0  0  0  0  0  0  0  0
   -0.0377   -3.6623    0.5110 H   0  0  0  0  0  0  0  0  0  0  0  0
   -0.6421   -1.5671    0.5300 C   0  0  1  0  0  0  0  0  0  0  0  0
   -1.3944   -1.7825   -0.2542 H   0  0  0  0  0  0  0  0  0  0  0  0
   -1.3652   -1.6071    1.8702 C   0  0  0  0  0  0  0  0  0  0  0  0
    1.4293   -2.4909    1.4097 N   0  0  0  0  0  0  0  0  0  0  0  0
    2.2601   -3.4308    1.8514 C   0  0  2  0  0  3  0  0  0  0  0  0
    2.2138   -4.6885    1.3657 N   0  0  0  0  0  0  0  0  0  0  0  0
    3.0651   -5.5940    1.8554 C   0  0  0  0  0  0  0  0  0  0  0  0
    3.9982   -5.4486    2.7848 N   0  0  0  0  0  2  0  0  0  0  0  0
    3.2213   -3.1291    2.8619 C   0  0  0  0  0  0  0  0  0  0  0  0
    4.0384   -4.1912    3.2603 C   0  0  0  0  0  0  0  0  0  0  0  0
    4.8856   -3.7159    4.2222 N   0  0  0  0  0  0  0  0  0  0  0  0
    5.5857   -4.2750    4.6856 H   0  0  0  0  0  0  0  0  0  0  0  0
    4.6190   -2.3735    4.4392 C   0  0  0  0  0  0  0  0  0  0  0  0
    3.5970   -1.9715    3.6192 C   0  0  0  0  0  0  0  0  0  0  0  0
    0.1356    1.9319    1.2278 C   0  0  0  0  0  3  0  0  0  0  0  0
   -0.8989    2.4986    0.3635 C   0  0  0  0  0  0  0  0  0  0  0  0
   -0.2680    3.4469   -1.2042 S   0  0  0  0  0  0  0  0  0  0  0  0
   -1.3667    2.7619   -2.4809 C   0  0  0  0  0  0  0  0  0  0  0  0
   -2.8632    3.1126   -2.3422 C   0  0  2  0  0  0  0  0  0  0  0  0
   -3.1438    2.9690   -1.2843 H   0  0  0  0  0  0  0  0  0  0  0  0
   -3.6810    2.2554   -3.1649 N   0  0  0  0  0  0  0  0  0  0  0  0
   -3.9401    0.9650   -2.8393 C   0  0  0  0  0  0  0  0  0  0  0  0
   -4.8724    0.2307   -3.7862 C   0  0  0  0  0  0  0  0  0  0  0  0
   -3.4500    0.4127   -1.8709 O   0  0  0  0  0  0  0  0  0  0  0  0
   -3.2003    4.5559   -2.7482 C   0  0  0  0  0  0  0  0  0  0  0  0
   -2.5271    5.5102   -2.0757 N   0  0  0  0  0  0  0  0  0  0  0  0
   -2.6726    6.9125   -2.3696 C   0  0  0  0  0  0  0  0  0  0  0  0
   -4.0318    4.7888   -3.6169 O   0  0  0  0  0  0  0  0  0  0  0  0
    0.8201    0.8587   -1.2752 H   0  0  0  0  0  0  0  0  0  0  0  0
   -0.3611   -0.3411   -1.8542 H   0  0  0  0  0  0  0  0  0  0  0  0
    2.3982   -0.9522   -0.6570 H   0  0  0  0  0  0  0  0  0  0  0  0
    1.9364   -1.1306   -2.3627 H   0  0  0  0  0  0  0  0  0  0  0  0
    1.8501   -3.3522   -1.1015 H   0  0  0  0  0  0  0  0  0  0  0  0
    0.2715   -2.8789   -1.7607 H   0  0  0  0  0  0  0  0  0  0  0  0
   -0.6728   -1.4040    2.6976 H   0  0  0  0  0  0  0  0  0  0  0  0
   -1.8235   -2.5962    2.0227 H   0  0  0  0  0  0  0  0  0  0  0  0
   -2.1557   -0.8427    1.8870 H   0  0  0  0  0  0  0  0  0  0  0  0
    1.4933   -1.5050    1.7828 H   0  0  0  0  0  0  0  0  0  0  0  0
    2.9760   -6.5994    1.4213 H   0  0  0  0  0  0  0  0  0  0  0  0
    5.1902   -1.8083    5.1722 H   0  0  0  0  0  0  0  0  0  0  0  0
    3.1503   -0.9806    3.5433 H   0  0  0  0  0  0  0  0  0  0  0  0
    0.6412    2.5726    1.9548 H   0  0  0  0  0  0  0  0  0  0  0  0
   -1.5195    3.2566    0.8647 H   0  0  0  0  0  0  0  0  0  0  0  0
   -1.5366    1.7089   -0.0627 H   0  0  0  0  0  0  0  0  0  0  0  0
   -1.2835    1.6674   -2.4341 H   0  0  0  0  0  0  0  0  0  0  0  0
   -0.9902    3.0902   -3.4622 H   0  0  0  0  0  0  0  0  0  0  0  0
   -4.2063    2.7455   -3.8834 H   0  0  0  0  0  0  0  0  0  0  0  0
   -5.3260    0.8784   -4.5490 H   0  0  0  0  0  0  0  0  0  0  0  0
   -5.6624   -0.2512   -3.1943 H   0  0  0  0  0  0  0  0  0  0  0  0
   -4.3035   -0.5674   -4.2847 H   0  0  0  0  0  0  0  0  0  0  0  0
   -1.7522    5.1910   -1.4834 H   0  0  0  0  0  0  0  0  0  0  0  0
   -2.8091    7.4919   -1.4437 H   0  0  0  0  0  0  0  0  0  0  0  0
   -3.5551    7.0436   -3.0084 H   0  0  0  0  0  0  0  0  0  0  0  0
   -1.7934    7.3118   -2.9020 H   0  0  0  0  0  0  0  0  0  0  0  0
  2  1  2  0  0  0  0
  3  9  1  0  0  0  0
  3  2  1  0  0  0  0
  4  3  1  0  0  0  0
  5  4  1  0  0  0  0
  5  6  1  0  0  0  0
  5 39  1  0  0  0  0
  6  7  1  0  0  0  0
  7  8  1  1  0  0  0
  7  9  1  0  0  0  0
  7 12  1  0  0  0  0
  9 10  1  6  0  0  0
  9 11  1  0  0  0  0
 11 45  1  0  0  0  0
 11 44  1  0  0  0  0
 11 43  1  0  0  0  0
 12 46  1  0  0  0  0
 13 12  1  1  0  0  0
 13 17  1  0  0  0  0
 14 13  1  0  0  0  0
 14 15  2  0  0  0  0
 15 16  1  0  0  0  0
 16 18  1  0  0  0  0
 17 18  2  0  0  0  0
 17 22  1  0  0  0  0
 18 19  1  0  0  0  0
 19 21  1  0  0  0  0
 19 20  1  0  0  0  0
 21 48  1  0  0  0  0
 22 21  2  0  0  0  0
 23  2  1  0  0  0  0
 23 50  1  0  0  0  0
 24 51  1  0  0  0  0
 24 23  1  0  0  0  0
 25 24  1  0  0  0  0
 26 53  1  0  0  0  0
 26 27  1  0  0  0  0
 26 25  1  0  0  0  0
 27 28  1  1  0  0  0
 29 30  1  0  0  0  0
 29 27  1  0  0  0  0
 30 32  2  0  0  0  0
 31 57  1  0  0  0  0
 31 30  1  0  0  0  0
 33 27  1  0  0  0  0
 33 34  1  0  0  0  0
 34 59  1  0  0  0  0
 35 34  1  0  0  0  0
 35 60  1  0  0  0  0
 36 33  2  0  0  0  0
 37  4  1  0  0  0  0
 38  4  1  0  0  0  0
 40  5  1  0  0  0  0
 41  6  1  0  0  0  0
 42  6  1  0  0  0  0
 47 15  1  0  0  0  0
 49 22  1  0  0  0  0
 52 24  1  0  0  0  0
 54 26  1  0  0  0  0
 55 29  1  0  0  0  0
 56 31  1  0  0  0  0
 58 31  1  0  0  0  0
 61 35  1  0  0  0  0
 62 35  1  0  0  0  0
M  END
