-1 1
 OpenBabel05232413483D

 62 63  0  0  1  0  0  0  0  0999 V2000
    0.4141   -0.1817    2.6705 O   0  0  0  0  0  0  0  0  0  0  0  0
    0.2032    0.4682    1.6413 C   0  0  0  0  0  0  0  0  0  0  0  0
   -0.1016   -0.1157    0.4422 N   0  0  0  0  0  0  0  0  0  0  0  0
    0.5061    0.3360   -0.8101 C   0  0  0  0  0  0  0  0  0  0  0  0
    1.7141   -0.5520   -1.1182 C   0  0  0  0  0  0  0  0  0  0  0  0
    1.3377   -2.0349   -1.1414 C   0  0  0  0  0  0  0  0  0  0  0  0
    0.5501   -2.4639    0.1097 C   0  0  2  0  0  0  0  0  0  0  0  0
    0.1548   -3.4791   -0.0614 H   0  0  0  0  0  0  0  0  0  0  0  0
   -0.6143   -1.4860    0.3315 C   0  0  1  0  0  0  0  0  0  0  0  0
   -1.1983   -1.4667   -0.6027 H   0  0  0  0  0  0  0  0  0  0  0  0
   -1.5951   -1.8837    1.4257 C   0  0  0  0  0  0  0  0  0  0  0  0
    1.3604   -2.4835    1.3131 N   0  0  0  0  0  0  0  0  0  0  0  0
    2.2412   -3.4418    1.6310 C   0  0  2  0  0  3  0  0  0  0  0  0
    2.4494   -4.4713    0.7956 N   0  0  0  0  0  0  0  0  0  0  0  0
    3.3313   -5.4135    1.1471 C   0  0  0  0  0  0  0  0  0  0  0  0
    4.0668   -5.4903    2.2443 N   0  0  0  0  0  2  0  0  0  0  0  0
    2.9654   -3.3921    2.8551 C   0  0  0  0  0  0  0  0  0  0  0  0
    3.8506   -4.4556    3.0714 C   0  0  0  0  0  0  0  0  0  0  0  0
    4.4542   -4.2470    4.2792 N   0  0  0  0  0  0  0  0  0  0  0  0
    5.1438   -4.8646    4.6809 H   0  0  0  0  0  0  0  0  0  0  0  0
    3.9713   -3.0751    4.8319 C   0  0  0  0  0  0  0  0  0  0  0  0
    3.0498   -2.5150    3.9867 C   0  0  0  0  0  0  0  0  0  0  0  0
    0.2094    1.9528    1.6916 C   0  0  0  0  0  0  0  0  0  0  0  0
   -0.6304    2.6979    0.9670 C   0  0  0  0  0  0  0  0  0  0  0  0
    0.0519    4.0307   -2.2055 S   0  0  0  0  0  1  0  0  0  0  0  0
   -1.2205    2.9195   -2.9057 C   0  0  0  0  0  0  0  0  0  0  0  0
   -2.6446    3.1460   -2.3502 C   0  0  2  0  0  0  0  0  0  0  0  0
   -2.5573    3.2723   -1.2580 H   0  0  0  0  0  0  0  0  0  0  0  0
   -3.5446    2.0481   -2.6356 N   0  0  0  0  0  0  0  0  0  0  0  0
   -3.5203    0.8659   -1.9969 C   0  0  0  0  0  0  0  0  0  0  0  0
   -4.5794   -0.1334   -2.4302 C   0  0  0  0  0  0  0  0  0  0  0  0
   -2.7019    0.5719   -1.1335 O   0  0  0  0  0  0  0  0  0  0  0  0
   -3.3176    4.3980   -2.9337 C   0  0  0  0  0  0  0  0  0  0  0  0
   -2.6115    5.5288   -2.7846 N   0  0  0  0  0  0  0  0  0  0  0  0
   -3.0265    6.7759   -3.3662 C   0  0  0  0  0  0  0  0  0  0  0  0
   -4.4133    4.3267   -3.4889 O   0  0  0  0  0  0  0  0  0  0  0  0
    0.7884    1.3949   -0.7556 H   0  0  0  0  0  0  0  0  0  0  0  0
   -0.2572    0.2541   -1.5985 H   0  0  0  0  0  0  0  0  0  0  0  0
    2.4860   -0.3781   -0.3490 H   0  0  0  0  0  0  0  0  0  0  0  0
    2.1528   -0.2524   -2.0828 H   0  0  0  0  0  0  0  0  0  0  0  0
    2.2248   -2.6775   -1.2415 H   0  0  0  0  0  0  0  0  0  0  0  0
    0.6968   -2.2341   -2.0182 H   0  0  0  0  0  0  0  0  0  0  0  0
   -1.1255   -1.9730    2.4118 H   0  0  0  0  0  0  0  0  0  0  0  0
   -2.0493   -2.8496    1.1577 H   0  0  0  0  0  0  0  0  0  0  0  0
   -2.3940   -1.1306    1.4810 H   0  0  0  0  0  0  0  0  0  0  0  0
    1.1768   -1.7402    1.9956 H   0  0  0  0  0  0  0  0  0  0  0  0
    3.4573   -6.2290    0.4235 H   0  0  0  0  0  0  0  0  0  0  0  0
    4.3304   -2.7293    5.7984 H   0  0  0  0  0  0  0  0  0  0  0  0
    2.4963   -1.5912    4.1442 H   0  0  0  0  0  0  0  0  0  0  0  0
    0.8724    2.3876    2.4442 H   0  0  0  0  0  0  0  0  0  0  0  0
   -0.6633    3.7848    1.0557 H   0  0  0  0  0  0  0  0  0  0  0  0
   -1.3122    2.2290    0.2503 H   0  0  0  0  0  0  0  0  0  0  0  0
   -0.9661    1.8763   -2.6727 H   0  0  0  0  0  0  0  0  0  0  0  0
   -1.2631    2.9992   -4.0066 H   0  0  0  0  0  0  0  0  0  0  0  0
   -4.3205    2.3122   -3.2389 H   0  0  0  0  0  0  0  0  0  0  0  0
   -5.3288    0.2888   -3.1138 H   0  0  0  0  0  0  0  0  0  0  0  0
   -5.0779   -0.5265   -1.5336 H   0  0  0  0  0  0  0  0  0  0  0  0
   -4.0795   -0.9784   -2.9261 H   0  0  0  0  0  0  0  0  0  0  0  0
   -1.6264    5.3981   -2.4677 H   0  0  0  0  0  0  0  0  0  0  0  0
   -2.9002    7.6008   -2.6473 H   0  0  0  0  0  0  0  0  0  0  0  0
   -4.0856    6.7026   -3.6465 H   0  0  0  0  0  0  0  0  0  0  0  0
   -2.4427    7.0190   -4.2707 H   0  0  0  0  0  0  0  0  0  0  0  0
  2 23  1  0  0  0  0
  2  1  2  0  0  0  0
  3  2  1  0  0  0  0
  4 37  1  0  0  0  0
  4  3  1  0  0  0  0
  5  4  1  0  0  0  0
  5 39  1  0  0  0  0
  6  5  1  0  0  0  0
  6  7  1  0  0  0  0
  7  8  1  6  0  0  0
  7  9  1  0  0  0  0
  7 12  1  0  0  0  0
  9 10  1  6  0  0  0
  9  3  1  0  0  0  0
  9 11  1  0  0  0  0
 11 45  1  0  0  0  0
 11 43  1  0  0  0  0
 12 46  1  0  0  0  0
 13 12  1  1  0  0  0
 13 17  1  0  0  0  0
 14 15  2  0  0  0  0
 14 13  1  0  0  0  0
 15 16  1  0  0  0  0
 16 18  1  0  0  0  0
 17 18  2  0  0  0  0
 17 22  1  0  0  0  0
 18 19  1  0  0  0  0
 19 20  1  0  0  0  0
 19 21  1  0  0  0  0
 21 48  1  0  0  0  0
 22 49  1  0  0  0  0
 22 21  2  0  0  0  0
 23 50  1  0  0  0  0
 24 51  1  0  0  0  0
 24 23  2  0  0  0  0
 26 53  1  0  0  0  0
 26 27  1  0  0  0  0
 26 25  1  0  0  0  0
 27 28  1  1  0  0  0
 29 27  1  0  0  0  0
 29 30  1  0  0  0  0
 30 32  2  0  0  0  0
 31 30  1  0  0  0  0
 31 57  1  0  0  0  0
 33 34  1  0  0  0  0
 33 27  1  0  0  0  0
 34 59  1  0  0  0  0
 35 34  1  0  0  0  0
 35 60  1  0  0  0  0
 36 33  2  0  0  0  0
 38  4  1  0  0  0  0
 40  5  1  0  0  0  0
 41  6  1  0  0  0  0
 42  6  1  0  0  0  0
 44 11  1  0  0  0  0
 47 15  1  0  0  0  0
 52 24  1  0  0  0  0
 54 26  1  0  0  0  0
 55 29  1  0  0  0  0
 56 31  1  0  0  0  0
 58 31  1  0  0  0  0
 61 35  1  0  0  0  0
 62 35  1  0  0  0  0
M  END
