79
-1 1
O        -3.711199    1.933970   -5.151579
C        -2.902585    1.151876   -4.674266
N        -2.480898    1.181597   -3.378032
C        -2.918589    2.072847   -2.380682
C        -2.792897    1.653685   -1.051717
C        -3.124480    2.515360   -0.014379
N        -2.952223    2.074168    1.344282
C        -4.106691    1.874003    2.126575
O        -5.210151    2.155133    1.709036
C        -3.883506    1.334511    3.470372
C        -2.665362    1.011547    3.957612
C        -2.485238    0.454795    5.340982
C        -1.698084    1.717989    1.788801
C        -1.519752    1.201060    3.096980
C        -0.196160    0.898035    3.430492
N         0.824525    1.012954    2.600844
C         0.524843    1.471163    1.377545
N         1.494199    1.479023    0.401886
C         2.811141    1.113959    0.589304
S         3.553871   -0.034922   -0.519333
C         5.025646    0.120594    0.382122
C         6.347404   -0.540738    0.077522
N         7.228678   -0.516044    1.235797
C         7.286538    0.815676    1.822329
C         5.943139    1.312443    2.383918
C         6.935378   -1.558190    2.197146
C         4.840117    0.988599    1.419438
N         3.593373    1.547772    1.525378
N        -0.673124    1.877801    0.966908
C        -3.623125    3.789075   -0.272690
C        -3.789771    4.184818   -1.596527
C        -3.438035    3.346223   -2.652117
C        -2.347392    0.069611   -5.552530
C        -1.450846   -0.868334   -5.243798
S         0.334789   -0.277696   -2.089064
C        -0.096236   -1.190510   -0.564522
C        -1.124674   -2.324329   -0.733578
H        -1.949520   -1.940188   -1.361269
N        -1.650387   -2.754691    0.544086
C        -2.461908   -1.996945    1.309051
C        -2.841597   -2.592034    2.651337
O        -2.837278   -0.879242    0.987321
C        -0.552514   -3.584603   -1.401937
N         0.105579   -3.364893   -2.554200
C         0.766450   -4.418824   -3.276583
O        -0.706367   -4.691961   -0.896088
H        -1.738424    0.540230   -3.063232
H        -2.431220    0.653170   -0.815965
H        -4.793827    1.203686    4.057992
H        -3.449560    0.372578    5.859695
H        -1.821252    1.094524    5.943439
H        -2.026861   -0.546300    5.307046
H         0.039509    0.518565    4.432001
H         1.110969    1.341114   -0.548891
H         6.845765   -0.022768   -0.762519
H         6.207909   -1.585461   -0.242432
H         7.624962    1.509636    1.034056
H         8.059938    0.824978    2.607531
H         5.977675    2.398160    2.565185
H         5.725590    0.845783    3.360859
H         7.070857   -2.545632    1.728945
H         5.905756   -1.523435    2.611033
H         7.641780   -1.489968    3.039437
H        -3.892796    4.447874    0.553332
H        -4.195420    5.175321   -1.816164
H        -3.569429    3.659532   -3.684913
H        -2.783140    0.120873   -6.554886
H        -0.977521   -0.940990   -4.257160
H        -1.142156   -1.597972   -5.997986
H        -0.550085   -0.489670    0.145923
H         0.810930   -1.603090   -0.089401
H        -1.468638   -3.731794    0.757881
H        -2.802124   -3.690433    2.665347
H        -3.847652   -2.245449    2.918579
H        -2.138233   -2.208160    3.406636
H         0.315060   -2.376485   -2.774790
H         1.857643   -4.406150   -3.113816
H         0.578734   -4.322423   -4.357016
H         0.376838   -5.384164   -2.928579
