79
-1 1
O        -2.205732   -0.070583   -5.069429
C        -1.811462   -1.020155   -4.377688
N        -1.422344   -0.761957   -3.021758
C        -1.629073    0.376118   -2.269273
C        -1.520518    0.262570   -0.870944
C        -1.703293    1.368991   -0.058632
N        -1.593793    1.172007    1.368608
C        -2.763470    0.849035    2.080935
O        -3.848007    0.845338    1.538537
C        -2.579907    0.521747    3.497956
C        -1.379892    0.528668    4.119865
C        -1.232520    0.173623    5.571435
C        -0.359308    1.200431    1.962749
C        -0.213082    0.885895    3.339388
C         1.097988    0.933665    3.820334
N         2.147949    1.251744    3.080780
C         1.877448    1.545991    1.807255
N         2.918994    1.873395    0.960006
C         4.231958    2.130107    1.299650
S         5.508785    1.562314    0.231291
C         6.670731    2.269229    1.303264
C         8.168803    2.320150    1.119275
N         8.838569    2.614417    2.374526
C         8.226051    3.751495    3.046391
C         6.766643    3.513418    3.471904
C         9.001247    1.453928    3.225480
C         6.019322    2.834591    2.362502
N         4.649754    2.757538    2.348265
N         0.689539    1.534608    1.218898
C        -1.998981    2.623613   -0.580034
C        -2.114552    2.733941   -1.965883
C        -1.934047    1.642302   -2.810471
C        -1.758584   -2.369772   -4.788291
C        -1.166481   -3.527373   -4.080563
S        -2.315372   -4.941786   -3.565545
C        -2.972976   -4.401052   -1.963855
C        -3.777503   -3.085754   -1.890190
H        -3.114997   -2.240686   -2.122638
N        -4.319328   -2.921318   -0.559491
C        -3.601987   -2.587746    0.532061
C        -4.415862   -2.373107    1.792246
O        -2.386205   -2.435963    0.520198
C        -4.982774   -3.044809   -2.842517
N        -4.699193   -2.661583   -4.089236
C        -5.688873   -2.608965   -5.130101
O        -6.104699   -3.330515   -2.427096
H        -1.136904   -1.564766   -2.478534
H        -1.349922   -0.712683   -0.409156
H        -3.498895    0.261264    4.025584
H        -2.206935   -0.063793    6.017740
H        -0.785013    1.004254    6.139563
H        -0.574697   -0.700742    5.696262
H         1.304600    0.688612    4.868085
H         2.643458    1.937004   -0.013661
H         8.429244    3.098336    0.378822
H         8.555163    1.369330    0.720312
H         8.263356    4.607802    2.351846
H         8.841073    4.023416    3.918733
H         6.275243    4.465428    3.725172
H         6.714231    2.889630    4.381103
H         9.616868    0.699115    2.712454
H         8.049438    0.964895    3.521623
H         9.531953    1.745607    4.144891
H        -2.143759    3.479161    0.081266
H        -2.354252    3.705078   -2.407297
H        -2.039481    1.717838   -3.890796
H        -1.956201   -2.499894   -5.856544
H        -0.603524   -3.278575   -3.165003
H        -0.459410   -4.088016   -4.714859
H        -2.150021   -4.313904   -1.238785
H        -3.626565   -5.221751   -1.629653
H        -5.328293   -3.049026   -0.523772
H        -5.339071   -2.969787    1.807834
H        -4.676351   -1.304573    1.847860
H        -3.792387   -2.624378    2.659851
H        -3.702774   -2.506804   -4.351056
H        -5.675178   -3.519473   -5.753939
H        -5.493479   -1.740703   -5.775585
H        -6.685541   -2.515299   -4.678237
