79
-1 1
O         4.616018    7.588301    1.197413
C         5.206867    6.763024    1.890849
N         5.480557    7.029425    3.244736
C         5.073158    8.099155    4.028395
C         5.181902    7.948799    5.418726
C         4.822860    8.982263    6.268259
N         4.954442    8.755120    7.686177
C         3.792939    8.429431    8.410759
O         2.698381    8.459507    7.888682
C         3.995444    8.057230    9.812622
C         5.209342    7.977786   10.399708
C         5.376705    7.548808   11.828568
C         6.204650    8.699513    8.247719
C         6.370650    8.312102    9.602172
C         7.694005    8.274971   10.048035
N         8.738859    8.582537    9.296608
C         8.450124    8.956783    8.049216
N         9.483743    9.283907    7.191785
C        10.817374    9.451367    7.506192
S        12.032907    8.867731    6.376982
C        13.259159    9.456647    7.448397
C        14.752684    9.432453    7.226096
N        15.468876    9.625739    8.475310
C        14.939135   10.760364    9.217854
C        13.479548   10.583281    9.671448
C        15.585166    8.416830    9.264398
C        12.667348   10.003825    8.551345
N        11.295688   10.003067    8.571448
N         7.247830    9.030530    7.494882
C         4.335476   10.189348    5.778996
C         4.207933   10.328471    4.397673
C         4.568446    9.308850    3.519203
C         5.657333    5.476925    1.420889
C         6.373747    4.517005    2.141681
S         5.247222    2.757467    3.161485
C         4.537190    3.254171    4.765012
C         3.581288    4.468031    4.805949
H         4.149078    5.384182    4.591614
N         2.959077    4.582668    6.107288
C         3.524232    5.090750    7.218210
C         2.594156    5.174875    8.414258
O         4.682904    5.487201    7.281631
C         2.417749    4.396452    3.803903
N         2.734507    4.715650    2.541679
C         1.786661    4.681996    1.460782
O         1.284696    4.111970    4.181334
H         5.916110    6.277021    3.760003
H         5.506991    7.001881    5.856582
H         3.078983    7.817541   10.353915
H         4.403009    7.346250   12.293352
H         5.888400    8.323812   12.420555
H         5.984665    6.632649   11.891108
H         7.915490    7.966665   11.075722
H         9.189193    9.404428    6.229425
H        15.039207   10.230635    6.517214
H        15.073660    8.482411    6.771287
H        15.008078   11.646758    8.564672
H        15.590100   10.953795   10.085075
H        13.049975   11.547295    9.984668
H        13.414277    9.918184   10.550013
H        16.144068    7.655263    8.699138
H        14.614302    7.967740    9.561717
H        16.153518    8.632173   10.182350
H         4.047855   10.987424    6.464521
H         3.814158   11.261799    3.987345
H         4.456745    9.410311    2.441851
H         5.374860    5.266986    0.386731
H         6.928136    4.790987    3.045280
H         6.897219    3.748690    1.568942
H         5.333233    3.466156    5.495360
H         3.974313    2.386723    5.145810
H         1.972673    4.329984    6.086835
H         1.824211    4.390369    8.405935
H         2.101243    6.159259    8.394691
H         3.192787    5.101287    9.330951
H         3.721640    4.782602    2.290128
H         1.826772    3.726631    0.910071
H         2.004014    5.504428    0.764342
H         0.775663    4.803801    1.870617
