95
-1 1
O         6.853767    7.235783   -7.367781
C         7.911861    7.845647   -7.533981
N         7.822248    9.048798   -8.345817
C         7.810521   10.326807   -7.748069
C         6.627288   11.079835   -7.769309
C         6.563240   12.295262   -7.102026
N         5.297011   12.974056   -6.966311
C         5.135556   14.252625   -7.536903
O         5.998112   14.743808   -8.232446
C         3.875744   14.934956   -7.221188
C         2.917759   14.417527   -6.416490
C         1.657557   15.170007   -6.097551
C         4.320577   12.389954   -6.182099
C         3.131089   13.097834   -5.864349
C         2.267833   12.420943   -4.994247
N         2.479194   11.202687   -4.526001
C         3.608851   10.604050   -4.952685
N         3.889698    9.326224   -4.620284
C         3.356451    8.446077   -3.675255
C         4.015564    7.195279   -3.613300
O         4.962694    7.026754   -4.547612
C         5.887486    5.960917   -4.497140
C         3.654433    6.251907   -2.656336
C         2.613410    6.518709   -1.748558
N         2.243237    5.587129   -0.752194
C         3.147991    4.488353   -0.481277
C         2.778347    3.822623    0.846874
N         1.394151    3.387932    0.917811
C         0.513822    4.498282    0.598878
C         0.846997    5.175812   -0.730475
C         1.108321    2.167610    0.197728
C         1.949755    7.747495   -1.837412
C         2.312571    8.699311   -2.791140
N         4.536302   11.172160   -5.731256
C         7.675212   12.812901   -6.443967
C         8.877416   12.101829   -6.457603
C        10.109733   12.646296   -5.783467
C         8.930964   10.866278   -7.108394
C         9.175312    7.363717   -7.078669
C        10.436306    7.843038   -7.401516
S        11.569603    9.011329   -5.653648
C        11.420796    7.640658   -4.468467
C        10.662208    7.965020   -3.163086
H        11.073145    8.907494   -2.762821
N        10.826451    6.915915   -2.181876
C        11.945449    6.733991   -1.447840
C        11.858775    5.626141   -0.408239
O        12.966710    7.384446   -1.591641
C         9.139802    8.121980   -3.342686
N         8.744577    9.114100   -4.150152
C         7.349509    9.341546   -4.444893
O         8.364061    7.382033   -2.737380
H         6.949148    8.922955   -8.851117
H         5.727160   10.667785   -8.228139
H         3.773578   15.921749   -7.675845
H         1.641967   16.144063   -6.603695
H         1.566739   15.343346   -5.013669
H         0.768373   14.601549   -6.412233
H         1.344487   12.908395   -4.660342
H         4.715959    8.957925   -5.087142
H         6.481178    6.061139   -5.415783
H         5.367973    4.986941   -4.501051
H         6.538883    6.059194   -3.614364
H         4.185138    5.302505   -2.634136
H         4.174915    4.876335   -0.413169
H         3.139982    3.731431   -1.297984
H         2.952049    4.553187    1.655669
H         3.440748    2.962024    1.030617
H         0.604491    5.251729    1.400757
H        -0.529960    4.145603    0.590641
H         0.199380    6.052147   -0.863199
H         0.627008    4.487642   -1.577293
H         1.761728    1.361212    0.566186
H         1.241139    2.223542   -0.903601
H         0.066914    1.862886    0.387655
H         1.158531    7.987460   -1.124869
H         1.804332    9.660618   -2.843148
H         7.598368   13.766158   -5.917475
H         9.850793   13.364431   -4.991820
H        10.749115   13.170344   -6.512457
H        10.709817   11.833298   -5.346983
H         9.855504   10.294245   -7.069474
H         9.093140    6.451399   -6.481947
H        10.530636    8.629064   -8.155767
H        11.279377    7.152803   -7.364936
H        12.427669    7.322237   -4.166580
H        10.922256    6.781680   -4.951407
H         9.951073    6.454139   -1.945675
H        12.626191    4.872869   -0.637180
H        10.875749    5.137374   -0.362830
H        12.100713    6.051116    0.576155
H         9.467394    9.512836   -4.760088
H         6.753388    9.163402   -3.539065
H         6.982741    8.664738   -5.233337
H         7.203140   10.376382   -4.781374
