95
-1 1
O         0.565896   -1.382192   -2.742785
C         1.731759   -1.012302   -3.002877
N         1.813839    0.157943   -3.925100
C         1.726202    1.418917   -3.315923
C         0.542635    2.170326   -3.365832
C         0.444910    3.363684   -2.661655
N        -0.828965    4.035869   -2.560399
C        -0.979576    5.320400   -3.116841
O        -0.096829    5.830230   -3.773415
C        -2.255767    5.988335   -2.836299
C        -3.234727    5.454348   -2.068140
C        -4.510862    6.193244   -1.781780
C        -1.824841    3.434935   -1.814475
C        -3.027995    4.130996   -1.523338
C        -3.907424    3.439695   -0.681037
N        -3.698573    2.218864   -0.219581
C        -2.554580    1.630059   -0.625160
N        -2.276919    0.349727   -0.299952
C        -2.817763   -0.522949    0.648303
C        -2.136807   -1.760762    0.747342
O        -1.164915   -1.914938   -0.157040
C        -0.228184   -2.967251   -0.109815
C        -2.504729   -2.699036    1.706794
C        -3.572974   -2.438205    2.584435
N        -3.954471   -3.364018    3.583696
C        -3.036837   -4.440925    3.894494
C        -3.433373   -5.098285    5.218979
N        -4.809979   -5.561424    5.252897
C        -5.703011   -4.474200    4.891055
C        -5.341145   -3.805893    3.564592
C        -5.046893   -6.796180    4.539659
C        -4.254598   -1.222711    2.463217
C        -3.886712   -0.277152    1.503834
N        -1.611346    2.214600   -1.371178
C         1.518468    3.862839   -1.929809
C         2.723184    3.154308   -1.908131
C         3.916655    3.680963   -1.152451
C         2.811336    1.947578   -2.601398
C         2.909312   -1.591232   -2.562948
C         4.280221   -1.222353   -2.932136
S         5.351834   -0.398466   -1.585292
C         5.196634   -1.596038   -0.224933
C         4.597478   -1.025546    1.078782
H         5.080137   -0.054737    1.280557
N         4.844201   -1.917930    2.186201
C         6.039230   -2.035265    2.804739
C         6.060296   -2.978364    3.996429
O         7.043358   -1.442049    2.447028
C         3.066097   -0.834773    1.040869
N         2.617168    0.167836    0.277608
C         1.203167    0.385986    0.047333
O         2.345947   -1.560264    1.723662
H         0.993146    0.033010   -4.513185
H        -0.333737    1.765769   -3.874007
H        -2.351671    6.979389   -3.283120
H        -4.519409    7.171850   -2.279401
H        -4.637003    6.355742   -0.699713
H        -5.384782    5.619978   -2.128875
H        -4.842134    3.917662   -0.364972
H        -1.449076   -0.021483   -0.767526
H         0.376943   -2.819752   -1.015836
H        -0.733086   -3.948645   -0.146520
H         0.401102   -2.885024    0.791365
H        -1.956747   -3.638058    1.753136
H        -2.020142   -4.031669    3.987571
H        -3.005230   -5.207720    3.087529
H        -3.300270   -4.354359    6.023364
H        -2.759577   -5.942698    5.434196
H        -5.654314   -3.709182    5.685621
H        -6.738194   -4.849779    4.854109
H        -6.002350   -2.945342    3.399135
H        -5.518495   -4.509095    2.719964
H        -4.388921   -7.584004    4.939053
H        -4.879871   -6.750729    3.442562
H        -6.087319   -7.120722    4.700065
H        -5.067319   -0.988038    3.153176
H        -4.411893    0.673132    1.425900
H         1.409100    4.796890   -1.374980
H         3.610175    4.225867   -0.247139
H         4.499617    4.378033   -1.776435
H         4.589259    2.862979   -0.854962
H         3.741030    1.382248   -2.564661
H         2.771802   -2.459440   -1.910605
H         4.297412   -0.481775   -3.745835
H         4.900176   -2.080639   -3.236295
H         6.203185   -1.958380    0.021200
H         4.590283   -2.446695   -0.568438
H         3.993757   -2.346902    2.546004
H         6.803341   -3.765557    3.805324
H         5.087373   -3.441993    4.209243
H         6.397273   -2.417484    4.879639
H         3.268875    0.541864   -0.409903
H         0.651554    0.147335    0.966282
H         0.829807   -0.248566   -0.772229
H         1.033684    1.437556   -0.221650
