101
-1 1
O         1.288762  -10.607175   12.820765
C         1.355636  -11.676403   12.213462
N         2.281368  -11.813906   11.138904
C         3.458282  -11.109253   11.002860
C         4.420307  -11.557544   10.072082
C         5.684463  -10.981728   10.027209
C         6.726134  -11.599171    9.136091
F         6.214853  -12.055319    7.987738
F         7.702561  -10.736611    8.819020
F         7.322032  -12.645685    9.733697
C         6.040549   -9.931116   10.873308
C         5.072140   -9.464948   11.753764
N         5.386216   -8.408929   12.680383
C         5.533126   -7.098137   12.175878
O         5.505864   -6.881579   10.984471
C         5.705576   -6.047244   13.181284
C         5.728078   -6.282001   14.513438
C         5.883205   -5.170609   15.511743
C         5.447542   -8.699256   14.026643
C         5.600439   -7.649017   14.969207
C         5.605707   -8.063742   16.303546
N         5.499081   -9.320337   16.691602
C         5.398235  -10.240148   15.713208
N         5.337154  -11.556455   16.030584
C         5.339061  -12.190556   17.282096
C         5.597228  -13.584914   17.276745
O         5.841555  -14.123372   16.064776
C         6.091069  -15.504833   15.953214
C         5.574610  -14.312278   18.459036
C         5.329300  -13.685885   19.696691
N         5.307858  -14.465459   20.870621
C         4.774742  -13.859121   22.071124
C         4.493885  -14.924354   23.139909
N         5.673625  -15.735664   23.441738
C         6.150860  -16.356217   22.205026
C         6.459268  -15.317771   21.120738
C         7.322341  -17.304689   22.423515
C         6.689944  -15.079826   24.238112
C         3.851793  -14.315728   24.379789
C         5.088351  -12.311131   19.697182
C         5.080642  -11.581079   18.504214
N         5.367493   -9.965311   14.402175
C         3.797001  -10.009827   11.814193
C         0.533149  -12.812504   12.512649
C         0.583435  -14.084384   11.947669
S         1.949199  -15.620750   13.054630
C         3.321240  -14.504229   13.400834
C         4.309485  -14.262500   12.213742
H         3.958714  -13.391735   11.661643
N         4.376935  -15.342725   11.268004
C         3.615848  -15.388285   10.157895
C         3.558719  -16.731627    9.467240
O         2.995064  -14.424034    9.715966
C         5.721468  -14.009069   12.720802
N         6.028613  -12.734020   13.049148
C         7.373509  -12.388631   13.446144
O         6.521186  -14.927073   12.855241
H         2.260306  -12.689888   10.617126
H         4.179193  -12.410266    9.434300
H         7.033928   -9.486239   10.844314
H         5.800359   -5.040728   12.770792
H         5.975290   -4.200028   15.007234
H         6.777326   -5.321828   16.136701
H         5.015124   -5.126522   16.187945
H         5.700294   -7.320972   17.104000
H         5.315158  -12.183219   15.227166
H         6.301927  -15.688995   14.893456
H         5.213043  -16.092887   16.269763
H         6.965198  -15.796968   16.561229
H         5.715693  -15.390905   18.427001
H         3.831570  -13.351190   21.820201
H         5.456804  -13.084386   22.490362
H         3.762915  -15.621526   22.693915
H         5.301980  -16.953586   21.827746
H         6.739285  -15.841623   20.197624
H         7.344859  -14.713369   21.420464
H         8.263242  -16.769129   22.623767
H         7.479829  -17.921298   21.526580
H         7.115410  -17.974368   23.271178
H         6.256212  -14.733056   25.186108
H         7.180068  -14.206589   23.757928
H         7.480022  -15.796492   24.501648
H         4.435823  -13.474612   24.784508
H         3.747558  -15.077696   25.166171
H         2.850609  -13.932465   24.134640
H         4.905242  -11.775696   20.628222
H         4.895139  -10.510468   18.522102
H         3.055217   -9.647113   12.522328
H        -0.145899  -12.626481   13.347936
H         1.083306  -14.252008   10.991008
H        -0.278665  -14.735865   12.103732
H         3.874907  -14.888283   14.270366
H         2.907714  -13.519641   13.695452
H         4.816048  -16.191335   11.601691
H         3.396885  -16.578143    8.393518
H         2.698257  -17.277855    9.882450
H         4.464937  -17.331687    9.630917
H         5.389944  -11.976623   12.822595
H         7.410289  -11.308011   13.627918
H         8.096828  -12.651678   12.658506
H         7.652078  -12.921324   14.367828
