101
-1 1
O        -3.664635    1.813634   -1.837530
C        -3.594325    0.701142   -2.385551
N        -2.677420    0.567019   -3.512396
C        -1.487976    1.228265   -3.641440
C        -0.523700    0.768709   -4.569012
C         0.751686    1.322162   -4.601332
C         1.785154    0.683472   -5.485296
F         1.282669    0.276424   -6.656720
F         2.807417    1.506322   -5.760063
F         2.321793   -0.406121   -4.903259
C         1.123311    2.363405   -3.750492
C         0.153708    2.842196   -2.874206
N         0.476955    3.895514   -1.944795
C         0.644944    5.204193   -2.447000
O         0.642262    5.422683   -3.638164
C         0.808322    6.255154   -1.438918
C         0.805367    6.022805   -0.106544
C         0.949731    7.134217    0.893356
C         0.514607    3.608009   -0.598551
C         0.660366    4.656693    0.347636
C         0.642171    4.243015    1.681531
N         0.522258    2.986366    2.069037
C         0.431733    2.069692    1.088202
N         0.360955    0.750587    1.401200
C         0.361100    0.110088    2.647481
C         0.615968   -1.284664    2.634517
O         0.851839   -1.818027    1.416557
C         1.136662   -3.190834    1.302817
C         0.599278   -2.018299    3.812720
C         0.360741   -1.397547    5.054671
N         0.344900   -2.184254    6.224755
C        -0.191182   -1.586857    7.428517
C        -0.462003   -2.659232    8.492687
N         0.725469   -3.461041    8.790295
C         1.208966   -4.070826    7.550708
C         1.506210   -3.024171    6.471126
C         2.390177   -5.008198    7.764753
C         1.735389   -2.800007    9.590617
C        -1.108940   -2.062099    9.735606
C         0.120885   -0.022997    5.062962
C         0.108866    0.713722    3.873958
N         0.422171    2.342758   -0.221594
C        -1.128246    2.319719   -2.820112
C        -4.319274   -0.445158   -2.036342
C        -4.224530   -1.784113   -2.609912
S        -3.200618   -3.101447   -1.621459
C        -1.690795   -2.189879   -1.249957
C        -0.726969   -1.959773   -2.444043
H        -1.095201   -1.099728   -3.005250
N        -0.646178   -3.060762   -3.364588
C        -1.301456   -3.098098   -4.542563
C        -1.215899   -4.413528   -5.286636
O        -1.946077   -2.158304   -4.992572
C         0.689217   -1.696865   -1.939760
N         1.003381   -0.426804   -1.617915
C         2.355030   -0.087959   -1.235258
O         1.481894   -2.623478   -1.808505
H        -2.744201   -0.282417   -4.066070
H        -0.774404   -0.074667   -5.215976
H         2.123449    2.792747   -3.773609
H         0.917104    7.260406   -1.849176
H         1.057257    8.103576    0.389479
H         1.831311    6.978172    1.534815
H         0.069611    7.184804    1.553381
H         0.728533    4.985683    2.482918
H         0.340107    0.130217    0.593975
H         1.345443   -3.369217    0.241433
H         0.277654   -3.803595    1.626365
H         2.021187   -3.462160    1.905473
H         0.740482   -3.096935    3.776259
H        -1.138164   -1.084398    7.180785
H         0.485821   -0.809264    7.850584
H        -1.186765   -3.361098    8.043841
H         0.366155   -4.675094    7.170640
H         1.792368   -3.540190    5.545300
H         2.384795   -2.411101    6.773944
H         3.325468   -4.463889    7.967564
H         2.554116   -5.618865    6.864882
H         2.190289   -5.684031    8.609218
H         1.297828   -2.461741   10.539890
H         2.217990   -1.920110    9.115059
H         2.531634   -3.510824    9.851419
H        -0.532353   -1.217541   10.143760
H        -1.205925   -2.828426   10.518677
H        -2.113633   -1.686763    9.492605
H        -0.057754    0.507540    5.997736
H        -0.074201    1.784778    3.896837
H        -1.879219    2.683090   -2.118654
H        -5.005585   -0.292748   -1.199611
H        -3.797222   -1.837677   -3.619619
H        -5.189560   -2.314336   -2.632013
H        -1.181739   -2.752331   -0.453396
H        -1.982095   -1.205915   -0.841582
H        -0.083507   -3.846936   -3.064544
H        -1.222387   -4.213212   -6.365037
H        -2.112219   -5.001265   -5.037645
H        -0.326176   -5.000727   -5.019380
H         0.366521    0.334172   -1.841938
H         2.399460    0.993362   -1.063122
H         3.066886   -0.362810   -2.028830
H         2.637602   -0.615667   -0.311936
