-1 1
 OpenBabel05232413483D

101104  0  0  1  0  0  0  0  0999 V2000
   -3.8742    2.1421   -3.5767 O   0  0  0  0  0  0  0  0  0  0  0  0
   -3.6467    0.9691   -3.8141 C   0  0  0  0  0  0  0  0  0  0  0  0
   -2.4003    0.4589   -4.0579 N   0  0  0  0  0  0  0  0  0  0  0  0
   -1.1883    1.1416   -3.9211 C   0  0  0  0  0  0  0  0  0  0  0  0
   -0.0599    0.6159   -4.5653 C   0  0  0  0  0  0  0  0  0  0  0  0
    1.1796    1.2276   -4.4087 C   0  0  0  0  0  0  0  0  0  0  0  0
    2.3618    0.6750   -5.1601 C   0  0  0  0  0  0  0  0  0  0  0  0
    2.3556    1.0619   -6.4445 F   0  0  0  0  0  0  0  0  0  0  0  0
    3.5268    1.0864   -4.6396 F   0  0  0  0  0  0  0  0  0  0  0  0
    2.3773   -0.6600   -5.1595 F   0  0  0  0  0  0  0  0  0  0  0  0
    1.3335    2.3396   -3.5845 C   0  0  0  0  0  0  0  0  0  0  0  0
    0.2149    2.8301   -2.9239 C   0  0  0  0  0  0  0  0  0  0  0  0
    0.3501    3.9158   -1.9934 N   0  0  0  0  0  0  0  0  0  0  0  0
    0.3536    5.2309   -2.5088 C   0  0  0  0  0  0  0  0  0  0  0  0
    0.3207    5.4241   -3.7044 O   0  0  0  0  0  0  0  0  0  0  0  0
    0.3927    6.2986   -1.5100 C   0  0  0  0  0  0  0  0  0  0  0  0
    0.4363    6.0706   -0.1757 C   0  0  0  0  0  0  0  0  0  0  0  0
    0.4611    7.1976    0.8170 C   0  0  0  0  0  0  0  0  0  0  0  0
    0.4329    3.6344   -0.6445 C   0  0  0  0  0  0  0  0  0  0  0  0
    0.4632    4.7019    0.2894 C   0  0  0  0  0  0  0  0  0  0  0  0
    0.5062    4.2961    1.6283 C   0  0  0  0  0  0  0  0  0  0  0  0
    0.5477    3.0403    2.0229 N   0  0  0  0  0  0  0  0  0  0  0  0
    0.5580    2.1034    1.0511 C   0  0  0  0  0  0  0  0  0  0  0  0
    0.6620    0.8013    1.3763 N   0  0  0  0  0  0  0  0  0  0  0  0
    0.6723    0.1544    2.6247 C   0  0  0  0  0  0  0  0  0  0  0  0
    1.0343   -1.2165    2.5890 C   0  0  0  0  0  0  0  0  0  0  0  0
    1.4054   -1.6777    1.3849 O   0  0  0  0  0  0  0  0  0  0  0  0
    1.6544   -3.0597    1.2005 C   0  0  0  0  0  0  0  0  0  0  0  0
    0.9816   -1.9855    3.7430 C   0  0  0  0  0  0  0  0  0  0  0  0
    0.6199   -1.4168    4.9792 C   0  0  0  0  0  0  0  0  0  0  0  0
    0.5611   -2.2334    6.1243 N   0  0  0  0  0  0  0  0  0  0  0  0
   -0.0607   -1.6950    7.3128 C   0  0  0  0  0  0  0  0  0  0  0  0
   -0.3869   -2.8128    8.3130 C   0  0  1  0  0  0  0  0  0  0  0  0
    0.7852   -3.6217    8.6495 N   0  0  0  0  0  0  0  0  0  0  0  0
    1.3429   -4.1793    7.4158 C   0  0  1  0  0  0  0  0  0  0  0  0
    1.7022   -3.0889    6.4007 C   0  0  0  0  0  0  0  0  0  0  0  0
    2.5109   -5.1255    7.6606 C   0  0  0  0  0  0  0  0  0  0  0  0
    1.7431   -2.9863    9.5299 C   0  0  0  0  0  0  0  0  0  0  0  0
   -1.1124   -2.2715    9.5381 C   0  0  0  0  0  0  0  0  0  0  0  0
    0.3037   -0.0553    5.0123 C   0  0  0  0  0  0  0  0  0  0  0  0
    0.3136    0.7130    3.8438 C   0  0  0  0  0  0  0  0  0  0  0  0
    0.4811    2.3683   -0.2679 N   0  0  0  0  0  0  0  0  0  0  0  0
   -1.0432    2.2681   -3.1024 C   0  0  0  0  0  0  0  0  0  0  0  0
   -4.7693   -0.0196   -3.8494 C   0  0  0  0  0  0  0  0  0  0  0  0
   -4.7181   -1.2622   -3.3680 C   0  0  0  0  0  0  0  0  0  0  0  0
   -1.8370   -3.5162    0.4813 S   0  0  0  0  0  1  0  0  0  0  0  0
   -1.7489   -1.8363   -0.2262 C   0  0  0  0  0  0  0  0  0  0  0  0
   -1.2046   -1.7710   -1.6892 C   0  0  2  0  0  0  0  0  0  0  0  0
   -1.6032   -0.8618   -2.1625 H   0  0  0  0  0  0  0  0  0  0  0  0
   -1.6630   -2.9349   -2.3961 N   0  0  0  0  0  0  0  0  0  0  0  0
   -1.7068   -3.0811   -3.7192 C   0  0  0  0  0  0  0  0  0  0  0  0
   -1.9745   -4.4825   -4.2186 C   0  0  0  0  0  0  0  0  0  0  0  0
   -1.5643   -2.1519   -4.5261 O   0  0  0  0  0  0  0  0  0  0  0  0
    0.3258   -1.6920   -1.7528 C   0  0  0  0  0  0  0  0  0  0  0  0
    0.8530   -0.4627   -1.4836 N   0  0  0  0  0  0  0  0  0  0  0  0
    2.2822   -0.2645   -1.5180 C   0  0  0  0  0  0  0  0  0  0  0  0
    1.0325   -2.6519   -1.9946 O   0  0  0  0  0  0  0  0  0  0  0  0
   -2.2915   -0.5335   -4.3229 H   0  0  0  0  0  0  0  0  0  0  0  0
   -0.1625   -0.2979   -5.1527 H   0  0  0  0  0  0  0  0  0  0  0  0
    2.3071    2.8051   -3.4369 H   0  0  0  0  0  0  0  0  0  0  0  0
    0.3764    7.3083   -1.9230 H   0  0  0  0  0  0  0  0  0  0  0  0
    0.4439    8.1700    0.3079 H   0  0  0  0  0  0  0  0  0  0  0  0
    1.3649    7.1514    1.4445 H   0  0  0  0  0  0  0  0  0  0  0  0
   -0.4078    7.1461    1.4915 H   0  0  0  0  0  0  0  0  0  0  0  0
    0.5063    5.0495    2.4248 H   0  0  0  0  0  0  0  0  0  0  0  0
    0.7247    0.1616    0.5814 H   0  0  0  0  0  0  0  0  0  0  0  0
    1.9227   -3.1764    0.1446 H   0  0  0  0  0  0  0  0  0  0  0  0
    0.7317   -3.6354    1.3816 H   0  0  0  0  0  0  0  0  0  0  0  0
    2.4877   -3.3907    1.8463 H   0  0  0  0  0  0  0  0  0  0  0  0
    1.1727   -3.0542    3.6728 H   0  0  0  0  0  0  0  0  0  0  0  0
   -0.9987   -1.1976    7.0246 H   0  0  0  0  0  0  0  0  0  0  0  0
    0.5736   -0.9247    7.8093 H   0  0  0  0  0  0  0  0  0  0  0  0
   -1.0780   -3.4980    7.7919 H   0  0  0  0  0  0  0  0  0  0  0  0
    0.5257   -4.7666    6.9614 H   0  0  0  0  0  0  0  0  0  0  0  0
    2.0381   -3.5685    5.4729 H   0  0  0  0  0  0  0  0  0  0  0  0
    2.5648   -2.4942    6.7782 H   0  0  0  0  0  0  0  0  0  0  0  0
    3.4324   -4.5908    7.9389 H   0  0  0  0  0  0  0  0  0  0  0  0
    2.7269   -5.6996    6.7478 H   0  0  0  0  0  0  0  0  0  0  0  0
    2.2629   -5.8344    8.4643 H   0  0  0  0  0  0  0  0  0  0  0  0
    1.2513   -2.6907   10.4671 H   0  0  0  0  0  0  0  0  0  0  0  0
    2.2420   -2.0836    9.1177 H   0  0  0  0  0  0  0  0  0  0  0  0
    2.5315   -3.7010    9.8042 H   0  0  0  0  0  0  0  0  0  0  0  0
   -0.5675   -1.4425   10.0162 H   0  0  0  0  0  0  0  0  0  0  0  0
   -1.2515   -3.0710   10.2808 H   0  0  0  0  0  0  0  0  0  0  0  0
   -2.1031   -1.8907    9.2500 H   0  0  0  0  0  0  0  0  0  0  0  0
    0.0391    0.4356    5.9481 H   0  0  0  0  0  0  0  0  0  0  0  0
    0.0536    1.7679    3.8813 H   0  0  0  0  0  0  0  0  0  0  0  0
   -1.9075    2.6840   -2.5899 H   0  0  0  0  0  0  0  0  0  0  0  0
   -5.7107    0.4089   -4.2057 H   0  0  0  0  0  0  0  0  0  0  0  0
   -3.8109   -1.6968   -2.9389 H   0  0  0  0  0  0  0  0  0  0  0  0
   -5.6117   -1.8914   -3.3540 H   0  0  0  0  0  0  0  0  0  0  0  0
   -1.1224   -1.1772    0.3942 H   0  0  0  0  0  0  0  0  0  0  0  0
   -2.7547   -1.3852   -0.2436 H   0  0  0  0  0  0  0  0  0  0  0  0
   -1.7800   -3.7275   -1.7357 H   0  0  0  0  0  0  0  0  0  0  0  0
   -1.0571   -4.8506   -4.7008 H   0  0  0  0  0  0  0  0  0  0  0  0
   -2.7629   -4.4439   -4.9826 H   0  0  0  0  0  0  0  0  0  0  0  0
   -2.2579   -5.1748   -3.4153 H   0  0  0  0  0  0  0  0  0  0  0  0
    0.2656    0.3663   -1.4924 H   0  0  0  0  0  0  0  0  0  0  0  0
    2.4863    0.8038   -1.3715 H   0  0  0  0  0  0  0  0  0  0  0  0
    2.7105   -0.5911   -2.4781 H   0  0  0  0  0  0  0  0  0  0  0  0
    2.7697   -0.8343   -0.7122 H   0  0  0  0  0  0  0  0  0  0  0  0
  2  1  2  0  0  0  0
  3  4  1  0  0  0  0
  3  2  1  0  0  0  0
  4 43  1  0  0  0  0
  5  6  1  0  0  0  0
  5  4  2  0  0  0  0
  6 11  2  0  0  0  0
  7 10  1  0  0  0  0
  7  9  1  0  0  0  0
  7  6  1  0  0  0  0
  8  7  1  0  0  0  0
 11 60  1  0  0  0  0
 11 12  1  0  0  0  0
 12 13  1  0  0  0  0
 13 19  1  0  0  0  0
 14 13  1  0  0  0  0
 14 16  1  0  0  0  0
 15 14  2  0  0  0  0
 16 17  2  0  0  0  0
 17 20  1  0  0  0  0
 17 18  1  0  0  0  0
 18 63  1  0  0  0  0
 18 64  1  0  0  0  0
 19 42  2  0  0  0  0
 19 20  1  0  0  0  0
 20 21  2  0  0  0  0
 21 22  1  0  0  0  0
 21 65  1  0  0  0  0
 23 24  1  0  0  0  0
 23 22  2  0  0  0  0
 24 25  1  0  0  0  0
 25 41  1  0  0  0  0
 26 25  2  0  0  0  0
 26 29  1  0  0  0  0
 27 26  1  0  0  0  0
 28 68  1  0  0  0  0
 28 27  1  0  0  0  0
 28 69  1  0  0  0  0
 29 30  2  0  0  0  0
 30 40  1  0  0  0  0
 30 31  1  0  0  0  0
 31 36  1  0  0  0  0
 31 32  1  0  0  0  0
 32 72  1  0  0  0  0
 32 33  1  0  0  0  0
 33 73  1  6  0  0  0
 33 34  1  0  0  0  0
 33 39  1  0  0  0  0
 34 38  1  0  0  0  0
 35 74  1  6  0  0  0
 35 37  1  0  0  0  0
 35 34  1  0  0  0  0
 36 76  1  0  0  0  0
 36 35  1  0  0  0  0
 37 77  1  0  0  0  0
 37 79  1  0  0  0  0
 38 82  1  0  0  0  0
 38 80  1  0  0  0  0
 39 83  1  0  0  0  0
 39 84  1  0  0  0  0
 40 86  1  0  0  0  0
 41 87  1  0  0  0  0
 41 40  2  0  0  0  0
 42 23  1  0  0  0  0
 43 12  2  0  0  0  0
 43 88  1  0  0  0  0
 44  2  1  0  0  0  0
 44 45  2  0  0  0  0
 45 91  1  0  0  0  0
 45 90  1  0  0  0  0
 47 92  1  0  0  0  0
 47 46  1  0  0  0  0
 48 49  1  6  0  0  0
 48 47  1  0  0  0  0
 50 94  1  0  0  0  0
 50 48  1  0  0  0  0
 51 50  1  0  0  0  0
 52 51  1  0  0  0  0
 52 97  1  0  0  0  0
 53 51  2  0  0  0  0
 54 48  1  0  0  0  0
 54 55  1  0  0  0  0
 56 55  1  0  0  0  0
 56 99  1  0  0  0  0
 56101  1  0  0  0  0
 57 54  2  0  0  0  0
 58  3  1  0  0  0  0
 59  5  1  0  0  0  0
 61 16  1  0  0  0  0
 62 18  1  0  0  0  0
 66 24  1  0  0  0  0
 67 28  1  0  0  0  0
 70 29  1  0  0  0  0
 71 32  1  0  0  0  0
 75 36  1  0  0  0  0
 78 37  1  0  0  0  0
 81 38  1  0  0  0  0
 85 39  1  0  0  0  0
 89 44  1  0  0  0  0
 93 47  1  0  0  0  0
 95 52  1  0  0  0  0
 96 52  1  0  0  0  0
 98 55  1  0  0  0  0
100 56  1  0  0  0  0
M  END
