62
-1 1
O        -4.619894    0.284927    2.539079
C        -4.291955    1.251387    1.871612
C        -2.862901    1.811705    1.882142
C        -2.336391    2.174119    0.443690
S        -0.665198    1.593625    0.028255
C        -0.894872    0.223494   -1.271073
C         0.348658   -0.576480   -1.291117
S         0.763243   -1.884312   -0.182708
C         1.430554   -0.255260   -2.100452
O         1.605620    0.587718   -2.991703
N         2.540378   -1.143567   -1.782626
N         3.689159   -0.958204   -2.521744
S         4.916145    0.025581   -1.776888
O         5.307692    0.960359   -2.831121
C         4.050042    0.872561   -0.472270
C         4.017314    0.291342    0.794341
C         3.259556    0.904931    1.788981
C         2.552091    2.075166    1.514386
C         2.615020    2.650424    0.243907
C         3.360956    2.049301   -0.765100
O         5.919707   -0.836570   -1.177589
C         2.363945   -2.092437   -0.830081
S         3.442617   -3.250740   -0.306760
C        -2.212739   -0.472183   -1.050246
C        -3.288424   -0.226761   -1.913452
C        -4.565561   -0.705258   -1.640085
C        -4.799269   -1.457483   -0.485362
O        -6.085243   -1.814655   -0.239227
C        -6.389563   -2.350003    1.024409
C        -3.725885   -1.768606    0.354024
C        -2.457836   -1.269650    0.070422
N        -2.039192    0.901201    2.614948
C        -0.830982    1.277920    3.108636
C         0.056225    0.143008    3.558866
O        -0.482586    2.447932    3.143328
H        -2.894073    2.754066    2.454567
N        -5.174412    1.924242    1.093575
C        -6.536719    1.470629    0.932042
H        -3.012475    1.766551   -0.319920
H        -2.334722    3.267781    0.332235
H        -0.922973    0.752366   -2.233264
H         3.368746   -0.384958   -3.318991
H         4.551324   -0.643614    0.975578
H         3.205772    0.450499    2.780381
H         1.911680    2.520686    2.280135
H         2.044443    3.554751    0.028129
H         3.384866    2.456862   -1.776173
H        -3.124852    0.382320   -2.806632
H        -5.406272   -0.486467   -2.301470
H        -7.481741   -2.452588    1.065765
H        -6.048250   -1.678784    1.831243
H        -5.938949   -3.348495    1.164289
H        -3.873572   -2.353984    1.260397
H        -1.647556   -1.474805    0.772632
H        -2.321587   -0.069943    2.617251
H         0.779550    0.513594    4.294876
H         0.603999   -0.221473    2.673931
H        -0.512675   -0.697175    3.982472
H        -4.826305    2.651759    0.485289
H        -6.597857    0.561474    0.312295
H        -7.128869    2.266175    0.461200
H        -6.970625    1.241220    1.915527
