92
-1 1
O         1.500395    2.600237   -3.071054
C         0.618359    1.862183   -2.668435
N        -0.309665    2.365390   -1.771399
C        -1.220474    1.789511   -0.874911
C        -1.203453    0.447148   -0.482653
C        -2.122569   -0.007674    0.459300
N        -2.056303   -1.372365    0.899723
C        -3.141756   -2.229891    0.625758
O        -4.130856   -1.815173    0.050575
C        -2.981181   -3.611210    1.066099
C        -1.848419   -4.095207    1.636363
C        -1.703841   -5.535616    2.026804
C        -0.889254   -1.824801    1.490109
C        -0.747748   -3.183922    1.837269
C         0.528319   -3.530313    2.316665
N         1.531878   -2.684603    2.413372
C         1.265770   -1.408656    2.052270
N         2.303144   -0.541711    2.052025
C         2.178659    0.797305    1.610723
C         1.417042    1.703966    2.359992
O         0.829603    1.243088    3.490132
C        -0.474532    1.678421    3.765660
C         1.282417    3.026641    1.931997
C         1.935878    3.481698    0.775994
N         1.893266    4.838177    0.400638
C         1.424407    5.817220    1.356273
C         1.928092    7.210805    0.962048
N         1.604810    7.596494   -0.399218
C         2.050282    6.565524   -1.324506
C         1.532564    5.175023   -0.964982
C         0.239406    8.028021   -0.593197
C         2.668164    2.555065    0.015957
C         2.767532    1.229522    0.422393
N         0.079160   -0.946297    1.668104
C        -3.075098    0.836887    1.024398
C        -3.073172    2.162022    0.619364
F        -3.970954    3.003791    1.147596
C        -2.171576    2.653455   -0.309918
C         0.478655    0.476686   -3.185104
C        -0.674370   -0.016021   -3.640587
S         3.014319   -1.908153   -1.678494
C         1.284035   -2.412985   -1.382959
C         0.959197   -3.907210   -1.588092
H         1.394624   -4.210013   -2.556987
N        -0.469812   -4.147170   -1.594992
C        -1.295749   -3.811524   -2.610049
C        -2.754222   -4.178963   -2.399954
O        -0.925547   -3.225300   -3.616459
C         1.532752   -4.806418   -0.481851
N         2.818949   -4.596725   -0.189710
C         3.466385   -5.233155    0.926022
O         0.824697   -5.642378    0.090142
H        -0.150976    3.355152   -1.619214
H        -0.453726   -0.237040   -0.869770
H        -3.844857   -4.249574    0.874069
H        -2.623315   -6.096865    1.813299
H        -1.480433   -5.628090    3.101460
H        -0.863706   -5.980746    1.469918
H         0.737016   -4.568840    2.590989
H         3.218776   -0.972469    2.073868
H        -0.879676    1.006511    4.534204
H        -1.110392    1.618445    2.866485
H        -0.500317    2.710201    4.161518
H         0.665762    3.704752    2.519501
H         1.819991    5.571660    2.352634
H         0.313299    5.818600    1.438887
H         3.026923    7.212731    1.067787
H         1.526840    7.963782    1.659413
H         3.153339    6.537195   -1.310171
H         1.738208    6.831147   -2.346472
H         1.916249    4.426509   -1.670704
H         0.420920    5.173443   -1.076841
H         0.018801    8.870007    0.082135
H        -0.535159    7.251415   -0.415529
H         0.109963    8.388199   -1.625902
H         3.151192    2.861837   -0.911880
H         3.275729    0.487048   -0.203233
H        -3.800594    0.476351    1.751633
H        -2.216871    3.706420   -0.593565
H         1.419091   -0.088225   -3.233341
H        -0.736750   -1.030314   -4.045921
H        -1.601828    0.564160   -3.580887
H         0.624952   -1.878558   -2.078220
H         0.967474   -2.141346   -0.365898
H        -0.786878   -4.775401   -0.863095
H        -2.887105   -5.023017   -1.708281
H        -3.197565   -4.420832   -3.374317
H        -3.291572   -3.311184   -1.986365
H         3.250400   -3.755332   -0.633247
H         3.385078   -4.615896    1.837965
H         4.531962   -5.388117    0.701494
H         2.994304   -6.206295    1.117657
