-1 1
 OpenBabel05232413483D

 92 95  0  0  1  0  0  0  0  0999 V2000
    1.5004    2.6002   -3.0711 O   0  0  0  0  0  0  0  0  0  0  0  0
    0.6184    1.8622   -2.6684 C   0  0  0  0  0  0  0  0  0  0  0  0
   -0.3097    2.3654   -1.7714 N   0  0  0  0  0  0  0  0  0  0  0  0
   -1.2205    1.7895   -0.8749 C   0  0  0  0  0  0  0  0  0  0  0  0
   -1.2035    0.4471   -0.4827 C   0  0  0  0  0  0  0  0  0  0  0  0
   -2.1226   -0.0077    0.4593 C   0  0  0  0  0  0  0  0  0  0  0  0
   -2.0563   -1.3724    0.8997 N   0  0  0  0  0  0  0  0  0  0  0  0
   -3.1418   -2.2299    0.6258 C   0  0  0  0  0  0  0  0  0  0  0  0
   -4.1309   -1.8152    0.0506 O   0  0  0  0  0  0  0  0  0  0  0  0
   -2.9812   -3.6112    1.0661 C   0  0  0  0  0  0  0  0  0  0  0  0
   -1.8484   -4.0952    1.6364 C   0  0  0  0  0  0  0  0  0  0  0  0
   -1.7038   -5.5356    2.0268 C   0  0  0  0  0  0  0  0  0  0  0  0
   -0.8893   -1.8248    1.4901 C   0  0  0  0  0  0  0  0  0  0  0  0
   -0.7477   -3.1839    1.8373 C   0  0  0  0  0  0  0  0  0  0  0  0
    0.5283   -3.5303    2.3167 C   0  0  0  0  0  0  0  0  0  0  0  0
    1.5319   -2.6846    2.4134 N   0  0  0  0  0  0  0  0  0  0  0  0
    1.2658   -1.4087    2.0523 C   0  0  0  0  0  0  0  0  0  0  0  0
    2.3031   -0.5417    2.0520 N   0  0  0  0  0  0  0  0  0  0  0  0
    2.1787    0.7973    1.6107 C   0  0  0  0  0  0  0  0  0  0  0  0
    1.4170    1.7040    2.3600 C   0  0  0  0  0  0  0  0  0  0  0  0
    0.8296    1.2431    3.4901 O   0  0  0  0  0  0  0  0  0  0  0  0
   -0.4745    1.6784    3.7657 C   0  0  0  0  0  0  0  0  0  0  0  0
    1.2824    3.0266    1.9320 C   0  0  0  0  0  0  0  0  0  0  0  0
    1.9359    3.4817    0.7760 C   0  0  0  0  0  0  0  0  0  0  0  0
    1.8933    4.8382    0.4006 N   0  0  0  0  0  0  0  0  0  0  0  0
    1.4244    5.8172    1.3563 C   0  0  0  0  0  0  0  0  0  0  0  0
    1.9281    7.2108    0.9620 C   0  0  0  0  0  0  0  0  0  0  0  0
    1.6048    7.5965   -0.3992 N   0  0  0  0  0  0  0  0  0  0  0  0
    2.0503    6.5655   -1.3245 C   0  0  0  0  0  0  0  0  0  0  0  0
    1.5326    5.1750   -0.9650 C   0  0  0  0  0  0  0  0  0  0  0  0
    0.2394    8.0280   -0.5932 C   0  0  0  0  0  0  0  0  0  0  0  0
    2.6682    2.5551    0.0160 C   0  0  0  0  0  0  0  0  0  0  0  0
    2.7675    1.2295    0.4224 C   0  0  0  0  0  0  0  0  0  0  0  0
    0.0792   -0.9463    1.6681 N   0  0  0  0  0  0  0  0  0  0  0  0
   -3.0751    0.8369    1.0244 C   0  0  0  0  0  0  0  0  0  0  0  0
   -3.0732    2.1620    0.6194 C   0  0  0  0  0  0  0  0  0  0  0  0
   -3.9710    3.0038    1.1476 F   0  0  0  0  0  0  0  0  0  0  0  0
   -2.1716    2.6535   -0.3099 C   0  0  0  0  0  0  0  0  0  0  0  0
    0.4787    0.4767   -3.1851 C   0  0  0  0  0  0  0  0  0  0  0  0
   -0.6744   -0.0160   -3.6406 C   0  0  0  0  0  0  0  0  0  0  0  0
    3.0143   -1.9082   -1.6785 S   0  0  0  0  0  1  0  0  0  0  0  0
    1.2840   -2.4130   -1.3830 C   0  0  0  0  0  0  0  0  0  0  0  0
    0.9592   -3.9072   -1.5881 C   0  0  2  0  0  0  0  0  0  0  0  0
    1.3946   -4.2100   -2.5570 H   0  0  0  0  0  0  0  0  0  0  0  0
   -0.4698   -4.1472   -1.5950 N   0  0  0  0  0  0  0  0  0  0  0  0
   -1.2957   -3.8115   -2.6100 C   0  0  0  0  0  0  0  0  0  0  0  0
   -2.7542   -4.1790   -2.4000 C   0  0  0  0  0  0  0  0  0  0  0  0
   -0.9255   -3.2253   -3.6165 O   0  0  0  0  0  0  0  0  0  0  0  0
    1.5328   -4.8064   -0.4819 C   0  0  0  0  0  0  0  0  0  0  0  0
    2.8189   -4.5967   -0.1897 N   0  0  0  0  0  0  0  0  0  0  0  0
    3.4664   -5.2332    0.9260 C   0  0  0  0  0  0  0  0  0  0  0  0
    0.8247   -5.6424    0.0901 O   0  0  0  0  0  0  0  0  0  0  0  0
   -0.1510    3.3552   -1.6192 H   0  0  0  0  0  0  0  0  0  0  0  0
   -0.4537   -0.2370   -0.8698 H   0  0  0  0  0  0  0  0  0  0  0  0
   -3.8449   -4.2496    0.8741 H   0  0  0  0  0  0  0  0  0  0  0  0
   -2.6233   -6.0969    1.8133 H   0  0  0  0  0  0  0  0  0  0  0  0
   -1.4804   -5.6281    3.1015 H   0  0  0  0  0  0  0  0  0  0  0  0
   -0.8637   -5.9807    1.4699 H   0  0  0  0  0  0  0  0  0  0  0  0
    0.7370   -4.5688    2.5910 H   0  0  0  0  0  0  0  0  0  0  0  0
    3.2188   -0.9725    2.0739 H   0  0  0  0  0  0  0  0  0  0  0  0
   -0.8797    1.0065    4.5342 H   0  0  0  0  0  0  0  0  0  0  0  0
   -1.1104    1.6184    2.8665 H   0  0  0  0  0  0  0  0  0  0  0  0
   -0.5003    2.7102    4.1615 H   0  0  0  0  0  0  0  0  0  0  0  0
    0.6658    3.7048    2.5195 H   0  0  0  0  0  0  0  0  0  0  0  0
    1.8200    5.5717    2.3526 H   0  0  0  0  0  0  0  0  0  0  0  0
    0.3133    5.8186    1.4389 H   0  0  0  0  0  0  0  0  0  0  0  0
    3.0269    7.2127    1.0678 H   0  0  0  0  0  0  0  0  0  0  0  0
    1.5268    7.9638    1.6594 H   0  0  0  0  0  0  0  0  0  0  0  0
    3.1533    6.5372   -1.3102 H   0  0  0  0  0  0  0  0  0  0  0  0
    1.7382    6.8311   -2.3465 H   0  0  0  0  0  0  0  0  0  0  0  0
    1.9162    4.4265   -1.6707 H   0  0  0  0  0  0  0  0  0  0  0  0
    0.4209    5.1734   -1.0768 H   0  0  0  0  0  0  0  0  0  0  0  0
    0.0188    8.8700    0.0821 H   0  0  0  0  0  0  0  0  0  0  0  0
   -0.5352    7.2514   -0.4155 H   0  0  0  0  0  0  0  0  0  0  0  0
    0.1100    8.3882   -1.6259 H   0  0  0  0  0  0  0  0  0  0  0  0
    3.1512    2.8618   -0.9119 H   0  0  0  0  0  0  0  0  0  0  0  0
    3.2757    0.4870   -0.2032 H   0  0  0  0  0  0  0  0  0  0  0  0
   -3.8006    0.4764    1.7516 H   0  0  0  0  0  0  0  0  0  0  0  0
   -2.2169    3.7064   -0.5936 H   0  0  0  0  0  0  0  0  0  0  0  0
    1.4191   -0.0882   -3.2333 H   0  0  0  0  0  0  0  0  0  0  0  0
   -0.7368   -1.0303   -4.0459 H   0  0  0  0  0  0  0  0  0  0  0  0
   -1.6018    0.5642   -3.5809 H   0  0  0  0  0  0  0  0  0  0  0  0
    0.6250   -1.8786   -2.0782 H   0  0  0  0  0  0  0  0  0  0  0  0
    0.9675   -2.1413   -0.3659 H   0  0  0  0  0  0  0  0  0  0  0  0
   -0.7869   -4.7754   -0.8631 H   0  0  0  0  0  0  0  0  0  0  0  0
   -2.8871   -5.0230   -1.7083 H   0  0  0  0  0  0  0  0  0  0  0  0
   -3.1976   -4.4208   -3.3743 H   0  0  0  0  0  0  0  0  0  0  0  0
   -3.2916   -3.3112   -1.9864 H   0  0  0  0  0  0  0  0  0  0  0  0
    3.2504   -3.7553   -0.6332 H   0  0  0  0  0  0  0  0  0  0  0  0
    3.3851   -4.6159    1.8380 H   0  0  0  0  0  0  0  0  0  0  0  0
    4.5320   -5.3881    0.7015 H   0  0  0  0  0  0  0  0  0  0  0  0
    2.9943   -6.2063    1.1177 H   0  0  0  0  0  0  0  0  0  0  0  0
  1  2  2  0  0  0  0
  2  3  1  0  0  0  0
  3 53  1  0  0  0  0
  3  4  1  0  0  0  0
  4  5  2  0  0  0  0
  4 38  1  0  0  0  0
  5  6  1  0  0  0  0
  6  7  1  0  0  0  0
  6 35  2  0  0  0  0
  7 13  1  0  0  0  0
  8  7  1  0  0  0  0
  8 10  1  0  0  0  0
  9  8  2  0  0  0  0
 10 11  2  0  0  0  0
 11 14  1  0  0  0  0
 11 12  1  0  0  0  0
 12 57  1  0  0  0  0
 13 34  2  0  0  0  0
 13 14  1  0  0  0  0
 14 15  2  0  0  0  0
 15 16  1  0  0  0  0
 15 59  1  0  0  0  0
 17 16  2  0  0  0  0
 18 17  1  0  0  0  0
 18 60  1  0  0  0  0
 19 18  1  0  0  0  0
 19 20  1  0  0  0  0
 20 21  1  0  0  0  0
 21 22  1  0  0  0  0
 22 63  1  0  0  0  0
 22 61  1  0  0  0  0
 23 20  2  0  0  0  0
 23 64  1  0  0  0  0
 24 23  1  0  0  0  0
 25 24  1  0  0  0  0
 25 26  1  0  0  0  0
 26 66  1  0  0  0  0
 26 65  1  0  0  0  0
 27 67  1  0  0  0  0
 27 26  1  0  0  0  0
 27 68  1  0  0  0  0
 28 27  1  0  0  0  0
 29 69  1  0  0  0  0
 29 30  1  0  0  0  0
 29 28  1  0  0  0  0
 30 25  1  0  0  0  0
 31 74  1  0  0  0  0
 31 28  1  0  0  0  0
 31 73  1  0  0  0  0
 32 33  1  0  0  0  0
 32 24  2  0  0  0  0
 33 19  2  0  0  0  0
 34 17  1  0  0  0  0
 35 78  1  0  0  0  0
 36 35  1  0  0  0  0
 36 37  1  0  0  0  0
 38 36  2  0  0  0  0
 39  2  1  0  0  0  0
 40 82  1  0  0  0  0
 40 39  2  0  0  0  0
 41 42  1  0  0  0  0
 42 84  1  0  0  0  0
 43 44  1  6  0  0  0
 43 42  1  0  0  0  0
 43 49  1  0  0  0  0
 45 43  1  0  0  0  0
 45 85  1  0  0  0  0
 46 47  1  0  0  0  0
 46 45  1  0  0  0  0
 47 88  1  0  0  0  0
 47 86  1  0  0  0  0
 48 46  2  0  0  0  0
 49 50  1  0  0  0  0
 49 52  2  0  0  0  0
 50 51  1  0  0  0  0
 51 92  1  0  0  0  0
 51 90  1  0  0  0  0
 54  5  1  0  0  0  0
 55 10  1  0  0  0  0
 56 12  1  0  0  0  0
 58 12  1  0  0  0  0
 62 22  1  0  0  0  0
 70 29  1  0  0  0  0
 71 30  1  0  0  0  0
 72 30  1  0  0  0  0
 75 31  1  0  0  0  0
 76 32  1  0  0  0  0
 77 33  1  0  0  0  0
 79 38  1  0  0  0  0
 80 39  1  0  0  0  0
 81 40  1  0  0  0  0
 83 42  1  0  0  0  0
 87 47  1  0  0  0  0
 89 50  1  0  0  0  0
 91 51  1  0  0  0  0
M  END
