-1 1
 OpenBabel05192410563D

 95 99  0  0  1  0  0  0  0  0999 V2000
    3.2106   -1.6554   -2.8068 O   0  0  0  0  0  0  0  0  0  0  0  0
    2.0502   -1.7026   -3.2467 C   0  0  0  0  0  0  0  0  0  0  0  0
    1.1226   -2.6153   -2.6356 N   0  0  0  0  0  0  0  0  0  0  0  0
    1.4334   -3.5700   -1.6889 C   0  0  0  0  0  0  0  0  0  0  0  0
    0.4847   -3.9160   -0.7140 C   0  0  0  0  0  0  0  0  0  0  0  0
    0.7765   -4.8599    0.2650 C   0  0  0  0  0  0  0  0  0  0  0  0
   -0.1546   -4.9921    1.3600 N   0  0  0  0  0  0  0  0  0  0  0  0
   -1.0593   -6.0671    1.4058 C   0  0  0  0  0  0  0  0  0  0  0  0
   -1.0124   -6.9663    0.5951 O   0  0  0  0  0  0  0  0  0  0  0  0
   -2.0559   -6.0033    2.4839 C   0  0  0  0  0  0  0  0  0  0  0  0
   -2.1486   -4.9838    3.3703 C   0  0  0  0  0  0  0  0  0  0  0  0
   -3.2129   -4.9442    4.4293 C   0  0  0  0  0  0  0  0  0  0  0  0
   -0.1726   -3.9708    2.2853 C   0  0  0  0  0  0  0  0  0  0  0  0
   -1.1837   -3.9080    3.2768 C   0  0  0  0  0  0  0  0  0  0  0  0
   -1.1489   -2.7526    4.0666 C   0  0  0  0  0  0  0  0  0  0  0  0
   -0.2574   -1.7840    3.9324 N   0  0  0  0  0  0  0  0  0  0  0  0
    0.6726   -1.9738    2.9797 C   0  0  0  0  0  0  0  0  0  0  0  0
    1.6337   -1.0278    2.7531 N   0  0  0  0  0  0  0  0  0  0  0  0
    1.4001    0.3640    2.7209 C   0  0  0  0  0  0  0  0  0  0  0  0
    1.8237    1.0298    1.5511 C   0  0  0  0  0  0  0  0  0  0  0  0
    2.4656    0.2520    0.6555 O   0  0  0  0  0  0  0  0  0  0  0  0
    2.6391    0.6855   -0.6789 C   0  0  0  0  0  0  0  0  0  0  0  0
    1.4981    2.3646    1.3390 C   0  0  0  0  0  0  0  0  0  0  0  0
    0.7299    3.0749    2.2793 C   0  0  0  0  0  0  0  0  0  0  0  0
    0.3022    4.3942    2.0370 N   0  0  0  0  0  0  0  0  0  0  0  0
   -1.1213    4.6391    2.2744 C   0  0  0  0  0  0  0  0  0  0  0  0
   -1.4363    6.1293    2.1880 C   0  0  0  0  0  0  0  0  0  0  0  0
   -1.0116    6.7424    0.9425 N   0  0  0  0  0  0  0  0  0  0  0  0
    0.4224    6.5156    0.7763 C   0  0  1  0  0  0  0  0  0  0  0  0
    0.7913    5.0276    0.8254 C   0  0  0  0  0  0  0  0  0  0  0  0
    0.9829    7.1809   -0.4732 C   0  0  0  0  0  0  0  0  0  0  0  0
   -1.8422    6.3787   -0.1894 C   0  0  0  0  0  0  0  0  0  0  0  0
    0.3744    2.4213    3.4679 C   0  0  0  0  0  0  0  0  0  0  0  0
    0.7022    1.0831    3.6820 C   0  0  0  0  0  0  0  0  0  0  0  0
    0.7538   -3.0368    2.1812 N   0  0  0  0  0  0  0  0  0  0  0  0
    1.9913   -5.5308    0.2837 C   0  0  0  0  0  0  0  0  0  0  0  0
    2.9298   -5.2066   -0.6984 C   0  0  0  0  0  0  0  0  0  0  0  0
    2.6769   -4.2361   -1.6593 C   0  0  0  0  0  0  0  0  0  0  0  0
    1.5074   -0.9265   -4.2874 C   0  0  0  0  0  3  0  0  0  0  0  0
    0.2212   -1.1688   -4.9069 C   0  0  0  0  0  0  0  0  0  0  0  0
   -1.3934   -0.4137   -4.0160 S   0  0  0  0  0  0  0  0  0  0  0  0
   -0.7516    1.2653   -3.7657 C   0  0  0  0  0  0  0  0  0  0  0  0
   -1.5449    2.1043   -2.7501 C   0  0  2  0  0  0  0  0  0  0  0  0
   -2.6227    1.9585   -2.9510 H   0  0  0  0  0  0  0  0  0  0  0  0
   -1.2386    3.5110   -2.8929 N   0  0  0  0  0  0  0  0  0  0  0  0
   -1.7365    4.2694   -3.9018 C   0  0  0  0  0  0  0  0  0  0  0  0
   -1.4264    5.7527   -3.8070 C   0  0  0  0  0  0  0  0  0  0  0  0
   -2.3929    3.8109   -4.8189 O   0  0  0  0  0  0  0  0  0  0  0  0
   -1.3092    1.7602   -1.2657 C   0  0  0  0  0  0  0  0  0  0  0  0
   -1.2071    0.4540   -0.9804 N   0  0  0  0  0  0  0  0  0  0  0  0
   -1.0268   -0.0744    0.3511 C   0  0  0  0  0  0  0  0  0  0  0  0
   -1.2453    2.6594   -0.4312 O   0  0  0  0  0  0  0  0  0  0  0  0
    0.1500   -2.3318   -2.6747 H   0  0  0  0  0  0  0  0  0  0  0  0
   -0.4699   -3.3850   -0.6738 H   0  0  0  0  0  0  0  0  0  0  0  0
   -2.7518   -6.8439    2.5026 H   0  0  0  0  0  0  0  0  0  0  0  0
   -3.8513   -5.8359    4.3801 H   0  0  0  0  0  0  0  0  0  0  0  0
   -3.8525   -4.0556    4.3094 H   0  0  0  0  0  0  0  0  0  0  0  0
   -2.7672   -4.8912    5.4350 H   0  0  0  0  0  0  0  0  0  0  0  0
   -1.9019   -2.6074    4.8500 H   0  0  0  0  0  0  0  0  0  0  0  0
    2.2277   -1.3157    1.9786 H   0  0  0  0  0  0  0  0  0  0  0  0
    3.0469   -0.1629   -1.2484 H   0  0  0  0  0  0  0  0  0  0  0  0
    3.3321    1.5427   -0.7302 H   0  0  0  0  0  0  0  0  0  0  0  0
    1.6700    0.9734   -1.1209 H   0  0  0  0  0  0  0  0  0  0  0  0
    1.7614    2.8158    0.3871 H   0  0  0  0  0  0  0  0  0  0  0  0
   -1.3948    4.2880    3.2772 H   0  0  0  0  0  0  0  0  0  0  0  0
   -1.7278    4.0652    1.5475 H   0  0  0  0  0  0  0  0  0  0  0  0
   -0.9260    6.6493    3.0180 H   0  0  0  0  0  0  0  0  0  0  0  0
   -2.5195    6.2829    2.3195 H   0  0  0  0  0  0  0  0  0  0  0  0
    0.9000    6.9890    1.6534 H   0  0  0  0  0  0  0  0  0  0  0  0
    1.8887    4.9426    0.8012 H   0  0  0  0  0  0  0  0  0  0  0  0
    0.4009    4.5181   -0.0802 H   0  0  0  0  0  0  0  0  0  0  0  0
    0.6745    6.6583   -1.3919 H   0  0  0  0  0  0  0  0  0  0  0  0
    2.0823    7.1770   -0.4479 H   0  0  0  0  0  0  0  0  0  0  0  0
    0.6380    8.2234   -0.5368 H   0  0  0  0  0  0  0  0  0  0  0  0
   -2.8934    6.5944    0.0571 H   0  0  0  0  0  0  0  0  0  0  0  0
   -1.7902    5.3119   -0.4902 H   0  0  0  0  0  0  0  0  0  0  0  0
   -1.5859    6.9945   -1.0633 H   0  0  0  0  0  0  0  0  0  0  0  0
   -0.1807    2.9545    4.2399 H   0  0  0  0  0  0  0  0  0  0  0  0
    0.3713    0.5700    4.5837 H   0  0  0  0  0  0  0  0  0  0  0  0
    2.2055   -6.2601    1.0658 H   0  0  0  0  0  0  0  0  0  0  0  0
    3.8986   -5.7127   -0.7014 H   0  0  0  0  0  0  0  0  0  0  0  0
    3.4362   -3.9517   -2.3848 H   0  0  0  0  0  0  0  0  0  0  0  0
    2.1536   -0.1394   -4.6799 H   0  0  0  0  0  0  0  0  0  0  0  0
   -0.0932   -2.2224   -4.9469 H   0  0  0  0  0  0  0  0  0  0  0  0
    0.1330   -0.7317   -5.9098 H   0  0  0  0  0  0  0  0  0  0  0  0
   -0.7990    1.7968   -4.7257 H   0  0  0  0  0  0  0  0  0  0  0  0
    0.3067    1.1690   -3.4633 H   0  0  0  0  0  0  0  0  0  0  0  0
   -0.8717    3.9498   -2.0540 H   0  0  0  0  0  0  0  0  0  0  0  0
   -1.2131    6.1291   -4.8155 H   0  0  0  0  0  0  0  0  0  0  0  0
   -0.5800    5.9747   -3.1431 H   0  0  0  0  0  0  0  0  0  0  0  0
   -2.3168    6.2799   -3.4327 H   0  0  0  0  0  0  0  0  0  0  0  0
   -1.2308   -0.1961   -1.7729 H   0  0  0  0  0  0  0  0  0  0  0  0
   -0.0929   -0.6538    0.4126 H   0  0  0  0  0  0  0  0  0  0  0  0
   -1.8656   -0.7332    0.6279 H   0  0  0  0  0  0  0  0  0  0  0  0
   -0.9754    0.7567    1.0653 H   0  0  0  0  0  0  0  0  0  0  0  0
  2  1  2  0  0  0  0
  2  3  1  0  0  0  0
  3  4  1  0  0  0  0
  4 38  2  0  0  0  0
  4  5  1  0  0  0  0
  5 54  1  0  0  0  0
  5  6  2  0  0  0  0
  6 36  1  0  0  0  0
  6  7  1  0  0  0  0
  7  8  1  0  0  0  0
  7 13  1  0  0  0  0
  8 10  1  0  0  0  0
  9  8  2  0  0  0  0
 10 55  1  0  0  0  0
 10 11  2  0  0  0  0
 11 12  1  0  0  0  0
 12 58  1  0  0  0  0
 13 14  1  0  0  0  0
 14 11  1  0  0  0  0
 14 15  2  0  0  0  0
 15 59  1  0  0  0  0
 16 15  1  0  0  0  0
 17 16  2  0  0  0  0
 18 17  1  0  0  0  0
 19 18  1  0  0  0  0
 19 34  1  0  0  0  0
 20 19  2  0  0  0  0
 21 20  1  0  0  0  0
 22 21  1  0  0  0  0
 23 20  1  0  0  0  0
 23 24  2  0  0  0  0
 24 33  1  0  0  0  0
 25 26  1  0  0  0  0
 25 24  1  0  0  0  0
 26 65  1  0  0  0  0
 27 26  1  0  0  0  0
 27 68  1  0  0  0  0
 27 67  1  0  0  0  0
 28 27  1  0  0  0  0
 29 30  1  0  0  0  0
 29 28  1  0  0  0  0
 29 69  1  1  0  0  0
 30 25  1  0  0  0  0
 31 73  1  0  0  0  0
 31 29  1  0  0  0  0
 32 75  1  0  0  0  0
 32 28  1  0  0  0  0
 33 34  2  0  0  0  0
 33 78  1  0  0  0  0
 34 79  1  0  0  0  0
 35 13  2  0  0  0  0
 35 17  1  0  0  0  0
 36 80  1  0  0  0  0
 37 36  2  0  0  0  0
 38 37  1  0  0  0  0
 39  2  1  0  0  0  0
 40 39  1  0  0  0  0
 40 41  1  0  0  0  0
 41 42  1  0  0  0  0
 42 87  1  0  0  0  0
 42 43  1  0  0  0  0
 43 44  1  6  0  0  0
 43 49  1  0  0  0  0
 45 43  1  0  0  0  0
 45 88  1  0  0  0  0
 46 47  1  0  0  0  0
 46 45  1  0  0  0  0
 47 91  1  0  0  0  0
 47 90  1  0  0  0  0
 48 46  2  0  0  0  0
 49 50  1  0  0  0  0
 49 52  2  0  0  0  0
 50 51  1  0  0  0  0
 51 93  1  0  0  0  0
 51 94  1  0  0  0  0
 51 95  1  0  0  0  0
 53  3  1  0  0  0  0
 56 12  1  0  0  0  0
 57 12  1  0  0  0  0
 60 18  1  0  0  0  0
 61 22  1  0  0  0  0
 62 22  1  0  0  0  0
 63 22  1  0  0  0  0
 64 23  1  0  0  0  0
 66 26  1  0  0  0  0
 70 30  1  0  0  0  0
 71 30  1  0  0  0  0
 72 31  1  0  0  0  0
 74 31  1  0  0  0  0
 76 32  1  0  0  0  0
 77 32  1  0  0  0  0
 81 37  1  0  0  0  0
 82 38  1  0  0  0  0
 83 39  1  0  0  0  0
 84 40  1  0  0  0  0
 85 40  1  0  0  0  0
 86 42  1  0  0  0  0
 89 47  1  0  0  0  0
 92 50  1  0  0  0  0
M  END
