95
-1 1
O         2.573074   -6.406276   -3.936222
C         1.406771   -6.493488   -4.335940
N         0.500981   -7.370597   -3.677515
C         0.820950   -8.312867   -2.717373
C        -0.134898   -8.662286   -1.751765
C         0.156899   -9.598353   -0.765565
N        -0.788820   -9.744307    0.314126
C        -1.688087  -10.825058    0.336335
O        -1.616663  -11.720671   -0.476408
C        -2.708750  -10.769520    1.391837
C        -2.826527   -9.753003    2.278779
C        -3.915700   -9.720903    3.312305
C        -0.830794   -8.727661    1.243729
C        -1.864145   -8.672724    2.211698
C        -1.851979   -7.519546    3.005601
N        -0.960653   -6.547825    2.895208
C        -0.007691   -6.731572    1.964757
N         0.956428   -5.781776    1.766070
C         0.706603   -4.392335    1.717296
C         1.122077   -3.734440    0.540904
O         1.773088   -4.514872   -0.348117
C         1.922958   -4.099653   -1.689821
C         0.785180   -2.404868    0.316428
C         0.009748   -1.693758    1.249735
N        -0.430689   -0.381232    0.995484
C        -1.862429   -0.156691    1.205744
C        -2.198032    1.328188    1.105579
N        -1.757831    1.941922   -0.134306
C        -0.317510    1.736649   -0.270182
C         0.070966    0.254074   -0.210315
C         0.258949    2.408048   -1.509180
C        -2.559277    1.559407   -1.281729
C        -0.341257   -2.339568    2.444026
C        -0.000104   -3.672055    2.671060
N         0.095446   -7.791074    1.163984
C         1.379993  -10.253851   -0.730554
C         2.326372   -9.923208   -1.701835
C         2.072164   -8.960234   -2.670876
C         0.829799   -5.761657   -5.412544
C        -0.424408   -6.068744   -5.988297
S        -2.177421   -5.309976   -4.955453
C        -1.515495   -3.630339   -4.769489
C        -2.262528   -2.740505   -3.761003
H        -3.346606   -2.855242   -3.945054
N        -1.910207   -1.347090   -3.935122
C        -2.397069   -0.584426   -4.945284
C        -2.021338    0.886133   -4.881136
O        -3.090296   -1.025240   -5.843696
C        -2.014080   -3.061019   -2.274693
N        -1.952066   -4.363172   -1.963521
C        -1.753714   -4.867188   -0.625925
O        -1.899231   -2.147546   -1.459496
H        -0.477103   -7.102869   -3.740173
H        -1.097971   -8.146157   -1.730295
H        -3.401367  -11.612984    1.391840
H        -4.548699  -10.615361    3.246038
H        -4.556295   -8.834956    3.178909
H        -3.494264   -9.668101    4.328420
H        -2.623728   -7.378910    3.771379
H         1.566848   -6.067023    1.003712
H         2.354343   -4.943075   -2.246458
H         2.591877   -3.225361   -1.764434
H         0.943359   -3.847476   -2.130540
H         1.040464   -1.959624   -0.640401
H        -2.148453   -0.507825    2.205236
H        -2.445805   -0.742941    0.470208
H        -1.712592    1.860169    1.942906
H        -3.285897    1.465555    1.214459
H         0.134824    2.218475    0.615679
H         1.169663    0.182181   -0.215112
H        -0.298424   -0.262522   -1.120247
H        -0.022150    1.879414   -2.433006
H         1.357571    2.421382   -1.460483
H        -0.100706    3.444898   -1.582114
H        -3.618619    1.757895   -1.057050
H        -2.482374    0.493050   -1.577917
H        -2.296190    2.176646   -2.152694
H        -0.903257   -1.803363    3.209118
H        -0.326297   -4.180455    3.577280
H         1.593204  -10.977893    0.056603
H         3.301255  -10.417031   -1.690911
H         2.836312   -8.672935   -3.390143
H         1.422193   -4.926353   -5.790220
H        -0.756682   -7.112490   -5.960971
H        -0.636947   -5.601831   -6.954743
H        -1.585031   -3.124703   -5.742411
H        -0.446971   -3.712544   -4.496771
H        -1.507479   -0.909204   -3.112611
H        -1.743248    1.218399   -5.889699
H        -1.197426    1.094197   -4.185163
H        -2.903895    1.464836   -4.570303
H        -2.020022   -5.027058   -2.745693
H        -0.817893   -5.444434   -0.563391
H        -2.587558   -5.522445   -0.327161
H        -1.694044   -4.024021    0.073690
