95
-1 1
O         5.137519   12.162518   -0.388612
C         4.175246   11.387276   -0.234313
N         3.328278   11.622439    0.854964
C         3.652390   12.676579    1.800381
C         3.491091   12.003233    3.159540
C         2.294131   11.074572    2.929667
C         2.463519   10.630017    1.461361
C         2.176793    9.860346    3.846420
N         2.123931   10.169808    5.278294
C         0.868416   10.476272    5.829420
O        -0.123792   10.512855    5.126866
C         0.841636   10.727596    7.269688
C         1.942462   10.666703    8.057575
C         1.872144   10.920668    9.536752
C         3.267193   10.127673    6.038593
C         3.207486   10.354718    7.436091
C         4.439507   10.233972    8.101109
N         5.583690    9.985644    7.502862
C         5.526223    9.845072    6.154318
N         6.720973    9.686706    5.539031
C         7.023462    9.859396    4.169722
C         8.248529   10.471472    3.858806
O         9.038656   10.766739    4.931163
C        10.262629   11.406298    4.721846
C         8.608119   10.730488    2.539475
C         7.735042   10.427694    1.467600
N         8.057200   10.768213    0.171422
C         7.539934   10.005037   -0.956136
C         7.390124   10.871856   -2.201430
N         8.596638   11.617118   -2.544820
C         8.998529   12.405603   -1.399911
C         9.209567   11.590930   -0.115810
C         9.645688   10.821284   -3.136935
C         6.529156    9.769062    1.788053
C         6.199275    9.487444    3.106229
N         4.413443    9.858146    5.426935
C         3.928542   10.281906   -1.123831
C         2.706968    9.612658   -1.415469
S         1.297732   10.787151   -2.525147
C         2.498642   11.908752   -3.274437
C         3.100374   11.431317   -4.614212
H         3.347730   10.363499   -4.521399
N         4.338276   12.108210   -4.910950
C         5.519100   11.453370   -5.052529
C         6.709731   12.326741   -5.388181
O         5.642186   10.250689   -4.879969
C         2.129720   11.637085   -5.784097
N         1.012979   10.873095   -5.721993
C        -0.082933   11.040495   -6.638781
O         2.355960   12.443585   -6.674142
H         2.956694   13.533042    1.698766
H         4.667906   13.036070    1.595409
H         3.328182   12.713253    3.985401
H         4.390296   11.414068    3.386990
H         1.364844   11.660812    3.022425
H         1.482485   10.558022    0.961457
H         2.936194    9.630631    1.403449
H         3.031941    9.192785    3.694303
H         1.251981    9.316962    3.611678
H        -0.144707   10.963056    7.672427
H         0.844877   11.152330    9.847039
H         2.518219   11.765191    9.823303
H         2.213518   10.041208   10.105155
H         4.480379   10.355931    9.190173
H         7.511690    9.793376    6.163551
H        10.706614   11.573391    5.711757
H        10.134976   12.380885    4.218547
H        10.954057   10.788354    4.121635
H         9.579746   11.171840    2.334824
H         6.544152    9.614020   -0.724731
H         8.202729    9.133994   -1.149549
H         6.580631   11.588639   -1.988879
H         7.081776   10.251675   -3.055025
H         8.199090   13.137556   -1.199787
H         9.922722   12.961341   -1.632539
H         9.357685   12.310216    0.702079
H        10.140341   10.983743   -0.185184
H         9.257747   10.333457   -4.044865
H        10.058786   10.022119   -2.483607
H        10.485708   11.470956   -3.433871
H         5.806630    9.517824    1.010999
H         5.251471    9.001048    3.323201
H         4.686432   10.221149   -1.909903
H         2.006117    9.364705   -0.616115
H         2.816841    8.773612   -2.109376
H         3.333254   11.995867   -2.557289
H         2.048947   12.907714   -3.387521
H         4.255329   13.045553   -5.282698
H         7.357561   12.385765   -4.496090
H         6.432079   13.343478   -5.700179
H         7.285609   11.840979   -6.187737
H         0.853962   10.390918   -4.832526
H         0.265690   11.652220   -7.480870
H        -0.939561   11.551431   -6.166827
H        -0.429401   10.067657   -7.022177
