95
-1 1
O         0.363764    1.377606   -1.643561
C        -0.504948    0.597895   -1.262583
N        -0.903701    0.592885    0.045459
C        -0.260112    1.477768    1.007825
C        -0.339744    0.698581    2.314395
C        -1.668406   -0.052174    2.191838
C        -1.724546   -0.419238    0.700554
C        -1.839321   -1.290881    3.065339
N        -1.943409   -1.008802    4.499362
C        -3.223512   -0.742516    5.016572
O        -4.193802   -0.721106    4.284950
C        -3.298857   -0.509323    6.459070
C        -2.219838   -0.533753    7.277428
C        -2.339122   -0.291295    8.754918
C        -0.822887   -1.018137    5.292750
C        -0.925775   -0.795550    6.688739
C         0.293054   -0.857498    7.380982
N         1.462700   -1.060225    6.807742
C         1.437083   -1.216919    5.466039
N         2.641176   -1.362417    4.847613
C         2.789450   -1.123585    3.455408
C         3.220666    0.138766    3.014863
O         3.546641    1.017027    3.993755
C         3.869251    2.334245    3.646624
C         3.284998    0.437259    1.657019
C         2.869846   -0.501763    0.679697
N         2.892687   -0.184605   -0.654776
C         2.587666   -1.231502   -1.620055
C         2.541234   -0.739451   -3.066222
N         3.592012    0.203005   -3.395992
C         3.396942    1.368115   -2.559656
C         3.499947    1.074693   -1.058266
C         4.927493   -0.344348   -3.381782
C         2.441677   -1.770932    1.139322
C         2.414374   -2.057750    2.497985
N         0.345283   -1.242882    4.710124
C        -1.121570   -0.364768   -2.216206
C        -2.429700   -0.607792   -2.349641
S        -3.825945    1.410323   -4.498231
C        -2.095695    1.535278   -5.074773
C        -1.751142    0.647553   -6.294447
H        -2.131456   -0.365416   -6.081443
N        -0.327300    0.570976   -6.546985
C         0.500777   -0.332708   -5.991811
C         1.943274   -0.260717   -6.462652
O         0.155474   -1.148123   -5.144342
C        -2.375795    1.163577   -7.601755
N        -3.715258    1.260789   -7.583112
C        -4.446848    1.868924   -8.660265
O        -1.673000    1.462313   -8.566769
H        -0.793612    2.444120    1.067177
H         0.769671    1.685854    0.687784
H        -0.282425    1.340261    3.205988
H         0.486694   -0.023009    2.369874
H        -2.500575    0.638144    2.410561
H        -2.761130   -0.422793    0.339752
H        -1.311360   -1.428593    0.519010
H        -0.990196   -1.970067    2.920027
H        -2.770443   -1.801147    2.787052
H        -4.304014   -0.311998    6.834781
H        -3.382632   -0.104371    9.039639
H        -1.736638    0.578022    9.061557
H        -1.975438   -1.158895    9.327555
H         0.305249   -0.724245    8.469168
H         3.425975   -1.142623    5.449302
H         4.033478    2.876147    4.586491
H         3.049738    2.821122    3.089994
H         4.790124    2.387485    3.039638
H         3.626984    1.419366    1.347868
H         1.598366   -1.661561   -1.392677
H         3.324382   -2.053864   -1.516015
H         1.584190   -0.235371   -3.244868
H         2.564335   -1.606210   -3.742613
H         2.391861    1.761349   -2.764227
H         4.133282    2.147695   -2.813437
H         2.993927    1.903829   -0.538032
H         4.562261    1.087227   -0.737458
H         4.986200   -1.184960   -4.090989
H         5.270001   -0.719276   -2.392146
H         5.646513    0.422944   -3.710513
H         2.119296   -2.537693    0.439381
H         2.060285   -3.032623    2.838469
H        -0.443317   -0.741667   -2.989159
H        -3.192036   -0.165406   -1.705905
H        -2.795937   -1.214463   -3.178576
H        -1.414549    1.223939   -4.266814
H        -1.834333    2.578756   -5.323937
H        -0.041649    1.082641   -7.377804
H         2.561747    0.160149   -5.652312
H         2.074318    0.349223   -7.367765
H         2.298600   -1.282630   -6.655734
H        -4.139545    1.211872   -6.631271
H        -3.828493    1.849955   -9.567598
H        -4.705642    2.919655   -8.440307
H        -5.382808    1.320101   -8.849460
