98
-1 1
O         0.639783    1.123615   -2.276129
C         0.255256    0.000338   -2.565332
N        -0.154468   -0.837398   -1.525928
C         0.003035   -2.212471   -1.314461
C        -0.555916   -2.736748   -0.143734
C        -0.252512   -4.029047    0.265675
N        -0.661131   -4.449595    1.582877
C        -1.442511   -5.617624    1.731810
O        -1.758792   -6.289205    0.774936
C        -1.838892   -5.949217    3.104450
C        -1.501734   -5.214762    4.189538
C        -1.944900   -5.591806    5.573773
C        -0.274493   -3.688591    2.671539
C        -0.694402   -4.031195    3.983867
C        -0.272962   -3.144429    4.981751
N         0.433277   -2.046558    4.761394
C         0.759826   -1.820778    3.477226
N         1.423663   -0.695569    3.108847
C         1.615128    0.521035    3.772986
C         1.716065    1.657997    2.929976
O         1.594262    1.397094    1.611881
C         1.584515    2.449840    0.671943
C         1.935537    2.915371    3.472341
C         2.023087    3.095691    4.868936
N         2.248894    4.391352    5.376239
C         2.612239    4.514949    6.773621
C         3.170109    5.914053    7.049990
N         2.283121    6.988684    6.645276
C         1.909004    6.817504    5.252557
C         1.328638    5.437200    4.945680
C         1.175476    7.228841    7.542602
C         1.904343    1.972367    5.690869
C         1.715756    0.697050    5.144706
N         0.471687   -2.624628    2.452370
C         0.503540   -4.870795   -0.543816
C         0.986634   -4.391496   -1.764493
C         1.732568   -5.308225   -2.705115
C         0.810611   -5.917140   -3.764405
C         0.763708   -3.061569   -2.128619
C         0.130567   -0.446898   -3.961697
C        -0.832692   -1.281243   -4.382907
S        -3.398744    0.408254   -4.929417
C        -2.195320    1.747735   -5.224882
C        -1.771586    1.925700   -6.702462
H        -1.529001    0.925087   -7.097070
N        -0.613010    2.780085   -6.852155
C         0.660390    2.340818   -6.822268
C         1.715881    3.410933   -7.053714
O         0.983445    1.183515   -6.598123
C        -2.875821    2.561575   -7.562160
N        -4.028855    1.872428   -7.592361
C        -5.211716    2.395610   -8.219252
O        -2.687416    3.623199   -8.154281
H        -0.266775   -0.303355   -0.670814
H        -1.159337   -2.090926    0.494043
H        -2.448371   -6.850569    3.186771
H        -2.542368   -6.512475    5.558066
H        -2.555266   -4.792429    6.022384
H        -1.079269   -5.752455    6.235406
H        -0.539370   -3.340182    6.026568
H         1.532138   -0.627024    2.101677
H         1.353709    2.004631   -0.306143
H         2.564828    2.954642    0.633547
H         0.806563    3.190685    0.922634
H         2.061605    3.772297    2.812174
H         3.386280    3.769903    7.009991
H         1.748560    4.310412    7.445586
H         4.117321    6.020382    6.493333
H         3.403376    6.016564    8.121647
H         2.811245    6.958322    4.632335
H         1.186878    7.599061    4.968722
H         1.146359    5.355617    3.866595
H         0.341313    5.315969    5.443074
H         1.559389    7.438963    8.553260
H         0.446883    6.395119    7.631536
H         0.617468    8.117772    7.209221
H         1.945045    2.067919    6.775315
H         1.612528   -0.172446    5.791739
H         0.711565   -5.893740   -0.228121
H         2.216335   -6.112994   -2.128263
H         2.540459   -4.746277   -3.200902
H         0.004841   -6.499481   -3.292224
H         1.366796   -6.582685   -4.442638
H         0.338460   -5.128386   -4.369526
H         1.196330   -2.678165   -3.052600
H         0.739669    0.104106   -4.683689
H        -1.517956   -1.784332   -3.698100
H        -0.966330   -1.480288   -5.446461
H        -1.269456    1.540244   -4.664181
H        -2.577294    2.715204   -4.854406
H        -0.833699    3.691935   -7.243460
H         1.310608    4.345346   -7.466870
H         2.482967    3.008488   -7.728788
H         2.201337    3.630329   -6.091007
H        -4.113041    1.134695   -6.862504
H        -5.912113    2.823953   -7.481111
H        -5.740850    1.602958   -8.771396
H        -4.920595    3.189445   -8.919858
