98
-1 1
O         0.614286    1.313239   -1.856160
C         0.075572    0.372209   -2.465898
N        -0.704980   -0.541294   -1.631008
C        -0.387934   -1.852676   -1.343877
C        -0.944153   -2.452616   -0.196650
C        -0.566871   -3.728981    0.190470
N        -0.998254   -4.213990    1.482278
C        -1.821607   -5.353964    1.565906
O        -2.176856   -5.952921    0.574322
C        -2.216294   -5.755453    2.922627
C        -1.840837   -5.102155    4.046833
C        -2.282138   -5.548827    5.411321
C        -0.575447   -3.535106    2.607318
C        -0.992294   -3.938792    3.904521
C        -0.522031   -3.131086    4.946361
N         0.229863   -2.053334    4.781527
C         0.550145   -1.766747    3.506251
N         1.266645   -0.660229    3.189735
C         1.573191    0.495078    3.911278
C         1.822287    1.640271    3.106856
O         1.709702    1.423034    1.786587
C         1.759867    2.484359    0.855356
C         2.159297    2.849708    3.694992
C         2.227114    2.974267    5.098992
N         2.577231    4.225407    5.654073
C         2.934245    4.262476    7.057093
C         3.621425    5.590233    7.387877
N         2.843999    6.759456    7.018871
C         2.462697    6.673606    5.619541
C         1.758640    5.365104    5.261409
C         1.758336    7.071057    7.920720
C         1.966021    1.847743    5.880960
C         1.653592    0.615501    5.289672
N         0.208038   -2.490223    2.439435
C         0.297498   -4.496474   -0.585853
C         0.812153   -3.942669   -1.761090
C         1.700006   -4.762401   -2.668889
C         0.925051   -5.372924   -3.838918
C         0.488342   -2.633767   -2.121533
C         0.095809    0.112796   -3.837493
C        -0.826890   -0.784471   -4.532536
S        -2.598139   -0.068449   -4.871019
C        -2.144797    1.591697   -5.429287
C        -1.740249    1.716440   -6.914451
H        -1.018868    0.912692   -7.135436
N        -1.100098    2.979691   -7.184953
C         0.248894    3.135567   -7.145819
C         0.743155    4.522939   -7.516775
O         1.014436    2.254020   -6.806272
C        -2.938698    1.611878   -7.869702
N        -3.575751    0.421793   -7.857501
C        -4.785819    0.187953   -8.602170
O        -3.271640    2.555613   -8.575231
H        -1.034234   -0.032039   -0.818252
H        -1.609974   -1.869848    0.442822
H        -2.857402   -6.637977    2.958276
H        -2.913788   -6.444470    5.346981
H        -2.856377   -4.757233    5.917984
H        -1.415393   -5.781991    6.049670
H        -0.784478   -3.377122    5.981812
H         1.362508   -0.541214    2.184270
H         1.457879    2.061279   -0.116751
H         2.777842    2.907252    0.799164
H         1.054165    3.282627    1.143539
H         2.395803    3.705568    3.063488
H         3.628115    3.436269    7.272197
H         2.047410    4.120483    7.715594
H         4.578489    5.625543    6.839138
H         3.854983    5.632218    8.463691
H         3.377706    6.751244    5.006937
H         1.818657    7.529653    5.363344
H         1.574890    5.338045    4.179645
H         0.761350    5.318072    5.752726
H         2.153708    7.207167    8.939758
H         0.953266    6.307808    7.977144
H         1.289181    8.020523    7.618225
H         1.988951    1.907091    6.968811
H         1.438712   -0.257911    5.903469
H         0.567273   -5.506845   -0.273993
H         2.182933   -5.564791   -2.087378
H         2.509496   -4.124977   -3.060156
H         0.120639   -6.029554   -3.473205
H         1.584452   -5.964921   -4.493477
H         0.457292   -4.583597   -4.446995
H         0.944800   -2.177875   -3.002928
H         0.715986    0.778744   -4.442021
H        -1.106456   -1.698151   -3.988115
H        -0.458909   -1.075197   -5.526605
H        -1.281626    1.888492   -4.809701
H        -2.977630    2.275110   -5.204505
H        -1.684547    3.646909   -7.678594
H         0.008560    5.109898   -8.086125
H         1.670061    4.422721   -8.095960
H         0.984760    5.064730   -6.590117
H        -3.319060   -0.217062   -7.098975
H        -5.672942    0.171211   -7.947102
H        -4.734363   -0.771129   -9.140217
H        -4.905426    1.001130   -9.329253
