98
-1 1
O         5.763383   -9.141057   -2.495292
C         5.302697  -10.188818   -2.954403
N         4.656639  -11.054894   -2.014828
C         4.925753  -12.386944   -1.726107
C         4.386583  -12.920232   -0.543153
C         4.745851  -14.187713   -0.108774
N         4.336616  -14.608082    1.210830
C         3.544160  -15.765623    1.361126
O         3.204945  -16.427336    0.404881
C         3.163142  -16.102666    2.738074
C         3.524011  -15.379749    3.823438
C         3.097972  -15.762872    5.211676
C         4.743412  -13.857168    2.296781
C         4.340665  -14.203478    3.614482
C         4.790134  -13.329613    4.611082
N         5.509352  -12.240616    4.387094
C         5.817119  -12.010576    3.098129
N         6.495910  -10.897274    2.724688
C         6.757215   -9.697892    3.392282
C         6.936661   -8.573549    2.543139
O         6.810480   -8.840851    1.230467
C         6.834547   -7.806615    0.270103
C         7.227268   -7.328611    3.079883
C         7.313258   -7.147044    4.476563
N         7.612976   -5.862164    4.978293
C         7.985254   -5.754095    6.374097
C         8.616761   -4.385475    6.644122
N         7.785053   -3.266808    6.239679
C         7.394473   -3.423358    4.849399
C         6.743370   -4.773495    4.550462
C         6.696046   -2.966842    7.141567
C         7.119021   -8.255101    5.303709
C         6.856007   -9.521112    4.763739
N         5.496175  -12.799717    2.071727
C         5.563250  -15.007451   -0.881540
C         6.046664  -14.522137   -2.099045
C         6.871334  -15.408138   -3.003541
C         6.025633  -16.058083   -4.101201
C         5.748486  -13.218989   -2.502688
C         5.311336  -10.555882   -4.336506
C         4.410197  -11.448670   -4.913355
S         2.358118  -10.423869   -5.433089
C         3.044844   -8.752434   -5.490788
C         3.534879   -8.285963   -6.880745
H         4.139573   -9.101505   -7.308761
N         4.365675   -7.108666   -6.796045
C         5.719082   -7.162884   -6.756147
C         6.411769   -5.811375   -6.708418
O         6.354929   -8.201194   -6.721874
C         2.377217   -7.946992   -7.829679
N         1.581027   -8.990427   -8.141368
C         0.363100   -8.828038   -8.889770
O         2.208520   -6.806892   -8.247883
H         4.410385  -10.516677   -1.191548
H         3.749955  -12.294214    0.083828
H         2.545529  -16.998329    2.823398
H         2.488913  -16.676087    5.198080
H         2.505163  -14.959777    5.677037
H         3.971978  -15.939745    5.858090
H         4.537932  -13.528997    5.658899
H         6.587537  -10.824279    1.715247
H         6.558253   -8.264162   -0.691850
H         7.838322   -7.352549    0.205943
H         6.100613   -7.022994    0.525389
H         7.412476   -6.486514    2.414066
H         8.718586   -6.539055    6.611339
H         7.113658   -5.909667    7.049338
H         9.565576   -4.330284    6.082838
H         8.859744   -4.291505    7.714480
H         8.299249   -3.330882    4.223797
H         6.711684   -2.606475    4.567282
H         6.550664   -4.850295    3.472694
H         5.753939   -4.843186    5.054322
H         7.095435   -2.774251    8.149798
H         5.925334   -3.761098    7.236747
H         6.183392   -2.050875    6.808214
H         7.157136   -8.154984    6.388006
H         6.693835  -10.379369    5.413834
H         5.817655  -16.011206   -0.538037
H         7.363919  -16.190921   -2.403975
H         7.674886  -14.812013   -3.465523
H         5.225929  -16.674979   -3.663485
H         6.639282  -16.698949   -4.753763
H         5.546273  -15.290335   -4.727459
H         6.176467  -12.824759   -3.425241
H         5.917394   -9.910932   -4.977676
H         3.905218  -12.194261   -4.296217
H         4.586062  -11.763089   -5.943110
H         3.925245   -8.739868   -4.822838
H         2.321215   -8.024240   -5.090457
H         3.894873   -6.246210   -7.049887
H         5.774214   -4.981479   -7.045042
H         7.319159   -5.858155   -7.324372
H         6.720711   -5.619950   -5.669852
H         1.709139   -9.828934   -7.558779
H        -0.526494   -8.858040   -8.237536
H         0.261720   -9.620802   -9.647341
H         0.391101   -7.852926   -9.392939
