-1 1
 OpenBabel05232413483D

 98101  0  0  1  0  0  0  0  0999 V2000
    1.1304   -2.6734   -3.3314 O   0  0  0  0  0  0  0  0  0  0  0  0
    0.5200   -2.6859   -2.2729 C   0  0  0  0  0  0  0  0  0  0  0  0
    0.5632   -1.6003   -1.4347 N   0  0  0  0  0  0  0  0  0  0  0  0
   -0.3519   -1.1408   -0.4748 C   0  0  0  0  0  0  0  0  0  0  0  0
   -1.7116   -1.4578   -0.4938 C   0  0  0  0  0  0  0  0  0  0  0  0
   -2.5702   -0.8664    0.4298 C   0  0  0  0  0  0  0  0  0  0  0  0
   -4.0385   -1.1611    0.3243 C   0  0  0  0  0  0  0  0  0  0  0  0
   -4.6289   -0.4022   -0.6286 F   0  0  0  0  0  0  0  0  0  0  0  0
   -4.2826   -2.4331   -0.0205 F   0  0  0  0  0  0  0  0  0  0  0  0
   -4.7005   -0.9200    1.4579 F   0  0  0  0  0  0  0  0  0  0  0  0
   -2.1134    0.0677    1.3609 C   0  0  0  0  0  0  0  0  0  0  0  0
   -0.7606    0.3820    1.3594 C   0  0  0  0  0  0  0  0  0  0  0  0
   -0.2102    1.3845    2.2281 N   0  0  0  0  0  0  0  0  0  0  0  0
   -0.2578    1.2149    3.6232 C   0  0  0  0  0  0  0  0  0  0  0  0
   -0.9412    0.3433    4.1240 O   0  0  0  0  0  0  0  0  0  0  0  0
    0.5950    2.1170    4.3961 C   0  0  0  0  0  0  0  0  0  0  0  0
    1.4101    3.0479    3.8443 C   0  0  0  0  0  0  0  0  0  0  0  0
    2.4001    3.8122    4.6709 C   0  0  0  0  0  0  0  0  0  0  0  0
    0.5049    2.4112    1.6430 C   0  0  0  0  0  0  0  0  0  0  0  0
    1.3468    3.2418    2.4128 C   0  0  0  0  0  0  0  0  0  0  0  0
    2.0547    4.1919    1.6605 C   0  0  0  0  0  0  0  0  0  0  0  0
    1.9937    4.3035    0.3457 N   0  0  0  0  0  0  0  0  0  0  0  0
    1.1492    3.4500   -0.2685 C   0  0  0  0  0  0  0  0  0  0  0  0
    1.0643    3.5069   -1.6303 N   0  0  0  0  0  0  0  0  0  0  0  0
    0.3497    2.5231   -2.3562 C   0  0  0  0  0  0  0  0  0  0  0  0
    1.0162    1.6564   -3.2284 C   0  0  0  0  0  0  0  0  0  0  0  0
    2.3431    1.8639   -3.4656 O   0  0  0  0  0  0  0  0  0  0  0  0
    3.2070    0.8705   -2.9353 C   0  0  0  0  0  0  0  0  0  0  0  0
    0.3429    0.5984   -3.8373 C   0  0  0  0  0  0  0  0  0  0  0  0
   -1.0070    0.3251   -3.5489 C   0  0  0  0  0  0  0  0  0  0  0  0
   -1.6290   -0.8316   -4.0194 N   0  0  0  0  0  0  0  0  0  0  0  0
   -1.1092   -1.4650   -5.2218 C   0  0  0  0  0  0  0  0  0  0  0  0
   -1.6544   -2.8824   -5.3903 C   0  0  0  0  0  0  0  0  0  0  0  0
   -3.0965   -2.9944   -5.2732 N   0  0  0  0  0  0  0  0  0  0  0  0
   -3.5004   -2.4484   -3.9811 C   0  0  1  0  0  0  0  0  0  0  0  0
   -3.0518   -0.9950   -3.7894 C   0  0  0  0  0  0  0  0  0  0  0  0
   -4.9880   -2.6043   -3.6981 C   0  0  0  0  0  0  0  0  0  0  0  0
   -3.8176   -2.4944   -6.4224 C   0  0  0  0  0  0  0  0  0  0  0  0
   -1.6862    1.2528   -2.7312 C   0  0  0  0  0  0  0  0  0  0  0  0
   -1.0155    2.3230   -2.1587 C   0  0  0  0  0  0  0  0  0  0  0  0
    0.3781    2.5640    0.3414 N   0  0  0  0  0  0  0  0  0  0  0  0
    0.1147   -0.2369    0.4759 C   0  0  0  0  0  0  0  0  0  0  0  0
   -0.2088   -3.9054   -1.8233 C   0  0  0  0  0  0  0  0  0  0  0  0
   -0.1365   -4.3769   -0.5762 C   0  0  0  0  0  0  0  0  0  0  0  0
    2.3357   -3.1925    1.8996 S   0  0  0  0  0  1  0  0  0  0  0  0
    3.2183   -1.7912    1.1346 C   0  0  0  0  0  0  0  0  0  0  0  0
    3.5713   -0.6581    2.1280 C   0  0  2  0  0  0  0  0  0  0  0  0
    4.5324   -0.9072    2.6117 H   0  0  0  0  0  0  0  0  0  0  0  0
    2.5673   -0.5653    3.1759 N   0  0  0  0  0  0  0  0  0  0  0  0
    2.9055   -0.1413    4.4141 C   0  0  0  0  0  0  0  0  0  0  0  0
    2.0133   -0.6330    5.5300 C   0  0  0  0  0  0  0  0  0  0  0  0
    3.8962    0.5560    4.6438 O   0  0  0  0  0  0  0  0  0  0  0  0
    3.7676    0.7008    1.4291 C   0  0  0  0  0  0  0  0  0  0  0  0
    4.6010    1.5287    2.0972 N   0  0  0  0  0  0  0  0  0  0  0  0
    4.9944    2.8238    1.6145 C   0  0  0  0  0  0  0  0  0  0  0  0
    3.2391    0.9951    0.3612 O   0  0  0  0  0  0  0  0  0  0  0  0
    1.2453   -0.9081   -1.7286 H   0  0  0  0  0  0  0  0  0  0  0  0
   -2.1010   -2.1533   -1.2346 H   0  0  0  0  0  0  0  0  0  0  0  0
   -2.7922    0.5373    2.0705 H   0  0  0  0  0  0  0  0  0  0  0  0
    0.5887    1.9331    5.4708 H   0  0  0  0  0  0  0  0  0  0  0  0
    2.2189    3.6583    5.7423 H   0  0  0  0  0  0  0  0  0  0  0  0
    2.3750    4.8920    4.4602 H   0  0  0  0  0  0  0  0  0  0  0  0
    3.4124    3.4377    4.4500 H   0  0  0  0  0  0  0  0  0  0  0  0
    2.7239    4.8928    2.1718 H   0  0  0  0  0  0  0  0  0  0  0  0
    1.8438    3.9603   -2.0899 H   0  0  0  0  0  0  0  0  0  0  0  0
    4.2263    1.1349   -3.2461 H   0  0  0  0  0  0  0  0  0  0  0  0
    2.9663   -0.1302   -3.3354 H   0  0  0  0  0  0  0  0  0  0  0  0
    3.1609    0.8515   -1.8336 H   0  0  0  0  0  0  0  0  0  0  0  0
    0.9267   -0.0546   -4.4817 H   0  0  0  0  0  0  0  0  0  0  0  0
   -0.0214   -1.5639   -5.1387 H   0  0  0  0  0  0  0  0  0  0  0  0
   -1.3319   -0.8446   -6.1164 H   0  0  0  0  0  0  0  0  0  0  0  0
   -1.1887   -3.5163   -4.6197 H   0  0  0  0  0  0  0  0  0  0  0  0
   -1.3316   -3.2767   -6.3667 H   0  0  0  0  0  0  0  0  0  0  0  0
   -2.9541   -3.0464   -3.2289 H   0  0  0  0  0  0  0  0  0  0  0  0
   -3.2853   -0.7170   -2.7547 H   0  0  0  0  0  0  0  0  0  0  0  0
   -3.6512   -0.3216   -4.4414 H   0  0  0  0  0  0  0  0  0  0  0  0
   -5.5997   -1.9217   -4.3087 H   0  0  0  0  0  0  0  0  0  0  0  0
   -5.1942   -2.3814   -2.6423 H   0  0  0  0  0  0  0  0  0  0  0  0
   -5.3046   -3.6366   -3.9069 H   0  0  0  0  0  0  0  0  0  0  0  0
   -3.4317   -2.9859   -7.3290 H   0  0  0  0  0  0  0  0  0  0  0  0
   -3.7452   -1.3977   -6.5869 H   0  0  0  0  0  0  0  0  0  0  0  0
   -4.8854   -2.7471   -6.3464 H   0  0  0  0  0  0  0  0  0  0  0  0
   -2.7415    1.1312   -2.4980 H   0  0  0  0  0  0  0  0  0  0  0  0
   -1.5560    2.9971   -1.4941 H   0  0  0  0  0  0  0  0  0  0  0  0
    1.1710    0.0339    0.4863 H   0  0  0  0  0  0  0  0  0  0  0  0
   -0.6906   -4.4722   -2.6260 H   0  0  0  0  0  0  0  0  0  0  0  0
   -0.6011   -5.3346   -0.3245 H   0  0  0  0  0  0  0  0  0  0  0  0
    0.4260   -3.8613    0.2200 H   0  0  0  0  0  0  0  0  0  0  0  0
    2.6245   -1.3705    0.3125 H   0  0  0  0  0  0  0  0  0  0  0  0
    4.1661   -2.1212    0.6815 H   0  0  0  0  0  0  0  0  0  0  0  0
    1.9344   -1.3895    3.1076 H   0  0  0  0  0  0  0  0  0  0  0  0
    2.1664   -0.0081    6.4185 H   0  0  0  0  0  0  0  0  0  0  0  0
    2.3085   -1.6677    5.7660 H   0  0  0  0  0  0  0  0  0  0  0  0
    0.9527   -0.6447    5.2432 H   0  0  0  0  0  0  0  0  0  0  0  0
    4.7694    1.2635    3.0717 H   0  0  0  0  0  0  0  0  0  0  0  0
    4.4426    3.0440    0.6918 H   0  0  0  0  0  0  0  0  0  0  0  0
    6.0759    2.8622    1.3999 H   0  0  0  0  0  0  0  0  0  0  0  0
    4.7681    3.6095    2.3525 H   0  0  0  0  0  0  0  0  0  0  0  0
  1  2  2  0  0  0  0
  2 43  1  0  0  0  0
  2  3  1  0  0  0  0
  3  4  1  0  0  0  0
  4 42  1  0  0  0  0
  5  4  2  0  0  0  0
  5  6  1  0  0  0  0
  6 11  2  0  0  0  0
  7  6  1  0  0  0  0
  7 10  1  0  0  0  0
  8  7  1  0  0  0  0
  9  7  1  0  0  0  0
 11 59  1  0  0  0  0
 12 11  1  0  0  0  0
 12 13  1  0  0  0  0
 13 14  1  0  0  0  0
 14 15  2  0  0  0  0
 14 16  1  0  0  0  0
 16 60  1  0  0  0  0
 17 16  2  0  0  0  0
 17 18  1  0  0  0  0
 18 61  1  0  0  0  0
 19 13  1  0  0  0  0
 19 20  1  0  0  0  0
 20 17  1  0  0  0  0
 21 64  1  0  0  0  0
 21 20  2  0  0  0  0
 22 21  1  0  0  0  0
 23 41  1  0  0  0  0
 23 22  2  0  0  0  0
 24 23  1  0  0  0  0
 25 40  1  0  0  0  0
 25 24  1  0  0  0  0
 26 25  2  0  0  0  0
 27 26  1  0  0  0  0
 27 28  1  0  0  0  0
 28 68  1  0  0  0  0
 29 30  2  0  0  0  0
 29 26  1  0  0  0  0
 30 39  1  0  0  0  0
 31 36  1  0  0  0  0
 31 30  1  0  0  0  0
 32 70  1  0  0  0  0
 32 31  1  0  0  0  0
 33 34  1  0  0  0  0
 33 32  1  0  0  0  0
 33 72  1  0  0  0  0
 34 35  1  0  0  0  0
 35 36  1  0  0  0  0
 35 37  1  0  0  0  0
 35 74  1  1  0  0  0
 36 75  1  0  0  0  0
 37 78  1  0  0  0  0
 38 82  1  0  0  0  0
 38 34  1  0  0  0  0
 39 83  1  0  0  0  0
 39 40  2  0  0  0  0
 40 84  1  0  0  0  0
 41 19  2  0  0  0  0
 42 85  1  0  0  0  0
 42 12  2  0  0  0  0
 43 44  2  0  0  0  0
 44 87  1  0  0  0  0
 44 88  1  0  0  0  0
 46 45  1  0  0  0  0
 46 47  1  0  0  0  0
 47 48  1  1  0  0  0
 47 49  1  0  0  0  0
 49 50  1  0  0  0  0
 50 52  2  0  0  0  0
 50 51  1  0  0  0  0
 51 93  1  0  0  0  0
 51 92  1  0  0  0  0
 53 54  1  0  0  0  0
 53 47  1  0  0  0  0
 54 95  1  0  0  0  0
 55 54  1  0  0  0  0
 55 98  1  0  0  0  0
 56 53  2  0  0  0  0
 57  3  1  0  0  0  0
 58  5  1  0  0  0  0
 62 18  1  0  0  0  0
 63 18  1  0  0  0  0
 65 24  1  0  0  0  0
 66 28  1  0  0  0  0
 67 28  1  0  0  0  0
 69 29  1  0  0  0  0
 71 32  1  0  0  0  0
 73 33  1  0  0  0  0
 76 36  1  0  0  0  0
 77 37  1  0  0  0  0
 79 37  1  0  0  0  0
 80 38  1  0  0  0  0
 81 38  1  0  0  0  0
 86 43  1  0  0  0  0
 89 46  1  0  0  0  0
 90 46  1  0  0  0  0
 91 49  1  0  0  0  0
 94 51  1  0  0  0  0
 96 55  1  0  0  0  0
 97 55  1  0  0  0  0
M  END
