98
-1 1
O        -0.412062    5.216961  -14.999594
C        -0.479909    5.606231  -13.830800
N        -0.491007    7.018056  -13.637604
C        -1.034860    7.743054  -12.584893
C        -2.349045    7.518195  -12.150540
C        -2.868012    8.267025  -11.099864
C        -4.257764    7.980209  -10.601459
F        -5.057954    7.515481  -11.569965
F        -4.262231    7.061866   -9.625573
F        -4.848373    9.075258  -10.097935
C        -2.109509    9.254310  -10.466432
C        -0.804438    9.462612  -10.895345
N         0.049876   10.393516  -10.207215
C         0.261070   10.199670   -8.824918
O        -0.382634    9.378162   -8.200491
C         1.308105   11.010754   -8.213527
C         2.058531   11.906417   -8.895984
C         3.184575   12.651773   -8.242564
C         0.774567   11.320507  -10.928731
C         1.773396   12.098932  -10.297534
C         2.410504   13.022127  -11.140233
N         2.192372   13.113704  -12.435196
C         1.271073   12.257756  -12.933953
N         1.147076   12.251707  -14.285326
C         0.570056   11.231158  -15.068800
C         1.297141   10.806939  -16.193213
O         2.522858   11.376869  -16.421306
C         3.591720   10.640161  -15.847959
C         0.818267    9.807328  -17.025023
C        -0.402149    9.159430  -16.752220
N        -0.829385    8.095975  -17.544159
C        -0.777233    8.216463  -18.988870
C        -0.752992    6.831692  -19.639674
N        -1.836423    5.970543  -19.209667
C        -1.814276    5.859693  -17.747420
C        -1.884101    7.226218  -17.055333
C        -2.860672    4.905837  -17.194863
C        -3.113846    6.296614  -19.800709
C        -1.125464    9.594347  -15.627141
C        -0.650477   10.614071  -14.805192
N         0.506866   11.444636  -12.217842
C        -0.271077    8.722281  -11.945712
C        -0.518815    4.740162  -12.692687
C        -0.214790    5.047846  -11.359747
S         1.990778    5.074818  -10.769263
C         2.539105    6.502268  -11.755843
C         3.234713    7.593588  -10.928824
H         4.234417    7.224815  -10.636691
N         2.497472    7.865385   -9.699994
C         3.141164    8.240432   -8.565066
C         2.421087    7.924251   -7.276548
O         4.251921    8.767625   -8.571753
C         3.478006    8.882536  -11.746941
N         4.407944    9.692423  -11.196837
C         4.858616   10.911768  -11.808713
O         2.908329    9.125345  -12.804379
H         0.078365    7.530514  -14.302396
H        -2.944273    6.745301  -12.637312
H        -2.519942    9.824538   -9.635651
H         1.474126   10.812168   -7.154207
H         3.241769   12.415367   -7.172536
H         3.070265   13.741074   -8.354258
H         4.143158   12.365933   -8.703139
H         3.158776   13.707578  -10.725720
H         1.862794   12.789693  -14.760918
H         4.487927   11.273530  -15.900309
H         3.775662    9.710499  -16.413872
H         3.381565   10.365400  -14.799909
H         1.451021    9.493035  -17.855916
H         0.120104    8.771523  -19.292315
H        -1.649435    8.797214  -19.363458
H         0.200513    6.344288  -19.373193
H        -0.778892    6.938382  -20.737093
H        -0.829119    5.448578  -17.475435
H        -1.727676    7.048441  -15.983595
H        -2.890268    7.682862  -17.194557
H        -3.876907    5.333042  -17.214602
H        -2.595126    4.670514  -16.154932
H        -2.863475    3.970765  -17.775025
H        -3.011885    6.318115  -20.897879
H        -3.547351    7.272719  -19.491566
H        -3.853986    5.520324  -19.558006
H        -2.074991    9.125721  -15.371689
H        -1.226583   10.914917  -13.932256
H         0.753227    8.892196  -12.278521
H        -0.563861    3.686004  -12.978421
H        -0.433143    4.276793  -10.616280
H        -0.373212    6.053479  -10.969545
H         1.670621    6.921797  -12.280145
H         3.239512    6.185496  -12.541335
H         1.724235    7.206049   -9.574512
H         2.893076    8.480380   -6.457858
H         2.522026    6.844797   -7.081923
H         1.349233    8.160959   -7.335841
H         4.703128    9.444666  -10.246766
H         4.144803   11.225669  -12.580352
H         5.849049   10.792454  -12.281467
H         4.933232   11.714636  -11.060175
