-1 1
 OpenBabel05192410563D

 98102  0  0  1  0  0  0  0  0999 V2000
    1.2551   -2.6670   -2.0287 O   0  0  0  0  0  0  0  0  0  0  0  0
    0.9949   -3.1704   -0.9147 C   0  0  0  0  0  0  0  0  0  0  0  0
    1.1181   -2.2641    0.2583 N   0  0  0  0  0  0  0  0  0  0  0  0
    0.4384   -1.0692    0.3186 C   0  0  0  0  0  0  0  0  0  0  0  0
   -0.8488   -0.9374   -0.2278 C   0  0  0  0  0  0  0  0  0  0  0  0
   -1.5568    0.2473   -0.0650 C   0  0  0  0  0  0  0  0  0  0  0  0
   -2.8978    0.4062   -0.7287 C   0  0  0  0  0  0  0  0  0  0  0  0
   -2.7962    0.9781   -1.9393 F   0  0  0  0  0  0  0  0  0  0  0  0
   -3.5209   -0.7663   -0.9132 F   0  0  0  0  0  0  0  0  0  0  0  0
   -3.7265    1.1814   -0.0135 F   0  0  0  0  0  0  0  0  0  0  0  0
   -1.0283    1.3180    0.6573 C   0  0  0  0  0  0  0  0  0  0  0  0
    0.2470    1.1798    1.1938 C   0  0  0  0  0  0  0  0  0  0  0  0
    0.8535    2.2936    1.8800 N   0  0  0  0  0  0  0  0  0  0  0  0
    0.8730    2.3135    3.2828 C   0  0  0  0  0  0  0  0  0  0  0  0
    0.3781    1.4127    3.9328 O   0  0  0  0  0  0  0  0  0  0  0  0
    1.5281    3.4735    3.8896 C   0  0  0  0  0  0  0  0  0  0  0  0
    2.0980    4.4756    3.1747 C   0  0  0  0  0  0  0  0  0  0  0  0
    2.7561    5.6487    3.8432 C   0  0  0  0  0  0  0  0  0  0  0  0
    1.4509    3.2758    1.1178 C   0  0  0  0  0  0  0  0  0  0  0  0
    2.0682    4.3902    1.7332 C   0  0  0  0  0  0  0  0  0  0  0  0
    2.6060    5.3223    0.8282 C   0  0  0  0  0  0  0  0  0  0  0  0
    2.5783    5.1888   -0.4822 N   0  0  0  0  0  0  0  0  0  0  0  0
    1.9875    4.0595   -0.9453 C   0  0  0  0  0  0  0  0  0  0  0  0
    1.9869    3.8697   -2.2840 N   0  0  0  0  0  0  0  0  0  0  0  0
    1.3409    2.7835   -2.9245 C   0  0  0  0  0  0  0  0  0  0  0  0
    0.3722    3.0358   -3.9008 C   0  0  0  0  0  0  0  0  0  0  0  0
    0.1841    4.3467   -4.2204 O   0  0  0  0  0  0  0  0  0  0  0  0
   -0.8035    4.6822   -5.1486 C   0  0  0  0  0  0  0  0  0  0  0  0
   -0.3485    1.9846   -4.4722 C   0  0  0  0  0  0  0  0  0  0  0  0
   -0.1235    0.6491   -4.0762 C   0  0  0  0  0  0  0  0  0  0  0  0
   -0.8648   -0.4018   -4.6108 N   0  0  0  0  0  0  0  0  0  0  0  0
   -1.9308   -0.0974   -5.5407 C   0  0  0  0  0  0  0  0  0  0  0  0
   -2.4293   -1.3674   -6.2385 C   0  0  0  0  0  0  0  0  0  0  0  0
   -2.8081   -2.4394   -5.3424 N   0  0  0  0  0  0  0  0  0  0  0  0
   -1.6605   -2.7540   -4.4826 C   0  0  1  0  0  0  0  0  0  0  0  0
   -1.1499   -1.5309   -3.7268 C   0  0  0  0  0  0  0  0  0  0  0  0
   -1.9218   -3.8939   -3.5095 C   0  0  0  0  0  0  0  0  0  0  0  0
   -4.0590   -2.2057   -4.6513 C   0  0  0  0  0  0  0  0  0  0  0  0
    0.8809    0.4033   -3.1161 C   0  0  0  0  0  0  0  0  0  0  0  0
    1.5889    1.4577   -2.5671 C   0  0  0  0  0  0  0  0  0  0  0  0
    1.4183    3.1252   -0.1901 N   0  0  0  0  0  0  0  0  0  0  0  0
    0.9812    0.0165    1.0278 C   0  0  0  0  0  0  0  0  0  0  0  0
    0.6371   -4.4738   -0.6191 C   0  0  0  0  0  3  0  0  0  0  0  0
    0.0959   -4.9780    0.6630 C   0  0  0  0  0  0  0  0  0  0  0  0
    1.2591   -5.7994    1.9036 S   0  0  0  0  0  0  0  0  0  0  0  0
    2.4884   -4.5024    2.1812 C   0  0  0  0  0  0  0  0  0  0  0  0
    2.1385   -3.4573    3.2441 C   0  0  2  0  0  0  0  0  0  0  0  0
    2.1783   -3.9117    4.2455 H   0  0  0  0  0  0  0  0  0  0  0  0
    0.8056   -2.9088    3.0835 N   0  0  0  0  0  0  0  0  0  0  0  0
    0.1252   -2.3424    4.1066 C   0  0  0  0  0  0  0  0  0  0  0  0
   -1.1437   -1.6255    3.7177 C   0  0  0  0  0  0  0  0  0  0  0  0
    0.5362   -2.3658    5.2641 O   0  0  0  0  0  0  0  0  0  0  0  0
    3.0907   -2.2463    3.1913 C   0  0  0  0  0  0  0  0  0  0  0  0
    3.1527   -1.5605    4.3570 N   0  0  0  0  0  0  0  0  0  0  0  0
    3.6873   -0.2218    4.4290 C   0  0  0  0  0  0  0  0  0  0  0  0
    3.6474   -1.8941    2.1586 O   0  0  0  0  0  0  0  0  0  0  0  0
    2.0921   -2.1666    0.5482 H   0  0  0  0  0  0  0  0  0  0  0  0
   -1.2753   -1.7766   -0.7775 H   0  0  0  0  0  0  0  0  0  0  0  0
   -1.5811    2.2488    0.7792 H   0  0  0  0  0  0  0  0  0  0  0  0
    1.5229    3.4765    4.9807 H   0  0  0  0  0  0  0  0  0  0  0  0
    2.6959    5.5653    4.9361 H   0  0  0  0  0  0  0  0  0  0  0  0
    2.2761    6.5930    3.5416 H   0  0  0  0  0  0  0  0  0  0  0  0
    3.8179    5.7176    3.5592 H   0  0  0  0  0  0  0  0  0  0  0  0
    3.0874    6.2307    1.2105 H   0  0  0  0  0  0  0  0  0  0  0  0
    2.2610    4.6704   -2.8388 H   0  0  0  0  0  0  0  0  0  0  0  0
   -0.7916    5.7760   -5.2433 H   0  0  0  0  0  0  0  0  0  0  0  0
   -1.8076    4.3654   -4.8145 H   0  0  0  0  0  0  0  0  0  0  0  0
   -0.6081    4.2377   -6.1412 H   0  0  0  0  0  0  0  0  0  0  0  0
   -1.1253    2.2141   -5.1958 H   0  0  0  0  0  0  0  0  0  0  0  0
   -1.5562    0.5835   -6.3206 H   0  0  0  0  0  0  0  0  0  0  0  0
   -2.7741    0.4223   -5.0343 H   0  0  0  0  0  0  0  0  0  0  0  0
   -1.6192   -1.7375   -6.8909 H   0  0  0  0  0  0  0  0  0  0  0  0
   -3.2820   -1.1094   -6.8886 H   0  0  0  0  0  0  0  0  0  0  0  0
   -0.8529   -3.0713   -5.1664 H   0  0  0  0  0  0  0  0  0  0  0  0
   -0.2486   -1.8391   -3.1805 H   0  0  0  0  0  0  0  0  0  0  0  0
   -1.9057   -1.2290   -2.9761 H   0  0  0  0  0  0  0  0  0  0  0  0
   -2.6406   -3.6050   -2.7263 H   0  0  0  0  0  0  0  0  0  0  0  0
   -0.9848   -4.1634   -3.0005 H   0  0  0  0  0  0  0  0  0  0  0  0
   -2.3183   -4.7737   -4.0385 H   0  0  0  0  0  0  0  0  0  0  0  0
   -4.8326   -1.9382   -5.3887 H   0  0  0  0  0  0  0  0  0  0  0  0
   -4.0340   -1.4017   -3.8863 H   0  0  0  0  0  0  0  0  0  0  0  0
   -4.3933   -3.1244   -4.1480 H   0  0  0  0  0  0  0  0  0  0  0  0
    1.1141   -0.6092   -2.7759 H   0  0  0  0  0  0  0  0  0  0  0  0
    2.3435    1.2452   -1.8096 H   0  0  0  0  0  0  0  0  0  0  0  0
    1.9886   -0.0639    1.4428 H   0  0  0  0  0  0  0  0  0  0  0  0
    0.7028   -5.1793   -1.4522 H   0  0  0  0  0  0  0  0  0  0  0  0
   -0.6127   -5.8029    0.4910 H   0  0  0  0  0  0  0  0  0  0  0  0
   -0.4505   -4.2125    1.2284 H   0  0  0  0  0  0  0  0  0  0  0  0
    2.6945   -4.0338    1.2094 H   0  0  0  0  0  0  0  0  0  0  0  0
    3.4206   -5.0021    2.4813 H   0  0  0  0  0  0  0  0  0  0  0  0
    0.5382   -2.7251    2.1152 H   0  0  0  0  0  0  0  0  0  0  0  0
   -0.9032   -0.5512    3.6638 H   0  0  0  0  0  0  0  0  0  0  0  0
   -1.8962   -1.7741    4.5025 H   0  0  0  0  0  0  0  0  0  0  0  0
   -1.5373   -1.9497    2.7443 H   0  0  0  0  0  0  0  0  0  0  0  0
    2.4595   -1.8365    5.0557 H   0  0  0  0  0  0  0  0  0  0  0  0
    2.8749    0.5198    4.4983 H   0  0  0  0  0  0  0  0  0  0  0  0
    4.2702   -0.0319    3.5188 H   0  0  0  0  0  0  0  0  0  0  0  0
    4.3462   -0.1078    5.3035 H   0  0  0  0  0  0  0  0  0  0  0  0
  1  2  2  0  0  0  0
  2 43  1  0  0  0  0
  2  3  1  0  0  0  0
  3  4  1  0  0  0  0
  3 57  1  0  0  0  0
  4 42  1  0  0  0  0
  5  6  1  0  0  0  0
  5  4  2  0  0  0  0
  6 11  2  0  0  0  0
  7  6  1  0  0  0  0
  7 10  1  0  0  0  0
  8  7  1  0  0  0  0
  9  7  1  0  0  0  0
 11 59  1  0  0  0  0
 11 12  1  0  0  0  0
 12 13  1  0  0  0  0
 13 14  1  0  0  0  0
 14 16  1  0  0  0  0
 14 15  2  0  0  0  0
 16 60  1  0  0  0  0
 17 18  1  0  0  0  0
 17 16  2  0  0  0  0
 18 61  1  0  0  0  0
 19 20  1  0  0  0  0
 19 13  1  0  0  0  0
 20 17  1  0  0  0  0
 21 64  1  0  0  0  0
 21 20  2  0  0  0  0
 22 21  1  0  0  0  0
 23 22  2  0  0  0  0
 23 41  1  0  0  0  0
 24 23  1  0  0  0  0
 25 40  1  0  0  0  0
 25 24  1  0  0  0  0
 26 25  2  0  0  0  0
 27 26  1  0  0  0  0
 28 67  1  0  0  0  0
 28 27  1  0  0  0  0
 29 30  2  0  0  0  0
 29 26  1  0  0  0  0
 30 39  1  0  0  0  0
 31 30  1  0  0  0  0
 31 36  1  0  0  0  0
 32 71  1  0  0  0  0
 32 31  1  0  0  0  0
 33 32  1  0  0  0  0
 33 34  1  0  0  0  0
 34 38  1  0  0  0  0
 34 35  1  0  0  0  0
 35 74  1  6  0  0  0
 35 36  1  0  0  0  0
 35 37  1  0  0  0  0
 36 75  1  0  0  0  0
 36 76  1  0  0  0  0
 37 78  1  0  0  0  0
 37 77  1  0  0  0  0
 38 82  1  0  0  0  0
 38 81  1  0  0  0  0
 39 83  1  0  0  0  0
 39 40  2  0  0  0  0
 40 84  1  0  0  0  0
 41 19  2  0  0  0  0
 42 12  2  0  0  0  0
 42 85  1  0  0  0  0
 43 44  1  0  0  0  0
 44 88  1  0  0  0  0
 44 45  1  0  0  0  0
 45 46  1  0  0  0  0
 46 90  1  0  0  0  0
 46 47  1  0  0  0  0
 47 48  1  1  0  0  0
 49 47  1  0  0  0  0
 49 50  1  0  0  0  0
 50 52  2  0  0  0  0
 51 50  1  0  0  0  0
 51 93  1  0  0  0  0
 53 47  1  0  0  0  0
 53 54  1  0  0  0  0
 54 55  1  0  0  0  0
 54 95  1  0  0  0  0
 55 96  1  0  0  0  0
 55 98  1  0  0  0  0
 56 53  2  0  0  0  0
 58  5  1  0  0  0  0
 62 18  1  0  0  0  0
 63 18  1  0  0  0  0
 65 24  1  0  0  0  0
 66 28  1  0  0  0  0
 68 28  1  0  0  0  0
 69 29  1  0  0  0  0
 70 32  1  0  0  0  0
 72 33  1  0  0  0  0
 73 33  1  0  0  0  0
 79 37  1  0  0  0  0
 80 38  1  0  0  0  0
 86 43  1  0  0  0  0
 87 44  1  0  0  0  0
 89 46  1  0  0  0  0
 91 49  1  0  0  0  0
 92 51  1  0  0  0  0
 94 51  1  0  0  0  0
 97 55  1  0  0  0  0
M  END
