-1 1
 OpenBabel05232413483D

 92 95  0  0  1  0  0  0  0  0999 V2000
   -0.3220    3.8165   -0.3326 O   0  0  0  0  0  0  0  0  0  0  0  0
   -1.0133    3.3912    0.5923 C   0  0  0  0  0  0  0  0  0  0  0  0
   -1.3514    2.0773    0.6624 N   0  0  0  0  0  0  0  0  0  0  0  0
   -2.3246    1.4254    1.4354 C   0  0  0  0  0  0  0  0  0  0  0  0
   -2.0451    0.1185    1.8296 C   0  0  0  0  0  0  0  0  0  0  0  0
   -3.0470   -0.6796    2.3678 C   0  0  0  0  0  0  0  0  0  0  0  0
   -2.7373   -2.0677    2.5738 N   0  0  0  0  0  0  0  0  0  0  0  0
   -2.8184   -2.6199    3.8702 C   0  0  0  0  0  0  0  0  0  0  0  0
   -3.3698   -2.0275    4.7719 O   0  0  0  0  0  0  0  0  0  0  0  0
   -2.1745   -3.9262    4.0419 C   0  0  0  0  0  0  0  0  0  0  0  0
   -1.5353   -4.5895    3.0507 C   0  0  0  0  0  0  0  0  0  0  0  0
   -0.8354   -5.8959    3.2901 C   0  0  0  0  0  0  0  0  0  0  0  0
   -2.2035   -2.7732    1.5080 C   0  0  0  0  0  0  0  0  0  0  0  0
   -1.5377   -4.0039    1.7261 C   0  0  0  0  0  0  0  0  0  0  0  0
   -0.9078   -4.5287    0.5925 C   0  0  0  0  0  0  0  0  0  0  0  0
   -0.9107   -3.9478   -0.5956 N   0  0  0  0  0  0  0  0  0  0  0  0
   -1.6096   -2.8034   -0.6891 C   0  0  0  0  0  0  0  0  0  0  0  0
   -1.6532   -2.1232   -1.8779 N   0  0  0  0  0  0  0  0  0  0  0  0
   -0.5079   -1.8443   -2.6563 C   0  0  0  0  0  0  0  0  0  0  0  0
   -0.3366   -0.4893   -3.0284 C   0  0  0  0  0  0  0  0  0  0  0  0
   -1.3820    0.3213   -2.7542 O   0  0  0  0  0  0  0  0  0  0  0  0
   -1.1965    1.7136   -2.7852 C   0  0  0  0  0  0  0  0  0  0  0  0
    0.8525   -0.0601   -3.5865 C   0  0  0  0  0  0  0  0  0  0  0  0
    1.9312   -0.9492   -3.7697 C   0  0  0  0  0  0  0  0  0  0  0  0
    3.1717   -0.4145   -4.1716 N   0  0  0  0  0  0  0  0  0  0  0  0
    4.2146   -1.3628   -4.5067 C   0  0  0  0  0  0  0  0  0  0  0  0
    5.4276   -0.6353   -5.0943 C   0  0  0  0  0  0  0  0  0  0  0  0
    5.9570    0.4100   -4.2402 N   0  0  0  0  0  0  0  0  0  0  0  0
    4.8922    1.3372   -3.8885 C   0  0  0  0  0  0  0  0  0  0  0  0
    3.6682    0.6529   -3.2944 C   0  0  0  0  0  0  0  0  0  0  0  0
    6.7221   -0.0676   -3.1091 C   0  0  0  0  0  0  0  0  0  0  0  0
    1.7174   -2.3039   -3.5065 C   0  0  0  0  0  0  0  0  0  0  0  0
    0.4995   -2.7431   -2.9648 C   0  0  0  0  0  0  0  0  0  0  0  0
   -2.2936   -2.2387    0.3051 N   0  0  0  0  0  0  0  0  0  0  0  0
   -4.3075   -0.1618    2.6511 C   0  0  0  0  0  0  0  0  0  0  0  0
   -4.5368    1.1733    2.3319 C   0  0  0  0  0  0  0  0  0  0  0  0
   -6.1126    1.8666    2.6843 Cl  0  0  0  0  0  0  0  0  0  0  0  0
   -3.5874    1.9684    1.6992 C   0  0  0  0  0  0  0  0  0  0  0  0
   -1.4238    4.3073    1.6950 C   0  0  0  0  0  0  0  0  0  0  0  0
   -1.1648    4.0091    2.9699 C   0  0  0  0  0  0  0  0  0  0  0  0
    1.3630    1.2923    2.9979 S   0  0  0  0  0  1  0  0  0  0  0  0
    2.3158    2.3085    1.8211 C   0  0  0  0  0  0  0  0  0  0  0  0
    2.1953    1.8526    0.3459 C   0  0  2  0  0  0  0  0  0  0  0  0
    1.1686    2.0164    0.0135 H   0  0  0  0  0  0  0  0  0  0  0  0
    2.4505    0.4432    0.1911 N   0  0  0  0  0  0  0  0  0  0  0  0
    1.4403   -0.4420    0.0850 C   0  0  0  0  0  0  0  0  0  0  0  0
    1.7837   -1.8820    0.3687 C   0  0  0  0  0  0  0  0  0  0  0  0
    0.2942   -0.1272   -0.2402 O   0  0  0  0  0  0  0  0  0  0  0  0
    3.1175    2.6580   -0.5582 C   0  0  0  0  0  0  0  0  0  0  0  0
    2.5109    3.7290   -1.1274 N   0  0  0  0  0  0  0  0  0  0  0  0
    3.2226    4.6817   -1.9355 C   0  0  0  0  0  0  0  0  0  0  0  0
    4.2967    2.3746   -0.7261 O   0  0  0  0  0  0  0  0  0  0  0  0
   -0.7345    1.4265    0.1537 H   0  0  0  0  0  0  0  0  0  0  0  0
   -1.0467   -0.2720    1.6381 H   0  0  0  0  0  0  0  0  0  0  0  0
   -2.2153   -4.3148    5.0607 H   0  0  0  0  0  0  0  0  0  0  0  0
   -0.9436   -6.2148    4.3348 H   0  0  0  0  0  0  0  0  0  0  0  0
    0.2395   -5.8071    3.0672 H   0  0  0  0  0  0  0  0  0  0  0  0
   -1.2403   -6.6878    2.6406 H   0  0  0  0  0  0  0  0  0  0  0  0
   -0.3544   -5.4719    0.6660 H   0  0  0  0  0  0  0  0  0  0  0  0
   -2.2051   -1.2769   -1.7627 H   0  0  0  0  0  0  0  0  0  0  0  0
   -2.1135    2.1616   -2.3847 H   0  0  0  0  0  0  0  0  0  0  0  0
   -1.0394    2.0762   -3.8165 H   0  0  0  0  0  0  0  0  0  0  0  0
   -0.3530    2.0283   -2.1511 H   0  0  0  0  0  0  0  0  0  0  0  0
    0.9835    0.9900   -3.8400 H   0  0  0  0  0  0  0  0  0  0  0  0
    3.8277   -2.0783   -5.2492 H   0  0  0  0  0  0  0  0  0  0  0  0
    4.5296   -1.9563   -3.6189 H   0  0  0  0  0  0  0  0  0  0  0  0
    5.1216   -0.1772   -6.0516 H   0  0  0  0  0  0  0  0  0  0  0  0
    6.2227   -1.3656   -5.3167 H   0  0  0  0  0  0  0  0  0  0  0  0
    4.5911    1.8775   -4.8041 H   0  0  0  0  0  0  0  0  0  0  0  0
    5.2602    2.0723   -3.1581 H   0  0  0  0  0  0  0  0  0  0  0  0
    2.8873    1.4067   -3.1364 H   0  0  0  0  0  0  0  0  0  0  0  0
    3.9039    0.2525   -2.2886 H   0  0  0  0  0  0  0  0  0  0  0  0
    7.5656   -0.6807   -3.4661 H   0  0  0  0  0  0  0  0  0  0  0  0
    6.1514   -0.6758   -2.3766 H   0  0  0  0  0  0  0  0  0  0  0  0
    7.1357    0.7904   -2.5582 H   0  0  0  0  0  0  0  0  0  0  0  0
    2.5091   -3.0369   -3.6568 H   0  0  0  0  0  0  0  0  0  0  0  0
    0.3697   -3.7885   -2.6891 H   0  0  0  0  0  0  0  0  0  0  0  0
   -5.0820   -0.7758    3.1059 H   0  0  0  0  0  0  0  0  0  0  0  0
   -3.8354    2.9869    1.4031 H   0  0  0  0  0  0  0  0  0  0  0  0
   -1.7926    5.2892    1.3826 H   0  0  0  0  0  0  0  0  0  0  0  0
   -0.6914    3.0518    3.2443 H   0  0  0  0  0  0  0  0  0  0  0  0
   -1.3546    4.7391    3.7618 H   0  0  0  0  0  0  0  0  0  0  0  0
    3.3897    2.3085    2.0810 H   0  0  0  0  0  0  0  0  0  0  0  0
    1.9879    3.3632    1.8451 H   0  0  0  0  0  0  0  0  0  0  0  0
    3.3195    0.1125    0.5912 H   0  0  0  0  0  0  0  0  0  0  0  0
    1.3555   -2.5180   -0.4161 H   0  0  0  0  0  0  0  0  0  0  0  0
    1.3184   -2.1423    1.3316 H   0  0  0  0  0  0  0  0  0  0  0  0
    2.8651   -2.0591    0.4437 H   0  0  0  0  0  0  0  0  0  0  0  0
    1.5229    3.8802   -0.9177 H   0  0  0  0  0  0  0  0  0  0  0  0
    2.9825    5.7114   -1.6289 H   0  0  0  0  0  0  0  0  0  0  0  0
    2.9853    4.5774   -3.0087 H   0  0  0  0  0  0  0  0  0  0  0  0
    4.2997    4.5114   -1.8052 H   0  0  0  0  0  0  0  0  0  0  0  0
  1  2  2  0  0  0  0
  2  3  1  0  0  0  0
  2 39  1  0  0  0  0
  3  4  1  0  0  0  0
  4 38  2  0  0  0  0
  4  5  1  0  0  0  0
  5  6  2  0  0  0  0
  6  7  1  0  0  0  0
  6 35  1  0  0  0  0
  7  8  1  0  0  0  0
  8 10  1  0  0  0  0
  8  9  2  0  0  0  0
 10 55  1  0  0  0  0
 11 12  1  0  0  0  0
 11 10  2  0  0  0  0
 12 56  1  0  0  0  0
 13 14  1  0  0  0  0
 13  7  1  0  0  0  0
 14 11  1  0  0  0  0
 15 59  1  0  0  0  0
 15 14  2  0  0  0  0
 16 15  1  0  0  0  0
 17 16  2  0  0  0  0
 17 34  1  0  0  0  0
 18 60  1  0  0  0  0
 18 17  1  0  0  0  0
 19 18  1  0  0  0  0
 20 21  1  0  0  0  0
 20 19  2  0  0  0  0
 22 21  1  0  0  0  0
 22 61  1  0  0  0  0
 22 63  1  0  0  0  0
 23 20  1  0  0  0  0
 24 23  2  0  0  0  0
 24 32  1  0  0  0  0
 25 24  1  0  0  0  0
 25 30  1  0  0  0  0
 26 25  1  0  0  0  0
 26 66  1  0  0  0  0
 27 26  1  0  0  0  0
 27 28  1  0  0  0  0
 28 29  1  0  0  0  0
 28 31  1  0  0  0  0
 29 30  1  0  0  0  0
 29 70  1  0  0  0  0
 30 71  1  0  0  0  0
 30 72  1  0  0  0  0
 31 75  1  0  0  0  0
 31 74  1  0  0  0  0
 32 33  2  0  0  0  0
 33 77  1  0  0  0  0
 33 19  1  0  0  0  0
 34 13  2  0  0  0  0
 35 78  1  0  0  0  0
 36 35  2  0  0  0  0
 36 37  1  0  0  0  0
 38 36  1  0  0  0  0
 39 40  2  0  0  0  0
 40 81  1  0  0  0  0
 40 82  1  0  0  0  0
 42 84  1  0  0  0  0
 42 83  1  0  0  0  0
 42 41  1  0  0  0  0
 43 44  1  6  0  0  0
 43 42  1  0  0  0  0
 45 43  1  0  0  0  0
 45 85  1  0  0  0  0
 46 45  1  0  0  0  0
 46 47  1  0  0  0  0
 47 88  1  0  0  0  0
 47 87  1  0  0  0  0
 48 46  2  0  0  0  0
 49 43  1  0  0  0  0
 50 89  1  0  0  0  0
 50 49  1  0  0  0  0
 51 92  1  0  0  0  0
 51 90  1  0  0  0  0
 51 50  1  0  0  0  0
 52 49  2  0  0  0  0
 53  3  1  0  0  0  0
 54  5  1  0  0  0  0
 57 12  1  0  0  0  0
 58 12  1  0  0  0  0
 62 22  1  0  0  0  0
 64 23  1  0  0  0  0
 65 26  1  0  0  0  0
 67 27  1  0  0  0  0
 68 27  1  0  0  0  0
 69 29  1  0  0  0  0
 73 31  1  0  0  0  0
 76 32  1  0  0  0  0
 79 38  1  0  0  0  0
 80 39  1  0  0  0  0
 86 47  1  0  0  0  0
 91 51  1  0  0  0  0
M  END
