88
-1 1
O        -2.034560   -9.012999    1.671933
C        -1.218268   -8.385548    2.323490
N        -1.281900   -7.000857    2.317594
C        -0.792356   -6.020185    3.200629
C        -0.538255   -4.744289    2.681844
C        -0.107904   -3.708267    3.514608
C         0.200599   -2.338098    2.994736
N        -0.551783   -1.942272    1.918517
C        -0.458962   -0.759228    1.170295
C         0.517959    0.221909    1.389414
C         0.544350    1.356492    0.589851
C        -0.382338    1.562291   -0.442102
N        -0.249495    2.744226   -1.191034
C        -0.992155    3.265707   -2.217302
N        -2.068869    2.620245   -2.661520
C        -2.767675    3.164515   -3.658740
C        -2.450736    4.362136   -4.276978
C        -1.317880    5.059398   -3.815524
C        -0.894437    6.321647   -4.436205
C        -1.565385    7.436461   -4.906445
C        -3.001748    7.765227   -4.856208
C        -3.553614    8.581364   -5.853302
C        -4.902720    8.920612   -5.837402
C        -5.704398    8.440487   -4.808891
F        -7.000678    8.760022   -4.789313
C        -5.186162    7.643485   -3.795939
C        -3.833606    7.315823   -3.821424
N        -0.669072    8.323180   -5.460831
C         0.510361    7.778745   -5.325773
S         2.046796    8.450784   -5.850483
C         1.450611    9.977839   -6.609544
N         0.440306    6.575565   -4.700366
H         1.200537    5.924687   -4.550328
C        -0.584512    4.503841   -2.775325
C        -1.360517    0.583630   -0.657588
C        -1.386661   -0.553555    0.142543
O         1.052942   -1.635605    3.511062
C         0.110456   -3.955929    4.874327
C        -0.120620   -5.228162    5.385199
C        -0.582585   -6.252247    4.564610
C        -0.123261   -9.072182    3.050530
C         1.104680   -8.581641    3.243244
S         2.416163   -7.506598    6.236151
C         3.191849   -5.906767    5.816476
C         3.353103   -5.657448    4.299228
H         2.362073   -5.436640    3.860014
N         3.898762   -6.832232    3.678585
C         3.960894   -6.960036    2.338805
C         4.410984   -8.320260    1.833937
O         3.662004   -6.061307    1.565299
C         4.273413   -4.451422    4.076079
N         3.619852   -3.259014    4.022176
C         4.306531   -2.008387    3.855016
O         5.485930   -4.546917    4.034059
H        -1.950468   -6.676398    1.627476
H        -0.628828   -4.595508    1.602272
H        -1.296716   -2.570696    1.649204
H         1.243348    0.085440    2.187665
H         1.317671    2.107463    0.778750
H         0.538235    3.312553   -0.913071
H        -3.640927    2.593997   -3.992995
H        -3.051730    4.748360   -5.100175
H        -2.903252    8.953200   -6.646633
H        -5.342761    9.551457   -6.611304
H        -5.840371    7.298388   -2.993986
H        -3.419699    6.708532   -3.014688
H         2.344983   10.503710   -6.967049
H         0.921183   10.589573   -5.869515
H         0.783405    9.752774   -7.450127
H         0.283598    5.027071   -2.365680
H        -2.091687    0.722411   -1.449098
H        -2.156681   -1.307128   -0.046179
H         0.477557   -3.149137    5.510840
H         0.088741   -5.458628    6.430871
H        -0.733372   -7.243507    4.989455
H        -0.372712  -10.097896    3.334163
H         1.385061   -7.572232    2.933468
H         1.883919   -9.165369    3.734626
H         4.194160   -5.844495    6.271645
H         2.611342   -5.058981    6.216763
H         3.893052   -7.649951    4.292861
H         3.576258   -8.784583    1.287825
H         4.737857   -8.994967    2.637005
H         5.234608   -8.174156    1.121410
H         2.608455   -3.240817    3.995924
H         5.382975   -2.205297    3.942190
H         4.004084   -1.280593    4.624753
H         4.107478   -1.562180    2.865945
