-1 1
 OpenBabel05232413483D

 94 97  0  0  1  0  0  0  0  0999 V2000
    3.9390   -4.1665   -6.9877 O   0  0  0  0  0  0  0  0  0  0  0  0
    3.2672   -3.1766   -6.7467 C   0  0  0  0  0  0  0  0  0  0  0  0
    3.7650   -2.3275   -5.7451 N   0  0  0  0  0  0  0  0  0  0  0  0
    3.2780   -1.2709   -4.9935 C   0  0  0  0  0  0  0  0  0  0  0  0
    3.9378   -1.0146   -3.7721 C   0  0  0  0  0  0  0  0  0  0  0  0
    3.5344    0.0086   -2.9349 C   0  0  0  0  0  0  0  0  0  0  0  0
    2.4504    0.8345   -3.2718 C   0  0  0  0  0  0  0  0  0  0  0  0
    1.8823    1.9137   -2.4106 C   0  0  0  0  0  0  0  0  0  0  0  0
    2.5618    2.1705   -1.2368 N   0  0  0  0  0  0  0  0  0  0  0  0
    2.1738    2.9890   -0.1709 C   0  0  0  0  0  0  0  0  0  0  0  0
    1.0505    3.8280   -0.2170 C   0  0  0  0  0  0  0  0  0  0  0  0
    0.6672    4.5796    0.8946 C   0  0  0  0  0  0  0  0  0  0  0  0
   -0.5771    5.4253    0.8304 C   0  0  0  0  0  0  0  0  0  0  0  0
    1.4247    4.5047    2.0783 C   0  0  0  0  0  0  0  0  0  0  0  0
    0.9678    5.1470    3.2719 N   0  0  0  0  0  0  0  0  0  0  0  0
   -0.2055    4.6731    3.8370 C   0  0  0  0  0  0  0  0  0  0  0  0
   -1.0138    5.5504    4.4265 N   0  0  0  0  0  0  0  0  0  0  0  0
   -2.1915    5.1011    4.8690 C   0  0  0  0  0  0  0  0  0  0  0  0
   -2.6449    3.7985    4.7095 C   0  0  0  0  0  0  0  0  0  0  0  0
   -1.7734    2.8593    4.1263 C   0  0  0  0  0  0  0  0  0  0  0  0
   -2.1602    1.4581    3.9020 C   0  0  0  0  0  0  0  0  0  0  0  0
   -1.8636    0.7806    2.7329 N   0  0  0  0  0  0  0  0  0  0  0  0
   -1.1792    1.2982    1.5610 C   0  0  0  0  0  0  0  0  0  0  0  0
   -2.3886   -0.4792    2.8613 C   0  0  0  0  0  0  0  0  0  0  0  0
   -2.1215   -1.7511    1.6716 S   0  0  0  0  0  0  0  0  0  0  0  0
   -3.3058   -1.3419    0.3505 C   0  0  0  0  0  0  0  0  0  0  0  0
   -2.9842   -0.6359    4.0209 N   0  0  0  0  0  0  0  0  0  0  0  0
   -2.8503    0.5453    4.6895 C   0  0  0  0  0  0  0  0  0  0  0  0
   -3.3789    0.6893    6.0599 C   0  0  0  0  0  0  0  0  0  0  0  0
   -4.5174   -0.0400    6.4313 C   0  0  0  0  0  0  0  0  0  0  0  0
   -5.0438    0.0547    7.7158 C   0  0  0  0  0  0  0  0  0  0  0  0
   -4.4194    0.8846    8.6387 C   0  0  0  0  0  0  0  0  0  0  0  0
   -4.9226    0.9845    9.8742 F   0  0  0  0  0  0  0  0  0  0  0  0
   -3.2788    1.6059    8.3107 C   0  0  0  0  0  0  0  0  0  0  0  0
   -2.7599    1.4976    7.0230 C   0  0  0  0  0  0  0  0  0  0  0  0
   -0.5161    3.3052    3.7383 C   0  0  0  0  0  0  0  0  0  0  0  0
    2.5654    3.7036    2.1100 C   0  0  0  0  0  0  0  0  0  0  0  0
    2.9419    2.9522    1.0030 C   0  0  0  0  0  0  0  0  0  0  0  0
    0.8686    2.5116   -2.7222 O   0  0  0  0  0  0  0  0  0  0  0  0
    1.8047    0.5860   -4.4852 C   0  0  0  0  0  0  0  0  0  0  0  0
    2.2082   -0.4300   -5.3396 C   0  0  0  0  0  0  0  0  0  0  0  0
    2.0011   -2.8910   -7.4329 C   0  0  0  0  0  0  0  0  0  0  0  0
    1.2900   -3.9136   -7.9470 C   0  0  0  0  0  0  0  0  0  0  0  0
   -0.5191   -4.8534   -5.7833 S   0  0  0  0  0  1  0  0  0  0  0  0
    0.0168   -3.4292   -4.7915 C   0  0  0  0  0  0  0  0  0  0  0  0
    0.7190   -3.7490   -3.4511 C   0  0  2  0  0  0  0  0  0  0  0  0
    0.0729   -4.4545   -2.9014 H   0  0  0  0  0  0  0  0  0  0  0  0
    0.9140   -2.5628   -2.6423 N   0  0  0  0  0  0  0  0  0  0  0  0
   -0.0458   -1.9941   -1.8909 C   0  0  0  0  0  0  0  0  0  0  0  0
    0.4005   -0.8229   -1.0350 C   0  0  0  0  0  0  0  0  0  0  0  0
   -1.2129   -2.3688   -1.8829 O   0  0  0  0  0  0  0  0  0  0  0  0
    2.1119   -4.3844   -3.6049 C   0  0  0  0  0  0  0  0  0  0  0  0
    2.1456   -5.5006   -4.3403 N   0  0  0  0  0  0  0  0  0  0  0  0
    3.3699   -6.2172   -4.5932 C   0  0  0  0  0  0  0  0  0  0  0  0
    3.1032   -3.8891   -3.0614 O   0  0  0  0  0  0  0  0  0  0  0  0
    4.5538   -2.7977   -5.3120 H   0  0  0  0  0  0  0  0  0  0  0  0
    4.7432   -1.6807   -3.4599 H   0  0  0  0  0  0  0  0  0  0  0  0
    4.0757    0.1182   -1.9908 H   0  0  0  0  0  0  0  0  0  0  0  0
    3.4021    1.6337   -1.0780 H   0  0  0  0  0  0  0  0  0  0  0  0
    0.4665    3.8664   -1.1334 H   0  0  0  0  0  0  0  0  0  0  0  0
   -0.9179    5.5442   -0.2064 H   0  0  0  0  0  0  0  0  0  0  0  0
   -0.4159    6.4236    1.2631 H   0  0  0  0  0  0  0  0  0  0  0  0
   -1.3972    4.9665    1.4071 H   0  0  0  0  0  0  0  0  0  0  0  0
    1.0233    6.1600    3.3032 H   0  0  0  0  0  0  0  0  0  0  0  0
   -2.8344    5.8433    5.3550 H   0  0  0  0  0  0  0  0  0  0  0  0
   -3.6453    3.5106    5.0335 H   0  0  0  0  0  0  0  0  0  0  0  0
   -1.4320    2.3550    1.4151 H   0  0  0  0  0  0  0  0  0  0  0  0
   -1.4874    0.7294    0.6793 H   0  0  0  0  0  0  0  0  0  0  0  0
   -0.0873    1.2065    1.6542 H   0  0  0  0  0  0  0  0  0  0  0  0
   -2.8812   -1.7934   -0.5600 H   0  0  0  0  0  0  0  0  0  0  0  0
   -3.3733   -0.2555    0.2066 H   0  0  0  0  0  0  0  0  0  0  0  0
   -4.2980   -1.7480    0.5830 H   0  0  0  0  0  0  0  0  0  0  0  0
   -4.9820   -0.6948    5.6921 H   0  0  0  0  0  0  0  0  0  0  0  0
   -5.9312   -0.5071    8.0119 H   0  0  0  0  0  0  0  0  0  0  0  0
   -2.8019    2.2323    9.0662 H   0  0  0  0  0  0  0  0  0  0  0  0
   -1.8501    2.0445    6.7702 H   0  0  0  0  0  0  0  0  0  0  0  0
    0.2221    2.6201    3.3286 H   0  0  0  0  0  0  0  0  0  0  0  0
    3.1410    3.6505    3.0362 H   0  0  0  0  0  0  0  0  0  0  0  0
    3.8263    2.3117    1.0573 H   0  0  0  0  0  0  0  0  0  0  0  0
    0.9530    1.2134   -4.7517 H   0  0  0  0  0  0  0  0  0  0  0  0
    1.6640   -0.5663   -6.2675 H   0  0  0  0  0  0  0  0  0  0  0  0
    1.6051   -1.8797   -7.4732 H   0  0  0  0  0  0  0  0  0  0  0  0
    1.6803   -4.9305   -7.9171 H   0  0  0  0  0  0  0  0  0  0  0  0
    0.3449   -3.7477   -8.4616 H   0  0  0  0  0  0  0  0  0  0  0  0
   -0.8540   -2.8104   -4.5319 H   0  0  0  0  0  0  0  0  0  0  0  0
    0.7042   -2.7949   -5.3844 H   0  0  0  0  0  0  0  0  0  0  0  0
    1.8915   -2.3181   -2.5037 H   0  0  0  0  0  0  0  0  0  0  0  0
    0.0300   -0.9881   -0.0138 H   0  0  0  0  0  0  0  0  0  0  0  0
   -0.0629    0.0957   -1.4264 H   0  0  0  0  0  0  0  0  0  0  0  0
    1.4895   -0.6857   -1.0166 H   0  0  0  0  0  0  0  0  0  0  0  0
    1.2952   -5.6854   -4.9098 H   0  0  0  0  0  0  0  0  0  0  0  0
    3.1404   -7.2791   -4.7638 H   0  0  0  0  0  0  0  0  0  0  0  0
    4.0294   -6.1292   -3.7185 H   0  0  0  0  0  0  0  0  0  0  0  0
    3.8999   -5.8188   -5.4735 H   0  0  0  0  0  0  0  0  0  0  0  0
  1  2  2  0  0  0  0
  2  3  1  0  0  0  0
  3 56  1  0  0  0  0
  3  4  1  0  0  0  0
  4  5  1  0  0  0  0
  5 57  1  0  0  0  0
  5  6  2  0  0  0  0
  6 58  1  0  0  0  0
  7  6  1  0  0  0  0
  7  8  1  0  0  0  0
  8  9  1  0  0  0  0
  9 59  1  0  0  0  0
  9 10  1  0  0  0  0
 10 38  1  0  0  0  0
 11 10  2  0  0  0  0
 11 12  1  0  0  0  0
 12 14  2  0  0  0  0
 13 12  1  0  0  0  0
 13 62  1  0  0  0  0
 13 63  1  0  0  0  0
 14 37  1  0  0  0  0
 14 15  1  0  0  0  0
 15 64  1  0  0  0  0
 15 16  1  0  0  0  0
 16 17  1  0  0  0  0
 17 18  2  0  0  0  0
 18 65  1  0  0  0  0
 19 18  1  0  0  0  0
 19 66  1  0  0  0  0
 20 19  2  0  0  0  0
 21 20  1  0  0  0  0
 21 28  2  0  0  0  0
 22 24  1  0  0  0  0
 22 21  1  0  0  0  0
 23 69  1  0  0  0  0
 23 22  1  0  0  0  0
 24 27  2  0  0  0  0
 25 24  1  0  0  0  0
 26 72  1  0  0  0  0
 26 25  1  0  0  0  0
 27 28  1  0  0  0  0
 28 29  1  0  0  0  0
 29 30  2  0  0  0  0
 29 35  1  0  0  0  0
 30 31  1  0  0  0  0
 31 74  1  0  0  0  0
 31 32  2  0  0  0  0
 32 33  1  0  0  0  0
 34 32  1  0  0  0  0
 34 75  1  0  0  0  0
 35 34  2  0  0  0  0
 36 16  2  0  0  0  0
 36 20  1  0  0  0  0
 37 78  1  0  0  0  0
 38 79  1  0  0  0  0
 38 37  2  0  0  0  0
 39  8  2  0  0  0  0
 40  7  2  0  0  0  0
 41  4  2  0  0  0  0
 41 40  1  0  0  0  0
 42  2  1  0  0  0  0
 43 83  1  0  0  0  0
 43 42  2  0  0  0  0
 44 45  1  0  0  0  0
 45 85  1  0  0  0  0
 45 46  1  0  0  0  0
 46 47  1  1  0  0  0
 46 48  1  0  0  0  0
 48 87  1  0  0  0  0
 48 49  1  0  0  0  0
 49 51  2  0  0  0  0
 49 50  1  0  0  0  0
 50 90  1  0  0  0  0
 50 88  1  0  0  0  0
 52 46  1  0  0  0  0
 52 55  2  0  0  0  0
 53 52  1  0  0  0  0
 54 53  1  0  0  0  0
 54 93  1  0  0  0  0
 60 11  1  0  0  0  0
 61 13  1  0  0  0  0
 67 23  1  0  0  0  0
 68 23  1  0  0  0  0
 70 26  1  0  0  0  0
 71 26  1  0  0  0  0
 73 30  1  0  0  0  0
 76 35  1  0  0  0  0
 77 36  1  0  0  0  0
 80 40  1  0  0  0  0
 81 41  1  0  0  0  0
 82 42  1  0  0  0  0
 84 43  1  0  0  0  0
 86 45  1  0  0  0  0
 89 50  1  0  0  0  0
 91 53  1  0  0  0  0
 92 54  1  0  0  0  0
 94 54  1  0  0  0  0
M  END
