94
-1 1
O         3.939027   -4.166505   -6.987676
C         3.267204   -3.176647   -6.746735
N         3.764953   -2.327508   -5.745085
C         3.278003   -1.270936   -4.993494
C         3.937787   -1.014559   -3.772056
C         3.534356    0.008623   -2.934864
C         2.450431    0.834515   -3.271817
C         1.882345    1.913717   -2.410638
N         2.561793    2.170525   -1.236775
C         2.173801    2.988961   -0.170877
C         1.050473    3.828024   -0.217005
C         0.667192    4.579591    0.894598
C        -0.577143    5.425303    0.830369
C         1.424734    4.504692    2.078311
N         0.967768    5.146959    3.271909
C        -0.205528    4.673103    3.837014
N        -1.013757    5.550361    4.426478
C        -2.191528    5.101054    4.868976
C        -2.644928    3.798546    4.709528
C        -1.773449    2.859326    4.126274
C        -2.160168    1.458121    3.902036
N        -1.863624    0.780638    2.732925
C        -1.179166    1.298206    1.561012
C        -2.388575   -0.479217    2.861303
S        -2.121513   -1.751101    1.671629
C        -3.305798   -1.341940    0.350530
N        -2.984244   -0.635900    4.020906
C        -2.850329    0.545256    4.689479
C        -3.378946    0.689308    6.059920
C        -4.517437   -0.040036    6.431267
C        -5.043810    0.054663    7.715809
C        -4.419411    0.884624    8.638657
F        -4.922604    0.984505    9.874225
C        -3.278837    1.605874    8.310692
C        -2.759879    1.497610    7.023031
C        -0.516119    3.305203    3.738273
C         2.565414    3.703575    2.110047
C         2.941894    2.952168    1.002967
O         0.868594    2.511553   -2.722173
C         1.804701    0.585993   -4.485244
C         2.208170   -0.430014   -5.339640
C         2.001053   -2.891018   -7.432921
C         1.289982   -3.913615   -7.947018
S        -0.519051   -4.853385   -5.783299
C         0.016840   -3.429217   -4.791468
C         0.719037   -3.749036   -3.451101
H         0.072858   -4.454539   -2.901426
N         0.913996   -2.562793   -2.642262
C        -0.045755   -1.994098   -1.890874
C         0.400521   -0.822948   -1.035008
O        -1.212881   -2.368753   -1.882921
C         2.111940   -4.384387   -3.604915
N         2.145601   -5.500582   -4.340260
C         3.369861   -6.217150   -4.593240
O         3.103216   -3.889100   -3.061372
H         4.553775   -2.797728   -5.312020
H         4.743224   -1.680712   -3.459855
H         4.075721    0.118168   -1.990848
H         3.402098    1.633713   -1.078025
H         0.466542    3.866391   -1.133437
H        -0.917897    5.544219   -0.206409
H        -0.415880    6.423575    1.263089
H        -1.397204    4.966529    1.407127
H         1.023331    6.159999    3.303248
H        -2.834358    5.843270    5.355042
H        -3.645344    3.510575    5.033492
H        -1.431996    2.354962    1.415109
H        -1.487423    0.729351    0.679279
H        -0.087251    1.206482    1.654169
H        -2.881163   -1.793412   -0.560048
H        -3.373292   -0.255484    0.206631
H        -4.297966   -1.747975    0.583033
H        -4.982006   -0.694755    5.692069
H        -5.931192   -0.507099    8.011934
H        -2.801945    2.232277    9.066167
H        -1.850065    2.044480    6.770162
H         0.222093    2.620130    3.328556
H         3.141026    3.650529    3.036184
H         3.826344    2.311723    1.057309
H         0.953023    1.213354   -4.751738
H         1.663978   -0.566293   -6.267492
H         1.605125   -1.879727   -7.473185
H         1.680294   -4.930493   -7.917080
H         0.344877   -3.747685   -8.461616
H        -0.853981   -2.810373   -4.531939
H         0.704219   -2.794923   -5.384435
H         1.891497   -2.318068   -2.503704
H         0.030019   -0.988111   -0.013812
H        -0.062851    0.095747   -1.426352
H         1.489527   -0.685681   -1.016578
H         1.295215   -5.685424   -4.909819
H         3.140366   -7.279092   -4.763826
H         4.029446   -6.129192   -3.718502
H         3.899912   -5.818840   -5.473543
