94
-1 1
O         1.254482  -16.036336   -7.898550
C         0.618947  -14.999262   -7.720368
N         1.266921  -14.057587   -6.862323
C         0.807103  -13.019881   -6.080218
C         1.406767  -12.833673   -4.813762
C         0.988015  -11.830866   -3.959266
C        -0.051239  -10.956776   -4.319655
C        -0.633306   -9.903821   -3.441180
N         0.056144   -9.646326   -2.270779
C        -0.329253   -8.841025   -1.195350
C        -1.458763   -8.009035   -1.226629
C        -1.835272   -7.262607   -0.109443
C        -3.082027   -6.419409   -0.162148
C        -1.066584   -7.337572    1.067243
N        -1.513352   -6.696608    2.265732
C        -2.687628   -7.161449    2.834681
N        -3.487287   -6.279085    3.428484
C        -4.668259   -6.719424    3.871298
C        -5.133638   -8.017255    3.707797
C        -4.270553   -8.962400    3.121537
C        -4.669611  -10.359530    2.892631
N        -4.376979  -11.035762    1.721887
C        -3.687964  -10.519330    0.552038
C        -4.911861  -12.291736    1.845951
S        -4.648577  -13.565467    0.657215
C        -5.819282  -13.147546   -0.672681
N        -5.510799  -12.447201    3.004002
C        -5.368518  -11.269064    3.676262
C        -5.898657  -11.124519    5.046067
C        -7.044271  -11.844868    5.412956
C        -7.572566  -11.749139    6.696640
C        -6.942892  -10.927241    7.623109
F        -7.447893  -10.826380    8.857843
C        -5.795375  -10.215065    7.299541
C        -5.274626  -10.324261    6.012693
C        -3.009477   -8.526759    2.734530
C         0.077840   -8.133829    1.085772
C         0.448817   -8.878519   -0.027782
O        -1.661116   -9.318810   -3.733053
C        -0.627580  -11.125315   -5.582879
C        -0.201346  -12.113315   -6.457197
C        -0.676473  -14.730754   -8.277019
C        -1.458271  -15.794017   -8.703981
S        -2.842339  -16.605344   -6.907149
C        -2.454193  -15.256040   -5.772042
C        -1.758153  -15.603714   -4.436405
H        -2.394718  -16.321796   -3.892321
N        -1.597314  -14.415417   -3.626066
C        -2.579658  -13.851914   -2.901079
C        -2.173247  -12.644105   -2.079374
O        -3.735338  -14.263090   -2.893796
C        -0.350940  -16.216703   -4.566727
N        -0.286428  -17.357661   -5.265400
C         0.968012  -18.028689   -5.508475
O         0.619099  -15.695691   -4.016721
H         2.075791  -14.531526   -6.473452
H         2.161552  -13.547642   -4.481537
H         1.465360  -11.784135   -2.975790
H         0.921035  -10.151503   -2.141310
H        -2.050025   -7.970166   -2.138415
H        -3.425533   -6.291687   -1.196992
H        -2.922017   -5.424972    0.279666
H        -3.900030   -6.885022    0.412107
H        -1.445961   -5.684475    2.302740
H        -5.303778   -5.973188    4.360848
H        -6.136496   -8.297202    4.031248
H        -3.931053   -9.459832    0.410644
H        -4.002493  -11.080126   -0.332445
H        -2.596950  -10.621589    0.643887
H        -5.399722  -13.617869   -1.576135
H        -5.865704  -12.061842   -0.830026
H        -6.820219  -13.532051   -0.440901
H        -7.513106  -12.493328    4.670942
H        -8.465521  -12.303831    6.989326
H        -5.314704   -9.594840    8.057709
H        -4.359772   -9.784346    5.763070
H        -2.277023   -9.216600    2.322398
H         0.662212   -8.187448    2.006416
H         1.337393   -9.514000    0.015801
H        -1.432295  -10.448433   -5.874288
H        -0.651680  -12.172125   -7.443628
H        -1.106647  -13.734585   -8.249553
H        -0.971618  -16.758100   -8.855894
H        -2.342216  -15.601795   -9.311046
H        -3.376977  -14.723768   -5.503755
H        -1.797039  -14.544675   -6.310156
H        -0.630013  -14.123425   -3.509828
H        -2.547831  -12.787068   -1.056500
H        -2.653380  -11.749547   -2.504713
H        -1.088334  -12.478569   -2.057092
H        -1.093859  -17.547238   -5.878130
H         0.776451  -19.094593   -5.698829
H         1.606452  -17.932704   -4.619436
H         1.488014  -17.590025   -6.374812
