94
-1 1
O        10.044677   -5.296076  -10.945991
C        10.457057   -5.195624  -12.105019
N        10.706239   -6.453867  -12.802927
C         9.787491   -6.817176  -13.806613
C         8.835188   -7.838252  -13.561211
C         8.868800   -8.553180  -12.232367
C         7.894889   -8.132641  -14.560646
C         6.850839   -9.200796  -14.416472
N         5.957934   -9.128740  -13.369157
C         5.680771   -8.138662  -12.403166
C         5.764172   -6.767362  -12.665857
C         5.384961   -5.835434  -11.690148
N         5.461494   -4.465434  -12.010487
C         4.503151   -3.518159  -11.758260
N         3.419830   -3.847740  -11.053269
C         2.505552   -2.907997  -10.814935
C         2.596741   -1.596490  -11.249637
C         3.713744   -1.242823  -12.032603
C         3.821840    0.117273  -12.590723
N         4.966741    0.884759  -12.531423
C         6.237535    0.500174  -11.938130
C         4.664117    2.085284  -13.109209
S         5.821733    3.403907  -13.273713
C         5.858406    3.552498  -15.085420
N         3.422121    2.124504  -13.533122
C         2.880371    0.906504  -13.238664
C         1.507737    0.582349  -13.671016
C         1.112150   -0.721442  -14.002825
C        -0.183817   -0.991214  -14.434772
C        -1.087550    0.056978  -14.547450
F        -2.334602   -0.195363  -14.962662
C        -0.723803    1.363632  -14.246491
C         0.573419    1.618458  -13.812232
C         4.670424   -2.213298  -12.292707
C         4.930494   -6.279774  -10.442345
C         4.848779   -7.643593  -10.189307
C         5.222910   -8.572960  -11.153891
O         6.759256  -10.120391  -15.208123
C         7.895862   -7.448375  -15.782959
C         8.830413   -6.447555  -16.013080
C         9.779534   -6.154649  -15.039248
C        10.691576   -3.998707  -12.818294
C        10.088532   -2.796799  -12.354667
S         8.098895   -2.586605  -12.958068
C         8.286293   -3.049175  -14.693467
C         8.013877   -1.908068  -15.658421
H         8.546159   -1.004512  -15.320568
N         6.592166   -1.582360  -15.661905
C         6.094480   -0.364225  -15.959227
C         4.592192   -0.231710  -15.914690
O         6.817034    0.572855  -16.294823
C         8.490843   -2.230468  -17.091070
N         8.498539   -1.146010  -17.907686
C         8.845987   -1.228115  -19.301867
O         8.828062   -3.346399  -17.442609
H        10.716064   -7.149726  -12.065162
H         9.846491   -9.038300  -12.072211
H         8.108826   -9.338361  -12.158500
H         8.715041   -7.838158  -11.408672
H         5.374400   -9.957393  -13.325415
H         6.093317   -6.415002  -13.644028
H         6.343037   -4.123456  -12.411901
H         1.637981   -3.226435  -10.225058
H         1.822870   -0.866189  -11.011933
H         6.054454   -0.046341  -11.004444
H         6.816264    1.405325  -11.727061
H         6.820127   -0.148115  -12.609996
H         4.858011    3.813631  -15.452959
H         6.217367    2.621441  -15.546640
H         6.556697    4.371199  -15.306140
H         1.825412   -1.543735  -13.928017
H        -0.497167   -2.003978  -14.692717
H        -1.457578    2.164100  -14.354869
H         0.886500    2.637799  -13.580505
H         5.553694   -1.996852  -12.895336
H         4.631540   -5.553615   -9.690387
H         4.496545   -7.990342   -9.215116
H         5.164688   -9.644154  -10.945763
H         7.156059   -7.712339  -16.541314
H         8.828320   -5.874465  -16.942208
H        10.532020   -5.392039  -15.229937
H        11.202822   -4.027843  -13.780110
H        10.494093   -1.855018  -12.740493
H         9.897412   -2.760417  -11.276697
H         7.649602   -3.912270  -14.947860
H         9.314603   -3.419346  -14.821804
H         5.951588   -2.323419  -15.405447
H         4.204392   -0.323918  -16.940582
H         4.324106    0.766198  -15.546427
H         4.110084   -0.990673  -15.284081
H         8.140527   -0.273292  -17.520077
H         9.665226   -0.535163  -19.551690
H         7.985627   -0.995942  -19.951425
H         9.175825   -2.254064  -19.509425
