94
-1 1
O         4.583216   -1.600126    4.345031
C         4.183332   -1.780309    3.208202
N         4.191617   -3.049411    2.674157
C         3.939468   -3.481633    1.352766
C         3.130002   -4.618719    1.155042
C         2.587386   -5.343014    2.359943
C         2.883412   -5.028373   -0.165270
C         2.064351   -6.236923   -0.532416
N         0.778536   -6.355167   -0.064037
C        -0.054840   -5.490168    0.681302
C        -0.047332   -4.109710    0.506721
C        -0.897107   -3.287572    1.275744
N        -0.825489   -1.924992    1.021673
C        -1.500953   -0.866044    1.576506
N        -2.368448   -1.037868    2.573255
C        -2.969836    0.044404    3.077684
C        -2.756193    1.338231    2.638102
C        -1.858767    1.529143    1.566034
C        -1.615724    2.872316    1.012133
N        -0.355204    3.375620    0.759987
C         0.910268    2.691922    0.980514
C        -0.530058    4.645341    0.289095
S         0.804995    5.703831   -0.163204
C         0.286934    6.135757   -1.850197
N        -1.799497    4.971849    0.216052
C        -2.497336    3.878140    0.643184
C        -3.971632    3.874818    0.614369
C        -4.713245    2.705077    0.395593
C        -6.104872    2.734286    0.355174
C        -6.757724    3.948501    0.521209
F        -8.095876    3.983425    0.482493
C        -6.053617    5.129890    0.717820
C        -4.663331    5.085668    0.761081
C        -1.233756    0.416235    1.032516
C        -1.764839   -3.878635    2.209985
C        -1.772569   -5.263558    2.352652
C        -0.927948   -6.077255    1.608125
O         2.520509   -7.102822   -1.256147
C         3.454717   -4.345213   -1.244443
C         4.258034   -3.235745   -1.028326
C         4.511046   -2.812128    0.269765
C         3.638389   -0.684330    2.352048
C         3.801262    0.586111    2.723676
S         1.614851   -0.641508   -0.699213
C         2.121075   -0.626132   -2.448019
C         1.788738    0.692833   -3.150859
H         2.404051    1.503847   -2.720190
N         0.387092    1.018625   -2.908569
C        -0.117866    2.265701   -2.931920
C        -1.524818    2.421871   -2.402528
O         0.492628    3.229201   -3.401418
C         2.112097    0.616693   -4.660170
N         1.970099    1.797908   -5.312150
C         2.179200    1.926741   -6.728484
O         2.490716   -0.409651   -5.197332
H         4.447967   -3.751385    3.359835
H         3.394297   -5.612915    3.060575
H         2.074011   -6.271577    2.089478
H         1.872325   -4.707792    2.905769
H         0.375652   -7.252221   -0.313610
H         0.616727   -3.640798   -0.223069
H        -0.128207   -1.654272    0.307573
H        -3.669541   -0.141873    3.900338
H        -3.271105    2.182659    3.097461
H         0.889569    2.188406    1.955919
H         1.715374    3.434606    0.968768
H         1.111255    1.933947    0.205095
H        -0.700750    6.612125   -1.819413
H         0.280461    5.239871   -2.487467
H         1.032924    6.852982   -2.218436
H        -4.198347    1.754983    0.244865
H        -6.687371    1.827362    0.185707
H        -6.599473    6.067602    0.835065
H        -4.086839    6.001116    0.904257
H        -0.522325    0.485620    0.205873
H        -2.416901   -3.241434    2.800666
H        -2.453160   -5.716818    3.077848
H        -0.925491   -7.161072    1.746131
H         3.255752   -4.697699   -2.257631
H         4.689518   -2.696687   -1.873079
H         5.150985   -1.947943    0.453237
H         3.100106   -0.922670    1.426072
H         3.402437    1.398247    2.111672
H         4.339898    0.830962    3.643790
H         1.646134   -1.447778   -3.005455
H         3.205016   -0.783076   -2.539079
H        -0.050179    0.350390   -2.272062
H        -2.225405    2.385571   -3.250520
H        -1.626906    3.406340   -1.928942
H        -1.804671    1.637788   -1.685658
H         1.587583    2.576857   -4.771467
H         2.926986    2.704173   -6.956343
H         1.246028    2.182430   -7.258588
H         2.544983    0.963583   -7.107471
