91
-1 1
O         3.957435    1.359951   -8.769812
C         3.554088    1.175713   -7.636203
N         3.510437    2.265234   -6.772191
C         3.539751    2.413333   -5.375344
C         3.924075    1.397443   -4.492219
C         3.935153    1.632252   -3.123084
C         3.643779    2.895491   -2.602941
C         3.722093    3.175667   -1.129597
N         3.140913    2.193737   -0.373310
C         2.948619    2.191031    1.012957
C         1.934718    1.338719    1.475722
C         1.645924    1.253809    2.837900
N         0.626953    0.445398    3.364736
C        -0.328889   -0.319271    2.736021
N        -0.301008   -0.446849    1.412847
C        -1.224145   -1.190498    0.810274
C        -2.228764   -1.865748    1.490631
C        -2.280204   -1.734302    2.890365
C        -3.313241   -2.415114    3.690626
N        -4.671343   -2.257934    3.450087
C        -5.301183   -1.445487    2.430369
C        -5.313902   -2.984935    4.404657
S        -7.072078   -3.063999    4.465274
C        -7.255480   -4.072415    5.952094
N        -4.489140   -3.585518    5.220418
C        -3.227990   -3.248795    4.790438
C        -2.035717   -3.775779    5.480175
C        -0.813505   -3.973133    4.821211
C         0.295484   -4.469533    5.500654
C         0.174726   -4.784361    6.848171
F         1.235643   -5.262700    7.506252
C        -1.026944   -4.621515    7.526106
C        -2.126203   -4.119054    6.836352
C        -1.325826   -0.944365    3.519530
C         2.399206    2.020806    3.744727
C         3.402735    2.858222    3.272245
C         3.691275    2.965605    1.912022
O         4.240828    4.186815   -0.691114
C         3.306351    3.921552   -3.487466
C         3.223720    3.676542   -4.851458
C         3.034472   -0.157427   -7.234479
C         2.112705   -0.395036   -6.297437
S        -1.209454   -0.899970   -5.257692
C        -0.498322   -0.246524   -3.708288
C        -0.594858    1.285566   -3.609585
H        -1.654941    1.568502   -3.465493
N        -0.132987    1.830469   -4.878038
C        -0.351419    3.084256   -5.324922
C        -0.069828    3.266906   -6.801930
O        -0.730609    4.022632   -4.624941
C         0.177224    1.831502   -2.390765
N        -0.070141    3.124664   -2.118018
C         0.408294    3.819128   -0.951755
O         0.888857    1.107841   -1.692681
H         3.710464    3.115331   -7.289047
H         4.205967    0.417247   -4.871346
H         4.209086    0.819482   -2.447324
H         2.457124    1.616670   -0.884724
H         1.353527    0.758135    0.762999
H         0.542760    0.483626    4.370646
H        -1.145888   -1.251058   -0.280586
H        -2.942277   -2.490027    0.951534
H        -5.599914   -2.052915    1.563176
H        -4.600608   -0.671998    2.095132
H        -6.192202   -0.957001    2.849036
H        -8.334902   -4.220327    6.084226
H        -6.834729   -3.554575    6.822411
H        -6.752214   -5.037625    5.820390
H        -0.724506   -3.747193    3.757528
H         1.248916   -4.625152    4.993583
H        -1.087839   -4.887883    8.582589
H        -3.082470   -3.989051    7.345607
H        -1.348615   -0.819829    4.604546
H         2.189846    1.964984    4.816952
H         3.976564    3.454750    3.985840
H         4.457310    3.643241    1.543146
H         3.086687    4.915961   -3.093943
H         2.910086    4.474726   -5.528918
H         3.380252   -0.950385   -7.902876
H         1.728288    0.395692   -5.650707
H         1.670463   -1.381474   -6.140784
H         0.566205   -0.519368   -3.609911
H        -1.003173   -0.669355   -2.826529
H        -0.233740    1.073431   -5.585453
H        -0.749663    2.635623   -7.394674
H         0.958580    2.953515   -7.035403
H        -0.214812    4.319838   -7.070143
H        -0.515519    3.653519   -2.878985
H        -0.344662    4.553247   -0.629611
H         1.353243    4.359952   -1.126739
H         0.568194    3.105361   -0.133260
