-1 1
 OpenBabel05192410563D

 91 95  0  0  1  0  0  0  0  0999 V2000
    3.7545    0.7620   -8.4417 O   0  0  0  0  0  0  0  0  0  0  0  0
    3.2035    0.5695   -7.3524 C   0  0  0  0  0  0  0  0  0  0  0  0
    2.9475    1.8172   -6.6014 N   0  0  0  0  0  0  0  0  0  0  0  0
    3.3380    2.1743   -5.3299 C   0  0  0  0  0  0  0  0  0  0  0  0
    3.8609    1.2530   -4.4006 C   0  0  0  0  0  0  0  0  0  0  0  0
    3.9976    1.6038   -3.0673 C   0  0  0  0  0  0  0  0  0  0  0  0
    3.7114    2.8986   -2.6194 C   0  0  0  0  0  0  0  0  0  0  0  0
    3.7188    3.2485   -1.1717 C   0  0  0  0  0  0  0  0  0  0  0  0
    3.1485    2.2567   -0.3966 N   0  0  0  0  0  0  0  0  0  0  0  0
    2.9011    2.2875    0.9761 C   0  0  0  0  0  0  0  0  0  0  0  0
    1.9098    1.4077    1.4404 C   0  0  0  0  0  0  0  0  0  0  0  0
    1.5805    1.3622    2.7951 C   0  0  0  0  0  0  0  0  0  0  0  0
    0.5817    0.5277    3.3255 N   0  0  0  0  0  0  0  0  0  0  0  0
   -0.3738   -0.2377    2.7046 C   0  0  0  0  0  0  0  0  0  0  0  0
   -0.3800   -0.3358    1.3775 N   0  0  0  0  0  0  0  0  0  0  0  0
   -1.3067   -1.0846    0.7873 C   0  0  0  0  0  0  0  0  0  0  0  0
   -2.2831   -1.7894    1.4775 C   0  0  0  0  0  0  0  0  0  0  0  0
   -2.2987   -1.6885    2.8814 C   0  0  0  0  0  0  0  0  0  0  0  0
   -3.2984   -2.4043    3.6935 C   0  0  0  0  0  0  0  0  0  0  0  0
   -4.6652   -2.2512    3.5026 N   0  0  0  0  0  0  0  0  0  0  0  0
   -5.3341   -1.4059    2.5368 C   0  0  0  0  0  0  0  0  0  0  0  0
   -5.2704   -3.0162    4.4521 C   0  0  0  0  0  0  0  0  0  0  0  0
   -7.0249   -3.1123    4.5665 S   0  0  0  0  0  0  0  0  0  0  0  0
   -7.1533   -4.1636    6.0293 C   0  0  0  0  0  0  0  0  0  0  0  0
   -4.4145   -3.6367    5.2189 N   0  0  0  0  0  0  0  0  0  0  0  0
   -3.1704   -3.2739    4.7607 C   0  0  0  0  0  0  0  0  0  0  0  0
   -1.9522   -3.8122    5.3943 C   0  0  0  0  0  0  0  0  0  0  0  0
   -0.7482   -3.9702    4.6928 C   0  0  0  0  0  0  0  0  0  0  0  0
    0.3859   -4.4784    5.3200 C   0  0  0  0  0  0  0  0  0  0  0  0
    0.3087   -4.8445    6.6578 C   0  0  0  0  0  0  0  0  0  0  0  0
    1.3932   -5.3345    7.2657 F   0  0  0  0  0  0  0  0  0  0  0  0
   -0.8739   -4.7209    7.3764 C   0  0  0  0  0  0  0  0  0  0  0  0
   -1.9986   -4.2063    6.7389 C   0  0  0  0  0  0  0  0  0  0  0  0
   -1.3400   -0.8980    3.5004 C   0  0  0  0  0  0  0  0  0  0  0  0
    2.2691    2.1913    3.6975 C   0  0  0  0  0  0  0  0  0  0  0  0
    3.2519    3.0533    3.2256 C   0  0  0  0  0  0  0  0  0  0  0  0
    3.5781    3.1248    1.8726 C   0  0  0  0  0  0  0  0  0  0  0  0
    4.1311    4.3062   -0.7298 O   0  0  0  0  0  0  0  0  0  0  0  0
    3.3539    3.8627   -3.5696 C   0  0  0  0  0  0  0  0  0  0  0  0
    3.1627    3.5091   -4.8953 C   0  0  0  0  0  0  0  0  0  0  0  0
    2.7697   -0.6430   -6.8003 C   0  0  0  0  0  3  0  0  0  0  0  0
    1.9238   -0.8448   -5.6249 C   0  0  0  0  0  0  0  0  0  0  0  0
    0.0150   -0.6504   -5.8517 S   0  0  0  0  0  0  0  0  0  0  0  0
   -0.3974   -0.1191   -4.1612 C   0  0  0  0  0  0  0  0  0  0  0  0
   -0.4991    1.4053   -3.9161 C   0  0  2  0  0  0  0  0  0  0  0  0
   -1.5611    1.6941   -3.8451 H   0  0  0  0  0  0  0  0  0  0  0  0
    0.0578    2.1921   -4.9979 N   0  0  0  0  0  0  0  0  0  0  0  0
   -0.4093    3.4120   -5.3204 C   0  0  0  0  0  0  0  0  0  0  0  0
    0.0781    3.9786   -6.6324 C   0  0  0  0  0  0  0  0  0  0  0  0
   -1.2029    4.0332   -4.6122 O   0  0  0  0  0  0  0  0  0  0  0  0
    0.1371    1.8086   -2.5574 C   0  0  0  0  0  0  0  0  0  0  0  0
   -0.2180    3.0453   -2.1681 N   0  0  0  0  0  0  0  0  0  0  0  0
    0.2332    3.6656   -0.9477 C   0  0  0  0  0  0  0  0  0  0  0  0
    0.8558    1.0560   -1.9065 O   0  0  0  0  0  0  0  0  0  0  0  0
    3.0149    2.5761   -7.2737 H   0  0  0  0  0  0  0  0  0  0  0  0
    4.1224    0.2536   -4.7492 H   0  0  0  0  0  0  0  0  0  0  0  0
    4.3411    0.8495   -2.3549 H   0  0  0  0  0  0  0  0  0  0  0  0
    2.5430    1.6181   -0.9189 H   0  0  0  0  0  0  0  0  0  0  0  0
    1.3747    0.7788    0.7323 H   0  0  0  0  0  0  0  0  0  0  0  0
    0.5070    0.5605    4.3324 H   0  0  0  0  0  0  0  0  0  0  0  0
   -1.2530   -1.1260   -0.3060 H   0  0  0  0  0  0  0  0  0  0  0  0
   -3.0007   -2.4162    0.9464 H   0  0  0  0  0  0  0  0  0  0  0  0
   -5.6691   -1.9846    1.6630 H   0  0  0  0  0  0  0  0  0  0  0  0
   -4.6459   -0.6222    2.1995 H   0  0  0  0  0  0  0  0  0  0  0  0
   -6.2069   -0.9307    3.0062 H   0  0  0  0  0  0  0  0  0  0  0  0
   -8.2268   -4.3243    6.1912 H   0  0  0  0  0  0  0  0  0  0  0  0
   -6.7091   -3.6664    6.9000 H   0  0  0  0  0  0  0  0  0  0  0  0
   -6.6470   -5.1203    5.8544 H   0  0  0  0  0  0  0  0  0  0  0  0
   -0.6928   -3.7041    3.6361 H   0  0  0  0  0  0  0  0  0  0  0  0
    1.3255   -4.6035    4.7798 H   0  0  0  0  0  0  0  0  0  0  0  0
   -0.9002   -5.0269    8.4236 H   0  0  0  0  0  0  0  0  0  0  0  0
   -2.9402   -4.1064    7.2810 H   0  0  0  0  0  0  0  0  0  0  0  0
   -1.3332   -0.7992    4.5882 H   0  0  0  0  0  0  0  0  0  0  0  0
    2.0247    2.1654    4.7633 H   0  0  0  0  0  0  0  0  0  0  0  0
    3.7771    3.6995    3.9334 H   0  0  0  0  0  0  0  0  0  0  0  0
    4.3244    3.8230    1.5021 H   0  0  0  0  0  0  0  0  0  0  0  0
    3.1815    4.8909   -3.2425 H   0  0  0  0  0  0  0  0  0  0  0  0
    2.8251    4.2603   -5.6140 H   0  0  0  0  0  0  0  0  0  0  0  0
    2.9897   -1.5120   -7.4252 H   0  0  0  0  0  0  0  0  0  0  0  0
    2.0991   -0.1441   -4.7975 H   0  0  0  0  0  0  0  0  0  0  0  0
    2.0220   -1.8626   -5.2216 H   0  0  0  0  0  0  0  0  0  0  0  0
    0.3689   -0.5254   -3.4847 H   0  0  0  0  0  0  0  0  0  0  0  0
   -1.3506   -0.5850   -3.8763 H   0  0  0  0  0  0  0  0  0  0  0  0
    0.6643    1.7063   -5.6610 H   0  0  0  0  0  0  0  0  0  0  0  0
   -0.7801    4.0456   -7.3167 H   0  0  0  0  0  0  0  0  0  0  0  0
    0.8590    3.3614   -7.0931 H   0  0  0  0  0  0  0  0  0  0  0  0
    0.4495    4.9983   -6.4624 H   0  0  0  0  0  0  0  0  0  0  0  0
   -0.7378    3.5989   -2.8570 H   0  0  0  0  0  0  0  0  0  0  0  0
   -0.5314    4.3727   -0.5966 H   0  0  0  0  0  0  0  0  0  0  0  0
    1.1793    4.2168   -1.0752 H   0  0  0  0  0  0  0  0  0  0  0  0
    0.3816    2.9011   -0.1741 H   0  0  0  0  0  0  0  0  0  0  0  0
  1  2  2  0  0  0  0
  2 41  1  0  0  0  0
  2  3  1  0  0  0  0
  3  4  1  0  0  0  0
  4 40  2  0  0  0  0
  4  5  1  0  0  0  0
  5  6  2  0  0  0  0
  6  7  1  0  0  0  0
  6 57  1  0  0  0  0
  7  8  1  0  0  0  0
  8 38  2  0  0  0  0
  8  9  1  0  0  0  0
  9 10  1  0  0  0  0
 10 11  2  0  0  0  0
 10 37  1  0  0  0  0
 11 12  1  0  0  0  0
 12 13  1  0  0  0  0
 12 35  2  0  0  0  0
 13 60  1  0  0  0  0
 14 13  1  0  0  0  0
 14 34  1  0  0  0  0
 15 14  2  0  0  0  0
 16 15  1  0  0  0  0
 16 17  2  0  0  0  0
 17 18  1  0  0  0  0
 18 34  2  0  0  0  0
 18 19  1  0  0  0  0
 19 26  2  0  0  0  0
 20 19  1  0  0  0  0
 20 22  1  0  0  0  0
 21 65  1  0  0  0  0
 21 20  1  0  0  0  0
 22 23  1  0  0  0  0
 22 25  2  0  0  0  0
 23 24  1  0  0  0  0
 24 66  1  0  0  0  0
 24 67  1  0  0  0  0
 26 25  1  0  0  0  0
 26 27  1  0  0  0  0
 27 33  1  0  0  0  0
 28 29  1  0  0  0  0
 28 27  2  0  0  0  0
 29 30  2  0  0  0  0
 30 31  1  0  0  0  0
 30 32  1  0  0  0  0
 32 71  1  0  0  0  0
 33 72  1  0  0  0  0
 33 32  2  0  0  0  0
 34 73  1  0  0  0  0
 35 74  1  0  0  0  0
 36 35  1  0  0  0  0
 36 75  1  0  0  0  0
 37 36  2  0  0  0  0
 39 77  1  0  0  0  0
 39  7  2  0  0  0  0
 40 39  1  0  0  0  0
 41 42  1  0  0  0  0
 42 81  1  0  0  0  0
 42 80  1  0  0  0  0
 43 42  1  0  0  0  0
 43 44  1  0  0  0  0
 44 45  1  0  0  0  0
 44 83  1  0  0  0  0
 44 82  1  0  0  0  0
 45 46  1  1  0  0  0
 45 51  1  0  0  0  0
 47 45  1  0  0  0  0
 48 47  1  0  0  0  0
 48 50  2  0  0  0  0
 49 87  1  0  0  0  0
 49 48  1  0  0  0  0
 51 52  1  0  0  0  0
 51 54  2  0  0  0  0
 52 53  1  0  0  0  0
 53 89  1  0  0  0  0
 53 91  1  0  0  0  0
 55  3  1  0  0  0  0
 56  5  1  0  0  0  0
 58  9  1  0  0  0  0
 59 11  1  0  0  0  0
 61 16  1  0  0  0  0
 62 17  1  0  0  0  0
 63 21  1  0  0  0  0
 64 21  1  0  0  0  0
 68 24  1  0  0  0  0
 69 28  1  0  0  0  0
 70 29  1  0  0  0  0
 76 37  1  0  0  0  0
 78 40  1  0  0  0  0
 79 41  1  0  0  0  0
 84 47  1  0  0  0  0
 85 49  1  0  0  0  0
 86 49  1  0  0  0  0
 88 52  1  0  0  0  0
 90 53  1  0  0  0  0
M  END
