81
-1 1
O         5.956074    9.703182   -1.775118
C         5.245690    9.206008   -0.893651
N         5.645866    9.315427    0.462963
C         5.952204   10.578972    0.992515
C         5.314505   10.978566    2.172244
C         5.344234   12.307156    2.584639
C         4.400219   12.664530    3.697711
N         3.580602   13.720465    3.391685
C         2.380382   14.059735    4.035301
C         1.789378   13.291653    5.049090
C         0.493595   13.582664    5.470543
C        -0.218365   14.656805    4.935890
N        -1.580737   14.870175    5.251043
C        -2.609365   14.700199    4.352344
N        -3.842516   14.849363    4.849154
C        -4.866933   14.724358    4.008736
C        -4.747028   14.459177    2.651095
C        -3.453786   14.291804    2.120373
C        -3.233380   14.046917    0.694553
C        -3.875309   14.534739   -0.428905
C        -5.073866   15.423847   -0.517371
N        -3.223482   14.121413   -1.562778
C        -2.207340   13.397214   -1.153002
S        -0.988334   12.597015   -2.131945
C        -1.228836   13.457534   -3.700524
N        -2.154946   13.328366    0.201841
H        -1.478358   12.793762    0.737235
C        -2.374176   14.397862    2.995604
C         0.424871   15.492397    4.016265
C         1.701282   15.194611    3.563917
O         4.330285   12.010497    4.721620
C         6.096379   13.245892    1.872890
C         6.827006   12.821636    0.765457
C         6.759028   11.504296    0.313828
C         3.991393    8.550455   -1.158303
C         2.929770    8.429241   -0.277423
S         1.516614   10.437795   -0.184840
C         2.933068   11.552831   -0.117441
C         2.988549   12.698326   -1.140238
H         3.967847   13.192939   -1.013133
N         1.963140   13.687842   -0.924316
C         2.022721   14.632664    0.018571
C         0.786081   15.500941    0.142792
O         2.999556   14.806557    0.753012
C         2.871003   12.209760   -2.589972
N         3.846438   11.380609   -3.000047
C         3.773737   10.718050   -4.276824
O         1.954089   12.565195   -3.321614
H         5.048698    8.779936    1.081231
H         4.671174   10.278126    2.711084
H         3.648112   14.098401    2.439641
H         2.328614   12.438004    5.452267
H         0.008339   12.930544    6.201033
H        -1.876805   14.874288    6.218890
H        -5.863667   14.839467    4.451019
H        -5.633030   14.350076    2.026249
H        -5.165121   16.070002    0.367293
H        -6.005235   14.840946   -0.608202
H        -4.992098   16.055568   -1.412622
H        -0.387728   13.123434   -4.321108
H        -1.176756   14.543747   -3.554727
H        -2.188933   13.187275   -4.156013
H        -1.353527   14.281593    2.633538
H        -0.108341   16.360045    3.620758
H         2.171888   15.802259    2.789542
H         6.104043   14.294731    2.176087
H         7.440963   13.539605    0.216294
H         7.269058   11.187143   -0.593513
H         3.812398    8.363588   -2.220028
H         3.066475    8.508759    0.803161
H         2.064479    7.833790   -0.568769
H         3.834995   10.947355   -0.283014
H         3.042580   12.004914    0.878571
H         1.113929   13.557013   -1.474073
H         0.077763   15.366039   -0.686113
H         0.275778   15.251907    1.084882
H         1.093256   16.553915    0.201898
H         4.566009   11.039502   -2.363731
H         3.835374   11.435876   -5.110647
H         2.828009   10.162025   -4.380896
H         4.614758   10.015718   -4.337580
