81
-1 1
O         4.711997   -2.997017   -2.727806
C         3.970848   -3.542588   -1.871747
N         4.427562   -3.509432   -0.492077
C         4.659535   -2.268877    0.101301
C         4.010938   -1.939010    1.300969
C         3.979553   -0.624446    1.759729
C         3.002508   -0.330522    2.861644
N         2.205639    0.756560    2.589670
C         1.014044    1.116234    3.232025
C         0.394979    0.352642    4.232983
C        -0.887290    0.688149    4.666199
C        -1.556791    1.801420    4.157228
N        -2.908438    2.068202    4.482174
C        -3.939441    2.001785    3.577038
N        -5.158709    2.279615    4.052857
C        -6.177589    2.251485    3.196631
C        -6.067125    1.960065    1.842893
C        -4.790317    1.653676    1.335847
C        -4.565014    1.343672   -0.076723
C        -5.128250    1.828878   -1.241891
C        -6.240368    2.812958   -1.409929
N        -4.484709    1.300492   -2.333997
C        -3.550933    0.510775   -1.858003
S        -2.377609   -0.446326   -2.747283
C        -2.511514    0.297231   -4.386809
N        -3.544991    0.506531   -0.500741
H        -2.932972   -0.044463    0.089110
C        -3.718513    1.664038    2.225904
C        -0.885590    2.624266    3.245417
C         0.374661    2.283734    2.780768
O         2.882487   -1.038340    3.844142
C         4.693902    0.372727    1.087549
C         5.439724    0.021973   -0.036317
C         5.424507   -1.276748   -0.538934
C         2.730644   -4.134748   -2.117183
C         1.597266   -4.198970   -1.184517
S         0.419617   -2.667064   -1.242113
C         1.653636   -1.370830   -0.957153
C         1.702890   -0.198307   -1.943988
H         2.663462    0.313459   -1.763485
N         0.643848    0.757092   -1.729834
C         0.674283    1.709966   -0.790530
C        -0.564682    2.578026   -0.699681
O         1.630654    1.885313   -0.033119
C         1.633802   -0.645672   -3.412840
N         2.663681   -1.375277   -3.855049
C         2.622019   -1.997247   -5.154774
O         0.674374   -0.333413   -4.115118
H         3.873663   -4.116169    0.100138
H         3.397963   -2.685948    1.812658
H         2.302974    1.170509    1.657204
H         0.903356   -0.528527    4.617380
H        -1.395174    0.044019    5.388327
H        -3.197363    2.148881    5.448598
H        -7.163508    2.473497    3.621947
H        -6.951038    1.934226    1.206105
H        -6.316821    3.487176   -0.545242
H        -7.211985    2.307161   -1.533456
H        -6.064063    3.412624   -2.313585
H        -1.644581   -0.096537   -4.932712
H        -2.437402    1.389180   -4.313318
H        -3.454876    0.016484   -4.869706
H        -2.708058    1.446719    1.882312
H        -1.385635    3.518544    2.866052
H         0.863762    2.886474    2.014056
H         4.661806    1.408163    1.432631
H         6.024003    0.786019   -0.555477
H         5.937274   -1.544970   -1.461115
H         2.479939   -4.221980   -3.178454
H         1.871373   -4.287667   -0.122330
H         0.881050   -5.004238   -1.405893
H         2.616860   -1.881599   -1.020727
H         1.569312   -0.960820    0.058522
H        -0.163118    0.646137   -2.341365
H        -1.276859    2.408216   -1.518797
H        -1.068510    2.371332    0.256196
H        -0.258735    3.633016   -0.687437
H         3.410512   -1.737302   -3.243177
H         2.682568   -1.253264   -5.965748
H         1.689536   -2.568616   -5.289130
H         3.478279   -2.680802   -5.214463
