-1 1
 OpenBabel05232413483D

 94 97  0  0  1  0  0  0  0  0999 V2000
   -1.6414   -2.7389    6.8074 O   0  0  0  0  0  0  0  0  0  0  0  0
   -1.3039   -1.7194    6.2260 C   0  0  0  0  0  0  0  0  0  0  0  0
   -0.3375   -0.8998    6.7398 N   0  0  0  0  0  0  0  0  0  0  0  0
    0.2453    0.2472    6.1747 C   0  0  0  0  0  0  0  0  0  0  0  0
    0.7127    0.2450    4.8588 C   0  0  0  0  0  0  0  0  0  0  0  0
    1.2736    1.3965    4.3021 C   0  0  0  0  0  0  0  0  0  0  0  0
    1.7043    1.4445    2.8674 C   0  0  0  0  0  0  0  0  0  0  0  0
    0.9338    0.6562    2.0399 N   0  0  0  0  0  0  0  0  0  0  0  0
    1.0692    0.4272    0.6659 C   0  0  0  0  0  0  0  0  0  0  0  0
    0.1154   -0.3913    0.0448 C   0  0  0  0  0  0  0  0  0  0  0  0
    0.1653   -0.6945   -1.3119 C   0  0  0  0  0  0  0  0  0  0  0  0
   -0.8898   -1.5802   -1.9254 C   0  0  0  0  0  0  0  0  0  0  0  0
    1.2159   -0.1604   -2.0915 C   0  0  0  0  0  0  0  0  0  0  0  0
    1.2329   -0.5004   -3.4587 N   0  0  0  0  0  0  0  0  0  0  0  0
    2.0963   -0.1886   -4.4731 C   0  0  0  0  0  0  0  0  0  0  0  0
    3.1398    0.6122   -4.2554 N   0  0  0  0  0  0  0  0  0  0  0  0
    3.9489    0.8981   -5.2737 C   0  0  0  0  0  0  0  0  0  0  0  0
    3.7819    0.4175   -6.5633 C   0  0  0  0  0  0  0  0  0  0  0  0
    2.6907   -0.4382   -6.8067 C   0  0  0  0  0  0  0  0  0  0  0  0
    2.4295   -0.9954   -8.1474 C   0  0  0  0  0  0  0  0  0  0  0  0
    3.3398   -1.7881   -8.8095 N   0  0  0  0  0  0  0  0  0  0  0  0
    4.6472   -2.1775   -8.3239 C   0  0  0  0  0  0  0  0  0  0  0  0
    2.7443   -2.1720   -9.9834 C   0  0  0  0  0  0  0  0  0  0  0  0
    3.5183   -3.2208  -11.1655 S   0  0  0  0  0  0  0  0  0  0  0  0
    4.4619   -1.9911  -12.1173 C   0  0  0  0  0  0  0  0  0  0  0  0
    1.5380   -1.6726  -10.0982 N   0  0  0  0  0  0  0  0  0  0  0  0
    1.3154   -0.9326   -8.9722 C   0  0  0  0  0  0  0  0  0  0  0  0
    0.0415   -0.2145   -8.7755 C   0  0  0  0  0  0  0  0  0  0  0  0
   -0.0563    0.9361   -7.9802 C   0  0  0  0  0  0  0  0  0  0  0  0
   -1.2741    1.5891   -7.8114 C   0  0  0  0  0  0  0  0  0  0  0  0
   -2.3998    1.0913   -8.4555 C   0  0  0  0  0  0  0  0  0  0  0  0
   -3.5703    1.7137   -8.2989 F   0  0  0  0  0  0  0  0  0  0  0  0
   -2.3332   -0.0355   -9.2661 C   0  0  0  0  0  0  0  0  0  0  0  0
   -1.1111   -0.6816   -9.4225 C   0  0  0  0  0  0  0  0  0  0  0  0
    1.8471   -0.7479   -5.7529 C   0  0  0  0  0  0  0  0  0  0  0  0
    2.1666    0.6611   -1.4776 C   0  0  0  0  0  0  0  0  0  0  0  0
    2.0991    0.9554   -0.1182 C   0  0  0  0  0  0  0  0  0  0  0  0
    2.6260    2.1336    2.4755 O   0  0  0  0  0  0  0  0  0  0  0  0
    1.4392    2.5381    5.0924 C   0  0  0  0  0  0  0  0  0  0  0  0
    0.9966    2.5297    6.4115 C   0  0  0  0  0  0  0  0  0  0  0  0
    0.3899    1.3997    6.9533 C   0  0  0  0  0  0  0  0  0  0  0  0
   -2.0212   -1.3356    4.9652 C   0  0  0  0  0  0  0  0  0  0  0  0
   -2.5111   -0.1201    4.7072 C   0  0  0  0  0  0  0  0  0  0  0  0
   -3.0077    2.6864    7.4500 S   0  0  0  0  0  1  0  0  0  0  0  0
   -3.1137    0.9960    8.1346 C   0  0  0  0  0  0  0  0  0  0  0  0
   -2.9557    0.8877    9.6692 C   0  0  2  0  0  0  0  0  0  0  0  0
   -2.0860    1.5003    9.9602 H   0  0  0  0  0  0  0  0  0  0  0  0
   -2.7444   -0.4821   10.0893 N   0  0  0  0  0  0  0  0  0  0  0  0
   -1.5946   -1.1506    9.9395 C   0  0  0  0  0  0  0  0  0  0  0  0
   -1.6267   -2.6252   10.2692 C   0  0  0  0  0  0  0  0  0  0  0  0
   -0.5663   -0.6306    9.4991 O   0  0  0  0  0  0  0  0  0  0  0  0
   -4.1977    1.3756   10.4284 C   0  0  0  0  0  0  0  0  0  0  0  0
   -4.5552    2.6403   10.1527 N   0  0  0  0  0  0  0  0  0  0  0  0
   -5.7682    3.2190   10.6630 C   0  0  0  0  0  0  0  0  0  0  0  0
   -4.7955    0.6354   11.2074 O   0  0  0  0  0  0  0  0  0  0  0  0
   -0.2088   -1.0073    7.7555 H   0  0  0  0  0  0  0  0  0  0  0  0
    0.6420   -0.6785    4.2812 H   0  0  0  0  0  0  0  0  0  0  0  0
    0.1185    0.2418    2.4744 H   0  0  0  0  0  0  0  0  0  0  0  0
   -0.6983   -0.8096    0.6452 H   0  0  0  0  0  0  0  0  0  0  0  0
   -1.6225   -1.8972   -1.1720 H   0  0  0  0  0  0  0  0  0  0  0  0
   -0.4559   -2.4972   -2.3606 H   0  0  0  0  0  0  0  0  0  0  0  0
   -1.4497   -1.0617   -2.7228 H   0  0  0  0  0  0  0  0  0  0  0  0
    0.4714   -1.0974   -3.7453 H   0  0  0  0  0  0  0  0  0  0  0  0
    4.7860    1.5660   -5.0423 H   0  0  0  0  0  0  0  0  0  0  0  0
    4.4625    0.7115   -7.3631 H   0  0  0  0  0  0  0  0  0  0  0  0
    4.5953   -2.3891   -7.2482 H   0  0  0  0  0  0  0  0  0  0  0  0
    5.3873   -1.3811   -8.4899 H   0  0  0  0  0  0  0  0  0  0  0  0
    4.9648   -3.0790   -8.8616 H   0  0  0  0  0  0  0  0  0  0  0  0
    4.9543   -2.5386  -12.9320 H   0  0  0  0  0  0  0  0  0  0  0  0
    5.2274   -1.5053  -11.4973 H   0  0  0  0  0  0  0  0  0  0  0  0
    3.7820   -1.2407  -12.5407 H   0  0  0  0  0  0  0  0  0  0  0  0
    0.8312    1.3409   -7.4912 H   0  0  0  0  0  0  0  0  0  0  0  0
   -1.3587    2.4846   -7.1939 H   0  0  0  0  0  0  0  0  0  0  0  0
   -3.2363   -0.3938   -9.7627 H   0  0  0  0  0  0  0  0  0  0  0  0
   -1.0333   -1.5642  -10.0595 H   0  0  0  0  0  0  0  0  0  0  0  0
    0.9920   -1.4082   -5.9152 H   0  0  0  0  0  0  0  0  0  0  0  0
    2.9698    1.0751   -2.0807 H   0  0  0  0  0  0  0  0  0  0  0  0
    2.8410    1.6022    0.3439 H   0  0  0  0  0  0  0  0  0  0  0  0
    1.8962    3.4251    4.6506 H   0  0  0  0  0  0  0  0  0  0  0  0
    1.0834    3.4284    7.0243 H   0  0  0  0  0  0  0  0  0  0  0  0
    0.0012    1.3998    7.9730 H   0  0  0  0  0  0  0  0  0  0  0  0
   -2.2805   -2.1933    4.3361 H   0  0  0  0  0  0  0  0  0  0  0  0
   -3.1552    0.0399    3.8373 H   0  0  0  0  0  0  0  0  0  0  0  0
   -2.3405    0.7529    5.3520 H   0  0  0  0  0  0  0  0  0  0  0  0
   -2.3071    0.3801    7.7149 H   0  0  0  0  0  0  0  0  0  0  0  0
   -4.0631    0.5059    7.8544 H   0  0  0  0  0  0  0  0  0  0  0  0
   -3.5366   -0.8909   10.5782 H   0  0  0  0  0  0  0  0  0  0  0  0
   -1.6348   -3.1555    9.3034 H   0  0  0  0  0  0  0  0  0  0  0  0
   -2.5065   -2.9229   10.8563 H   0  0  0  0  0  0  0  0  0  0  0  0
   -0.7067   -2.8960   10.8036 H   0  0  0  0  0  0  0  0  0  0  0  0
   -4.0948    3.0555    9.3158 H   0  0  0  0  0  0  0  0  0  0  0  0
   -6.5546    3.2638    9.8901 H   0  0  0  0  0  0  0  0  0  0  0  0
   -5.5886    4.2430   11.0270 H   0  0  0  0  0  0  0  0  0  0  0  0
   -6.1330    2.6010   11.4940 H   0  0  0  0  0  0  0  0  0  0  0  0
  2  3  1  0  0  0  0
  2  1  2  0  0  0  0
  3 56  1  0  0  0  0
  4  3  1  0  0  0  0
  4 41  1  0  0  0  0
  5  4  2  0  0  0  0
  6  5  1  0  0  0  0
  6 39  2  0  0  0  0
  7  6  1  0  0  0  0
  8 58  1  0  0  0  0
  8  7  1  0  0  0  0
  9  8  1  0  0  0  0
 10 59  1  0  0  0  0
 10  9  1  0  0  0  0
 11 10  2  0  0  0  0
 12 11  1  0  0  0  0
 12 60  1  0  0  0  0
 13 36  2  0  0  0  0
 13 11  1  0  0  0  0
 14 13  1  0  0  0  0
 15 16  1  0  0  0  0
 15 14  1  0  0  0  0
 17 64  1  0  0  0  0
 17 16  2  0  0  0  0
 18 17  1  0  0  0  0
 19 18  2  0  0  0  0
 19 35  1  0  0  0  0
 20 19  1  0  0  0  0
 21 22  1  0  0  0  0
 21 20  1  0  0  0  0
 22 66  1  0  0  0  0
 23 21  1  0  0  0  0
 24 23  1  0  0  0  0
 25 70  1  0  0  0  0
 25 24  1  0  0  0  0
 26 23  2  0  0  0  0
 26 27  1  0  0  0  0
 27 28  1  0  0  0  0
 27 20  2  0  0  0  0
 28 29  1  0  0  0  0
 29 30  2  0  0  0  0
 29 72  1  0  0  0  0
 30 73  1  0  0  0  0
 31 32  1  0  0  0  0
 31 30  1  0  0  0  0
 33 31  2  0  0  0  0
 34 33  1  0  0  0  0
 34 28  2  0  0  0  0
 35 15  2  0  0  0  0
 36 37  1  0  0  0  0
 37 78  1  0  0  0  0
 37  9  2  0  0  0  0
 38  7  2  0  0  0  0
 39 40  1  0  0  0  0
 40 41  2  0  0  0  0
 40 80  1  0  0  0  0
 41 81  1  0  0  0  0
 42  2  1  0  0  0  0
 43 42  2  0  0  0  0
 43 84  1  0  0  0  0
 44 45  1  0  0  0  0
 45 46  1  0  0  0  0
 46 47  1  1  0  0  0
 46 48  1  0  0  0  0
 46 52  1  0  0  0  0
 48 87  1  0  0  0  0
 49 48  1  0  0  0  0
 49 50  1  0  0  0  0
 50 90  1  0  0  0  0
 50 89  1  0  0  0  0
 51 49  2  0  0  0  0
 52 55  2  0  0  0  0
 53 52  1  0  0  0  0
 53 54  1  0  0  0  0
 54 93  1  0  0  0  0
 54 94  1  0  0  0  0
 57  5  1  0  0  0  0
 61 12  1  0  0  0  0
 62 12  1  0  0  0  0
 63 14  1  0  0  0  0
 65 18  1  0  0  0  0
 67 22  1  0  0  0  0
 68 22  1  0  0  0  0
 69 25  1  0  0  0  0
 71 25  1  0  0  0  0
 74 33  1  0  0  0  0
 75 34  1  0  0  0  0
 76 35  1  0  0  0  0
 77 36  1  0  0  0  0
 79 39  1  0  0  0  0
 82 42  1  0  0  0  0
 83 43  1  0  0  0  0
 85 45  1  0  0  0  0
 86 45  1  0  0  0  0
 88 50  1  0  0  0  0
 91 53  1  0  0  0  0
 92 54  1  0  0  0  0
M  END
