94
-1 1
O        -1.641436   -2.738876    6.807359
C        -1.303930   -1.719403    6.226006
N        -0.337534   -0.899823    6.739812
C         0.245328    0.247195    6.174738
C         0.712652    0.244976    4.858774
C         1.273648    1.396512    4.302138
C         1.704339    1.444545    2.867448
N         0.933836    0.656171    2.039884
C         1.069243    0.427197    0.665872
C         0.115384   -0.391269    0.044755
C         0.165250   -0.694462   -1.311919
C        -0.889803   -1.580206   -1.925354
C         1.215940   -0.160403   -2.091458
N         1.232930   -0.500390   -3.458732
C         2.096321   -0.188647   -4.473125
N         3.139787    0.612250   -4.255437
C         3.948859    0.898140   -5.273656
C         3.781922    0.417485   -6.563259
C         2.690732   -0.438174   -6.806690
C         2.429499   -0.995356   -8.147415
N         3.339835   -1.788113   -8.809482
C         4.647232   -2.177485   -8.323880
C         2.744341   -2.171999   -9.983424
S         3.518310   -3.220821  -11.165540
C         4.461886   -1.991102  -12.117251
N         1.537959   -1.672557  -10.098197
C         1.315445   -0.932644   -8.972234
C         0.041521   -0.214522   -8.775459
C        -0.056265    0.936110   -7.980222
C        -1.274135    1.589104   -7.811402
C        -2.399796    1.091269   -8.455516
F        -3.570301    1.713655   -8.298860
C        -2.333177   -0.035502   -9.266090
C        -1.111131   -0.681600   -9.422485
C         1.847075   -0.747888   -5.752911
C         2.166643    0.661091   -1.477594
C         2.099118    0.955439   -0.118232
O         2.626044    2.133596    2.475463
C         1.439239    2.538075    5.092372
C         0.996580    2.529716    6.411457
C         0.389878    1.399666    6.953312
C        -2.021247   -1.335550    4.965154
C        -2.511145   -0.120078    4.707200
S        -3.007680    2.686378    7.450003
C        -3.113720    0.996040    8.134634
C        -2.955747    0.887692    9.669208
H        -2.086004    1.500322    9.960170
N        -2.744357   -0.482141   10.089333
C        -1.594561   -1.150588    9.939508
C        -1.626738   -2.625168   10.269240
O        -0.566304   -0.630628    9.499098
C        -4.197743    1.375584   10.428404
N        -4.555183    2.640313   10.152725
C        -5.768201    3.218975   10.662969
O        -4.795455    0.635434   11.207440
H        -0.208845   -1.007281    7.755486
H         0.642000   -0.678523    4.281159
H         0.118468    0.241802    2.474406
H        -0.698287   -0.809563    0.645200
H        -1.622538   -1.897157   -1.172041
H        -0.455867   -2.497172   -2.360568
H        -1.449739   -1.061652   -2.722767
H         0.471365   -1.097449   -3.745282
H         4.785995    1.565985   -5.042349
H         4.462454    0.711452   -7.363094
H         4.595262   -2.389123   -7.248216
H         5.387268   -1.381130   -8.489945
H         4.964756   -3.078998   -8.861609
H         4.954337   -2.538599  -12.931991
H         5.227353   -1.505314  -11.497328
H         3.782048   -1.240749  -12.540749
H         0.831190    1.340904   -7.491223
H        -1.358651    2.484562   -7.193894
H        -3.236304   -0.393790   -9.762659
H        -1.033257   -1.564194  -10.059452
H         0.992043   -1.408202   -5.915191
H         2.969786    1.075085   -2.080737
H         2.841031    1.602172    0.343904
H         1.896202    3.425129    4.650622
H         1.083380    3.428446    7.024311
H         0.001166    1.399759    7.972985
H        -2.280478   -2.193307    4.336088
H        -3.155152    0.039868    3.837297
H        -2.340498    0.752928    5.352013
H        -2.307118    0.380080    7.714865
H        -4.063118    0.505916    7.854391
H        -3.536583   -0.890938   10.578154
H        -1.634788   -3.155451    9.303370
H        -2.506458   -2.922874   10.856341
H        -0.706722   -2.895965   10.803621
H        -4.094785    3.055535    9.315850
H        -6.554641    3.263820    9.890061
H        -5.588606    4.243029   11.026968
H        -6.133002    2.601041   11.494040
