94
-1 1
O        -0.850706   -2.441581    7.191794
C        -0.928260   -1.397863    6.526671
N        -0.291846   -0.235822    7.109486
C         0.622774    0.624349    6.558293
C         1.024621    0.557311    5.211586
C         1.927815    1.477286    4.676673
C         2.302033    1.451756    3.221947
N         1.377629    0.822993    2.419826
C         1.427711    0.570756    1.046060
C         0.371695   -0.160612    0.482976
C         0.320816   -0.468653   -0.872171
C        -0.841623   -1.257197   -1.421131
C         1.373344   -0.035135   -1.709663
N         1.289578   -0.386123   -3.073233
C         2.081270   -0.093429   -4.147585
N         3.150413    0.692528   -4.010676
C         3.886295    0.963698   -5.086370
C         3.619225    0.482068   -6.358764
C         2.500943   -0.358683   -6.517735
C         2.136462   -0.916262   -7.834310
N         2.981693   -1.735116   -8.548606
C         4.306908   -2.155558   -8.143956
C         2.302737   -2.108460   -9.679855
S         2.973764   -3.178930  -10.904843
C         3.881795   -1.974192  -11.920744
N         1.104587   -1.578793   -9.719916
C         0.973583   -0.828684   -8.586166
C        -0.266636   -0.077545   -8.312490
C        -0.286146    1.072955   -7.511348
C        -1.473858    1.757946   -7.269833
C        -2.648684    1.292432   -7.846620
F        -3.790757    1.946067   -7.620498
C        -2.660779    0.166233   -8.660581
C        -1.468006   -0.512045   -8.889947
C         1.731764   -0.652955   -5.404693
C         2.427808    0.695182   -1.153534
C         2.459956    0.998356    0.205489
O         3.318242    1.968897    2.795248
C         2.502150    2.462156    5.485126
C         2.131821    2.519920    6.828624
C         1.207087    1.629436    7.361022
C        -1.614432   -1.220810    5.305116
C        -2.125080    0.053732    4.824380
S        -3.948390    0.549302    5.441529
C        -4.080379   -0.497353    6.906505
C        -3.519811    0.078404    8.224502
H        -2.574320    0.598508    8.009572
N        -3.200800   -1.006909    9.117140
C        -2.037468   -1.084849    9.806327
C        -1.721669   -2.443756   10.381751
O        -1.252145   -0.149986    9.887204
C        -4.490203    1.072149    8.878659
N        -4.633892    2.228634    8.178117
C        -5.570247    3.251077    8.560718
O        -5.080499    0.830880    9.915204
H        -0.288931   -0.274642    8.127067
H         0.604794   -0.258382    4.620155
H         0.542238    0.498733    2.891021
H        -0.438882   -0.506518    1.131609
H        -1.564358   -1.491390   -0.629006
H        -0.518877   -2.219130   -1.856701
H        -1.384630   -0.698806   -2.202948
H         0.497731   -0.969369   -3.300348
H         4.747940    1.619662   -4.919335
H         4.243893    0.762956   -7.207449
H         4.316459   -2.364105   -7.066462
H         5.054049   -1.377384   -8.357501
H         4.568731   -3.065398   -8.697442
H         4.309126   -2.535184  -12.762646
H         4.695720   -1.503631  -11.352979
H         3.193273   -1.209982  -12.303527
H         0.639121    1.452196   -7.074975
H        -1.497451    2.653156   -6.646681
H        -3.601257   -0.166900   -9.102313
H        -1.451855   -1.395141   -9.530735
H         0.857444   -1.300728   -5.501746
H         3.231380    1.033807   -1.801478
H         3.284782    1.568171    0.626733
H         3.214360    3.163903    5.049615
H         2.564860    3.285815    7.477669
H         0.912240    1.695248    8.411633
H        -2.029072   -2.139968    4.879958
H        -2.297583    0.094758    3.738742
H        -1.533313    0.925153    5.126723
H        -3.497549   -1.404100    6.673167
H        -5.138324   -0.779561    7.027279
H        -3.801552   -1.818760    9.099623
H        -1.185691   -2.975101    9.577895
H        -2.618801   -3.015798   10.659592
H        -1.062673   -2.328850   11.250467
H        -4.201793    2.265431    7.256391
H        -6.409621    3.328202    7.849056
H        -5.081346    4.236220    8.628642
H        -5.971252    2.985103    9.547397
