94
-1 1
O        -3.381023   10.325654    8.764407
C        -3.360021   11.350209    8.080222
N        -2.675953   12.465784    8.633366
C        -1.864420   13.415520    8.056028
C        -1.422167   13.341069    6.725301
C        -0.621192   14.341849    6.173453
C        -0.231155   14.315501    4.723296
N        -1.124943   13.639239    3.925426
C        -1.065991   13.388385    2.550573
C        -2.114065   12.650703    1.981648
C        -2.154769   12.342298    0.626267
C        -3.309260   11.547275    0.070102
C        -1.100514   12.783787   -0.205167
N        -1.177492   12.438668   -1.570075
C        -0.364732   12.711586   -2.634503
N         0.728069   13.460794   -2.481346
C         1.485177   13.712281   -3.547202
C         1.216698   13.245842   -4.824851
C         0.072544   12.444346   -5.001067
C        -0.295790   11.906762   -6.324893
N         0.527607   11.060542   -7.032773
C         1.831649   10.590697   -6.613986
C        -0.150388   10.717988   -8.174292
S         0.496040    9.629419   -9.396609
C         1.451065   10.806938  -10.401275
N        -1.327382   11.292121   -8.226569
C        -1.444949   12.041331   -7.090793
C        -2.659685   12.837100   -6.829113
C        -2.647629   13.981672   -6.019324
C        -3.812038   14.709571   -5.790175
C        -4.994853   14.293269   -6.387923
F        -6.114455   14.988249   -6.173820
C        -5.037373   13.174114   -7.210557
C        -3.867879   12.452680   -7.427500
C        -0.718698   12.170582   -3.898234
C        -0.053769   13.520304    0.357487
C        -0.031462   13.822779    1.716898
O         0.764906   14.871349    4.299234
C        -0.176152   15.407843    6.959675
C        -0.580850   15.469910    8.292410
C        -1.419580   14.502805    8.835343
C        -4.049371   11.498539    6.823977
C        -4.489737   12.707789    6.268817
S        -6.464492   13.483117    7.134823
C        -6.484351   12.387419    8.567523
C        -5.910474   12.961211    9.882347
H        -4.973383   13.489704    9.654508
N        -5.570866   11.879600   10.774204
C        -4.384564   11.759024   11.405772
C        -4.139694   10.424145   12.069112
O        -3.519118   12.627489   11.383176
C        -6.874611   13.939038   10.571452
N        -7.095970   15.075010    9.863721
C        -8.060606   16.058880   10.274930
O        -7.388565   13.696443   11.650068
H        -2.675329   12.447423    9.653813
H        -1.727470   12.470937    6.143419
H        -1.957986   13.302232    4.392725
H        -2.927744   12.301844    2.624781
H        -4.031209   11.301043    0.859254
H        -2.976717   10.592182   -0.372683
H        -3.857053   12.106742   -0.707740
H        -1.983744   11.880382   -1.808865
H         2.366156   14.338345   -3.367011
H         1.859908   13.509953   -5.665021
H         1.819271   10.373272   -5.538251
H         2.608237   11.343997   -6.810954
H         2.069232    9.676724   -7.171515
H         1.866993   10.234738  -11.241339
H         2.274945   11.249318   -9.825287
H         0.790743   11.594030  -10.787355
H        -1.715487   14.322463   -5.566120
H        -3.811171   15.600534   -5.160528
H        -5.983034   12.880203   -7.668740
H        -3.875528   11.574220   -8.074772
H        -1.613362   11.553461   -4.008673
H         0.752046   13.862819   -0.285567
H         0.786198   14.399976    2.142027
H         0.463821   16.170268    6.513758
H        -0.251452   16.300907    8.921388
H        -1.753542   14.570373    9.873793
H        -4.467399   10.559561    6.450499
H        -4.888358   12.677706    5.251355
H        -3.958047   13.632341    6.498617
H        -5.857761   11.516541    8.301056
H        -7.508946   12.017394    8.740025
H        -6.254706   11.145205   10.890702
H        -3.646674    9.801615   11.305610
H        -5.062775    9.926426   12.399272
H        -3.460183   10.559992   12.919017
H        -6.753501   15.079888    8.899680
H        -8.960800   16.045173    9.636793
H        -7.631248   17.073138   10.244533
H        -8.360686   15.829592   11.305764
