-1 1
 OpenBabel05232414493D

 91 94  0  0  1  0  0  0  0  0999 V2000
    1.9612  -13.4573    7.7626 O   0  0  0  0  0  0  0  0  0  0  0  0
    1.7554  -12.3191    7.3625 C   0  0  0  0  0  0  0  0  0  0  0  0
    1.9081  -11.2472    8.3336 N   0  0  0  0  0  0  0  0  0  0  0  0
    0.8951  -10.4868    8.8696 C   0  0  0  0  0  0  0  0  0  0  0  0
    1.1230   -9.8038   10.0831 C   0  0  0  0  0  0  0  0  0  0  0  0
    0.1583   -8.9658   10.6328 C   0  0  0  0  0  0  0  0  0  0  0  0
    0.5225   -8.2415   11.8950 C   0  0  0  0  0  0  0  0  0  0  0  0
   -0.1141   -7.0260   12.0485 N   0  0  0  0  0  0  0  0  0  0  0  0
   -0.0069   -6.1060   13.0961 C   0  0  0  0  0  0  0  0  0  0  0  0
    0.8139   -6.3159   14.2050 C   0  0  0  0  0  0  0  0  0  0  0  0
    0.8914   -5.3579   15.2282 C   0  0  0  0  0  0  0  0  0  0  0  0
    1.7551   -5.6817   16.2848 N   0  0  0  0  0  0  0  0  0  0  0  0
    2.1357   -4.9920   17.4067 C   0  0  0  0  0  0  0  0  0  0  0  0
    1.6263   -3.7892   17.6648 N   0  0  0  0  0  0  0  0  0  0  0  0
    2.0306   -3.1510   18.7641 C   0  0  0  0  0  0  0  0  0  0  0  0
    2.9577   -3.6512   19.6628 C   0  0  0  0  0  0  0  0  0  0  0  0
    3.4981   -4.9262   19.4095 C   0  0  0  0  0  0  0  0  0  0  0  0
    4.4815   -5.5159   20.3339 C   0  0  0  0  0  0  0  0  0  0  0  0
    5.7296   -5.9660   19.9222 N   0  0  0  0  0  0  0  0  0  0  0  0
    6.2853   -5.9441   18.5855 C   0  0  0  0  0  0  0  0  0  0  0  0
    6.3717   -6.3869   21.0465 C   0  0  0  0  0  0  0  0  0  0  0  0
    8.0030   -7.0433   20.9753 S   0  0  0  0  0  0  0  0  0  0  0  0
    8.2754   -7.3146   22.7398 C   0  0  0  0  0  0  0  0  0  0  0  0
    5.6447   -6.2469   22.1232 N   0  0  0  0  0  0  0  0  0  0  0  0
    4.4538   -5.7075   21.7031 C   0  0  0  0  0  0  0  0  0  0  0  0
    3.3733   -5.4340   22.6683 C   0  0  0  0  0  0  0  0  0  0  0  0
    3.7019   -5.1725   24.0059 C   0  0  0  0  0  0  0  0  0  0  0  0
    2.7146   -4.9125   24.9511 C   0  0  0  0  0  0  0  0  0  0  0  0
    1.3838   -4.9185   24.5518 C   0  0  0  0  0  0  0  0  0  0  0  0
    0.4305   -4.6658   25.4538 F   0  0  0  0  0  0  0  0  0  0  0  0
    1.0218   -5.1900   23.2386 C   0  0  0  0  0  0  0  0  0  0  0  0
    2.0194   -5.4533   22.3040 C   0  0  0  0  0  0  0  0  0  0  0  0
    3.0770   -5.6027   18.2735 C   0  0  0  0  0  0  0  0  0  0  0  0
    0.1413   -4.1786   15.1490 C   0  0  0  0  0  0  0  0  0  0  0  0
   -0.6749   -3.9845   14.0345 C   0  0  0  0  0  0  0  0  0  0  0  0
   -0.7604   -4.9224   13.0154 C   0  0  0  0  0  0  0  0  0  0  0  0
    1.3263   -8.6773   12.6952 O   0  0  0  0  0  0  0  0  0  0  0  0
   -1.0927   -8.8196   10.0140 C   0  0  0  0  0  0  0  0  0  0  0  0
   -1.3369   -9.5206    8.8353 C   0  0  0  0  0  0  0  0  0  0  0  0
   -0.3676  -10.3341    8.2592 C   0  0  0  0  0  0  0  0  0  0  0  0
    1.4130  -11.9397    6.0283 C   0  0  0  0  0  3  0  0  0  0  0  0
    1.5199  -10.6470    5.4956 C   0  0  0  0  0  3  0  0  0  0  0  0
    3.5193  -10.2559    4.5117 S   0  0  0  0  0  1  0  0  0  0  0  0
    4.5152  -11.1859    5.7049 C   0  0  0  0  0  0  0  0  0  0  0  0
    5.2915  -10.3302    6.7296 C   0  0  2  0  0  0  0  0  0  0  0  0
    5.5372  -10.9326    7.6137 H   0  0  0  0  0  0  0  0  0  0  0  0
    4.5078   -9.2025    7.1829 N   0  0  0  0  0  0  0  0  0  0  0  0
    4.1127   -9.0001    8.4644 C   0  0  0  0  0  0  0  0  0  0  0  0
    3.2129   -7.7882    8.6363 C   0  0  0  0  0  0  0  0  0  0  0  0
    4.4434   -9.7090    9.4008 O   0  0  0  0  0  0  0  0  0  0  0  0
    6.6422   -9.8393    6.1815 C   0  0  0  0  0  0  0  0  0  0  0  0
    6.5521   -9.1202    5.0293 N   0  0  0  0  0  0  0  0  0  0  0  0
    7.7077   -8.6013    4.3501 C   0  0  0  0  0  0  0  0  0  0  0  0
    7.6965  -10.0692    6.7467 O   0  0  0  0  0  0  0  0  0  0  0  0
    2.6541  -11.4530    8.9916 H   0  0  0  0  0  0  0  0  0  0  0  0
    2.0936   -9.8945   10.5768 H   0  0  0  0  0  0  0  0  0  0  0  0
   -0.6809   -6.7309   11.2648 H   0  0  0  0  0  0  0  0  0  0  0  0
    1.3982   -7.2341   14.2491 H   0  0  0  0  0  0  0  0  0  0  0  0
    2.2012   -6.5822   16.1736 H   0  0  0  0  0  0  0  0  0  0  0  0
    1.5842   -2.1649   18.9322 H   0  0  0  0  0  0  0  0  0  0  0  0
    3.2583   -3.0820   20.5427 H   0  0  0  0  0  0  0  0  0  0  0  0
    5.7668   -5.1869   17.9860 H   0  0  0  0  0  0  0  0  0  0  0  0
    6.1832   -6.9224   18.0923 H   0  0  0  0  0  0  0  0  0  0  0  0
    7.3513   -5.6819   18.6358 H   0  0  0  0  0  0  0  0  0  0  0  0
    9.2760   -7.7574   22.8238 H   0  0  0  0  0  0  0  0  0  0  0  0
    7.5207   -8.0023   23.1393 H   0  0  0  0  0  0  0  0  0  0  0  0
    8.2346   -6.3645   23.2859 H   0  0  0  0  0  0  0  0  0  0  0  0
    4.7534   -5.1808   24.2972 H   0  0  0  0  0  0  0  0  0  0  0  0
    2.9617   -4.7044   25.9933 H   0  0  0  0  0  0  0  0  0  0  0  0
   -0.0336   -5.2046   22.9627 H   0  0  0  0  0  0  0  0  0  0  0  0
    1.7335   -5.6901   21.2780 H   0  0  0  0  0  0  0  0  0  0  0  0
    3.4532   -6.6046   18.0538 H   0  0  0  0  0  0  0  0  0  0  0  0
    0.2079   -3.4405   15.9427 H   0  0  0  0  0  0  0  0  0  0  0  0
   -1.2628   -3.0661   13.9645 H   0  0  0  0  0  0  0  0  0  0  0  0
   -1.4080   -4.7451   12.1530 H   0  0  0  0  0  0  0  0  0  0  0  0
   -1.8850   -8.2162   10.4638 H   0  0  0  0  0  0  0  0  0  0  0  0
   -2.3134   -9.4394    8.3509 H   0  0  0  0  0  0  0  0  0  0  0  0
   -0.5734  -10.8676    7.3311 H   0  0  0  0  0  0  0  0  0  0  0  0
    1.2377  -12.7826    5.3549 H   0  0  0  0  0  0  0  0  0  0  0  0
    1.5587   -9.8080    6.1953 H   0  0  0  0  0  0  0  0  0  0  0  0
    0.9768  -10.4229    4.5745 H   0  0  0  0  0  0  0  0  0  0  0  0
    5.2197  -11.8449    5.1761 H   0  0  0  0  0  0  0  0  0  0  0  0
    3.8106  -11.8488    6.2379 H   0  0  0  0  0  0  0  0  0  0  0  0
    4.0148   -8.7147    6.4373 H   0  0  0  0  0  0  0  0  0  0  0  0
    2.2128   -8.0049    8.2313 H   0  0  0  0  0  0  0  0  0  0  0  0
    3.6208   -6.9156    8.1048 H   0  0  0  0  0  0  0  0  0  0  0  0
    3.1156   -7.5628    9.7045 H   0  0  0  0  0  0  0  0  0  0  0  0
    5.6388   -9.0782    4.5749 H   0  0  0  0  0  0  0  0  0  0  0  0
    7.6250   -7.5144    4.1842 H   0  0  0  0  0  0  0  0  0  0  0  0
    7.8629   -9.0889    3.3729 H   0  0  0  0  0  0  0  0  0  0  0  0
    8.5835   -8.7982    4.9823 H   0  0  0  0  0  0  0  0  0  0  0  0
  2  1  2  0  0  0  0
  2  3  1  0  0  0  0
  3  4  1  0  0  0  0
  3 55  1  0  0  0  0
  4  5  1  0  0  0  0
  5 56  1  0  0  0  0
  5  6  2  0  0  0  0
  6  7  1  0  0  0  0
  7  8  1  0  0  0  0
  7 37  2  0  0  0  0
  8  9  1  0  0  0  0
  9 10  1  0  0  0  0
 10 58  1  0  0  0  0
 10 11  2  0  0  0  0
 11 12  1  0  0  0  0
 12 13  1  0  0  0  0
 13 14  2  0  0  0  0
 13 33  1  0  0  0  0
 14 15  1  0  0  0  0
 15 60  1  0  0  0  0
 15 16  2  0  0  0  0
 16 61  1  0  0  0  0
 17 16  1  0  0  0  0
 17 18  1  0  0  0  0
 18 25  2  0  0  0  0
 19 18  1  0  0  0  0
 19 21  1  0  0  0  0
 20 64  1  0  0  0  0
 20 19  1  0  0  0  0
 21 24  2  0  0  0  0
 22 21  1  0  0  0  0
 22 23  1  0  0  0  0
 23 65  1  0  0  0  0
 23 66  1  0  0  0  0
 23 67  1  0  0  0  0
 25 24  1  0  0  0  0
 25 26  1  0  0  0  0
 26 27  1  0  0  0  0
 27 68  1  0  0  0  0
 27 28  2  0  0  0  0
 28 69  1  0  0  0  0
 29 28  1  0  0  0  0
 29 30  1  0  0  0  0
 31 29  2  0  0  0  0
 32 26  2  0  0  0  0
 32 31  1  0  0  0  0
 33 17  2  0  0  0  0
 34 11  1  0  0  0  0
 34 73  1  0  0  0  0
 35 34  2  0  0  0  0
 36  9  2  0  0  0  0
 36 35  1  0  0  0  0
 38 76  1  0  0  0  0
 38  6  1  0  0  0  0
 39 38  2  0  0  0  0
 40 39  1  0  0  0  0
 40  4  2  0  0  0  0
 41  2  1  0  0  0  0
 42 41  1  0  0  0  0
 42 80  1  0  0  0  0
 43 44  1  0  0  0  0
 44 83  1  0  0  0  0
 44 45  1  0  0  0  0
 45 47  1  0  0  0  0
 45 46  1  1  0  0  0
 47 48  1  0  0  0  0
 48 49  1  0  0  0  0
 48 50  2  0  0  0  0
 49 87  1  0  0  0  0
 51 45  1  0  0  0  0
 51 54  2  0  0  0  0
 52 51  1  0  0  0  0
 53 91  1  0  0  0  0
 53 52  1  0  0  0  0
 57  8  1  0  0  0  0
 59 12  1  0  0  0  0
 62 20  1  0  0  0  0
 63 20  1  0  0  0  0
 70 31  1  0  0  0  0
 71 32  1  0  0  0  0
 72 33  1  0  0  0  0
 74 35  1  0  0  0  0
 75 36  1  0  0  0  0
 77 39  1  0  0  0  0
 78 40  1  0  0  0  0
 79 41  1  0  0  0  0
 81 42  1  0  0  0  0
 82 44  1  0  0  0  0
 84 47  1  0  0  0  0
 85 49  1  0  0  0  0
 86 49  1  0  0  0  0
 88 52  1  0  0  0  0
 89 53  1  0  0  0  0
 90 53  1  0  0  0  0
M  END
