91
-1 1
O        -0.612015   -5.252007   -7.252147
C        -1.319783   -4.291713   -7.036012
N        -1.450970   -3.794233   -5.747325
C        -2.476732   -3.058646   -5.166966
C        -2.208843   -2.363798   -3.976826
C        -3.195635   -1.598792   -3.359358
C        -2.797324   -0.849399   -2.119277
N        -3.500113    0.317599   -1.915024
C        -3.378402    1.242473   -0.869846
C        -2.468085    1.084701    0.175305
C        -2.380466    2.044654    1.196509
N        -1.423142    1.780381    2.185290
C        -1.014536    2.493719    3.283900
N        -1.593706    3.652971    3.587887
C        -1.161289    4.316380    4.661315
C        -0.137455    3.884264    5.487228
C         0.478561    2.655067    5.184905
C         1.566177    2.138355    6.032747
N         2.812059    1.783276    5.531213
C         3.269122    1.849230    4.158897
C         3.561383    1.409445    6.604651
S         5.227773    0.877049    6.414282
C         5.644558    0.625598    8.153334
N         2.903588    1.492722    7.730757
C         1.649395    1.942541    7.399200
C         0.621513    2.132109    8.439107
C         1.021231    2.419967    9.751736
C         0.084881    2.603560   10.764240
C        -1.266087    2.493663   10.458447
F        -2.171018    2.672671   11.425368
C        -1.696433    2.193141    9.172540
C        -0.748783    2.007036    8.169902
C         0.029693    1.953002    4.075026
C        -3.212290    3.170761    1.177198
C        -4.117143    3.312211    0.125380
C        -4.212868    2.372215   -0.891041
O        -1.913758   -1.238822   -1.382821
C        -4.490212   -1.551191   -3.892788
C        -4.770878   -2.279063   -5.046234
C        -3.784703   -3.027269   -5.680342
C        -1.950861   -3.551831   -8.170034
C        -1.875102   -2.225522   -8.294495
S         1.554495   -1.196796   -9.442201
C         1.630315   -2.882606   -8.714395
C         2.038844   -2.915410   -7.218315
H         1.709984   -3.851525   -6.746679
N         1.419406   -1.793645   -6.542379
C         0.945583   -1.760037   -5.292339
C         0.374980   -0.413621   -4.874866
O         0.907850   -2.727971   -4.530113
C         3.568255   -2.876318   -7.043551
N         4.163159   -1.821322   -7.656846
C         5.588755   -1.652199   -7.676100
O         4.172290   -3.723901   -6.406779
H        -0.614969   -3.933003   -5.172677
H        -1.203478   -2.403497   -3.550170
H        -4.131839    0.585367   -2.657767
H        -1.822082    0.207936    0.173108
H        -0.920816    0.915839    2.035574
H        -1.667416    5.265266    4.869426
H         0.181475    4.471511    6.348610
H         2.655660    2.567598    3.602836
H         3.204933    0.867148    3.666926
H         4.313795    2.189226    4.136245
H         6.676997    0.253731    8.162960
H         4.970136   -0.113187    8.602192
H         5.577328    1.570430    8.705843
H         2.087890    2.493982    9.969321
H         0.386999    2.831556   11.787681
H        -2.764195    2.096022    8.970661
H        -1.086001    1.747018    7.165334
H         0.464115    0.983657    3.819712
H        -3.138276    3.910444    1.968782
H        -4.767612    4.189710    0.103158
H        -4.930151    2.507809   -1.704506
H        -5.289686   -0.998240   -3.393544
H        -5.783702   -2.278644   -5.455517
H        -4.031467   -3.593851   -6.577516
H        -2.291651   -4.182771   -8.995675
H        -1.442849   -1.602579   -7.506984
H        -2.180592   -1.717802   -9.211036
H         2.342057   -3.513370   -9.269938
H         0.649241   -3.367739   -8.805246
H         1.324340   -0.985992   -7.177267
H        -0.693883   -0.375430   -5.137633
H         0.880927    0.426191   -5.371005
H         0.458601   -0.314834   -3.784917
H         3.571775   -1.273368   -8.299863
H         5.873435   -0.625172   -7.393091
H         6.016980   -1.862397   -8.672002
H         6.026998   -2.356016   -6.955803
