91
-1 1
O         1.961177  -13.457272    7.762601
C         1.755383  -12.319146    7.362524
N         1.908073  -11.247158    8.333593
C         0.895097  -10.486799    8.869597
C         1.123038   -9.803792   10.083131
C         0.158311   -8.965808   10.632778
C         0.522477   -8.241518   11.894975
N        -0.114063   -7.026012   12.048540
C        -0.006949   -6.106032   13.096074
C         0.813916   -6.315897   14.205033
C         0.891443   -5.357869   15.228246
N         1.755072   -5.681742   16.284824
C         2.135741   -4.992012   17.406653
N         1.626300   -3.789194   17.664848
C         2.030592   -3.151033   18.764055
C         2.957705   -3.651171   19.662764
C         3.498131   -4.926218   19.409502
C         4.481456   -5.515923   20.333895
N         5.729570   -5.966034   19.922250
C         6.285335   -5.944086   18.585482
C         6.371660   -6.386898   21.046536
S         8.003028   -7.043327   20.975340
C         8.275413   -7.314588   22.739785
N         5.644724   -6.246946   22.123208
C         4.453771   -5.707530   21.703110
C         3.373271   -5.434044   22.668290
C         3.701918   -5.172506   24.005941
C         2.714644   -4.912517   24.951069
C         1.383762   -4.918524   24.551802
F         0.430504   -4.665750   25.453772
C         1.021805   -5.189989   23.238646
C         2.019431   -5.453256   22.304021
C         3.077021   -5.602674   18.273509
C         0.141311   -4.178550   15.149001
C        -0.674851   -3.984452   14.034514
C        -0.760392   -4.922352   13.015406
O         1.326304   -8.677251   12.695193
C        -1.092666   -8.819574   10.014040
C        -1.336869   -9.520624    8.835325
C        -0.367646  -10.334106    8.259217
C         1.413019  -11.939710    6.028306
C         1.519870  -10.646989    5.495559
S         3.519336  -10.255929    4.511667
C         4.515205  -11.185942    5.704915
C         5.291545  -10.330250    6.729616
H         5.537161  -10.932600    7.613717
N         4.507769   -9.202521    7.182905
C         4.112650   -9.000059    8.464415
C         3.212896   -7.788154    8.636263
O         4.443391   -9.708967    9.400767
C         6.642216   -9.839263    6.181541
N         6.552072   -9.120190    5.029263
C         7.707692   -8.601317    4.350133
O         7.696494  -10.069160    6.746672
H         2.654082  -11.452981    8.991633
H         2.093604   -9.894539   10.576763
H        -0.680904   -6.730889   11.264797
H         1.398192   -7.234076   14.249148
H         2.201180   -6.582216   16.173618
H         1.584161   -2.164905   18.932211
H         3.258339   -3.081970   20.542658
H         5.766785   -5.186926   17.985992
H         6.183249   -6.922362   18.092348
H         7.351278   -5.681855   18.635813
H         9.276016   -7.757378   22.823812
H         7.520712   -8.002310   23.139276
H         8.234616   -6.364547   23.285910
H         4.753437   -5.180756   24.297169
H         2.961702   -4.704382   25.993343
H        -0.033627   -5.204614   22.962671
H         1.733540   -5.690065   21.278024
H         3.453159   -6.604566   18.053814
H         0.207945   -3.440460   15.942713
H        -1.262790   -3.066150   13.964527
H        -1.408044   -4.745054   12.153031
H        -1.884992   -8.216153   10.463810
H        -2.313385   -9.439436    8.350930
H        -0.573443  -10.867592    7.331077
H         1.237741  -12.782635    5.354875
H         1.558700   -9.807996    6.195334
H         0.976758  -10.422864    4.574499
H         5.219746  -11.844909    5.176132
H         3.810579  -11.848755    6.237940
H         4.014815   -8.714681    6.437340
H         2.212796   -8.004880    8.231323
H         3.620753   -6.915560    8.104822
H         3.115557   -7.562830    9.704472
H         5.638848   -9.078203    4.574854
H         7.625019   -7.514403    4.184152
H         7.862909   -9.088915    3.372876
H         8.583483   -8.798221    4.982312
