-1 1
 OpenBabel05192410563D

 91 95  0  0  1  0  0  0  0  0999 V2000
   -1.0028   -6.4404   -5.9935 O   0  0  0  0  0  0  0  0  0  0  0  0
   -1.1393   -5.3204   -6.4919 C   0  0  0  0  0  0  0  0  0  0  0  0
   -0.9362   -4.1952   -5.5456 N   0  0  0  0  0  0  0  0  0  0  0  0
   -1.9177   -3.3869   -5.0362 C   0  0  0  0  0  0  0  0  0  0  0  0
   -1.6830   -2.6768   -3.8372 C   0  0  0  0  0  0  0  0  0  0  0  0
   -2.6053   -1.7598   -3.3480 C   0  0  0  0  0  0  0  0  0  0  0  0
   -2.2258   -0.9949   -2.1164 C   0  0  0  0  0  0  0  0  0  0  0  0
   -2.6925    0.3061   -2.1101 N   0  0  0  0  0  0  0  0  0  0  0  0
   -2.5335    1.2918   -1.1320 C   0  0  0  0  0  0  0  0  0  0  0  0
   -1.8238    1.0745    0.0498 C   0  0  0  0  0  0  0  0  0  0  0  0
   -1.6869    2.0990    0.9996 C   0  0  0  0  0  0  0  0  0  0  0  0
   -0.9461    1.7587    2.1415 N   0  0  0  0  0  0  0  0  0  0  0  0
   -0.5507    2.4866    3.2331 C   0  0  0  0  0  0  0  0  0  0  0  0
   -0.9119    3.7619    3.3619 N   0  0  0  0  0  0  0  0  0  0  0  0
   -0.4980    4.4336    4.4372 C   0  0  0  0  0  0  0  0  0  0  0  0
    0.2953    3.8976    5.4376 C   0  0  0  0  0  0  0  0  0  0  0  0
    0.6773    2.5476    5.3215 C   0  0  0  0  0  0  0  0  0  0  0  0
    1.5138    1.9176    6.3572 C   0  0  0  0  0  0  0  0  0  0  0  0
    2.7155    1.2813    6.0726 N   0  0  0  0  0  0  0  0  0  0  0  0
    3.3532    1.1233    4.7824 C   0  0  0  0  0  0  0  0  0  0  0  0
    3.2242    0.8767    7.2689 C   0  0  0  0  0  0  0  0  0  0  0  0
    4.7560    0.0155    7.3666 S   0  0  0  0  0  0  0  0  0  0  0  0
    4.8778   -0.1398    9.1616 C   0  0  0  0  0  0  0  0  0  0  0  0
    2.4554    1.1955    8.2760 N   0  0  0  0  0  0  0  0  0  0  0  0
    1.3747    1.8444    7.7311 C   0  0  0  0  0  0  0  0  0  0  0  0
    0.2802    2.3309    8.5909 C   0  0  0  0  0  0  0  0  0  0  0  0
    0.5541    2.6612    9.9257 C   0  0  0  0  0  0  0  0  0  0  0  0
   -0.4492    3.1213   10.7726 C   0  0  0  0  0  0  0  0  0  0  0  0
   -1.7413    3.2480   10.2773 C   0  0  0  0  0  0  0  0  0  0  0  0
   -2.7090    3.6931   11.0844 F   0  0  0  0  0  0  0  0  0  0  0  0
   -2.0509    2.9141    8.9652 C   0  0  0  0  0  0  0  0  0  0  0  0
   -1.0385    2.4503    8.1298 C   0  0  0  0  0  0  0  0  0  0  0  0
    0.2439    1.8368    4.2115 C   0  0  0  0  0  0  0  0  0  0  0  0
   -2.2652    3.3534    0.7733 C   0  0  0  0  0  0  0  0  0  0  0  0
   -2.9715    3.5543   -0.4128 C   0  0  0  0  0  0  0  0  0  0  0  0
   -3.1138    2.5512   -1.3609 C   0  0  0  0  0  0  0  0  0  0  0  0
   -1.5501   -1.4652   -1.2232 O   0  0  0  0  0  0  0  0  0  0  0  0
   -3.8264   -1.5522   -4.0084 C   0  0  0  0  0  0  0  0  0  0  0  0
   -4.0897   -2.2917   -5.1605 C   0  0  0  0  0  0  0  0  0  0  0  0
   -3.1616   -3.1880   -5.6778 C   0  0  0  0  0  0  0  0  0  0  0  0
   -1.4271   -4.9772   -7.8184 C   0  0  0  0  0  3  0  0  0  0  0  0
   -1.3464   -3.6436   -8.4090 C   0  0  0  0  0  0  0  0  0  0  0  0
    0.3062   -3.2028   -9.3281 S   0  0  0  0  0  0  0  0  0  0  0  0
    1.4856   -3.5722   -8.0054 C   0  0  0  0  0  0  0  0  0  0  0  0
    1.9461   -2.3492   -7.1870 C   0  0  2  0  0  0  0  0  0  0  0  0
    2.2607   -2.6903   -6.1879 H   0  0  0  0  0  0  0  0  0  0  0  0
    0.8826   -1.3924   -6.9928 N   0  0  0  0  0  0  0  0  0  0  0  0
    0.4907   -0.9444   -5.7618 C   0  0  0  0  0  0  0  0  0  0  0  0
   -0.7838   -0.1226   -5.7817 C   0  0  0  0  0  0  0  0  0  0  0  0
    1.1232   -1.1612   -4.7468 O   0  0  0  0  0  0  0  0  0  0  0  0
    3.2106   -1.7340   -7.8088 C   0  0  0  0  0  0  0  0  0  0  0  0
    3.1687   -0.3923   -8.0037 N   0  0  0  0  0  0  0  0  0  0  0  0
    4.2725    0.3529   -8.5421 C   0  0  0  0  0  0  0  0  0  0  0  0
    4.1765   -2.4241   -8.0817 O   0  0  0  0  0  0  0  0  0  0  0  0
   -0.2603   -4.4823   -4.8449 H   0  0  0  0  0  0  0  0  0  0  0  0
   -0.7328   -2.7958   -3.3134 H   0  0  0  0  0  0  0  0  0  0  0  0
   -3.1703    0.5965   -2.9531 H   0  0  0  0  0  0  0  0  0  0  0  0
   -1.3722    0.0959    0.2078 H   0  0  0  0  0  0  0  0  0  0  0  0
   -0.6170    0.8028    2.1322 H   0  0  0  0  0  0  0  0  0  0  0  0
   -0.8199    5.4790    4.4971 H   0  0  0  0  0  0  0  0  0  0  0  0
    0.6116    4.4963    6.2921 H   0  0  0  0  0  0  0  0  0  0  0  0
    2.9774    1.8874    4.0922 H   0  0  0  0  0  0  0  0  0  0  0  0
    3.1555    0.1283    4.3562 H   0  0  0  0  0  0  0  0  0  0  0  0
    4.4389    1.2529    4.8918 H   0  0  0  0  0  0  0  0  0  0  0  0
    5.8033   -0.6980    9.3522 H   0  0  0  0  0  0  0  0  0  0  0  0
    4.0144   -0.6896    9.5545 H   0  0  0  0  0  0  0  0  0  0  0  0
    4.9291    0.8500    9.6307 H   0  0  0  0  0  0  0  0  0  0  0  0
    1.5747    2.5464   10.2940 H   0  0  0  0  0  0  0  0  0  0  0  0
   -0.2442    3.3842   11.8117 H   0  0  0  0  0  0  0  0  0  0  0  0
   -3.0794    3.0082    8.6135 H   0  0  0  0  0  0  0  0  0  0  0  0
   -1.2868    2.1653    7.1063 H   0  0  0  0  0  0  0  0  0  0  0  0
    0.4978    0.7805    4.0963 H   0  0  0  0  0  0  0  0  0  0  0  0
   -2.1538    4.1422    1.5111 H   0  0  0  0  0  0  0  0  0  0  0  0
   -3.4248    4.5311   -0.5980 H   0  0  0  0  0  0  0  0  0  0  0  0
   -3.6720    2.7355   -2.2823 H   0  0  0  0  0  0  0  0  0  0  0  0
   -4.5825   -0.8737   -3.6055 H   0  0  0  0  0  0  0  0  0  0  0  0
   -5.0498   -2.1738   -5.6700 H   0  0  0  0  0  0  0  0  0  0  0  0
   -3.3782   -3.7640   -6.5789 H   0  0  0  0  0  0  0  0  0  0  0  0
   -1.5672   -5.8283   -8.4900 H   0  0  0  0  0  0  0  0  0  0  0  0
   -1.4711   -2.8348   -7.6767 H   0  0  0  0  0  0  0  0  0  0  0  0
   -2.0597   -3.4752   -9.2308 H   0  0  0  0  0  0  0  0  0  0  0  0
    2.3727   -4.0565   -8.4318 H   0  0  0  0  0  0  0  0  0  0  0  0
    0.9791   -4.3050   -7.3591 H   0  0  0  0  0  0  0  0  0  0  0  0
    0.2281   -1.3451   -7.7737 H   0  0  0  0  0  0  0  0  0  0  0  0
   -1.6480   -0.7708   -5.9957 H   0  0  0  0  0  0  0  0  0  0  0  0
   -0.7392    0.6582   -6.5563 H   0  0  0  0  0  0  0  0  0  0  0  0
   -0.9240    0.3352   -4.7958 H   0  0  0  0  0  0  0  0  0  0  0  0
    2.3100    0.0722   -7.7395 H   0  0  0  0  0  0  0  0  0  0  0  0
    4.6500    1.1001   -7.8243 H   0  0  0  0  0  0  0  0  0  0  0  0
    3.9961    0.8720   -9.4744 H   0  0  0  0  0  0  0  0  0  0  0  0
    5.0771   -0.3610   -8.7625 H   0  0  0  0  0  0  0  0  0  0  0  0
  2  1  2  0  0  0  0
  2  3  1  0  0  0  0
  3  4  1  0  0  0  0
  3 55  1  0  0  0  0
  4  5  1  0  0  0  0
  5  6  2  0  0  0  0
  5 56  1  0  0  0  0
  6  7  1  0  0  0  0
  7  8  1  0  0  0  0
  7 37  2  0  0  0  0
  8  9  1  0  0  0  0
  9 10  1  0  0  0  0
 10 58  1  0  0  0  0
 10 11  2  0  0  0  0
 11 12  1  0  0  0  0
 12 13  1  0  0  0  0
 13 14  2  0  0  0  0
 13 33  1  0  0  0  0
 14 15  1  0  0  0  0
 15 60  1  0  0  0  0
 15 16  2  0  0  0  0
 16 61  1  0  0  0  0
 17 16  1  0  0  0  0
 17 18  1  0  0  0  0
 18 25  2  0  0  0  0
 19 18  1  0  0  0  0
 19 21  1  0  0  0  0
 20 64  1  0  0  0  0
 20 19  1  0  0  0  0
 21 22  1  0  0  0  0
 21 24  2  0  0  0  0
 22 23  1  0  0  0  0
 23 65  1  0  0  0  0
 23 66  1  0  0  0  0
 23 67  1  0  0  0  0
 25 24  1  0  0  0  0
 25 26  1  0  0  0  0
 26 27  1  0  0  0  0
 27 68  1  0  0  0  0
 27 28  2  0  0  0  0
 28 69  1  0  0  0  0
 29 28  1  0  0  0  0
 29 30  1  0  0  0  0
 31 29  2  0  0  0  0
 32 26  2  0  0  0  0
 32 31  1  0  0  0  0
 33 17  2  0  0  0  0
 34 11  1  0  0  0  0
 34 73  1  0  0  0  0
 35 34  2  0  0  0  0
 36  9  2  0  0  0  0
 36 35  1  0  0  0  0
 38 76  1  0  0  0  0
 38  6  1  0  0  0  0
 39 38  2  0  0  0  0
 40 39  1  0  0  0  0
 40  4  2  0  0  0  0
 41  2  1  0  0  0  0
 42 41  1  0  0  0  0
 42 80  1  0  0  0  0
 43 42  1  0  0  0  0
 43 44  1  0  0  0  0
 44 83  1  0  0  0  0
 44 45  1  0  0  0  0
 45 47  1  0  0  0  0
 45 46  1  1  0  0  0
 47 48  1  0  0  0  0
 48 50  2  0  0  0  0
 49 48  1  0  0  0  0
 49 87  1  0  0  0  0
 51 45  1  0  0  0  0
 52 51  1  0  0  0  0
 52 88  1  0  0  0  0
 53 52  1  0  0  0  0
 53 89  1  0  0  0  0
 54 51  2  0  0  0  0
 57  8  1  0  0  0  0
 59 12  1  0  0  0  0
 62 20  1  0  0  0  0
 63 20  1  0  0  0  0
 70 31  1  0  0  0  0
 71 32  1  0  0  0  0
 72 33  1  0  0  0  0
 74 35  1  0  0  0  0
 75 36  1  0  0  0  0
 77 39  1  0  0  0  0
 78 40  1  0  0  0  0
 79 41  1  0  0  0  0
 81 42  1  0  0  0  0
 82 44  1  0  0  0  0
 84 47  1  0  0  0  0
 85 49  1  0  0  0  0
 86 49  1  0  0  0  0
 90 53  1  0  0  0  0
 91 53  1  0  0  0  0
M  END
