80
-1 1
C         0.483419   -2.682915    2.552533
O         1.260994   -2.258438    1.442405
C         1.202034   -2.921914    0.299867
C         0.689253   -4.197121    0.154240
C         1.740449   -2.234205   -0.850291
N         2.328165   -0.966023   -0.711030
C         1.827219    0.183879   -0.116632
O         2.555585    1.154097   -0.016105
C         0.399836    0.144777    0.284835
C        -0.133850    0.837360    1.299163
S        -1.745326   -0.424091    4.184601
C        -1.711767    1.093302    5.195115
C        -2.794138    2.118338    4.858900
H        -3.782205    1.665402    5.041542
N        -2.774172    2.504877    3.456881
C        -3.876392    2.844452    2.772697
C        -3.696729    2.974807    1.273767
O        -4.976402    3.032835    3.294252
C        -2.688644    3.394250    5.718735
N        -3.812289    4.159900    5.668042
C        -3.877575    5.467526    6.259682
O        -1.693216    3.703026    6.354692
C         0.568457    1.739164    2.269449
N        -0.049796    3.061966    2.286568
C         0.199527    3.791151    1.049016
C        -0.534867    5.127300    1.018769
C        -0.182039    5.976330    2.237926
C        -0.412093    5.167936    3.511507
C         0.335532    3.841163    3.458312
C         1.736608   -2.858777   -2.073556
C         1.202718   -4.163200   -2.239461
C         0.706145   -4.851500   -1.099845
N         0.281968   -6.143686   -1.177007
C         0.367823   -6.714305   -2.348393
N         0.751959   -6.147757   -3.509043
C         1.126804   -4.883209   -3.470711
N         1.492251   -4.339740   -4.691765
C         1.163116   -3.066177   -5.189996
C         1.918173   -2.560755   -6.254454
C         1.609352   -1.324308   -6.812085
Cl         2.537925   -0.704223   -8.144453
C         0.562035   -0.566380   -6.292021
F         0.275448    0.621331   -6.814076
C        -0.186491   -1.055794   -5.229683
C         0.096914   -2.305302   -4.690364
H        -0.538759   -2.936637    2.232620
H         0.405345   -1.834564    3.246667
H         0.950221   -3.554466    3.040036
H         0.303681   -4.755407    1.005567
H         3.255991   -0.834541   -1.098290
H        -0.240748   -0.553261   -0.263494
H        -1.192864    0.679474    1.535466
H        -0.731396    1.594395    5.127247
H        -1.832155    0.856004    6.263808
H        -1.877256    2.486092    2.961788
H        -2.652524    2.850410    0.957892
H        -4.076859    3.952313    0.944716
H        -4.309672    2.198635    0.793265
H        -4.530000    3.860065    5.002953
H        -4.779205    5.582080    6.883301
H        -3.883246    6.267047    5.497922
H        -2.989612    5.598384    6.892150
H         1.652400    1.797732    2.066919
H         0.408655    1.273484    3.256672
H        -0.112641    3.160844    0.202053
H         1.291742    3.962267    0.916079
H        -1.621265    4.941093    1.008338
H        -0.288226    5.655319    0.083422
H        -0.772070    6.907170    2.249323
H         0.881142    6.273262    2.178773
H        -1.487870    4.957120    3.628866
H        -0.099095    5.723397    4.408150
H         0.105780    3.263737    4.365441
H         1.434189    4.030281    3.456255
H         2.153850   -2.318700   -2.923435
H         0.075385   -7.769299   -2.413593
H         1.566817   -5.066580   -5.396777
H         2.760121   -3.132620   -6.646763
H        -1.004676   -0.447884   -4.840658
H        -0.509954   -2.686316   -3.868565
