80
-1 1
C        11.705122   -1.155892    2.009274
O        12.603606   -0.668441    1.045795
C        12.538800   -1.103632   -0.205309
C        11.797792   -2.191023   -0.617858
C        13.363782   -0.376288   -1.151141
N        14.130233    0.686429   -0.712762
C        13.711083    1.872178   -0.024888
O        14.620783    2.600639    0.374645
C        12.311763    2.119368    0.035993
C        11.740215    3.152079    0.801852
S        11.172826    2.306422    2.852713
C        11.015772    3.684930    4.027042
C         9.663731    4.394792    4.032175
H         8.891513    3.707345    4.413832
N         9.253937    4.770710    2.691079
C         7.965332    4.781151    2.316328
C         7.704010    4.914976    0.830752
O         7.028210    4.681218    3.109726
C         9.667765    5.647047    4.930225
N         8.416736    6.099023    5.207404
C         8.180855    7.336824    5.899215
O        10.687930    6.187498    5.325890
C        12.515058    4.412765    1.144957
N        11.644148    5.594085    1.202765
C        11.379345    6.106785   -0.135630
C        10.416686    7.290436   -0.127087
C        10.917752    8.398010    0.796179
C        11.211594    7.818824    2.177003
C        12.167813    6.636162    2.080000
C        13.414962   -0.822809   -2.453371
C        12.652611   -1.937008   -2.896079
C        11.854141   -2.646826   -1.959109
N        11.179414   -3.776422   -2.304475
C        11.306428   -4.174865   -3.543480
N        11.962867   -3.548139   -4.536667
C        12.593060   -2.427520   -4.232639
N        13.235329   -1.808342   -5.300013
C        13.209880   -0.446786   -5.636678
C        14.095102   -0.001132   -6.627168
C        14.093981    1.330420   -7.027612
Cl        15.185632    1.873993   -8.269656
C        13.230369    2.242053   -6.424517
F        13.239947    3.519512   -6.797231
C        12.355747    1.812207   -5.436171
C        12.328090    0.475762   -5.054105
H        10.664075   -1.058765    1.660475
H        11.834401   -0.522411    2.894513
H        11.914775   -2.212731    2.252320
H        11.194112   -2.771008    0.078297
H        15.042667    0.804491   -1.135814
H        11.630001    1.394088   -0.413138
H        10.691861    3.354909    0.564202
H        11.810688    4.422735    3.845856
H        11.202593    3.307869    5.043678
H        10.015999    4.973086    2.022026
H         8.619021    4.860744    0.226995
H         7.183720    5.863525    0.632372
H         7.029505    4.099521    0.535839
H         7.651818    5.629936    4.715880
H         7.481025    7.200220    6.739484
H         7.767414    8.110771    5.229576
H         9.141508    7.694718    6.292108
H        13.324086    4.555027    0.405575
H        13.030313    4.292253    2.106879
H        10.978136    5.285104   -0.750496
H        12.333674    6.416817   -0.620981
H         9.426997    6.954035    0.219932
H        10.287177    7.660099   -1.157076
H        10.182341    9.216517    0.858401
H        11.843663    8.832150    0.376894
H        10.274235    7.474920    2.645047
H        11.640948    8.578671    2.847761
H        12.315155    6.213628    3.084282
H        13.161420    6.988474    1.719631
H        14.047265   -0.276646   -3.153318
H        10.807438   -5.111021   -3.822642
H        13.273704   -2.435500   -6.097040
H        14.799005   -0.697685   -7.084826
H        11.688235    2.539557   -4.971824
H        11.623930    0.154754   -4.287124
