81
-1 1
O         0.941740   -1.056903    3.163302
C         0.265069   -1.860458    2.538262
N        -0.222757   -1.610996    1.278009
C        -0.001257   -0.411437    0.593206
C         0.150986    0.804534    1.226320
C         0.085062   -0.449008   -0.839851
O         0.026972   -1.670081   -1.385005
C        -0.164143   -1.810548   -2.783705
C        -1.557874   -1.380956   -3.237209
C        -1.549964   -0.834532   -4.662992
N        -0.823994    0.425969   -4.752756
C        -0.139994    0.693927   -6.005751
C        -1.081093    1.237092   -7.078211
O        -1.747226    2.386930   -6.619407
C        -2.476686    2.138321   -5.439562
C        -1.576571    1.602565   -4.329289
C         0.228506    0.713664   -1.570000
C         0.344059    1.961202   -0.919989
C         0.344829    1.999450    0.493646
C         0.537872    3.298304    1.078974
N         0.639074    3.387971    2.444552
C         0.790268    4.492880    3.283061
C         0.914160    4.231919    4.658123
C         1.059653    5.272634    5.566378
Cl         1.212783    4.938533    7.267090
C         1.083604    6.592164    5.119865
F         1.223062    7.592933    5.989013
C         0.962508    6.858381    3.764591
C         0.817165    5.825874    2.842755
N         0.626208    4.379871    0.330623
C         0.564339    4.215831   -1.008345
N         0.450502    3.099567   -1.670413
C        -0.041731   -3.182701    3.154677
C        -1.090094   -3.963296    2.890519
S        -2.502109   -3.726942   -0.302844
C        -1.794437   -5.416141   -0.156592
C        -0.478402   -5.661905   -0.920367
H        -0.025113   -6.605008   -0.585459
N         0.493107   -4.626546   -0.634864
C         1.657192   -4.861472    0.025887
C         2.456361   -3.613742    0.359628
O         2.051979   -5.970888    0.337864
C        -0.641095   -5.827552   -2.441960
N        -1.476653   -4.926174   -3.023095
C        -1.762404   -4.936005   -4.429900
O        -0.041139   -6.687789   -3.064276
H        -0.790598   -2.328864    0.787925
H         0.114306    0.798255    2.312714
H        -0.008461   -2.880499   -2.974272
H         0.612893   -1.241366   -3.321464
H        -1.945675   -0.611783   -2.552016
H        -2.255298   -2.225420   -3.145646
H        -2.593444   -0.760734   -5.031651
H        -1.051091   -1.562286   -5.325561
H         0.363584   -0.220349   -6.357245
H         0.642046    1.450372   -5.816826
H        -1.816906    0.456160   -7.367048
H        -0.524439    1.525012   -7.982872
H        -3.296715    1.419694   -5.650145
H        -2.937190    3.090675   -5.139112
H        -2.174680    1.358944   -3.438254
H        -0.863372    2.385039   -4.017037
H         0.255080    0.699174   -2.659744
H         0.653130    2.496542    2.920895
H         0.898092    3.206027    5.032213
H         0.985237    7.898325    3.434128
H         0.729912    6.027434    1.778324
H         0.628676    5.140831   -1.594187
H         0.660119   -3.425833    3.957778
H        -1.820861   -3.727596    2.103309
H        -1.237358   -4.885076    3.459843
H        -2.533332   -6.163152   -0.489631
H        -1.585368   -5.633761    0.903749
H         0.155048   -3.669671   -0.715487
H         3.499074   -3.777553    0.054957
H         2.450482   -3.473186    1.450780
H         2.064422   -2.706688   -0.118180
H        -2.001022   -4.309309   -2.380740
H        -2.842282   -5.046419   -4.621678
H        -1.230056   -5.783713   -4.882151
H        -1.423134   -4.007868   -4.925002
