100
-1 1
C         9.381461   -0.432618    3.472814
O         9.124846    0.721754    4.210366
C         7.828759    1.216121    4.031830
C         7.593214    2.289461    5.082863
O         6.301015    2.866680    4.977839
C         5.230123    2.031178    4.890647
C         4.339261    2.240492    3.853064
C         4.998256    0.991214    5.839660
N         5.839562    0.823412    6.972337
C         5.899762   -0.508567    7.510130
O         5.360437   -0.726856    8.597651
C         6.590285   -1.453646    6.694989
C         6.346759   -2.816199    6.889994
S         4.688400   -3.321278    5.397890
C         4.124504   -5.058727    5.342478
C         3.263702   -5.447165    6.534819
H         2.335746   -4.859274    6.501594
N         3.927637   -5.116326    7.783471
C         3.241634   -4.577422    8.815236
C         4.066518   -3.875958    9.867199
O         2.013437   -4.634009    8.881668
C         2.850851   -6.926223    6.532445
N         1.799835   -7.165027    7.351001
C         1.214635   -8.463174    7.553808
O         3.407988   -7.786763    5.863509
C         7.348245   -3.898071    6.554287
N         6.953602   -5.178996    7.115430
C         7.358613   -5.432273    8.486120
C         6.891399   -6.874820    8.729266
C         6.854356   -7.501378    7.311657
C         7.347390   -6.375364    6.396988
C         3.924766    0.147455    5.634726
C         3.059880    0.297052    4.536660
C         3.224420    1.394014    3.660967
N         2.335427    1.635330    2.646917
C         1.336140    0.799122    2.559525
N         1.091368   -0.305744    3.296212
C         1.955982   -0.590901    4.255368
N         1.830897   -1.708228    5.011278
C         0.822552   -2.694422    4.985487
C         0.480725   -3.266144    6.201668
C        -0.385618   -4.372283    6.206146
C        -0.896931   -5.270911    7.193208
N        -1.624916   -6.214945    6.639612
N        -1.649621   -5.967130    5.313802
C        -2.177790   -6.943590    4.399999
C        -1.114471   -7.796187    3.729225
C        -1.440058   -8.548493    2.596113
C        -0.482781   -9.354490    1.982935
C         0.814855   -9.412009    2.493229
C         1.150357   -8.661068    3.618649
C         0.187082   -7.859384    4.231273
C        -0.900089   -4.867034    4.994531
C        -0.589488   -4.269814    3.759886
C         0.268324   -3.187600    3.772657
H         9.278787   -0.260004    2.382584
H         8.698850   -1.258700    3.751926
H        10.414224   -0.745349    3.681287
H         7.083663    0.405970    4.151414
H         7.690984    1.636222    3.013394
H         8.299313    3.118111    4.931533
H         7.754583    1.850880    6.077436
H         4.513110    3.058173    3.153117
H         5.590974    1.476683    7.712771
H         7.175535   -1.095470    5.845456
H         5.790107   -3.015301    7.809521
H         4.980864   -5.741483    5.265748
H         3.530728   -5.199535    4.426603
H         4.943136   -5.012990    7.703318
H         4.365864   -2.877807    9.499811
H         4.982807   -4.437010   10.100349
H         3.464699   -3.757095   10.775688
H         1.479874   -6.371715    7.908071
H         1.436725   -8.860752    8.558684
H         1.630873   -9.151658    6.807130
H         0.121720   -8.410592    7.426489
H         8.344313   -3.592660    6.943867
H         7.443193   -3.992759    5.463252
H         6.918499   -4.696012    9.176189
H         8.464913   -5.352727    8.595626
H         5.887631   -6.883672    9.179319
H         7.565095   -7.407607    9.415961
H         5.827647   -7.778210    7.030515
H         7.478151   -8.402990    7.227927
H         6.897115   -6.400949    5.393691
H         8.453440   -6.424062    6.268912
H         3.747781   -0.632999    6.375036
H         0.595359    1.000008    1.773986
H         2.689178   -2.032922    5.477097
H         0.920344   -2.899350    7.130528
H        -0.731212   -5.248641    8.269134
H        -2.784914   -6.431996    3.634903
H        -2.859030   -7.575942    4.988044
H        -2.453680   -8.500663    2.186123
H        -0.750044   -9.935394    1.096649
H         1.567493  -10.038025    2.008250
H         2.158907   -8.678718    4.039601
H         0.460409   -7.271041    5.109255
H        -0.978994   -4.663790    2.819569
H         0.548952   -2.694245    2.843392
