-1 1
 OpenBabel05232413483D

 97101  0  0  1  0  0  0  0  0999 V2000
    4.0004    2.7688   -3.1176 C   0  0  0  0  0  0  0  0  0  0  0  0
    2.6900    2.1754   -3.5788 C   0  0  0  0  0  0  0  0  0  0  0  0
    2.4094    1.0388   -2.7742 O   0  0  0  0  0  0  0  0  0  0  0  0
    1.2146    0.4474   -2.8943 C   0  0  0  0  0  0  0  0  0  0  0  0
    0.2647    0.7958   -3.8292 C   0  0  0  0  0  0  0  0  0  0  0  0
    0.9432   -0.6170   -1.9720 C   0  0  0  0  0  0  0  0  0  0  0  0
    1.9525   -1.0419   -1.0743 N   0  0  0  0  0  0  0  0  0  0  0  0
    2.6442   -0.3086   -0.1379 C   0  0  0  0  0  0  0  0  0  0  0  0
    3.6295   -0.7933    0.3993 O   0  0  0  0  0  0  0  0  0  0  0  0
    2.0657    1.0172    0.1961 C   0  0  0  0  0  0  0  0  0  0  0  0
    2.5424    1.8948    1.0893 C   0  0  0  0  0  0  0  0  0  0  0  0
   -1.1676    2.3952    2.3570 S   0  0  0  0  0  1  0  0  0  0  0  0
   -1.4829    1.2976    0.9267 C   0  0  0  0  0  0  0  0  0  0  0  0
   -1.3232    1.9482   -0.4859 C   0  0  2  0  0  0  0  0  0  0  0  0
   -0.6763    1.3054   -1.1064 H   0  0  0  0  0  0  0  0  0  0  0  0
   -0.6686    3.2306   -0.3378 N   0  0  0  0  0  0  0  0  0  0  0  0
    0.0656    3.8898   -1.2313 C   0  0  0  0  0  0  0  0  0  0  0  0
    0.9156    5.0129   -0.6773 C   0  0  0  0  0  0  0  0  0  0  0  0
    0.0935    3.6263   -2.4420 O   0  0  0  0  0  0  0  0  0  0  0  0
   -2.6379    1.9621   -1.2942 C   0  0  0  0  0  0  0  0  0  0  0  0
   -2.6040    2.7320   -2.4035 N   0  0  0  0  0  0  0  0  0  0  0  0
   -3.6914    2.7720   -3.3467 C   0  0  0  0  0  0  0  0  0  0  0  0
   -3.5901    1.2507   -1.0035 O   0  0  0  0  0  0  0  0  0  0  0  0
    3.8245    1.8312    1.8913 C   0  0  0  0  0  0  0  0  0  0  0  0
    4.9601    2.4815    1.2588 N   0  0  0  0  0  0  0  0  0  0  0  0
    5.5451    1.7911    0.1223 C   0  0  0  0  0  0  0  0  0  0  0  0
    6.5699    2.7967   -0.4246 C   0  0  0  0  0  0  0  0  0  0  0  0
    6.1025    4.1695    0.1180 C   0  0  0  0  0  0  0  0  0  0  0  0
    4.7889    3.8572    0.8421 C   0  0  0  0  0  0  0  0  0  0  0  0
   -0.2751   -1.2581   -2.0090 C   0  0  0  0  0  0  0  0  0  0  0  0
   -1.2668   -0.9100   -2.9637 C   0  0  0  0  0  0  0  0  0  0  0  0
   -0.9727    0.1186   -3.8990 C   0  0  0  0  0  0  0  0  0  0  0  0
   -1.8317    0.4650   -4.8993 N   0  0  0  0  0  0  0  0  0  0  0  0
   -2.9355   -0.2306   -4.9659 C   0  0  0  0  0  0  0  0  0  0  0  0
   -3.3386   -1.2128   -4.1491 N   0  0  0  0  0  0  0  0  0  0  0  0
   -2.5486   -1.5454   -3.1361 C   0  0  0  0  0  0  0  0  0  0  0  0
   -3.0258   -2.5650   -2.3667 N   0  0  0  0  0  0  0  0  0  0  0  0
   -2.7895   -2.8398   -0.9909 C   0  0  0  0  0  0  0  0  0  0  0  0
   -2.4917   -4.1453   -0.6215 C   0  0  0  0  0  0  0  0  0  0  0  0
   -2.3489   -4.4463    0.7395 C   0  0  0  0  0  0  0  0  0  0  0  0
   -2.0397   -5.6559    1.4625 C   0  0  0  0  0  0  0  0  0  0  0  0
   -2.0153   -5.3409    2.7850 C   0  0  0  0  0  0  0  0  0  0  0  0
   -2.3253   -3.9937    2.9513 N   0  0  0  0  0  0  0  0  0  0  0  0
   -2.0052   -3.1348    4.3918 S   0  0  0  0  0  0  0  0  0  0  0  0
   -1.8078   -4.1745    5.3926 O   0  0  0  0  0  0  0  0  0  0  0  0
   -0.4696   -2.3517    3.9991 C   0  0  0  0  0  0  0  0  0  0  0  0
   -0.4500   -0.9991    3.6689 C   0  0  0  0  0  0  0  0  0  0  0  0
    0.7530   -0.4327    3.2464 C   0  0  0  0  0  0  0  0  0  0  0  0
    1.8985   -1.2191    3.1574 C   0  0  0  0  0  0  0  0  0  0  0  0
    1.8637   -2.5726    3.5075 C   0  0  0  0  0  0  0  0  0  0  0  0
    0.6757   -3.1522    3.9334 C   0  0  0  0  0  0  0  0  0  0  0  0
   -3.0488   -2.1383    4.5339 O   0  0  0  0  0  0  0  0  0  0  0  0
   -2.5090   -3.4171    1.6931 C   0  0  0  0  0  0  0  0  0  0  0  0
   -2.7953   -2.0983    1.3254 C   0  0  0  0  0  0  0  0  0  0  0  0
   -2.9420   -1.8226   -0.0254 C   0  0  0  0  0  0  0  0  0  0  0  0
    4.2681    3.6233   -3.7562 H   0  0  0  0  0  0  0  0  0  0  0  0
    4.8118    2.0273   -3.1630 H   0  0  0  0  0  0  0  0  0  0  0  0
    3.9174    3.1226   -2.0804 H   0  0  0  0  0  0  0  0  0  0  0  0
    2.7507    1.8619   -4.6374 H   0  0  0  0  0  0  0  0  0  0  0  0
    1.8718    2.9052   -3.4695 H   0  0  0  0  0  0  0  0  0  0  0  0
    0.4204    1.6012   -4.5421 H   0  0  0  0  0  0  0  0  0  0  0  0
    2.3359   -1.9714   -1.2076 H   0  0  0  0  0  0  0  0  0  0  0  0
    1.1246    1.2690   -0.2903 H   0  0  0  0  0  0  0  0  0  0  0  0
    1.9161    2.7798    1.2492 H   0  0  0  0  0  0  0  0  0  0  0  0
   -2.5088    0.9140    0.9805 H   0  0  0  0  0  0  0  0  0  0  0  0
   -0.8080    0.4244    0.9691 H   0  0  0  0  0  0  0  0  0  0  0  0
   -0.6395    3.4786    0.6802 H   0  0  0  0  0  0  0  0  0  0  0  0
    0.6593    5.2716    0.3588 H   0  0  0  0  0  0  0  0  0  0  0  0
    0.8169    5.8947   -1.3244 H   0  0  0  0  0  0  0  0  0  0  0  0
    1.9676    4.6895   -0.7091 H   0  0  0  0  0  0  0  0  0  0  0  0
   -1.7036    3.1477   -2.6547 H   0  0  0  0  0  0  0  0  0  0  0  0
   -4.2760    3.7045   -3.2625 H   0  0  0  0  0  0  0  0  0  0  0  0
   -4.3621    1.9250   -3.1479 H   0  0  0  0  0  0  0  0  0  0  0  0
   -3.3003    2.6850   -4.3704 H   0  0  0  0  0  0  0  0  0  0  0  0
    4.1084    0.7880    2.0742 H   0  0  0  0  0  0  0  0  0  0  0  0
    3.6446    2.3175    2.8643 H   0  0  0  0  0  0  0  0  0  0  0  0
    4.7881    1.5509   -0.6516 H   0  0  0  0  0  0  0  0  0  0  0  0
    5.9845    0.8327    0.4359 H   0  0  0  0  0  0  0  0  0  0  0  0
    6.6048    2.7729   -1.5236 H   0  0  0  0  0  0  0  0  0  0  0  0
    7.5817    2.5620   -0.0633 H   0  0  0  0  0  0  0  0  0  0  0  0
    5.9642    4.9180   -0.6761 H   0  0  0  0  0  0  0  0  0  0  0  0
    6.8390    4.5745    0.8273 H   0  0  0  0  0  0  0  0  0  0  0  0
    3.9348    3.9847    0.1393 H   0  0  0  0  0  0  0  0  0  0  0  0
    4.5948    4.5124    1.7071 H   0  0  0  0  0  0  0  0  0  0  0  0
   -0.4548   -2.0489   -1.2815 H   0  0  0  0  0  0  0  0  0  0  0  0
   -3.6293    0.0168   -5.7797 H   0  0  0  0  0  0  0  0  0  0  0  0
   -3.9197   -2.8860   -2.7266 H   0  0  0  0  0  0  0  0  0  0  0  0
   -2.3725   -4.9132   -1.3884 H   0  0  0  0  0  0  0  0  0  0  0  0
   -1.8682   -6.6434    1.0407 H   0  0  0  0  0  0  0  0  0  0  0  0
   -1.8211   -5.9526    3.6622 H   0  0  0  0  0  0  0  0  0  0  0  0
   -1.3439   -0.3716    3.7213 H   0  0  0  0  0  0  0  0  0  0  0  0
    0.7376    0.6289    2.9713 H   0  0  0  0  0  0  0  0  0  0  0  0
    2.8283   -0.7901    2.7830 H   0  0  0  0  0  0  0  0  0  0  0  0
    2.7689   -3.1785    3.4333 H   0  0  0  0  0  0  0  0  0  0  0  0
    0.6265   -4.2085    4.2041 H   0  0  0  0  0  0  0  0  0  0  0  0
   -2.9277   -1.3107    2.0672 H   0  0  0  0  0  0  0  0  0  0  0  0
   -3.1952   -0.8072   -0.3492 H   0  0  0  0  0  0  0  0  0  0  0  0
  1 58  1  0  0  0  0
  2 60  1  0  0  0  0
  2  1  1  0  0  0  0
  2  3  1  0  0  0  0
  4  3  1  0  0  0  0
  4  6  1  0  0  0  0
  5  4  2  0  0  0  0
  6  7  1  0  0  0  0
  7  8  1  0  0  0  0
  8 10  1  0  0  0  0
  8  9  2  0  0  0  0
 10 11  2  0  0  0  0
 11 64  1  0  0  0  0
 11 24  1  0  0  0  0
 13 66  1  0  0  0  0
 13 65  1  0  0  0  0
 13 12  1  0  0  0  0
 14 15  1  6  0  0  0
 14 16  1  0  0  0  0
 14 13  1  0  0  0  0
 16 67  1  0  0  0  0
 17 18  1  0  0  0  0
 17 16  1  0  0  0  0
 18 68  1  0  0  0  0
 19 17  2  0  0  0  0
 20 23  2  0  0  0  0
 20 14  1  0  0  0  0
 21 20  1  0  0  0  0
 22 72  1  0  0  0  0
 22 73  1  0  0  0  0
 22 21  1  0  0  0  0
 24 75  1  0  0  0  0
 24 76  1  0  0  0  0
 25 24  1  0  0  0  0
 26 78  1  0  0  0  0
 26 25  1  0  0  0  0
 27 80  1  0  0  0  0
 27 28  1  0  0  0  0
 27 26  1  0  0  0  0
 28 82  1  0  0  0  0
 28 29  1  0  0  0  0
 29 25  1  0  0  0  0
 29 84  1  0  0  0  0
 30  6  2  0  0  0  0
 30 85  1  0  0  0  0
 31 30  1  0  0  0  0
 32  5  1  0  0  0  0
 32 31  2  0  0  0  0
 33 32  1  0  0  0  0
 34 33  2  0  0  0  0
 34 35  1  0  0  0  0
 35 36  2  0  0  0  0
 36 31  1  0  0  0  0
 36 37  1  0  0  0  0
 37 38  1  0  0  0  0
 38 39  2  0  0  0  0
 38 55  1  0  0  0  0
 39 40  1  0  0  0  0
 40 41  1  0  0  0  0
 40 53  2  0  0  0  0
 41 42  2  0  0  0  0
 42 43  1  0  0  0  0
 42 90  1  0  0  0  0
 43 44  1  0  0  0  0
 44 52  2  0  0  0  0
 44 45  2  0  0  0  0
 46 44  1  0  0  0  0
 47 91  1  0  0  0  0
 47 46  2  0  0  0  0
 48 47  1  0  0  0  0
 49 48  2  0  0  0  0
 49 50  1  0  0  0  0
 50 51  2  0  0  0  0
 51 46  1  0  0  0  0
 51 95  1  0  0  0  0
 53 43  1  0  0  0  0
 54 53  1  0  0  0  0
 54 96  1  0  0  0  0
 55 54  2  0  0  0  0
 56  1  1  0  0  0  0
 57  1  1  0  0  0  0
 59  2  1  0  0  0  0
 61  5  1  0  0  0  0
 62  7  1  0  0  0  0
 63 10  1  0  0  0  0
 69 18  1  0  0  0  0
 70 18  1  0  0  0  0
 71 21  1  0  0  0  0
 74 22  1  0  0  0  0
 77 26  1  0  0  0  0
 79 27  1  0  0  0  0
 81 28  1  0  0  0  0
 83 29  1  0  0  0  0
 86 34  1  0  0  0  0
 87 37  1  0  0  0  0
 88 39  1  0  0  0  0
 89 41  1  0  0  0  0
 92 48  1  0  0  0  0
 93 49  1  0  0  0  0
 94 50  1  0  0  0  0
 97 55  1  0  0  0  0
M  END
