-1 1
 OpenBabel05232414493D

 97101  0  0  1  0  0  0  0  0999 V2000
    6.7545    5.5854    2.7231 C   0  0  0  0  0  0  0  0  0  0  0  0
    5.5425    4.9159    2.1199 C   0  0  0  0  0  0  0  0  0  0  0  0
    5.5417    3.5537    2.5282 O   0  0  0  0  0  0  0  0  0  0  0  0
    4.4092    2.8568    2.4497 C   0  0  0  0  0  0  0  0  0  0  0  0
    3.4314    3.1021    1.5065 C   0  0  0  0  0  0  0  0  0  0  0  0
    4.2411    1.7894    3.4075 C   0  0  0  0  0  0  0  0  0  0  0  0
    5.2402    1.5174    4.3437 N   0  0  0  0  0  0  0  0  0  0  0  0
    5.6903    2.3370    5.4153 C   0  0  0  0  0  0  0  0  0  0  0  0
    6.4460    1.7892    6.2236 O   0  0  0  0  0  0  0  0  0  0  0  0
    5.2189    3.6839    5.4395 C   0  0  0  0  0  3  0  0  0  0  0  0
    5.4605    4.6514    6.4105 C   0  0  0  0  0  3  0  0  0  0  0  0
    3.6285    4.8168    7.9549 S   0  0  0  0  0  1  0  0  0  0  0  0
    2.4116    4.2004    6.7671 C   0  0  0  0  0  0  0  0  0  0  0  0
    2.1393    5.1159    5.5394 C   0  0  2  0  0  0  0  0  0  0  0  0
    2.8964    4.9179    4.7715 H   0  0  0  0  0  0  0  0  0  0  0  0
    2.2549    6.5195    5.8363 N   0  0  0  0  0  0  0  0  0  0  0  0
    3.2162    7.2915    5.2753 C   0  0  0  0  0  0  0  0  0  0  0  0
    3.4471    8.6195    5.9646 C   0  0  0  0  0  0  0  0  0  0  0  0
    3.8811    6.9493    4.3069 O   0  0  0  0  0  0  0  0  0  0  0  0
    0.7511    4.8237    4.9732 C   0  0  0  0  0  0  0  0  0  0  0  0
    0.7403    3.9621    3.9173 N   0  0  0  0  0  0  0  0  0  0  0  0
   -0.4673    3.6297    3.2017 C   0  0  0  0  0  0  0  0  0  0  0  0
   -0.2576    5.3034    5.4559 O   0  0  0  0  0  0  0  0  0  0  0  0
    6.6135    4.6094    7.3986 C   0  0  0  0  0  0  0  0  0  0  0  0
    7.8782    5.0227    6.8261 N   0  0  0  0  0  0  0  0  0  0  0  0
    8.5580    4.1560    5.8859 C   0  0  0  0  0  0  0  0  0  0  0  0
    9.8000    4.9736    5.5472 C   0  0  0  0  0  0  0  0  0  0  0  0
    9.2457    6.4046    5.4626 C   0  0  0  0  0  0  0  0  0  0  0  0
    8.0217    6.4051    6.4045 C   0  0  0  0  0  0  0  0  0  0  0  0
    3.0989    1.0184    3.3381 C   0  0  0  0  0  0  0  0  0  0  0  0
    2.0979    1.2400    2.3560 C   0  0  0  0  0  0  0  0  0  0  0  0
    2.2867    2.2760    1.4032 C   0  0  0  0  0  0  0  0  0  0  0  0
    1.4221    2.4818    0.3702 N   0  0  0  0  0  0  0  0  0  0  0  0
    0.4196    1.6466    0.2902 C   0  0  0  0  0  0  0  0  0  0  0  0
    0.0941    0.6762    1.1589 N   0  0  0  0  0  0  0  0  0  0  0  0
    0.8802    0.4974    2.2109 C   0  0  0  0  0  0  0  0  0  0  0  0
    0.4529   -0.4770    3.0790 N   0  0  0  0  0  0  0  0  0  0  0  0
    0.5047   -0.5268    4.4926 C   0  0  0  0  0  0  0  0  0  0  0  0
    0.3461   -1.7735    5.0903 C   0  0  0  0  0  0  0  0  0  0  0  0
    0.2912   -1.8624    6.4864 C   0  0  0  0  0  0  0  0  0  0  0  0
    0.1538   -2.9673    7.4038 C   0  0  0  0  0  0  0  0  0  0  0  0
    0.2004   -2.4545    8.6626 C   0  0  0  0  0  0  0  0  0  0  0  0
    0.3236   -1.0695    8.6034 N   0  0  0  0  0  0  0  0  0  0  0  0
    0.9047   -0.1377    9.9149 S   0  0  0  0  0  0  0  0  0  0  0  0
    0.7532   -1.0107   11.0704 O   0  0  0  0  0  0  0  0  0  0  0  0
    2.6049    0.0433    9.4697 C   0  0  0  0  0  0  0  0  0  0  0  0
    3.0635    1.2758    9.0090 C   0  0  0  0  0  0  0  0  0  0  0  0
    4.3594    1.3575    8.5060 C   0  0  0  0  0  0  0  0  0  0  0  0
    5.1718    0.2261    8.4716 C   0  0  0  0  0  0  0  0  0  0  0  0
    4.7062   -0.9939    8.9704 C   0  0  0  0  0  0  0  0  0  0  0  0
    3.4133   -1.0973    9.4716 C   0  0  0  0  0  0  0  0  0  0  0  0
    0.2379    1.1489    9.8490 O   0  0  0  0  0  0  0  0  0  0  0  0
    0.4078   -0.6894    7.2613 C   0  0  0  0  0  0  0  0  0  0  0  0
    0.5807    0.5662    6.6731 C   0  0  0  0  0  0  0  0  0  0  0  0
    0.6197    0.6354    5.2886 C   0  0  0  0  0  0  0  0  0  0  0  0
    6.7786    6.6446    2.4296 H   0  0  0  0  0  0  0  0  0  0  0  0
    7.6846    5.0986    2.3937 H   0  0  0  0  0  0  0  0  0  0  0  0
    6.6930    5.5270    3.8177 H   0  0  0  0  0  0  0  0  0  0  0  0
    5.5570    4.9746    1.0160 H   0  0  0  0  0  0  0  0  0  0  0  0
    4.6266    5.4072    2.4907 H   0  0  0  0  0  0  0  0  0  0  0  0
    3.5453    3.8904    0.7639 H   0  0  0  0  0  0  0  0  0  0  0  0
    5.3764    0.5402    4.5739 H   0  0  0  0  0  0  0  0  0  0  0  0
    4.5684    3.9895    4.6261 H   0  0  0  0  0  0  0  0  0  0  0  0
    5.2003    5.6606    6.0876 H   0  0  0  0  0  0  0  0  0  0  0  0
    1.4639    4.0314    7.3039 H   0  0  0  0  0  0  0  0  0  0  0  0
    2.7493    3.2242    6.3684 H   0  0  0  0  0  0  0  0  0  0  0  0
    1.8559    6.8215    6.7162 H   0  0  0  0  0  0  0  0  0  0  0  0
    2.5241    9.0391    6.3894 H   0  0  0  0  0  0  0  0  0  0  0  0
    3.8881    9.3247    5.2502 H   0  0  0  0  0  0  0  0  0  0  0  0
    4.1596    8.4542    6.7878 H   0  0  0  0  0  0  0  0  0  0  0  0
    1.6297    3.6867    3.5183 H   0  0  0  0  0  0  0  0  0  0  0  0
   -0.3629    3.8632    2.1316 H   0  0  0  0  0  0  0  0  0  0  0  0
   -1.2822    4.2272    3.6302 H   0  0  0  0  0  0  0  0  0  0  0  0
   -0.7290    2.5635    3.3006 H   0  0  0  0  0  0  0  0  0  0  0  0
    6.7296    3.5934    7.7968 H   0  0  0  0  0  0  0  0  0  0  0  0
    6.3838    5.2817    8.2413 H   0  0  0  0  0  0  0  0  0  0  0  0
    7.9658    3.9497    4.9692 H   0  0  0  0  0  0  0  0  0  0  0  0
    8.7707    3.1792    6.3450 H   0  0  0  0  0  0  0  0  0  0  0  0
   10.2919    4.6499    4.6174 H   0  0  0  0  0  0  0  0  0  0  0  0
   10.5314    4.8924    6.3671 H   0  0  0  0  0  0  0  0  0  0  0  0
    8.9262    6.6231    4.4322 H   0  0  0  0  0  0  0  0  0  0  0  0
    9.9910    7.1660    5.7373 H   0  0  0  0  0  0  0  0  0  0  0  0
    7.1336    6.7968    5.8673 H   0  0  0  0  0  0  0  0  0  0  0  0
    8.1658    7.0593    7.2849 H   0  0  0  0  0  0  0  0  0  0  0  0
    2.9722    0.2281    4.0784 H   0  0  0  0  0  0  0  0  0  0  0  0
   -0.2556    1.7578   -0.5674 H   0  0  0  0  0  0  0  0  0  0  0  0
   -0.3383   -0.9697    2.6772 H   0  0  0  0  0  0  0  0  0  0  0  0
    0.2667   -2.6684    4.4690 H   0  0  0  0  0  0  0  0  0  0  0  0
    0.0258   -4.0166    7.1485 H   0  0  0  0  0  0  0  0  0  0  0  0
    0.1434   -2.9401    9.6335 H   0  0  0  0  0  0  0  0  0  0  0  0
    2.4328    2.1675    9.0289 H   0  0  0  0  0  0  0  0  0  0  0  0
    4.7105    2.3195    8.1264 H   0  0  0  0  0  0  0  0  0  0  0  0
    6.1599    0.3167    8.0179 H   0  0  0  0  0  0  0  0  0  0  0  0
    5.3498   -1.8762    8.9537 H   0  0  0  0  0  0  0  0  0  0  0  0
    3.0269   -2.0480    9.8446 H   0  0  0  0  0  0  0  0  0  0  0  0
    0.6588    1.4745    7.2706 H   0  0  0  0  0  0  0  0  0  0  0  0
    0.7356    1.6138    4.8193 H   0  0  0  0  0  0  0  0  0  0  0  0
  1 58  1  0  0  0  0
  2 60  1  0  0  0  0
  2  3  1  0  0  0  0
  2  1  1  0  0  0  0
  4  3  1  0  0  0  0
  4  6  1  0  0  0  0
  5  4  2  0  0  0  0
  6  7  1  0  0  0  0
  7 62  1  0  0  0  0
  7  8  1  0  0  0  0
  8 10  1  0  0  0  0
  8  9  2  0  0  0  0
 10 11  1  0  0  0  0
 11 24  1  0  0  0  0
 13 65  1  0  0  0  0
 13 12  1  0  0  0  0
 14 15  1  6  0  0  0
 14 16  1  0  0  0  0
 14 13  1  0  0  0  0
 16 67  1  0  0  0  0
 17 16  1  0  0  0  0
 17 18  1  0  0  0  0
 18 68  1  0  0  0  0
 18 70  1  0  0  0  0
 19 17  2  0  0  0  0
 20 23  2  0  0  0  0
 20 14  1  0  0  0  0
 21 20  1  0  0  0  0
 22 74  1  0  0  0  0
 22 73  1  0  0  0  0
 22 21  1  0  0  0  0
 24 75  1  0  0  0  0
 24 76  1  0  0  0  0
 25 24  1  0  0  0  0
 26 78  1  0  0  0  0
 26 25  1  0  0  0  0
 27 26  1  0  0  0  0
 27 80  1  0  0  0  0
 28 27  1  0  0  0  0
 28 82  1  0  0  0  0
 28 29  1  0  0  0  0
 29 25  1  0  0  0  0
 29 84  1  0  0  0  0
 30  6  2  0  0  0  0
 30 85  1  0  0  0  0
 31 30  1  0  0  0  0
 32  5  1  0  0  0  0
 32 31  2  0  0  0  0
 33 32  1  0  0  0  0
 34 33  2  0  0  0  0
 34 35  1  0  0  0  0
 35 36  2  0  0  0  0
 36 31  1  0  0  0  0
 36 37  1  0  0  0  0
 37 38  1  0  0  0  0
 38 39  2  0  0  0  0
 38 55  1  0  0  0  0
 39 40  1  0  0  0  0
 40 53  2  0  0  0  0
 40 41  1  0  0  0  0
 41 42  2  0  0  0  0
 42 90  1  0  0  0  0
 43 42  1  0  0  0  0
 43 44  1  0  0  0  0
 44 45  2  0  0  0  0
 46 51  1  0  0  0  0
 46 44  1  0  0  0  0
 47 91  1  0  0  0  0
 47 46  2  0  0  0  0
 48 47  1  0  0  0  0
 49 48  2  0  0  0  0
 49 50  1  0  0  0  0
 50 51  2  0  0  0  0
 51 95  1  0  0  0  0
 52 44  2  0  0  0  0
 53 43  1  0  0  0  0
 54 53  1  0  0  0  0
 54 96  1  0  0  0  0
 55 54  2  0  0  0  0
 56  1  1  0  0  0  0
 57  1  1  0  0  0  0
 59  2  1  0  0  0  0
 61  5  1  0  0  0  0
 63 10  1  0  0  0  0
 64 11  1  0  0  0  0
 66 13  1  0  0  0  0
 69 18  1  0  0  0  0
 71 21  1  0  0  0  0
 72 22  1  0  0  0  0
 77 26  1  0  0  0  0
 79 27  1  0  0  0  0
 81 28  1  0  0  0  0
 83 29  1  0  0  0  0
 86 34  1  0  0  0  0
 87 37  1  0  0  0  0
 88 39  1  0  0  0  0
 89 41  1  0  0  0  0
 92 48  1  0  0  0  0
 93 49  1  0  0  0  0
 94 50  1  0  0  0  0
 97 55  1  0  0  0  0
M  END
