97
-1 1
C         6.754499    5.585380    2.723118
C         5.542522    4.915897    2.119907
O         5.541742    3.553676    2.528214
C         4.409199    2.856849    2.449680
C         3.431433    3.102121    1.506507
C         4.241085    1.789398    3.407480
N         5.240210    1.517401    4.343712
C         5.690334    2.336967    5.415322
O         6.445967    1.789209    6.223622
C         5.218888    3.683921    5.439536
C         5.460467    4.651426    6.410469
S         3.628514    4.816760    7.954946
C         2.411599    4.200365    6.767128
C         2.139335    5.115869    5.539391
H         2.896383    4.917932    4.771533
N         2.254902    6.519462    5.836254
C         3.216248    7.291488    5.275274
C         3.447058    8.619508    5.964648
O         3.881127    6.949342    4.306901
C         0.751052    4.823721    4.973193
N         0.740278    3.962055    3.917341
C        -0.467334    3.629714    3.201741
O        -0.257596    5.303389    5.455867
C         6.613452    4.609424    7.398643
N         7.878246    5.022710    6.826070
C         8.558043    4.156016    5.885899
C         9.799997    4.973591    5.547210
C         9.245713    6.404614    5.462575
C         8.021684    6.405117    6.404470
C         3.098936    1.018384    3.338101
C         2.097900    1.239982    2.356032
C         2.286660    2.276007    1.403203
N         1.422064    2.481832    0.370225
C         0.419584    1.646592    0.290186
N         0.094136    0.676182    1.158929
C         0.880156    0.497441    2.210916
N         0.452938   -0.476983    3.078966
C         0.504729   -0.526813    4.492552
C         0.346077   -1.773525    5.090312
C         0.291153   -1.862361    6.486432
C         0.153817   -2.967334    7.403827
C         0.200402   -2.454470    8.662614
N         0.323580   -1.069460    8.603400
S         0.904713   -0.137671    9.914937
O         0.753175   -1.010684   11.070414
C         2.604912    0.043334    9.469652
C         3.063475    1.275781    9.009027
C         4.359391    1.357485    8.505995
C         5.171778    0.226097    8.471552
C         4.706157   -0.993871    8.970396
C         3.413293   -1.097315    9.471626
O         0.237895    1.148946    9.849047
C         0.407795   -0.689418    7.261349
C         0.580665    0.566239    6.673111
C         0.619704    0.635419    5.288561
H         6.778622    6.644577    2.429567
H         7.684622    5.098557    2.393702
H         6.692992    5.527033    3.817738
H         5.556974    4.974553    1.016022
H         4.626640    5.407185    2.490750
H         3.545310    3.890385    0.763895
H         5.376402    0.540182    4.573875
H         4.568378    3.989456    4.626059
H         5.200276    5.660573    6.087620
H         1.463947    4.031377    7.303893
H         2.749253    3.224169    6.368431
H         1.855874    6.821469    6.716226
H         2.524126    9.039111    6.389380
H         3.888051    9.324699    5.250203
H         4.159570    8.454151    6.787756
H         1.629725    3.686728    3.518288
H        -0.362924    3.863175    2.131597
H        -1.282165    4.227202    3.630158
H        -0.729050    2.563510    3.300623
H         6.729587    3.593354    7.796759
H         6.383849    5.281668    8.241337
H         7.965846    3.949688    4.969250
H         8.770700    3.179208    6.345031
H        10.291870    4.649922    4.617441
H        10.531398    4.892383    6.367135
H         8.926223    6.623054    4.432158
H         9.990995    7.165966    5.737303
H         7.133618    6.796762    5.867344
H         8.165813    7.059324    7.284907
H         2.972181    0.228084    4.078423
H        -0.255598    1.757834   -0.567400
H        -0.338341   -0.969727    2.677229
H         0.266724   -2.668376    4.469028
H         0.025771   -4.016589    7.148511
H         0.143368   -2.940095    9.633461
H         2.432788    2.167528    9.028855
H         4.710463    2.319502    8.126384
H         6.159916    0.316686    8.017873
H         5.349794   -1.876199    8.953671
H         3.026890   -2.047966    9.844584
H         0.658832    1.474452    7.270558
H         0.735561    1.613780    4.819338
