-1 1
 OpenBabel05192410563D

 97102  0  0  1  0  0  0  0  0999 V2000
    3.5800    3.1618   -2.8620 C   0  0  0  0  0  0  0  0  0  0  0  0
    2.4070    2.4576   -3.4996 C   0  0  0  0  0  0  0  0  0  0  0  0
    2.4486    1.0932   -3.1160 O   0  0  0  0  0  0  0  0  0  0  0  0
    1.3374    0.3632   -3.2007 C   0  0  0  0  0  0  0  0  0  0  0  0
    0.3562    0.5956   -4.1432 C   0  0  0  0  0  0  0  0  0  0  0  0
    1.2074   -0.7277   -2.2569 C   0  0  0  0  0  0  0  0  0  0  0  0
    2.2065   -0.9736   -1.3301 N   0  0  0  0  0  0  0  0  0  0  0  0
    2.5680   -0.1272   -0.1978 C   0  0  0  0  0  0  0  0  0  0  0  0
    3.3157   -0.6952    0.6273 O   0  0  0  0  0  0  0  0  0  0  0  0
    2.0297    1.1528   -0.1721 C   0  0  0  0  0  3  0  0  0  0  0  0
    2.2221    2.1988    0.8392 C   0  0  1  0  0  0  0  0  0  0  0  0
    0.7523    2.3542    2.1045 S   0  0  0  0  0  0  0  0  0  0  0  0
   -0.6326    1.8910    1.0442 C   0  0  0  0  0  0  0  0  0  0  0  0
   -0.8873    2.8119   -0.1706 C   0  0  2  0  0  0  0  0  0  0  0  0
   -0.0899    2.6537   -0.9067 H   0  0  0  0  0  0  0  0  0  0  0  0
   -0.8580    4.2121    0.1487 N   0  0  0  0  0  0  0  0  0  0  0  0
    0.1088    5.0494   -0.3000 C   0  0  0  0  0  0  0  0  0  0  0  0
    0.0836    6.4372    0.3059 C   0  0  0  0  0  0  0  0  0  0  0  0
    0.9652    4.7190   -1.1057 O   0  0  0  0  0  0  0  0  0  0  0  0
   -2.2474    2.4752   -0.7835 C   0  0  0  0  0  0  0  0  0  0  0  0
   -2.2204    1.5461   -1.7723 N   0  0  0  0  0  0  0  0  0  0  0  0
   -3.3991    1.1781   -2.5214 C   0  0  0  0  0  0  0  0  0  0  0  0
   -3.2677    3.0015   -0.3736 O   0  0  0  0  0  0  0  0  0  0  0  0
    3.4817    2.1449    1.7228 C   0  0  0  0  0  0  0  0  0  0  0  0
    4.7068    2.5447    1.0803 N   0  0  0  0  0  0  0  0  0  0  0  0
    5.3735    1.6689    0.1375 C   0  0  0  0  0  0  0  0  0  0  0  0
    6.6209    2.4782   -0.2041 C   0  0  0  0  0  0  0  0  0  0  0  0
    6.0815    3.9161   -0.2767 C   0  0  0  0  0  0  0  0  0  0  0  0
    4.8693    3.9272    0.6804 C   0  0  0  0  0  0  0  0  0  0  0  0
    0.0817   -1.5271   -2.3479 C   0  0  0  0  0  0  0  0  0  0  0  0
   -0.9238   -1.3156   -3.3278 C   0  0  0  0  0  0  0  0  0  0  0  0
   -0.7666   -0.2591   -4.2633 C   0  0  0  0  0  0  0  0  0  0  0  0
   -1.6377   -0.0621   -5.2919 N   0  0  0  0  0  0  0  0  0  0  0  0
   -2.6216   -0.9182   -5.3822 C   0  0  0  0  0  0  0  0  0  0  0  0
   -2.9212   -1.9071   -4.5233 N   0  0  0  0  0  0  0  0  0  0  0  0
   -2.1226   -2.0823   -3.4817 C   0  0  0  0  0  0  0  0  0  0  0  0
   -2.5128   -3.0880   -2.6218 N   0  0  0  0  0  0  0  0  0  0  0  0
   -2.5418   -3.0877   -1.2088 C   0  0  0  0  0  0  0  0  0  0  0  0
   -2.7545   -4.3095   -0.5747 C   0  0  0  0  0  0  0  0  0  0  0  0
   -2.8741   -4.3484    0.8192 C   0  0  0  0  0  0  0  0  0  0  0  0
   -3.0669   -5.4197    1.7675 C   0  0  0  0  0  0  0  0  0  0  0  0
   -3.0608   -4.8666    3.0094 C   0  0  0  0  0  0  0  0  0  0  0  0
   -2.9162   -3.4842    2.9113 N   0  0  0  0  0  0  0  0  0  0  0  0
   -2.3028   -2.5376    4.1959 S   0  0  0  0  0  0  0  0  0  0  0  0
   -2.4941   -3.3632    5.3799 O   0  0  0  0  0  0  0  0  0  0  0  0
   -0.5965   -2.4351    3.7499 C   0  0  0  0  0  0  0  0  0  0  0  0
   -0.0959   -1.2359    3.2448 C   0  0  0  0  0  0  0  0  0  0  0  0
    1.1945   -1.2191    2.7250 C   0  0  0  0  0  0  0  0  0  0  0  0
    1.9627   -2.3820    2.7143 C   0  0  0  0  0  0  0  0  0  0  0  0
    1.4579   -3.5665    3.2572 C   0  0  0  0  0  0  0  0  0  0  0  0
    0.1680   -3.6047    3.7774 C   0  0  0  0  0  0  0  0  0  0  0  0
   -2.9162   -1.2261    4.0867 O   0  0  0  0  0  0  0  0  0  0  0  0
   -2.7720   -3.1529    1.5594 C   0  0  0  0  0  0  0  0  0  0  0  0
   -2.5524   -1.9224    0.9369 C   0  0  0  0  0  0  0  0  0  0  0  0
   -2.4437   -1.9023   -0.4455 C   0  0  0  0  0  0  0  0  0  0  0  0
    3.5659    4.2290   -3.1257 H   0  0  0  0  0  0  0  0  0  0  0  0
    4.5330    2.7195   -3.1883 H   0  0  0  0  0  0  0  0  0  0  0  0
    3.5021    3.0697   -1.7711 H   0  0  0  0  0  0  0  0  0  0  0  0
    2.4340    2.5405   -4.6022 H   0  0  0  0  0  0  0  0  0  0  0  0
    1.4658    2.9101   -3.1409 H   0  0  0  0  0  0  0  0  0  0  0  0
    0.4536    1.3956   -4.8759 H   0  0  0  0  0  0  0  0  0  0  0  0
    2.2477   -1.9353   -1.0114 H   0  0  0  0  0  0  0  0  0  0  0  0
    1.4055    1.4419   -1.0127 H   0  0  0  0  0  0  0  0  0  0  0  0
    2.1678    3.1839    0.3553 H   0  0  0  0  0  0  0  0  0  0  0  0
   -1.5248    1.8783    1.6907 H   0  0  0  0  0  0  0  0  0  0  0  0
   -0.4597    0.8696    0.6648 H   0  0  0  0  0  0  0  0  0  0  0  0
   -1.5690    4.5499    0.7839 H   0  0  0  0  0  0  0  0  0  0  0  0
   -0.9189    6.7429    0.6370 H   0  0  0  0  0  0  0  0  0  0  0  0
    0.4713    7.1544   -0.4277 H   0  0  0  0  0  0  0  0  0  0  0  0
    0.7539    6.4383    1.1788 H   0  0  0  0  0  0  0  0  0  0  0  0
   -1.3178    1.2197   -2.1012 H   0  0  0  0  0  0  0  0  0  0  0  0
   -3.2642    1.3968   -3.5910 H   0  0  0  0  0  0  0  0  0  0  0  0
   -4.2396    1.7640   -2.1292 H   0  0  0  0  0  0  0  0  0  0  0  0
   -3.6371    0.1082   -2.4146 H   0  0  0  0  0  0  0  0  0  0  0  0
    3.6070    1.1198    2.0977 H   0  0  0  0  0  0  0  0  0  0  0  0
    3.3293    2.8105    2.5936 H   0  0  0  0  0  0  0  0  0  0  0  0
    4.7766    1.4642   -0.7742 H   0  0  0  0  0  0  0  0  0  0  0  0
    5.5758    0.6909    0.5974 H   0  0  0  0  0  0  0  0  0  0  0  0
    7.1040    2.1562   -1.1393 H   0  0  0  0  0  0  0  0  0  0  0  0
    7.3575    2.3859    0.6103 H   0  0  0  0  0  0  0  0  0  0  0  0
    5.7521    4.1427   -1.3020 H   0  0  0  0  0  0  0  0  0  0  0  0
    6.8383    4.6685   -0.0079 H   0  0  0  0  0  0  0  0  0  0  0  0
    3.9806    4.3483    0.1648 H   0  0  0  0  0  0  0  0  0  0  0  0
    5.0408    4.5654    1.5692 H   0  0  0  0  0  0  0  0  0  0  0  0
   -0.0301   -2.3328   -1.6214 H   0  0  0  0  0  0  0  0  0  0  0  0
   -3.3021   -0.8109   -6.2360 H   0  0  0  0  0  0  0  0  0  0  0  0
   -3.2711   -3.6163   -3.0413 H   0  0  0  0  0  0  0  0  0  0  0  0
   -2.8209   -5.2249   -1.1670 H   0  0  0  0  0  0  0  0  0  0  0  0
   -3.2022   -6.4749    1.5419 H   0  0  0  0  0  0  0  0  0  0  0  0
   -3.1605   -5.3201    3.9923 H   0  0  0  0  0  0  0  0  0  0  0  0
   -0.7037   -0.3292    3.2429 H   0  0  0  0  0  0  0  0  0  0  0  0
    1.5968   -0.3008    2.2964 H   0  0  0  0  0  0  0  0  0  0  0  0
    2.9447   -2.3288    2.2403 H   0  0  0  0  0  0  0  0  0  0  0  0
    2.0659   -4.4739    3.2590 H   0  0  0  0  0  0  0  0  0  0  0  0
   -0.2505   -4.5288    4.1814 H   0  0  0  0  0  0  0  0  0  0  0  0
   -2.4890   -0.9961    1.5072 H   0  0  0  0  0  0  0  0  0  0  0  0
   -2.2852   -0.9440   -0.9404 H   0  0  0  0  0  0  0  0  0  0  0  0
  1 58  1  0  0  0  0
  2 60  1  0  0  0  0
  2  3  1  0  0  0  0
  2  1  1  0  0  0  0
  4  3  1  0  0  0  0
  4  6  1  0  0  0  0
  5  4  2  0  0  0  0
  6  7  1  0  0  0  0
  7 62  1  0  0  0  0
  7  8  1  0  0  0  0
  8 10  1  0  0  0  0
  8  9  2  0  0  0  0
 10 11  1  0  0  0  0
 11 64  1  6  0  0  0
 11 24  1  0  0  0  0
 11 12  1  0  0  0  0
 13 65  1  0  0  0  0
 13 12  1  0  0  0  0
 14 15  1  6  0  0  0
 14 16  1  0  0  0  0
 14 13  1  0  0  0  0
 16 67  1  0  0  0  0
 17 16  1  0  0  0  0
 17 18  1  0  0  0  0
 18 68  1  0  0  0  0
 18 70  1  0  0  0  0
 19 17  2  0  0  0  0
 20 23  2  0  0  0  0
 20 14  1  0  0  0  0
 21 20  1  0  0  0  0
 22 74  1  0  0  0  0
 22 73  1  0  0  0  0
 22 21  1  0  0  0  0
 24 75  1  0  0  0  0
 24 76  1  0  0  0  0
 25 24  1  0  0  0  0
 26 78  1  0  0  0  0
 26 25  1  0  0  0  0
 27 26  1  0  0  0  0
 27 80  1  0  0  0  0
 28 27  1  0  0  0  0
 28 82  1  0  0  0  0
 28 29  1  0  0  0  0
 29 25  1  0  0  0  0
 29 84  1  0  0  0  0
 30  6  2  0  0  0  0
 30 85  1  0  0  0  0
 31 30  1  0  0  0  0
 32  5  1  0  0  0  0
 32 31  2  0  0  0  0
 33 32  1  0  0  0  0
 34 33  2  0  0  0  0
 34 35  1  0  0  0  0
 35 36  2  0  0  0  0
 36 31  1  0  0  0  0
 36 37  1  0  0  0  0
 37 38  1  0  0  0  0
 38 39  2  0  0  0  0
 38 55  1  0  0  0  0
 39 40  1  0  0  0  0
 40 53  2  0  0  0  0
 40 41  1  0  0  0  0
 41 42  2  0  0  0  0
 42 90  1  0  0  0  0
 43 42  1  0  0  0  0
 43 44  1  0  0  0  0
 44 45  2  0  0  0  0
 46 51  1  0  0  0  0
 46 44  1  0  0  0  0
 47 46  2  0  0  0  0
 48 47  1  0  0  0  0
 49 48  2  0  0  0  0
 49 50  1  0  0  0  0
 50 94  1  0  0  0  0
 50 51  2  0  0  0  0
 51 95  1  0  0  0  0
 52 44  2  0  0  0  0
 53 43  1  0  0  0  0
 54 96  1  0  0  0  0
 54 53  1  0  0  0  0
 55 54  2  0  0  0  0
 56  1  1  0  0  0  0
 57  1  1  0  0  0  0
 59  2  1  0  0  0  0
 61  5  1  0  0  0  0
 63 10  1  0  0  0  0
 66 13  1  0  0  0  0
 69 18  1  0  0  0  0
 71 21  1  0  0  0  0
 72 22  1  0  0  0  0
 77 26  1  0  0  0  0
 79 27  1  0  0  0  0
 81 28  1  0  0  0  0
 83 29  1  0  0  0  0
 86 34  1  0  0  0  0
 87 37  1  0  0  0  0
 88 39  1  0  0  0  0
 89 41  1  0  0  0  0
 91 47  1  0  0  0  0
 92 48  1  0  0  0  0
 93 49  1  0  0  0  0
 97 55  1  0  0  0  0
M  END
