-1 1
 OpenBabel05232413483D

 83 86  0  0  1  0  0  0  0  0999 V2000
   -1.8399   -0.3991    0.0350 O   0  0  0  0  0  0  0  0  0  0  0  0
   -1.1979   -0.9956   -0.8199 C   0  0  0  0  0  0  0  0  0  0  0  0
    0.1785   -1.0777   -0.8291 N   0  0  0  0  0  0  0  0  0  0  0  0
    1.0487   -0.3977    0.0067 C   0  0  0  0  0  0  0  0  0  0  0  0
    0.6383    0.4214    1.0550 C   0  0  0  0  0  0  0  0  0  0  0  0
    2.3581   -0.5820   -0.2886 N   0  0  0  0  0  0  0  0  0  0  0  0
    3.2735    0.0164    0.4251 C   0  0  0  0  0  0  0  0  0  0  0  0
    2.9823    0.8816    1.5127 C   0  0  0  0  0  0  0  0  0  0  0  0
    1.6210    1.0777    1.8167 C   0  0  0  0  0  0  0  0  0  0  0  0
    1.3619    1.9686    2.9303 C   0  0  2  0  0  3  0  0  0  0  0  0
    0.0591    2.1999    3.2697 N   0  0  0  0  0  0  0  0  0  0  0  0
   -0.5075    2.9997    4.2664 C   0  0  0  0  0  0  0  0  0  0  0  0
   -1.9112    3.0288    4.3367 C   0  0  0  0  0  0  0  0  0  0  0  0
   -2.5632    3.7970    5.2920 C   0  0  0  0  0  0  0  0  0  0  0  0
   -1.8181    4.5508    6.1960 C   0  0  0  0  0  0  0  0  0  0  0  0
   -2.4589    5.2869    7.1676 O   0  0  0  0  0  0  0  0  0  0  0  0
   -2.8077    6.5759    6.9114 C   0  0  0  0  0  0  0  0  0  0  0  0
   -2.5436    7.2250    5.7021 C   0  0  0  0  0  0  0  0  0  0  0  0
   -2.9427    8.5519    5.5373 C   0  0  0  0  0  0  0  0  0  0  0  0
   -3.5982    9.2360    6.5580 C   0  0  0  0  0  0  0  0  0  0  0  0
   -3.8566    8.5773    7.7622 C   0  0  0  0  0  0  0  0  0  0  0  0
   -3.4659    7.2555    7.9429 C   0  0  0  0  0  0  0  0  0  0  0  0
   -0.4289    4.5284    6.1404 C   0  0  0  0  0  0  0  0  0  0  0  0
    0.2322    3.7599    5.1849 C   0  0  0  0  0  0  0  0  0  0  0  0
    2.3507    2.5328    3.5849 N   0  0  0  0  0  0  0  0  0  0  0  0
    3.6178    2.2560    3.1860 C   0  0  0  0  0  0  0  0  0  0  0  0
    3.9911    1.4819    2.2099 N   0  0  0  0  0  2  0  0  0  0  0  0
   -1.8677   -1.6914   -1.9430 C   0  0  0  0  0  0  0  0  0  0  0  0
   -1.3293   -1.8038   -3.1610 C   0  0  0  0  0  0  0  0  0  0  0  0
    1.3727   -3.5994   -2.6281 S   0  0  0  0  0  1  0  0  0  0  0  0
    2.1872   -2.5977   -3.9319 C   0  0  0  0  0  0  0  0  0  0  0  0
    2.4892   -3.3692   -5.2347 C   0  0  2  0  0  0  0  0  0  0  0  0
    2.7109   -2.6725   -6.0549 H   0  0  0  0  0  0  0  0  0  0  0  0
    1.3224   -4.1367   -5.6162 N   0  0  0  0  0  0  0  0  0  0  0  0
    0.8328   -4.2162   -6.8751 C   0  0  0  0  0  0  0  0  0  0  0  0
   -0.4368   -5.0437   -7.0139 C   0  0  0  0  0  0  0  0  0  0  0  0
    1.3361   -3.6764   -7.8447 O   0  0  0  0  0  0  0  0  0  0  0  0
    3.7450   -4.2576   -5.1333 C   0  0  0  0  0  0  0  0  0  0  0  0
    3.7368   -5.1332   -4.0971 N   0  0  0  0  0  0  0  0  0  0  0  0
    4.8536   -5.9918   -3.8145 C   0  0  0  0  0  0  0  0  0  0  0  0
    4.6571   -4.1681   -5.9389 O   0  0  0  0  0  0  0  0  0  0  0  0
   -1.9573   -2.5151   -4.3207 C   0  0  0  0  0  0  0  0  0  0  0  0
   -2.9703   -3.4672   -3.9384 N   0  0  0  0  0  0  0  0  0  0  0  0
   -2.4728   -4.6875   -3.3252 C   0  0  0  0  0  0  0  0  0  0  0  0
   -3.7284   -5.5542   -3.2150 C   0  0  0  0  0  0  0  0  0  0  0  0
   -4.6114   -5.0912   -4.3995 C   0  0  0  0  0  0  0  0  0  0  0  0
   -3.8400   -3.9093   -5.0095 C   0  0  0  0  0  0  0  0  0  0  0  0
    0.6270   -1.8032   -1.4350 H   0  0  0  0  0  0  0  0  0  0  0  0
   -0.4325    0.5055    1.2309 H   0  0  0  0  0  0  0  0  0  0  0  0
    4.3243   -0.1548    0.1665 H   0  0  0  0  0  0  0  0  0  0  0  0
   -0.6133    1.7130    2.6920 H   0  0  0  0  0  0  0  0  0  0  0  0
   -2.5000    2.4372    3.6302 H   0  0  0  0  0  0  0  0  0  0  0  0
   -3.6532    3.8176    5.3442 H   0  0  0  0  0  0  0  0  0  0  0  0
   -2.0301    6.6990    4.8964 H   0  0  0  0  0  0  0  0  0  0  0  0
   -2.7333    9.0534    4.5896 H   0  0  0  0  0  0  0  0  0  0  0  0
   -3.9063   10.2740    6.4184 H   0  0  0  0  0  0  0  0  0  0  0  0
   -4.3700    9.0997    8.5730 H   0  0  0  0  0  0  0  0  0  0  0  0
   -3.6589    6.7237    8.8761 H   0  0  0  0  0  0  0  0  0  0  0  0
    0.1406    5.1224    6.8579 H   0  0  0  0  0  0  0  0  0  0  0  0
    1.3178    3.7348    5.1337 H   0  0  0  0  0  0  0  0  0  0  0  0
    4.4041    2.7529    3.7663 H   0  0  0  0  0  0  0  0  0  0  0  0
   -2.8620   -2.0942   -1.7344 H   0  0  0  0  0  0  0  0  0  0  0  0
   -0.3612   -1.3423   -3.3702 H   0  0  0  0  0  0  0  0  0  0  0  0
    3.1254   -2.1642   -3.5518 H   0  0  0  0  0  0  0  0  0  0  0  0
    1.5374   -1.7481   -4.2082 H   0  0  0  0  0  0  0  0  0  0  0  0
    0.8109   -4.5135   -4.8148 H   0  0  0  0  0  0  0  0  0  0  0  0
   -1.2400   -4.3925   -7.3890 H   0  0  0  0  0  0  0  0  0  0  0  0
   -0.7639   -5.5129   -6.0756 H   0  0  0  0  0  0  0  0  0  0  0  0
   -0.2634   -5.8224   -7.7700 H   0  0  0  0  0  0  0  0  0  0  0  0
    3.0005   -5.0006   -3.3908 H   0  0  0  0  0  0  0  0  0  0  0  0
    5.5428   -5.9469   -4.6683 H   0  0  0  0  0  0  0  0  0  0  0  0
    5.3988   -5.6740   -2.9089 H   0  0  0  0  0  0  0  0  0  0  0  0
    4.5285   -7.0352   -3.6694 H   0  0  0  0  0  0  0  0  0  0  0  0
   -1.1390   -2.9876   -4.9071 H   0  0  0  0  0  0  0  0  0  0  0  0
   -2.4132   -1.7611   -4.9880 H   0  0  0  0  0  0  0  0  0  0  0  0
   -1.9754   -4.4833   -2.3672 H   0  0  0  0  0  0  0  0  0  0  0  0
   -1.7127   -5.1787   -3.9734 H   0  0  0  0  0  0  0  0  0  0  0  0
   -4.2369   -5.3625   -2.2588 H   0  0  0  0  0  0  0  0  0  0  0  0
   -3.4912   -6.6271   -3.2521 H   0  0  0  0  0  0  0  0  0  0  0  0
   -5.6025   -4.7709   -4.0467 H   0  0  0  0  0  0  0  0  0  0  0  0
   -4.7721   -5.8869   -5.1415 H   0  0  0  0  0  0  0  0  0  0  0  0
   -4.4946   -3.0906   -5.3500 H   0  0  0  0  0  0  0  0  0  0  0  0
   -3.2548   -4.2522   -5.8932 H   0  0  0  0  0  0  0  0  0  0  0  0
  2  1  2  0  0  0  0
  3  2  1  0  0  0  0
  3  4  1  0  0  0  0
  4  5  1  0  0  0  0
  5 49  1  0  0  0  0
  5  9  2  0  0  0  0
  6  4  2  0  0  0  0
  6  7  1  0  0  0  0
  7  8  2  0  0  0  0
  8  9  1  0  0  0  0
  8 27  1  0  0  0  0
  9 10  1  0  0  0  0
 10 11  1  6  0  0  0
 10 25  1  0  0  0  0
 11 12  1  0  0  0  0
 12 13  2  0  0  0  0
 12 24  1  0  0  0  0
 13 14  1  0  0  0  0
 14 53  1  0  0  0  0
 14 15  2  0  0  0  0
 15 16  1  0  0  0  0
 17 16  1  0  0  0  0
 17 22  1  0  0  0  0
 18 17  2  0  0  0  0
 19 18  1  0  0  0  0
 19 20  2  0  0  0  0
 20 21  1  0  0  0  0
 21 22  2  0  0  0  0
 21 57  1  0  0  0  0
 22 58  1  0  0  0  0
 23 15  1  0  0  0  0
 23 59  1  0  0  0  0
 24 23  2  0  0  0  0
 26 25  2  0  0  0  0
 26 61  1  0  0  0  0
 27 26  1  0  0  0  0
 28 62  1  0  0  0  0
 28  2  1  0  0  0  0
 29 28  2  0  0  0  0
 31 64  1  0  0  0  0
 31 30  1  0  0  0  0
 32 33  1  6  0  0  0
 32 38  1  0  0  0  0
 32 31  1  0  0  0  0
 34 32  1  0  0  0  0
 34 66  1  0  0  0  0
 35 34  1  0  0  0  0
 36 35  1  0  0  0  0
 36 68  1  0  0  0  0
 37 35  2  0  0  0  0
 38 39  1  0  0  0  0
 39 40  1  0  0  0  0
 39 70  1  0  0  0  0
 40 73  1  0  0  0  0
 40 72  1  0  0  0  0
 41 38  2  0  0  0  0
 42 43  1  0  0  0  0
 42 29  1  0  0  0  0
 43 44  1  0  0  0  0
 44 45  1  0  0  0  0
 44 76  1  0  0  0  0
 45 78  1  0  0  0  0
 46 80  1  0  0  0  0
 46 45  1  0  0  0  0
 47 46  1  0  0  0  0
 47 43  1  0  0  0  0
 48  3  1  0  0  0  0
 50  7  1  0  0  0  0
 51 11  1  0  0  0  0
 52 13  1  0  0  0  0
 54 18  1  0  0  0  0
 55 19  1  0  0  0  0
 56 20  1  0  0  0  0
 60 24  1  0  0  0  0
 63 29  1  0  0  0  0
 65 31  1  0  0  0  0
 67 36  1  0  0  0  0
 69 36  1  0  0  0  0
 71 40  1  0  0  0  0
 74 42  1  0  0  0  0
 75 42  1  0  0  0  0
 77 44  1  0  0  0  0
 79 45  1  0  0  0  0
 81 46  1  0  0  0  0
 82 47  1  0  0  0  0
 83 47  1  0  0  0  0
M  END
