-1 1
 OpenBabel05232414493D

 83 87  0  0  1  0  0  0  0  0999 V2000
    1.8322    4.8912    9.2177 O   0  0  0  0  0  0  0  0  0  0  0  0
    2.4329    4.5086    8.2035 C   0  0  0  0  0  0  0  0  0  0  0  0
    3.8292    4.7958    8.0643 N   0  0  0  0  0  0  0  0  0  0  0  0
    4.6070    5.5894    8.8523 C   0  0  0  0  0  0  0  0  0  0  0  0
    4.1167    6.3357    9.9307 C   0  0  0  0  0  0  0  0  0  0  0  0
    5.9237    5.6208    8.5046 N   0  0  0  0  0  0  0  0  0  0  0  0
    6.7530    6.3749    9.1791 C   0  0  0  0  0  0  0  0  0  0  0  0
    6.3710    7.1863   10.2763 C   0  0  0  0  0  0  0  0  0  0  0  0
    5.0093    7.1424   10.6453 C   0  0  0  0  0  0  0  0  0  0  0  0
    4.6587    7.9720   11.7829 C   0  0  2  0  0  3  0  0  0  0  0  0
    3.3526    7.9567   12.1894 N   0  0  0  0  0  0  0  0  0  0  0  0
    2.7013    8.6294   13.2231 C   0  0  0  0  0  0  0  0  0  0  0  0
    1.3250    8.3837   13.3782 C   0  0  0  0  0  0  0  0  0  0  0  0
    0.5948    9.0124   14.3779 C   0  0  0  0  0  0  0  0  0  0  0  0
    1.2313    9.8997   15.2426 C   0  0  0  0  0  0  0  0  0  0  0  0
    0.5179   10.4998   16.2587 O   0  0  0  0  0  0  0  0  0  0  0  0
   -0.0836   11.6974   16.0379 C   0  0  0  0  0  0  0  0  0  0  0  0
   -0.0253   12.3830   14.8208 C   0  0  0  0  0  0  0  0  0  0  0  0
   -0.6785   13.6095   14.6950 C   0  0  0  0  0  0  0  0  0  0  0  0
   -1.3856   14.1592   15.7616 C   0  0  0  0  0  0  0  0  0  0  0  0
   -1.4371   13.4658   16.9730 C   0  0  0  0  0  0  0  0  0  0  0  0
   -0.7921   12.2427   17.1153 C   0  0  0  0  0  0  0  0  0  0  0  0
    2.5920   10.1496   15.1041 C   0  0  0  0  0  0  0  0  0  0  0  0
    3.3315    9.5228   14.1038 C   0  0  0  0  0  0  0  0  0  0  0  0
    5.5607    8.7044   12.3917 N   0  0  0  0  0  0  0  0  0  0  0  0
    6.8378    8.6566   11.9263 C   0  0  0  0  0  0  0  0  0  0  0  0
    7.2919    7.9572   10.9300 N   0  0  0  0  0  2  0  0  0  0  0  0
    1.8780    3.7876    7.1226 C   0  0  0  0  0  3  0  0  0  0  0  0
    2.5311    3.5534    5.8683 C   0  0  1  0  0  0  0  0  0  0  0  0
    4.0688    2.1461    5.9979 S   0  0  0  0  0  0  0  0  0  0  0  0
    5.0874    2.5726    4.5477 C   0  0  0  0  0  0  0  0  0  0  0  0
    5.2526    1.4197    3.5416 C   0  0  2  0  0  0  0  0  0  0  0  0
    5.6648    1.8133    2.5999 H   0  0  0  0  0  0  0  0  0  0  0  0
    3.9735    0.8180    3.2513 N   0  0  0  0  0  0  0  0  0  0  0  0
    3.5900    0.4422    2.0000 C   0  0  0  0  0  0  0  0  0  0  0  0
    2.1414    0.0074    1.8774 C   0  0  0  0  0  0  0  0  0  0  0  0
    4.3373    0.4625    1.0407 O   0  0  0  0  0  0  0  0  0  0  0  0
    6.3168    0.4357    4.0507 C   0  0  0  0  0  0  0  0  0  0  0  0
    5.8697   -0.8053    4.3617 N   0  0  0  0  0  0  0  0  0  0  0  0
    6.7202   -1.8220    4.9189 C   0  0  0  0  0  0  0  0  0  0  0  0
    7.4753    0.7897    4.1672 O   0  0  0  0  0  0  0  0  0  0  0  0
    1.6194    3.1537    4.7146 C   0  0  0  0  0  0  0  0  0  0  0  0
    0.5875    2.2039    5.0356 N   0  0  0  0  0  0  0  0  0  0  0  0
    0.9011    0.9334    5.6460 C   0  0  0  0  0  0  0  0  0  0  0  0
   -0.4712    0.2729    5.7168 C   0  0  0  0  0  0  0  0  0  0  0  0
   -1.1084    0.6764    4.3784 C   0  0  0  0  0  0  0  0  0  0  0  0
   -0.4196    2.0087    4.0136 C   0  0  0  0  0  0  0  0  0  0  0  0
    4.3555    4.2240    7.4053 H   0  0  0  0  0  0  0  0  0  0  0  0
    3.0560    6.2086   10.1521 H   0  0  0  0  0  0  0  0  0  0  0  0
    7.8074    6.3797    8.8783 H   0  0  0  0  0  0  0  0  0  0  0  0
    2.7599    7.3455   11.6419 H   0  0  0  0  0  0  0  0  0  0  0  0
    0.8230    7.6853   12.7030 H   0  0  0  0  0  0  0  0  0  0  0  0
   -0.4729    8.8188   14.4954 H   0  0  0  0  0  0  0  0  0  0  0  0
    0.5261   11.9613   13.9796 H   0  0  0  0  0  0  0  0  0  0  0  0
   -0.6289   14.1393   13.7408 H   0  0  0  0  0  0  0  0  0  0  0  0
   -1.8932   15.1195   15.6520 H   0  0  0  0  0  0  0  0  0  0  0  0
   -1.9876   13.8828   17.8198 H   0  0  0  0  0  0  0  0  0  0  0  0
   -0.8209   11.6857   18.0534 H   0  0  0  0  0  0  0  0  0  0  0  0
    3.0768   10.8453   15.7919 H   0  0  0  0  0  0  0  0  0  0  0  0
    4.3966    9.7082   13.9870 H   0  0  0  0  0  0  0  0  0  0  0  0
    7.5507    9.2878   12.4703 H   0  0  0  0  0  0  0  0  0  0  0  0
    0.8648    3.4112    7.2653 H   0  0  0  0  0  0  0  0  0  0  0  0
    3.1900    4.3659    5.5237 H   0  0  0  0  0  0  0  0  0  0  0  0
    6.0880    2.8962    4.8647 H   0  0  0  0  0  0  0  0  0  0  0  0
    4.6057    3.4253    4.0389 H   0  0  0  0  0  0  0  0  0  0  0  0
    3.2971    0.8793    4.0119 H   0  0  0  0  0  0  0  0  0  0  0  0
    1.5746    0.8176    1.3942 H   0  0  0  0  0  0  0  0  0  0  0  0
    1.6679   -0.2160    2.8431 H   0  0  0  0  0  0  0  0  0  0  0  0
    2.0911   -0.8718    1.2219 H   0  0  0  0  0  0  0  0  0  0  0  0
    4.8777   -0.9717    4.2618 H   0  0  0  0  0  0  0  0  0  0  0  0
    7.7418   -1.4214    4.9443 H   0  0  0  0  0  0  0  0  0  0  0  0
    6.4197   -2.0828    5.9465 H   0  0  0  0  0  0  0  0  0  0  0  0
    6.7117   -2.7370    4.3048 H   0  0  0  0  0  0  0  0  0  0  0  0
    2.2322    2.8233    3.8439 H   0  0  0  0  0  0  0  0  0  0  0  0
    1.1104    4.0792    4.3891 H   0  0  0  0  0  0  0  0  0  0  0  0
    1.3782    1.0749    6.6260 H   0  0  0  0  0  0  0  0  0  0  0  0
    1.5946    0.3014    5.0398 H   0  0  0  0  0  0  0  0  0  0  0  0
   -1.0341    0.7029    6.5590 H   0  0  0  0  0  0  0  0  0  0  0  0
   -0.4211   -0.8166    5.8599 H   0  0  0  0  0  0  0  0  0  0  0  0
   -2.2023    0.7699    4.4402 H   0  0  0  0  0  0  0  0  0  0  0  0
   -0.8939   -0.0839    3.6105 H   0  0  0  0  0  0  0  0  0  0  0  0
   -1.1207    2.8625    3.9952 H   0  0  0  0  0  0  0  0  0  0  0  0
    0.0236    1.9472    2.9941 H   0  0  0  0  0  0  0  0  0  0  0  0
  2  1  2  0  0  0  0
  3  2  1  0  0  0  0
  3  4  1  0  0  0  0
  4  5  1  0  0  0  0
  5 49  1  0  0  0  0
  5  9  2  0  0  0  0
  6  4  2  0  0  0  0
  6  7  1  0  0  0  0
  7  8  2  0  0  0  0
  8  9  1  0  0  0  0
  8 27  1  0  0  0  0
  9 10  1  0  0  0  0
 10 11  1  6  0  0  0
 10 25  1  0  0  0  0
 11 12  1  0  0  0  0
 12 13  2  0  0  0  0
 12 24  1  0  0  0  0
 13 14  1  0  0  0  0
 14 53  1  0  0  0  0
 14 15  2  0  0  0  0
 15 16  1  0  0  0  0
 17 16  1  0  0  0  0
 17 22  1  0  0  0  0
 18 17  2  0  0  0  0
 19 18  1  0  0  0  0
 19 20  2  0  0  0  0
 20 21  1  0  0  0  0
 21 22  2  0  0  0  0
 21 57  1  0  0  0  0
 22 58  1  0  0  0  0
 23 15  1  0  0  0  0
 23 59  1  0  0  0  0
 24 23  2  0  0  0  0
 26 25  2  0  0  0  0
 26 61  1  0  0  0  0
 27 26  1  0  0  0  0
 28 62  1  0  0  0  0
 28  2  1  0  0  0  0
 29 63  1  6  0  0  0
 29 30  1  0  0  0  0
 29 28  1  0  0  0  0
 31 64  1  0  0  0  0
 31 30  1  0  0  0  0
 32 33  1  6  0  0  0
 32 38  1  0  0  0  0
 32 31  1  0  0  0  0
 34 32  1  0  0  0  0
 34 66  1  0  0  0  0
 35 34  1  0  0  0  0
 36 35  1  0  0  0  0
 36 68  1  0  0  0  0
 37 35  2  0  0  0  0
 38 41  2  0  0  0  0
 38 39  1  0  0  0  0
 39 40  1  0  0  0  0
 40 71  1  0  0  0  0
 40 72  1  0  0  0  0
 42 43  1  0  0  0  0
 42 29  1  0  0  0  0
 43 44  1  0  0  0  0
 44 45  1  0  0  0  0
 44 76  1  0  0  0  0
 45 79  1  0  0  0  0
 45 78  1  0  0  0  0
 46 80  1  0  0  0  0
 46 45  1  0  0  0  0
 47 46  1  0  0  0  0
 47 43  1  0  0  0  0
 48  3  1  0  0  0  0
 50  7  1  0  0  0  0
 51 11  1  0  0  0  0
 52 13  1  0  0  0  0
 54 18  1  0  0  0  0
 55 19  1  0  0  0  0
 56 20  1  0  0  0  0
 60 24  1  0  0  0  0
 65 31  1  0  0  0  0
 67 36  1  0  0  0  0
 69 36  1  0  0  0  0
 70 39  1  0  0  0  0
 73 40  1  0  0  0  0
 74 42  1  0  0  0  0
 75 42  1  0  0  0  0
 77 44  1  0  0  0  0
 81 46  1  0  0  0  0
 82 47  1  0  0  0  0
 83 47  1  0  0  0  0
M  END
