83
-1 1
O         1.832208    4.891190    9.217656
C         2.432933    4.508552    8.203480
N         3.829227    4.795768    8.064305
C         4.606991    5.589445    8.852265
C         4.116661    6.335707    9.930719
N         5.923701    5.620793    8.504632
C         6.753041    6.374939    9.179104
C         6.371035    7.186328   10.276330
C         5.009332    7.142416   10.645288
C         4.658695    7.972000   11.782933
N         3.352562    7.956720   12.189388
C         2.701279    8.629370   13.223104
C         1.325021    8.383692   13.378176
C         0.594788    9.012407   14.377858
C         1.231334    9.899725   15.242597
O         0.517855   10.499804   16.258684
C        -0.083575   11.697440   16.037950
C        -0.025339   12.382974   14.820840
C        -0.678514   13.609482   14.695000
C        -1.385589   14.159208   15.761624
C        -1.437097   13.465831   16.973024
C        -0.792070   12.242723   17.115322
C         2.592047   10.149590   15.104063
C         3.331530    9.522816   14.103751
N         5.560666    8.704352   12.391656
C         6.837757    8.656641   11.926333
N         7.291871    7.957211   10.930011
C         1.878036    3.787584    7.122551
C         2.531122    3.553376    5.868339
S         4.068802    2.146107    5.997947
C         5.087448    2.572581    4.547707
C         5.252629    1.419701    3.541634
H         5.664814    1.813312    2.599900
N         3.973505    0.818027    3.251345
C         3.590033    0.442246    1.999959
C         2.141399    0.007386    1.877401
O         4.337348    0.462474    1.040749
C         6.316758    0.435671    4.050725
N         5.869666   -0.805304    4.361650
C         6.720223   -1.822018    4.918884
O         7.475329    0.789719    4.167226
C         1.619435    3.153715    4.714616
N         0.587522    2.203938    5.035635
C         0.901063    0.933384    5.646011
C        -0.471171    0.272885    5.716751
C        -1.108434    0.676388    4.378369
C        -0.419622    2.008708    4.013648
H         4.355488    4.224033    7.405297
H         3.056042    6.208596   10.152128
H         7.807354    6.379662    8.878331
H         2.759938    7.345486   11.641932
H         0.822999    7.685344   12.703041
H        -0.472919    8.818846   14.495370
H         0.526059   11.961281   13.979585
H        -0.628926   14.139331   13.740793
H        -1.893167   15.119521   15.651966
H        -1.987628   13.882844   17.819769
H        -0.820905   11.685694   18.053371
H         3.076831   10.845276   15.791942
H         4.396582    9.708234   13.987029
H         7.550732    9.287788   12.470298
H         0.864818    3.411199    7.265252
H         3.190013    4.365873    5.523695
H         6.087975    2.896150    4.864686
H         4.605742    3.425283    4.038928
H         3.297054    0.879285    4.011857
H         1.574608    0.817630    1.394215
H         1.667895   -0.216022    2.843058
H         2.091085   -0.871775    1.221930
H         4.877679   -0.971745    4.261849
H         7.741836   -1.421407    4.944259
H         6.419726   -2.082828    5.946486
H         6.711726   -2.737024    4.304762
H         2.232158    2.823311    3.843931
H         1.110373    4.079211    4.389120
H         1.378222    1.074878    6.626028
H         1.594641    0.301431    5.039800
H        -1.034053    0.702928    6.558999
H        -0.421076   -0.816623    5.859894
H        -2.202312    0.769907    4.440179
H        -0.893858   -0.083863    3.610457
H        -1.120667    2.862472    3.995219
H         0.023581    1.947239    2.994108
