-1 1
 OpenBabel05232414493D

105109  0  0  1  0  0  0  0  0999 V2000
    6.4315    3.5555   11.9042 C   0  0  0  0  0  0  0  0  0  0  0  0
    5.8732    2.1655   11.6454 C   0  0  0  0  0  0  0  0  0  0  0  0
    6.7170    1.3847   10.8293 O   0  0  0  0  0  0  0  0  0  0  0  0
    7.7909    0.7663   11.3548 C   0  0  0  0  0  0  0  0  0  0  0  0
    8.1611    0.8075   12.6873 C   0  0  0  0  0  0  0  0  0  0  0  0
    8.5577   -0.0041   10.4235 C   0  0  0  0  0  0  0  0  0  0  0  0
    8.1323   -0.1351    9.0883 N   0  0  0  0  0  0  0  0  0  0  0  0
    7.9282   -1.3310    8.3913 C   0  0  0  0  0  0  0  0  0  0  0  0
    8.0698   -1.3161    7.1651 O   0  0  0  0  0  0  0  0  0  0  0  0
    7.5121   -2.4786    9.1709 C   0  0  0  0  0  3  0  0  0  0  0  0
    7.2794   -3.6993    8.5892 C   0  0  0  0  0  3  0  0  0  0  0  0
    9.4888   -5.1390    8.6422 S   0  0  0  0  0  1  0  0  0  0  0  0
   10.4497   -3.6701    9.0240 C   0  0  0  0  0  0  0  0  0  0  0  0
   11.3694   -3.1715    7.8997 C   0  0  2  0  0  0  0  0  0  0  0  0
   10.8281   -3.2494    6.9427 H   0  0  0  0  0  0  0  0  0  0  0  0
   12.5632   -3.9789    7.8613 N   0  0  0  0  0  0  0  0  0  0  0  0
   13.5730   -3.7470    6.9927 C   0  0  0  0  0  0  0  0  0  0  0  0
   14.7639   -4.6790    7.1216 C   0  0  0  0  0  0  0  0  0  0  0  0
   13.5530   -2.8315    6.1873 O   0  0  0  0  0  0  0  0  0  0  0  0
   11.6998   -1.6991    8.1471 C   0  0  0  0  0  0  0  0  0  0  0  0
   10.9343   -0.8205    7.4802 N   0  0  0  0  0  0  0  0  0  0  0  0
   11.0684    0.5959    7.7033 C   0  0  0  0  0  0  0  0  0  0  0  0
   12.5335   -1.3265    8.9765 O   0  0  0  0  0  0  0  0  0  0  0  0
    6.3768   -4.6989    9.2796 C   0  0  0  0  0  0  0  0  0  0  0  0
    6.3602   -6.0609    8.7807 N   0  0  0  0  0  0  0  0  0  0  0  0
    6.2688   -7.1157    9.7928 C   0  0  2  0  0  0  0  0  0  0  0  0
    6.4778   -8.0543    9.2443 H   0  0  0  0  0  0  0  0  0  0  0  0
    4.8438   -7.2377   10.3635 C   0  0  0  0  0  0  0  0  0  0  0  0
    3.8219   -7.4647    9.2500 C   0  0  0  0  0  0  0  0  0  0  0  0
    3.9809   -6.4274    8.1385 C   0  0  0  0  0  0  0  0  0  0  0  0
    5.4475   -6.3393    7.6739 C   0  0  1  0  0  0  0  0  0  0  0  0
    5.7263   -7.3487    7.3145 H   0  0  0  0  0  0  0  0  0  0  0  0
    5.6132   -5.3931    6.4919 C   0  0  0  0  0  0  0  0  0  0  0  0
    7.3185   -7.0095   10.8935 C   0  0  0  0  0  0  0  0  0  0  0  0
    9.7040   -0.6252   10.8635 C   0  0  0  0  0  0  0  0  0  0  0  0
   10.1020   -0.5928   12.2149 C   0  0  0  0  0  0  0  0  0  0  0  0
    9.2943    0.0929   13.1499 C   0  0  0  0  0  0  0  0  0  0  0  0
    9.5607    0.0521   14.4884 N   0  0  0  0  0  0  0  0  0  0  0  0
   10.5653   -0.7087   14.8398 C   0  0  0  0  0  0  0  0  0  0  0  0
   11.4158   -1.3933   14.0524 N   0  0  0  0  0  0  0  0  0  0  0  0
   11.2429   -1.3015   12.7422 C   0  0  0  0  0  0  0  0  0  0  0  0
   12.1252   -1.8814   11.8859 N   0  0  0  0  0  0  0  0  0  0  0  0
   12.9348   -3.0169   12.0819 C   0  0  0  0  0  0  0  0  0  0  0  0
   12.8787   -3.8339   13.2020 C   0  0  0  0  0  0  0  0  0  0  0  0
   13.5697   -5.0620   13.1532 C   0  0  0  0  0  0  0  0  0  0  0  0
   13.6340   -6.2304   13.9774 C   0  0  0  0  0  0  0  0  0  0  0  0
   14.3090   -7.1934   13.3890 N   0  0  0  0  0  0  0  0  0  0  0  0
   14.7391   -6.7063   12.2103 N   0  0  0  0  0  0  0  0  0  0  0  0
   15.3338   -7.5740   11.2262 C   0  0  0  0  0  0  0  0  0  0  0  0
   14.5090   -7.7377    9.9587 C   0  0  0  0  0  0  0  0  0  0  0  0
   15.1276   -8.2264    8.8031 C   0  0  0  0  0  0  0  0  0  0  0  0
   14.4051   -8.3828    7.6209 C   0  0  0  0  0  0  0  0  0  0  0  0
   13.0578   -8.0257    7.5725 C   0  0  0  0  0  0  0  0  0  0  0  0
   12.4296   -7.5343    8.7170 C   0  0  0  0  0  0  0  0  0  0  0  0
   13.1507   -7.4070    9.9052 C   0  0  0  0  0  0  0  0  0  0  0  0
   14.3203   -5.4181   12.0192 C   0  0  0  0  0  0  0  0  0  0  0  0
   14.4561   -4.5503   10.9237 C   0  0  0  0  0  0  0  0  0  0  0  0
   13.7599   -3.3652   10.9720 C   0  0  0  0  0  0  0  0  0  0  0  0
    5.7124    4.1491   12.4885 H   0  0  0  0  0  0  0  0  0  0  0  0
    6.6172    4.0731   10.9519 H   0  0  0  0  0  0  0  0  0  0  0  0
    7.3776    3.5157   12.4625 H   0  0  0  0  0  0  0  0  0  0  0  0
    4.9273    2.2354   11.0894 H   0  0  0  0  0  0  0  0  0  0  0  0
    5.6562    1.6379   12.5905 H   0  0  0  0  0  0  0  0  0  0  0  0
    7.5874    1.3471   13.4397 H   0  0  0  0  0  0  0  0  0  0  0  0
    8.2020    0.6770    8.4868 H   0  0  0  0  0  0  0  0  0  0  0  0
    7.3360   -2.3384   10.2415 H   0  0  0  0  0  0  0  0  0  0  0  0
    7.3893   -3.7549    7.5080 H   0  0  0  0  0  0  0  0  0  0  0  0
   11.0538   -3.7889    9.9406 H   0  0  0  0  0  0  0  0  0  0  0  0
    9.7120   -2.8761    9.2415 H   0  0  0  0  0  0  0  0  0  0  0  0
   12.5832   -4.7971    8.4588 H   0  0  0  0  0  0  0  0  0  0  0  0
   15.0848   -4.9849    6.1170 H   0  0  0  0  0  0  0  0  0  0  0  0
   14.5577   -5.5729    7.7258 H   0  0  0  0  0  0  0  0  0  0  0  0
   15.5928   -4.1167    7.5783 H   0  0  0  0  0  0  0  0  0  0  0  0
   10.1039   -1.1507    6.9858 H   0  0  0  0  0  0  0  0  0  0  0  0
   10.8364    0.8753    8.7452 H   0  0  0  0  0  0  0  0  0  0  0  0
   10.3822    1.1240    7.0288 H   0  0  0  0  0  0  0  0  0  0  0  0
   12.0981    0.9219    7.4947 H   0  0  0  0  0  0  0  0  0  0  0  0
    5.3593   -4.2473    9.2540 H   0  0  0  0  0  0  0  0  0  0  0  0
    6.6533   -4.7073   10.3419 H   0  0  0  0  0  0  0  0  0  0  0  0
    4.6040   -6.3088   10.9127 H   0  0  0  0  0  0  0  0  0  0  0  0
    4.8015   -8.0578   11.1002 H   0  0  0  0  0  0  0  0  0  0  0  0
    2.7943   -7.4560    9.6502 H   0  0  0  0  0  0  0  0  0  0  0  0
    3.9816   -8.4717    8.8221 H   0  0  0  0  0  0  0  0  0  0  0  0
    3.6558   -5.4353    8.4999 H   0  0  0  0  0  0  0  0  0  0  0  0
    3.3302   -6.6755    7.2831 H   0  0  0  0  0  0  0  0  0  0  0  0
    6.6642   -5.3537    6.1734 H   0  0  0  0  0  0  0  0  0  0  0  0
    5.2850   -4.3703    6.7318 H   0  0  0  0  0  0  0  0  0  0  0  0
    5.0021   -5.7464    5.6468 H   0  0  0  0  0  0  0  0  0  0  0  0
    8.2935   -6.7315   10.4667 H   0  0  0  0  0  0  0  0  0  0  0  0
    7.4021   -7.9745   11.4173 H   0  0  0  0  0  0  0  0  0  0  0  0
    7.0530   -6.2540   11.6501 H   0  0  0  0  0  0  0  0  0  0  0  0
   10.2787   -1.1962   10.1410 H   0  0  0  0  0  0  0  0  0  0  0  0
   10.7595   -0.7987   15.9165 H   0  0  0  0  0  0  0  0  0  0  0  0
   12.1073   -1.5684   10.9124 H   0  0  0  0  0  0  0  0  0  0  0  0
   12.2764   -3.5489   14.0615 H   0  0  0  0  0  0  0  0  0  0  0  0
   13.1871   -6.3961   14.9566 H   0  0  0  0  0  0  0  0  0  0  0  0
   15.4676   -8.5431   11.7282 H   0  0  0  0  0  0  0  0  0  0  0  0
   16.3380   -7.2023   10.9588 H   0  0  0  0  0  0  0  0  0  0  0  0
   16.1925   -8.4783    8.8250 H   0  0  0  0  0  0  0  0  0  0  0  0
   14.9056   -8.7610    6.7262 H   0  0  0  0  0  0  0  0  0  0  0  0
   12.4957   -8.1111    6.6402 H   0  0  0  0  0  0  0  0  0  0  0  0
   11.3850   -7.2043    8.6843 H   0  0  0  0  0  0  0  0  0  0  0  0
   12.6442   -7.0188   10.7914 H   0  0  0  0  0  0  0  0  0  0  0  0
   15.0402   -4.8180   10.0425 H   0  0  0  0  0  0  0  0  0  0  0  0
   13.7669   -2.6941   10.1104 H   0  0  0  0  0  0  0  0  0  0  0  0
  1 61  1  0  0  0  0
  1 59  1  0  0  0  0
  2  1  1  0  0  0  0
  2 63  1  0  0  0  0
  3  4  1  0  0  0  0
  3  2  1  0  0  0  0
  4  5  1  0  0  0  0
  5 37  2  0  0  0  0
  5 64  1  0  0  0  0
  6 35  1  0  0  0  0
  6  4  2  0  0  0  0
  7  6  1  0  0  0  0
  8  7  1  0  0  0  0
  8 10  1  0  0  0  0
  9  8  2  0  0  0  0
 10 66  1  0  0  0  0
 11 10  1  0  0  0  0
 11 24  1  0  0  0  0
 12 13  1  0  0  0  0
 13 69  1  0  0  0  0
 13 68  1  0  0  0  0
 14 15  1  6  0  0  0
 14 20  1  0  0  0  0
 14 13  1  0  0  0  0
 16 14  1  0  0  0  0
 16 70  1  0  0  0  0
 17 18  1  0  0  0  0
 17 16  1  0  0  0  0
 18 73  1  0  0  0  0
 18 72  1  0  0  0  0
 19 17  2  0  0  0  0
 20 23  2  0  0  0  0
 21 22  1  0  0  0  0
 21 20  1  0  0  0  0
 22 75  1  0  0  0  0
 24 79  1  0  0  0  0
 25 24  1  0  0  0  0
 25 26  1  0  0  0  0
 26 27  1  6  0  0  0
 26 28  1  0  0  0  0
 26 34  1  0  0  0  0
 28 80  1  0  0  0  0
 28 81  1  0  0  0  0
 29 82  1  0  0  0  0
 29 28  1  0  0  0  0
 30 84  1  0  0  0  0
 30 29  1  0  0  0  0
 31 32  1  6  0  0  0
 31 30  1  0  0  0  0
 31 25  1  0  0  0  0
 33 87  1  0  0  0  0
 33 31  1  0  0  0  0
 34 90  1  0  0  0  0
 34 91  1  0  0  0  0
 35 36  2  0  0  0  0
 36 41  1  0  0  0  0
 36 37  1  0  0  0  0
 37 38  1  0  0  0  0
 38 39  2  0  0  0  0
 39 93  1  0  0  0  0
 40 39  1  0  0  0  0
 41 40  2  0  0  0  0
 42 43  1  0  0  0  0
 42 41  1  0  0  0  0
 43 44  1  0  0  0  0
 44 95  1  0  0  0  0
 45 44  2  0  0  0  0
 45 46  1  0  0  0  0
 46 96  1  0  0  0  0
 47 46  2  0  0  0  0
 48 47  1  0  0  0  0
 49 97  1  0  0  0  0
 49 48  1  0  0  0  0
 50 49  1  0  0  0  0
 51 99  1  0  0  0  0
 51 50  2  0  0  0  0
 52 51  1  0  0  0  0
 53 52  2  0  0  0  0
 53 54  1  0  0  0  0
 54 55  2  0  0  0  0
 55 50  1  0  0  0  0
 55103  1  0  0  0  0
 56 48  1  0  0  0  0
 56 45  1  0  0  0  0
 57 58  1  0  0  0  0
 57 56  2  0  0  0  0
 58 43  2  0  0  0  0
 60  1  1  0  0  0  0
 62  2  1  0  0  0  0
 65  7  1  0  0  0  0
 67 11  1  0  0  0  0
 71 18  1  0  0  0  0
 74 21  1  0  0  0  0
 76 22  1  0  0  0  0
 77 22  1  0  0  0  0
 78 24  1  0  0  0  0
 83 29  1  0  0  0  0
 85 30  1  0  0  0  0
 86 33  1  0  0  0  0
 88 33  1  0  0  0  0
 89 34  1  0  0  0  0
 92 35  1  0  0  0  0
 94 42  1  0  0  0  0
 98 49  1  0  0  0  0
100 52  1  0  0  0  0
101 53  1  0  0  0  0
102 54  1  0  0  0  0
104 57  1  0  0  0  0
105 58  1  0  0  0  0
M  END
