-1 1
 OpenBabel05232413483D

 89 92  0  0  1  0  0  0  0  0999 V2000
   -5.9137    1.2290    4.1005 C   0  0  0  0  0  0  0  0  0  0  0  0
   -5.9094    1.5480    2.6938 N   0  0  0  0  0  0  0  0  0  0  0  0
   -5.0004    2.6243    2.3210 C   0  0  0  0  0  0  0  0  0  0  0  0
   -3.5340    2.1697    2.2673 C   0  0  0  0  0  0  0  0  0  0  0  0
   -3.3338    1.0060    1.4129 N   0  0  0  0  0  0  0  0  0  0  0  0
   -4.2548   -0.0663    1.7670 C   0  0  0  0  0  0  0  0  0  0  0  0
   -5.7175    0.4019    1.8098 C   0  0  0  0  0  0  0  0  0  0  0  0
   -3.3130    1.3056   -0.0104 C   0  0  0  0  0  0  0  0  0  0  0  0
   -2.0865    2.0624   -0.4022 C   0  0  0  0  0  0  0  0  0  0  0  0
   -2.0995   -1.1146   -2.6535 S   0  0  0  0  0  1  0  0  0  0  0  0
   -2.7762    0.1209   -3.8102 C   0  0  0  0  0  0  0  0  0  0  0  0
   -4.0734    0.7951   -3.3183 C   0  0  2  0  0  0  0  0  0  0  0  0
   -3.8243    1.4578   -2.4781 H   0  0  0  0  0  0  0  0  0  0  0  0
   -5.0062   -0.2015   -2.8697 N   0  0  0  0  0  0  0  0  0  0  0  0
   -6.0027    0.0904   -2.0084 C   0  0  0  0  0  0  0  0  0  0  0  0
   -6.7104   -1.1193   -1.4243 C   0  0  0  0  0  0  0  0  0  0  0  0
   -6.2989    1.2323   -1.6815 O   0  0  0  0  0  0  0  0  0  0  0  0
   -4.6598    1.6797   -4.4196 C   0  0  0  0  0  0  0  0  0  0  0  0
   -3.9971    2.8693   -4.5419 N   0  0  0  0  0  0  0  0  0  0  0  0
   -4.3026    3.8280   -5.5679 C   0  0  0  0  0  0  0  0  0  0  0  0
   -5.5831    1.3574   -5.1400 O   0  0  0  0  0  0  0  0  0  0  0  0
   -2.0744    3.1365   -1.2016 C   0  0  0  0  0  0  0  0  0  0  0  0
   -0.8773    3.9256   -1.5812 C   0  0  0  0  0  0  0  0  0  0  0  0
    0.3658    3.3130   -1.5208 N   0  0  0  0  0  0  0  0  0  0  0  0
    0.6429    1.9622   -1.8712 C   0  0  0  0  0  0  0  0  0  0  0  0
    1.3694    1.1811   -1.0020 C   0  0  0  0  0  0  0  0  0  0  0  0
    0.2231    1.5382   -3.0810 N   0  0  0  0  0  0  0  0  0  0  0  0
    0.5061    0.3104   -3.4461 C   0  0  0  0  0  0  0  0  0  0  0  0
    1.3429   -0.5605   -2.6826 C   0  0  0  0  0  0  0  0  0  0  0  0
    1.7518   -0.1202   -1.4119 C   0  0  0  0  0  0  0  0  0  0  0  0
    2.5315   -1.0632   -0.6514 C   0  0  1  0  0  3  0  0  0  0  0  0
    2.8947   -0.7260    0.6268 N   0  0  0  0  0  0  0  0  0  0  0  0
    3.6664   -1.4005    1.5761 C   0  0  0  0  0  0  0  0  0  0  0  0
    3.8363   -0.7747    2.8233 C   0  0  0  0  0  0  0  0  0  0  0  0
    4.5966   -1.3679    3.8218 C   0  0  0  0  0  0  0  0  0  0  0  0
    5.2180   -2.6054    3.6205 C   0  0  0  0  0  0  0  0  0  0  0  0
    6.0878   -3.2207    4.6852 C   0  0  0  0  0  0  0  0  0  0  0  0
    7.5408   -2.7806    4.6797 C   0  0  0  0  0  0  0  0  0  0  0  0
    8.2826   -3.2351    5.6958 N   0  0  0  0  0  0  0  0  0  0  0  0
    9.5668   -2.8989    5.7504 C   0  0  0  0  0  0  0  0  0  0  0  0
   10.1941   -2.0913    4.8019 C   0  0  0  0  0  0  0  0  0  0  0  0
    9.4252   -1.6161    3.7438 C   0  0  0  0  0  0  0  0  0  0  0  0
    8.0786   -1.9634    3.6786 C   0  0  0  0  0  0  0  0  0  0  0  0
    5.0381   -3.2212    2.3797 C   0  0  0  0  0  0  0  0  0  0  0  0
    4.2786   -2.6443    1.3642 C   0  0  0  0  0  0  0  0  0  0  0  0
    2.8848   -2.2179   -1.1716 N   0  0  0  0  0  0  0  0  0  0  0  0
    2.4708   -2.4951   -2.4292 C   0  0  0  0  0  0  0  0  0  0  0  0
    1.7272   -1.7554   -3.2012 N   0  0  0  0  0  2  0  0  0  0  0  0
   -0.9623    5.1064   -1.8636 O   0  0  0  0  0  0  0  0  0  0  0  0
   -6.1635    2.1306    4.6837 H   0  0  0  0  0  0  0  0  0  0  0  0
   -4.9591    0.8295    4.5090 H   0  0  0  0  0  0  0  0  0  0  0  0
   -6.6928    0.4769    4.3055 H   0  0  0  0  0  0  0  0  0  0  0  0
   -5.1196    3.4630    3.0275 H   0  0  0  0  0  0  0  0  0  0  0  0
   -5.3052    2.9957    1.3275 H   0  0  0  0  0  0  0  0  0  0  0  0
   -3.1885    1.9147    3.2862 H   0  0  0  0  0  0  0  0  0  0  0  0
   -2.8922    2.9925    1.9129 H   0  0  0  0  0  0  0  0  0  0  0  0
   -3.9617   -0.4611    2.7575 H   0  0  0  0  0  0  0  0  0  0  0  0
   -4.1295   -0.8912    1.0481 H   0  0  0  0  0  0  0  0  0  0  0  0
   -6.3789   -0.4191    2.1342 H   0  0  0  0  0  0  0  0  0  0  0  0
   -6.0419    0.6990    0.7977 H   0  0  0  0  0  0  0  0  0  0  0  0
   -4.2195    1.8236   -0.3810 H   0  0  0  0  0  0  0  0  0  0  0  0
   -3.2435    0.3473   -0.5626 H   0  0  0  0  0  0  0  0  0  0  0  0
   -1.1538    1.6525   -0.0043 H   0  0  0  0  0  0  0  0  0  0  0  0
   -2.9817   -0.3406   -4.7919 H   0  0  0  0  0  0  0  0  0  0  0  0
   -2.0451    0.9299   -3.9757 H   0  0  0  0  0  0  0  0  0  0  0  0
   -4.6189   -1.1457   -2.8686 H   0  0  0  0  0  0  0  0  0  0  0  0
   -6.8344   -1.9210   -2.1657 H   0  0  0  0  0  0  0  0  0  0  0  0
   -7.6886   -0.8086   -1.0380 H   0  0  0  0  0  0  0  0  0  0  0  0
   -6.1109   -1.5174   -0.5904 H   0  0  0  0  0  0  0  0  0  0  0  0
   -3.2094    3.0409   -3.9300 H   0  0  0  0  0  0  0  0  0  0  0  0
   -3.4747    3.9416   -6.2883 H   0  0  0  0  0  0  0  0  0  0  0  0
   -4.5304    4.8182   -5.1413 H   0  0  0  0  0  0  0  0  0  0  0  0
   -5.1871    3.4611   -6.1048 H   0  0  0  0  0  0  0  0  0  0  0  0
   -3.0153    3.5760   -1.5490 H   0  0  0  0  0  0  0  0  0  0  0  0
    1.1001    3.9725   -1.7624 H   0  0  0  0  0  0  0  0  0  0  0  0
    1.6454    1.6096   -0.0366 H   0  0  0  0  0  0  0  0  0  0  0  0
    0.1612   -0.0433   -4.4207 H   0  0  0  0  0  0  0  0  0  0  0  0
    2.4997    0.1423    0.9583 H   0  0  0  0  0  0  0  0  0  0  0  0
    3.3591    0.1914    3.0119 H   0  0  0  0  0  0  0  0  0  0  0  0
    4.7111   -0.8543    4.7805 H   0  0  0  0  0  0  0  0  0  0  0  0
    6.0807   -4.3194    4.5968 H   0  0  0  0  0  0  0  0  0  0  0  0
    5.6889   -3.0032    5.6884 H   0  0  0  0  0  0  0  0  0  0  0  0
   10.1365   -3.2931    6.6001 H   0  0  0  0  0  0  0  0  0  0  0  0
   11.2533   -1.8448    4.8953 H   0  0  0  0  0  0  0  0  0  0  0  0
    9.8671   -0.9795    2.9735 H   0  0  0  0  0  0  0  0  0  0  0  0
    7.4452   -1.6088    2.8644 H   0  0  0  0  0  0  0  0  0  0  0  0
    5.5073   -4.1914    2.1918 H   0  0  0  0  0  0  0  0  0  0  0  0
    4.1404   -3.1412    0.4073 H   0  0  0  0  0  0  0  0  0  0  0  0
    2.8056   -3.4603   -2.8266 H   0  0  0  0  0  0  0  0  0  0  0  0
  1 52  1  0  0  0  0
  1 51  1  0  0  0  0
  1 50  1  0  0  0  0
  2  1  1  0  0  0  0
  3  2  1  0  0  0  0
  3 53  1  0  0  0  0
  4  3  1  0  0  0  0
  4 55  1  0  0  0  0
  5  6  1  0  0  0  0
  5  4  1  0  0  0  0
  6  7  1  0  0  0  0
  6 57  1  0  0  0  0
  7 59  1  0  0  0  0
  7  2  1  0  0  0  0
  8  5  1  0  0  0  0
  9  8  1  0  0  0  0
  9 63  1  0  0  0  0
 11 12  1  0  0  0  0
 11 10  1  0  0  0  0
 12 14  1  0  0  0  0
 12 13  1  1  0  0  0
 14 66  1  0  0  0  0
 14 15  1  0  0  0  0
 15 17  2  0  0  0  0
 15 16  1  0  0  0  0
 16 68  1  0  0  0  0
 16 69  1  0  0  0  0
 18 12  1  0  0  0  0
 19 18  1  0  0  0  0
 19 70  1  0  0  0  0
 20 72  1  0  0  0  0
 20 19  1  0  0  0  0
 21 18  2  0  0  0  0
 22  9  2  0  0  0  0
 23 24  1  0  0  0  0
 23 22  1  0  0  0  0
 25 24  1  0  0  0  0
 25 26  1  0  0  0  0
 26 76  1  0  0  0  0
 27 25  2  0  0  0  0
 28 27  1  0  0  0  0
 28 29  2  0  0  0  0
 29 30  1  0  0  0  0
 30 26  2  0  0  0  0
 30 31  1  0  0  0  0
 31 32  1  1  0  0  0
 32 78  1  0  0  0  0
 32 33  1  0  0  0  0
 33 34  1  0  0  0  0
 34 79  1  0  0  0  0
 34 35  2  0  0  0  0
 35 80  1  0  0  0  0
 36 35  1  0  0  0  0
 36 37  1  0  0  0  0
 37 82  1  0  0  0  0
 38 37  1  0  0  0  0
 38 39  1  0  0  0  0
 39 40  2  0  0  0  0
 40 83  1  0  0  0  0
 41 84  1  0  0  0  0
 41 40  1  0  0  0  0
 42 41  2  0  0  0  0
 43 42  1  0  0  0  0
 43 38  2  0  0  0  0
 44 36  2  0  0  0  0
 45 33  2  0  0  0  0
 45 44  1  0  0  0  0
 46 31  1  0  0  0  0
 47 46  2  0  0  0  0
 48 29  1  0  0  0  0
 48 47  1  0  0  0  0
 49 23  2  0  0  0  0
 54  3  1  0  0  0  0
 56  4  1  0  0  0  0
 58  6  1  0  0  0  0
 60  7  1  0  0  0  0
 61  8  1  0  0  0  0
 62  8  1  0  0  0  0
 64 11  1  0  0  0  0
 65 11  1  0  0  0  0
 67 16  1  0  0  0  0
 71 20  1  0  0  0  0
 73 20  1  0  0  0  0
 74 22  1  0  0  0  0
 75 24  1  0  0  0  0
 77 28  1  0  0  0  0
 81 37  1  0  0  0  0
 85 42  1  0  0  0  0
 86 43  1  0  0  0  0
 87 44  1  0  0  0  0
 88 45  1  0  0  0  0
 89 47  1  0  0  0  0
M  END
