89
-1 1
C        -1.850181    7.638557    3.029143
N        -1.573465    7.324801    1.649683
C        -0.441645    8.052581    1.078360
C         0.912052    7.480804    1.525874
N         1.043225    6.055208    1.240848
C        -0.083350    5.335952    1.820763
C        -1.440830    5.899779    1.369428
C         1.245192    5.721256   -0.176402
C         2.644192    6.035261   -0.649863
S         2.190154    4.615108   -2.834011
C         2.594291    6.041887   -3.860151
C         1.502344    7.134406   -3.927366
H         1.324554    7.520018   -2.919705
N         0.232911    6.633150   -4.379748
C        -0.843827    6.523817   -3.569492
C        -1.980198    5.690619   -4.129686
O        -0.917672    7.027749   -2.457932
C         1.984499    8.263672   -4.836275
N         2.820286    9.150707   -4.240640
C         3.484582   10.194250   -4.974563
O         1.681661    8.311483   -6.019858
C         2.971101    7.316916   -1.022924
C         4.232236    7.987259   -1.197912
N         5.458450    7.393503   -0.809315
C         5.918281    6.111950   -1.050906
C         6.977702    5.589283   -0.314990
N         5.323338    5.420246   -2.041327
C         5.716410    4.207347   -2.320584
C         6.814400    3.580507   -1.668558
C         7.457495    4.306281   -0.641549
C         8.560433    3.616767   -0.002806
N         9.224704    4.260995    1.007058
C        10.311715    3.870782    1.794685
C        10.767239    4.791138    2.754404
C        11.842926    4.489311    3.578041
C        12.507325    3.261517    3.480823
C        13.708143    2.958634    4.338228
C        15.039470    3.448881    3.797637
N        16.081644    3.305668    4.623540
C        17.281767    3.701493    4.213003
C        17.521641    4.263851    2.959434
C        16.439395    4.414962    2.097821
C        15.178235    4.002923    2.519901
C        12.043480    2.352580    2.527202
C        10.966005    2.635078    1.690125
N         8.914721    2.412918   -0.383794
C         8.215575    1.830634   -1.390744
N         7.208009    2.328986   -2.042431
O         4.299706    9.163343   -1.568777
H        -2.032598    8.720959    3.132274
H        -1.051037    7.372832    3.757155
H        -2.766867    7.117056    3.351374
H        -0.522094    9.117331    1.354784
H        -0.524162    7.995651   -0.020253
H         1.033607    7.620992    2.616281
H         1.738594    8.024184    1.047266
H        -0.006289    5.398500    2.922747
H        -0.006805    4.268359    1.558655
H        -2.270135    5.355927    1.853883
H        -1.548869    5.761133    0.280025
H         0.524668    6.210402   -0.856287
H         1.076496    4.642411   -0.281300
H         3.422542    5.337678   -0.336526
H         2.830125    5.722260   -4.890183
H         3.509291    6.511436   -3.458536
H         0.216365    6.191814   -5.288956
H        -2.017394    5.701402   -5.228713
H        -2.929411    6.056485   -3.719187
H        -1.830378    4.652384   -3.796412
H         3.063239    9.057619   -3.254419
H         4.563649   10.191763   -4.756813
H         3.087058   11.192682   -4.723264
H         3.324669   10.017843   -6.046367
H         2.145109    8.002614   -1.229120
H         6.168037    8.103174   -0.666771
H         7.384552    6.184132    0.505828
H         5.163969    3.665323   -3.095781
H         8.867926    5.180350    1.223330
H        10.265719    5.757995    2.856599
H        12.175547    5.227967    4.312580
H        13.800575    1.871485    4.494759
H        13.589092    3.392500    5.343384
H        18.106766    3.566099    4.922114
H        18.528305    4.573254    2.672841
H        16.572202    4.850196    1.104524
H        14.307256    4.107388    1.871511
H        12.540506    1.383303    2.427004
H        10.616403    1.915618    0.954172
H         8.554454    0.826338   -1.670434
