98
-1 1
C         5.102068   -2.622377    0.645456
C         3.762898   -3.227966    0.991403
O         3.135231   -2.381168    1.939460
C         1.793593   -2.361307    1.970202
C         1.019608   -3.503253    1.993620
C         1.187795   -1.064139    1.968260
N         1.971823    0.098990    1.854690
C         2.676372    0.387239    0.620357
O         3.606498    1.208015    0.747582
C         2.222873   -0.252851   -0.536048
C         2.664477    0.081920   -1.909465
S         2.233588    1.884318   -2.399410
C         1.803216    1.694230   -4.169427
C         2.561843    2.663395   -5.088857
H         2.380631    2.384479   -6.138354
N         3.980735    2.575787   -4.845819
C         4.906485    2.463636   -5.841966
C         6.312111    2.165217   -5.354084
O         4.632438    2.589793   -7.019862
C         1.976783    4.076838   -4.950285
N         2.818533    5.011968   -4.449459
C         2.408831    6.363792   -4.179918
O         0.821902    4.298926   -5.266731
C         4.069441   -0.336362   -2.391799
N         5.248219    0.020237   -1.636595
C         6.416134   -0.722675   -2.043032
C         7.530038   -0.603013   -0.978375
N         7.484213    0.639525   -0.225774
C         6.965351    1.697901   -1.061238
C         5.520711    1.445027   -1.543099
C         6.830838    0.572979    1.073872
C        -0.184716   -0.980913    2.000202
C        -1.003891   -2.136761    2.029131
C        -0.391217   -3.414704    2.029415
N        -1.129969   -4.565827    2.069956
C        -2.423157   -4.414912    2.106656
N        -3.127452   -3.263966    2.099566
C        -2.444797   -2.134979    2.054287
N        -3.097278   -0.934799    2.030103
C        -4.463617   -0.622440    2.056120
C        -4.809948    0.739676    1.992107
C        -6.133000    1.147237    2.019400
C        -7.162715    0.204069    2.109906
O        -8.429750    0.699989    2.108484
C        -9.507920   -0.175239    2.227025
C        -9.638916   -0.829583    3.591771
N        -9.347385   -0.076356    4.650282
C        -9.463246   -0.613713    5.860375
C        -9.890194   -1.922425    6.084915
C       -10.206391   -2.706787    4.979202
C       -10.073877   -2.153723    3.709303
C        -6.829677   -1.148553    2.174084
C        -5.495035   -1.561351    2.147156
H         4.953308   -1.624597    0.201960
H         5.631549   -3.263355   -0.077214
H         5.728699   -2.521829    1.544381
H         3.870746   -4.248000    1.406991
H         3.126532   -3.281654    0.091736
H         1.468009   -4.497130    1.989874
H         2.642367    0.215087    2.608928
H         1.264338   -0.773607   -0.482089
H         1.996808   -0.467712   -2.590143
H         0.725933    1.854208   -4.312801
H         2.041213    0.663309   -4.472394
H         4.228604    2.326219   -3.888110
H         7.002139    2.222083   -6.203577
H         6.353070    1.156846   -4.913743
H         6.623052    2.872419   -4.570957
H         3.743286    4.697865   -4.187188
H         3.041595    7.091577   -4.713139
H         2.442750    6.588402   -3.101833
H         1.373447    6.470809   -4.528559
H         4.180990   -0.016036   -3.460371
H         4.035949   -1.439436   -2.409873
H         6.798217   -0.383596   -3.039096
H         6.144268   -1.782422   -2.172363
H         8.510786   -0.702926   -1.484671
H         7.452852   -1.440266   -0.270104
H         7.641780    1.803720   -1.930157
H         7.007359    2.654024   -0.515830
H         5.408605    1.940836   -2.534581
H         4.781975    1.873370   -0.852327
H         7.240833   -0.275744    1.643693
H         5.728332    0.489463    1.029940
H         7.071622    1.489751    1.638543
H        -0.591082    0.032528    1.967192
H        -3.030491   -5.328358    2.145773
H        -2.491728   -0.129543    1.961503
H        -4.022321    1.494992    1.917426
H        -6.395150    2.205142    1.969298
H        -9.487339   -0.952695    1.440210
H       -10.402662    0.442590    2.052860
H        -9.202803    0.032970    6.705716
H        -9.965591   -2.313754    7.100901
H       -10.538216   -3.740215    5.102724
H       -10.289964   -2.743824    2.815455
H        -7.598928   -1.916502    2.256218
H        -5.239398   -2.616635    2.196305
