98
-1 1
C         4.266916   -2.075015   -1.490790
C         2.758881   -1.995399   -1.514950
O         2.357096   -1.607045   -0.203435
C         1.074383   -1.471916    0.099317
C         0.009824   -1.799626   -0.719572
C         0.828538   -0.940109    1.408873
N         1.930658   -0.543954    2.208704
C         2.842698    0.427779    1.820486
O         3.938660    0.467620    2.342392
C         2.274458    1.417029    0.861464
C         2.771292    1.978640   -0.250219
S         2.093791    0.622273   -4.073638
C         3.752183    0.007433   -4.571353
C         4.634187    1.038244   -5.310275
H         5.687700    0.725547   -5.304718
N         4.554784    2.315945   -4.636368
C         5.617291    3.097968   -4.343603
C         5.278434    4.385435   -3.608175
O         6.772365    2.824909   -4.626202
C         4.267851    1.166297   -6.801207
N         2.961799    1.449863   -7.032921
C         2.423970    1.546102   -8.361265
O         5.100692    1.026582   -7.682520
C         4.010021    1.862051   -1.083207
N         5.215825    1.284612   -0.552142
C         6.201170    1.036211   -1.592919
C         7.318801    0.124574   -1.048723
N         7.513188    0.259351    0.388964
C         7.253174    1.621028    0.799743
C         5.806743    2.090686    0.508841
C         6.837251   -0.739316    1.194546
C        -0.458835   -0.807580    1.863386
C        -1.563427   -1.182722    1.060393
C        -1.317316   -1.669535   -0.249955
N        -2.344155   -2.026143   -1.078483
C        -3.546737   -1.887578   -0.600024
N        -3.910959   -1.441996    0.621530
C        -2.947497   -1.094342    1.451778
N        -3.250193   -0.645288    2.706722
C        -4.482448   -0.449973    3.349783
C        -4.443544    0.019654    4.674839
C        -5.605968    0.242742    5.393701
C        -6.855266    0.004913    4.809901
O        -7.938102    0.273193    5.585736
C        -9.216577    0.008250    5.094647
C        -9.530183   -1.468624    4.927350
N        -9.028547   -2.296936    5.840892
C        -9.294240   -3.594766    5.731453
C       -10.084702   -4.136569    4.718122
C       -10.618259   -3.269289    3.768873
C       -10.332377   -1.911279    3.870730
C        -6.903662   -0.462038    3.496418
C        -5.731745   -0.688308    2.770573
H         4.674953   -1.111016   -1.154497
H         4.651376   -2.302108   -2.494980
H         4.612555   -2.853928   -0.793993
H         2.305350   -2.973298   -1.758340
H         2.398632   -1.245372   -2.244959
H         0.151594   -2.154078   -1.739235
H         2.356793   -1.253297    2.797856
H         1.234251    1.672139    1.090206
H         2.058485    2.636540   -0.762198
H         3.660044   -0.885576   -5.210882
H         4.305754   -0.310128   -3.672941
H         3.623513    2.513096   -4.262380
H         5.683610    5.228901   -4.185040
H         5.785794    4.378599   -2.632295
H         4.200604    4.534237   -3.453451
H         2.327093    1.378831   -6.224552
H         1.838679    2.471607   -8.489722
H         1.768662    0.691367   -8.603487
H         3.263126    1.552310   -9.069709
H         4.204427    2.887620   -1.478268
H         3.669641    1.294628   -1.973224
H         6.633396    1.987160   -1.975240
H         5.714915    0.567543   -2.459599
H         8.257853    0.359579   -1.582576
H         7.083830   -0.927450   -1.268112
H         7.968842    2.271633    0.266974
H         7.471637    1.728662    1.873971
H         5.829847    3.166860    0.212169
H         5.180629    1.995983    1.404377
H         7.169860   -1.743877    0.886389
H         5.734002   -0.697895    1.142450
H         7.124099   -0.607213    2.250654
H        -0.577852   -0.379971    2.861847
H        -4.379163   -2.165861   -1.258207
H        -2.451953   -0.415545    3.279388
H        -3.478549    0.213634    5.152603
H        -5.569885    0.605043    6.422193
H        -9.403249    0.540989    4.143359
H        -9.905872    0.427111    5.844102
H        -8.854590   -4.246520    6.494626
H       -10.269552   -5.211231    4.674758
H       -11.237321   -3.646407    2.951723
H       -10.713657   -1.201355    3.132830
H        -7.854601   -0.671799    3.006705
H        -5.774405   -1.055952    1.748591
