-1 1
 OpenBabel05192410563D

 98102  0  0  1  0  0  0  0  0999 V2000
    5.1021   -2.6224    0.6455 C   0  0  0  0  0  0  0  0  0  0  0  0
    3.7629   -3.2280    0.9914 C   0  0  0  0  0  0  0  0  0  0  0  0
    3.1352   -2.3812    1.9395 O   0  0  0  0  0  0  0  0  0  0  0  0
    1.7936   -2.3613    1.9702 C   0  0  0  0  0  0  0  0  0  0  0  0
    1.0196   -3.5033    1.9936 C   0  0  0  0  0  0  0  0  0  0  0  0
    1.1878   -1.0641    1.9683 C   0  0  0  0  0  0  0  0  0  0  0  0
    1.9718    0.0990    1.8547 N   0  0  0  0  0  0  0  0  0  0  0  0
    2.6764    0.3872    0.6204 C   0  0  0  0  0  0  0  0  0  0  0  0
    3.6065    1.2080    0.7476 O   0  0  0  0  0  0  0  0  0  0  0  0
    2.2229   -0.2529   -0.5360 C   0  0  0  0  0  3  0  0  0  0  0  0
    2.6645    0.0819   -1.9095 C   0  0  1  0  0  0  0  0  0  0  0  0
    2.2336    1.8843   -2.3994 S   0  0  0  0  0  0  0  0  0  0  0  0
    1.8032    1.6942   -4.1694 C   0  0  0  0  0  0  0  0  0  0  0  0
    2.5618    2.6634   -5.0889 C   0  0  2  0  0  0  0  0  0  0  0  0
    2.3806    2.3845   -6.1384 H   0  0  0  0  0  0  0  0  0  0  0  0
    3.9807    2.5758   -4.8458 N   0  0  0  0  0  0  0  0  0  0  0  0
    4.9065    2.4636   -5.8420 C   0  0  0  0  0  0  0  0  0  0  0  0
    6.3121    2.1652   -5.3541 C   0  0  0  0  0  0  0  0  0  0  0  0
    4.6324    2.5898   -7.0199 O   0  0  0  0  0  0  0  0  0  0  0  0
    1.9768    4.0768   -4.9503 C   0  0  0  0  0  0  0  0  0  0  0  0
    2.8185    5.0120   -4.4495 N   0  0  0  0  0  0  0  0  0  0  0  0
    2.4088    6.3638   -4.1799 C   0  0  0  0  0  0  0  0  0  0  0  0
    0.8219    4.2989   -5.2667 O   0  0  0  0  0  0  0  0  0  0  0  0
    4.0694   -0.3364   -2.3918 C   0  0  0  0  0  0  0  0  0  0  0  0
    5.2482    0.0202   -1.6366 N   0  0  0  0  0  0  0  0  0  0  0  0
    6.4161   -0.7227   -2.0430 C   0  0  0  0  0  0  0  0  0  0  0  0
    7.5300   -0.6030   -0.9784 C   0  0  0  0  0  0  0  0  0  0  0  0
    7.4842    0.6395   -0.2258 N   0  0  0  0  0  0  0  0  0  0  0  0
    6.9654    1.6979   -1.0612 C   0  0  0  0  0  0  0  0  0  0  0  0
    5.5207    1.4450   -1.5431 C   0  0  0  0  0  0  0  0  0  0  0  0
    6.8308    0.5730    1.0739 C   0  0  0  0  0  0  0  0  0  0  0  0
   -0.1847   -0.9809    2.0002 C   0  0  0  0  0  0  0  0  0  0  0  0
   -1.0039   -2.1368    2.0291 C   0  0  0  0  0  0  0  0  0  0  0  0
   -0.3912   -3.4147    2.0294 C   0  0  0  0  0  0  0  0  0  0  0  0
   -1.1300   -4.5658    2.0700 N   0  0  0  0  0  0  0  0  0  0  0  0
   -2.4232   -4.4149    2.1067 C   0  0  0  0  0  0  0  0  0  0  0  0
   -3.1275   -3.2640    2.0996 N   0  0  0  0  0  0  0  0  0  0  0  0
   -2.4448   -2.1350    2.0543 C   0  0  0  0  0  0  0  0  0  0  0  0
   -3.0973   -0.9348    2.0301 N   0  0  0  0  0  0  0  0  0  0  0  0
   -4.4636   -0.6224    2.0561 C   0  0  0  0  0  0  0  0  0  0  0  0
   -4.8099    0.7397    1.9921 C   0  0  0  0  0  0  0  0  0  0  0  0
   -6.1330    1.1472    2.0194 C   0  0  0  0  0  0  0  0  0  0  0  0
   -7.1627    0.2041    2.1099 C   0  0  0  0  0  0  0  0  0  0  0  0
   -8.4298    0.7000    2.1085 O   0  0  0  0  0  0  0  0  0  0  0  0
   -9.5079   -0.1752    2.2270 C   0  0  0  0  0  0  0  0  0  0  0  0
   -9.6389   -0.8296    3.5918 C   0  0  0  0  0  0  0  0  0  0  0  0
   -9.3474   -0.0764    4.6503 N   0  0  0  0  0  0  0  0  0  0  0  0
   -9.4632   -0.6137    5.8604 C   0  0  0  0  0  0  0  0  0  0  0  0
   -9.8902   -1.9224    6.0849 C   0  0  0  0  0  0  0  0  0  0  0  0
  -10.2064   -2.7068    4.9792 C   0  0  0  0  0  0  0  0  0  0  0  0
  -10.0739   -2.1537    3.7093 C   0  0  0  0  0  0  0  0  0  0  0  0
   -6.8297   -1.1486    2.1741 C   0  0  0  0  0  0  0  0  0  0  0  0
   -5.4950   -1.5614    2.1472 C   0  0  0  0  0  0  0  0  0  0  0  0
    4.9533   -1.6246    0.2020 H   0  0  0  0  0  0  0  0  0  0  0  0
    5.6315   -3.2634   -0.0772 H   0  0  0  0  0  0  0  0  0  0  0  0
    5.7287   -2.5218    1.5444 H   0  0  0  0  0  0  0  0  0  0  0  0
    3.8707   -4.2480    1.4070 H   0  0  0  0  0  0  0  0  0  0  0  0
    3.1265   -3.2817    0.0917 H   0  0  0  0  0  0  0  0  0  0  0  0
    1.4680   -4.4971    1.9899 H   0  0  0  0  0  0  0  0  0  0  0  0
    2.6424    0.2151    2.6089 H   0  0  0  0  0  0  0  0  0  0  0  0
    1.2643   -0.7736   -0.4821 H   0  0  0  0  0  0  0  0  0  0  0  0
    1.9968   -0.4677   -2.5901 H   0  0  0  0  0  0  0  0  0  0  0  0
    0.7259    1.8542   -4.3128 H   0  0  0  0  0  0  0  0  0  0  0  0
    2.0412    0.6633   -4.4724 H   0  0  0  0  0  0  0  0  0  0  0  0
    4.2286    2.3262   -3.8881 H   0  0  0  0  0  0  0  0  0  0  0  0
    7.0021    2.2221   -6.2036 H   0  0  0  0  0  0  0  0  0  0  0  0
    6.3531    1.1568   -4.9137 H   0  0  0  0  0  0  0  0  0  0  0  0
    6.6231    2.8724   -4.5710 H   0  0  0  0  0  0  0  0  0  0  0  0
    3.7433    4.6979   -4.1872 H   0  0  0  0  0  0  0  0  0  0  0  0
    3.0416    7.0916   -4.7131 H   0  0  0  0  0  0  0  0  0  0  0  0
    2.4428    6.5884   -3.1018 H   0  0  0  0  0  0  0  0  0  0  0  0
    1.3734    6.4708   -4.5286 H   0  0  0  0  0  0  0  0  0  0  0  0
    4.1810   -0.0160   -3.4604 H   0  0  0  0  0  0  0  0  0  0  0  0
    4.0359   -1.4394   -2.4099 H   0  0  0  0  0  0  0  0  0  0  0  0
    6.7982   -0.3836   -3.0391 H   0  0  0  0  0  0  0  0  0  0  0  0
    6.1443   -1.7824   -2.1724 H   0  0  0  0  0  0  0  0  0  0  0  0
    8.5108   -0.7029   -1.4847 H   0  0  0  0  0  0  0  0  0  0  0  0
    7.4529   -1.4403   -0.2701 H   0  0  0  0  0  0  0  0  0  0  0  0
    7.6418    1.8037   -1.9302 H   0  0  0  0  0  0  0  0  0  0  0  0
    7.0074    2.6540   -0.5158 H   0  0  0  0  0  0  0  0  0  0  0  0
    5.4086    1.9408   -2.5346 H   0  0  0  0  0  0  0  0  0  0  0  0
    4.7820    1.8734   -0.8523 H   0  0  0  0  0  0  0  0  0  0  0  0
    7.2408   -0.2757    1.6437 H   0  0  0  0  0  0  0  0  0  0  0  0
    5.7283    0.4895    1.0299 H   0  0  0  0  0  0  0  0  0  0  0  0
    7.0716    1.4898    1.6385 H   0  0  0  0  0  0  0  0  0  0  0  0
   -0.5911    0.0325    1.9672 H   0  0  0  0  0  0  0  0  0  0  0  0
   -3.0305   -5.3284    2.1458 H   0  0  0  0  0  0  0  0  0  0  0  0
   -2.4917   -0.1295    1.9615 H   0  0  0  0  0  0  0  0  0  0  0  0
   -4.0223    1.4950    1.9174 H   0  0  0  0  0  0  0  0  0  0  0  0
   -6.3952    2.2051    1.9693 H   0  0  0  0  0  0  0  0  0  0  0  0
   -9.4873   -0.9527    1.4402 H   0  0  0  0  0  0  0  0  0  0  0  0
  -10.4027    0.4426    2.0529 H   0  0  0  0  0  0  0  0  0  0  0  0
   -9.2028    0.0330    6.7057 H   0  0  0  0  0  0  0  0  0  0  0  0
   -9.9656   -2.3138    7.1009 H   0  0  0  0  0  0  0  0  0  0  0  0
  -10.5382   -3.7402    5.1027 H   0  0  0  0  0  0  0  0  0  0  0  0
  -10.2900   -2.7438    2.8155 H   0  0  0  0  0  0  0  0  0  0  0  0
   -7.5989   -1.9165    2.2562 H   0  0  0  0  0  0  0  0  0  0  0  0
   -5.2394   -2.6166    2.1963 H   0  0  0  0  0  0  0  0  0  0  0  0
  1  2  1  0  0  0  0
  1 56  1  0  0  0  0
  2 57  1  0  0  0  0
  2  3  1  0  0  0  0
  3  4  1  0  0  0  0
  4  5  1  0  0  0  0
  5 34  2  0  0  0  0
  6  4  2  0  0  0  0
  6 32  1  0  0  0  0
  7  6  1  0  0  0  0
  7 60  1  0  0  0  0
  8  9  2  0  0  0  0
  8  7  1  0  0  0  0
 10 61  1  0  0  0  0
 10  8  1  0  0  0  0
 11 62  1  6  0  0  0
 11 10  1  0  0  0  0
 12 11  1  0  0  0  0
 13 12  1  0  0  0  0
 14 15  1  6  0  0  0
 14 20  1  0  0  0  0
 14 16  1  0  0  0  0
 14 13  1  0  0  0  0
 16 65  1  0  0  0  0
 17 18  1  0  0  0  0
 17 16  1  0  0  0  0
 18 67  1  0  0  0  0
 18 68  1  0  0  0  0
 19 17  2  0  0  0  0
 20 21  1  0  0  0  0
 21 69  1  0  0  0  0
 21 22  1  0  0  0  0
 22 71  1  0  0  0  0
 23 20  2  0  0  0  0
 24 11  1  0  0  0  0
 24 25  1  0  0  0  0
 25 30  1  0  0  0  0
 26 25  1  0  0  0  0
 26 27  1  0  0  0  0
 27 78  1  0  0  0  0
 27 28  1  0  0  0  0
 28 31  1  0  0  0  0
 29 80  1  0  0  0  0
 29 28  1  0  0  0  0
 30 29  1  0  0  0  0
 30 82  1  0  0  0  0
 31 85  1  0  0  0  0
 31 83  1  0  0  0  0
 32 33  2  0  0  0  0
 33 34  1  0  0  0  0
 33 38  1  0  0  0  0
 34 35  1  0  0  0  0
 35 36  2  0  0  0  0
 36 87  1  0  0  0  0
 37 36  1  0  0  0  0
 38 37  2  0  0  0  0
 39 38  1  0  0  0  0
 39 40  1  0  0  0  0
 40 53  1  0  0  0  0
 41 42  1  0  0  0  0
 41 40  2  0  0  0  0
 42 43  2  0  0  0  0
 43 52  1  0  0  0  0
 44 43  1  0  0  0  0
 44 45  1  0  0  0  0
 45 46  1  0  0  0  0
 46 51  2  0  0  0  0
 46 47  1  0  0  0  0
 47 48  2  0  0  0  0
 48 49  1  0  0  0  0
 48 93  1  0  0  0  0
 49 94  1  0  0  0  0
 50 95  1  0  0  0  0
 50 49  2  0  0  0  0
 51 50  1  0  0  0  0
 52 97  1  0  0  0  0
 53 52  2  0  0  0  0
 53 98  1  0  0  0  0
 54  1  1  0  0  0  0
 55  1  1  0  0  0  0
 58  2  1  0  0  0  0
 59  5  1  0  0  0  0
 63 13  1  0  0  0  0
 64 13  1  0  0  0  0
 66 18  1  0  0  0  0
 70 22  1  0  0  0  0
 72 22  1  0  0  0  0
 73 24  1  0  0  0  0
 74 24  1  0  0  0  0
 75 26  1  0  0  0  0
 76 26  1  0  0  0  0
 77 27  1  0  0  0  0
 79 29  1  0  0  0  0
 81 30  1  0  0  0  0
 84 31  1  0  0  0  0
 86 32  1  0  0  0  0
 88 39  1  0  0  0  0
 89 41  1  0  0  0  0
 90 42  1  0  0  0  0
 91 45  1  0  0  0  0
 92 45  1  0  0  0  0
 96 51  1  0  0  0  0
M  END
