96
-1 1
C        -0.481407    5.413755    6.288271
C         0.262931    4.127242    6.597287
O        -0.598296    2.998644    6.654503
C        -1.028348    2.522161    5.447790
C        -2.305048    2.782400    5.008632
C        -0.146458    1.708421    4.677980
N         1.127153    1.440107    5.208550
C         2.356822    1.390523    4.588338
O         3.320835    0.959701    5.194580
C         2.458370    1.959239    3.213980
C         3.563990    1.737073    2.500029
S         1.443156   -0.948355    1.243182
C         1.374756   -2.551204    0.349651
C         0.640216   -2.519083   -1.003745
H        -0.326219   -2.026243   -0.817674
N         0.378507   -3.836430   -1.547754
C        -0.663666   -4.606942   -1.147809
C        -0.954645   -5.794199   -2.049265
O        -1.345233   -4.363577   -0.167176
C         1.325177   -1.723970   -2.123030
N         1.836829   -0.540581   -1.773931
C         2.360429    0.373889   -2.749244
O         1.359183   -2.153163   -3.282050
C         3.904086    2.369190    1.186307
N         4.295256    1.450452    0.138655
C         5.109298    2.041799   -0.903092
C         5.703987    0.846070   -1.675913
C         5.304941   -0.388967   -0.842865
C         4.918411    0.192776    0.512225
C        -0.586456    1.177412    3.482122
C        -1.877037    1.481978    2.996785
C        -2.759706    2.278509    3.765124
N        -4.024286    2.578699    3.345776
C        -4.360380    2.082634    2.181289
N        -3.628375    1.328326    1.347714
C        -2.392714    1.016784    1.723483
N        -1.616399    0.291200    0.903923
C        -1.998387   -0.201699   -0.370724
C        -2.830350   -1.298294   -0.496588
C        -2.934291   -1.906261   -1.759094
C        -3.510665   -3.115991   -2.255819
N        -3.130470   -3.348197   -3.489857
N        -2.349462   -2.314007   -3.871610
C        -1.451665   -2.501199   -4.995442
C        -1.248465   -1.250889   -5.818487
C         0.033381   -0.711724   -5.962546
C         0.227870    0.447447   -6.714349
C        -0.855843    1.079532   -7.322030
C        -2.138729    0.549625   -7.173416
C        -2.332385   -0.609400   -6.425906
C        -2.186791   -1.415312   -2.848559
C        -1.419831   -0.241545   -2.747100
C        -1.343672    0.345178   -1.501547
H         0.215875    6.265326    6.298969
H        -1.269065    5.596152    7.034470
H        -0.951638    5.370435    5.294677
H         0.737512    4.182389    7.588082
H         1.063808    3.954582    5.857430
H        -2.980110    3.392142    5.609573
H         1.165996    1.205078    6.195101
H         1.634934    2.559059    2.817258
H         4.323432    1.096467    2.959722
H         0.837585   -3.284545    0.966106
H         2.398668   -2.933456    0.195676
H         0.782335   -3.987024   -2.467178
H        -0.054672   -6.178156   -2.551114
H        -1.677886   -5.470920   -2.815170
H        -1.415599   -6.589917   -1.451120
H         1.809067   -0.293262   -0.762160
H         1.567728    0.754004   -3.418040
H         3.122083   -0.107251   -3.384235
H         2.817081    1.216657   -2.215871
H         4.748653    3.068769    1.410062
H         3.068299    3.000048    0.836744
H         5.927520    2.666008   -0.470838
H         4.508729    2.716483   -1.538938
H         6.797526    0.946210   -1.749027
H         5.318369    0.785751   -2.703296
H         6.109602   -1.134519   -0.769210
H         4.424892   -0.883298   -1.278547
H         5.826980    0.342108    1.143965
H         4.199276   -0.437305    1.058593
H         0.072855    0.493745    2.936470
H        -5.375016    2.311384    1.827827
H        -0.657940   -0.013580    1.171880
H        -3.310594   -1.727865    0.382129
H        -4.145705   -3.826711   -1.730273
H        -1.902149   -3.298302   -5.603633
H        -0.476925   -2.849588   -4.617234
H         0.865909   -1.184430   -5.432834
H         1.232396    0.866093   -6.812650
H        -0.704141    1.991576   -7.904407
H        -2.993348    1.046433   -7.638915
H        -3.338003   -1.017783   -6.293809
H        -0.861492    0.155879   -3.592453
H        -0.710419    1.220705   -1.349194
