-1 1
 OpenBabel05232414493D

 96101  0  0  1  0  0  0  0  0999 V2000
    5.9941    3.7704    9.7502 C   0  0  0  0  0  0  0  0  0  0  0  0
    6.5480    2.5172   10.4047 C   0  0  0  0  0  0  0  0  0  0  0  0
    5.5327    1.5655   10.7000 O   0  0  0  0  0  0  0  0  0  0  0  0
    5.0508    0.8676    9.6277 C   0  0  0  0  0  0  0  0  0  0  0  0
    3.8069    1.1662    9.1171 C   0  0  0  0  0  0  0  0  0  0  0  0
    5.8513   -0.1818    9.0708 C   0  0  0  0  0  0  0  0  0  0  0  0
    7.1135   -0.4189    9.5962 N   0  0  0  0  0  0  0  0  0  0  0  0
    8.1215   -1.2612    9.0079 C   0  0  0  0  0  0  0  0  0  0  0  0
    8.7023   -2.0442    9.7601 O   0  0  0  0  0  0  0  0  0  0  0  0
    8.3636   -1.0420    7.6269 C   0  0  0  0  0  3  0  0  0  0  0  0
    9.0776   -1.9864    6.8377 C   0  0  1  0  0  0  0  0  0  0  0  0
    7.5755   -3.2364    6.0362 S   0  0  0  0  0  0  0  0  0  0  0  0
    8.0538   -4.5020    4.7950 C   0  0  0  0  0  0  0  0  0  0  0  0
    7.2644   -4.4080    3.4759 C   0  0  2  0  0  0  0  0  0  0  0  0
    6.1995   -4.3125    3.7433 H   0  0  0  0  0  0  0  0  0  0  0  0
    7.4280   -5.5875    2.6562 N   0  0  0  0  0  0  0  0  0  0  0  0
    6.8097   -6.7652    2.9211 C   0  0  0  0  0  0  0  0  0  0  0  0
    6.8914   -7.7909    1.8077 C   0  0  0  0  0  0  0  0  0  0  0  0
    6.1962   -6.9784    3.9528 O   0  0  0  0  0  0  0  0  0  0  0  0
    7.6005   -3.2111    2.5750 C   0  0  0  0  0  0  0  0  0  0  0  0
    7.5160   -2.0075    3.1512 N   0  0  0  0  0  0  0  0  0  0  0  0
    7.6493   -0.7853    2.4076 C   0  0  0  0  0  0  0  0  0  0  0  0
    7.8813   -3.3718    1.3841 O   0  0  0  0  0  0  0  0  0  0  0  0
    9.8745   -1.4315    5.6730 C   0  0  0  0  0  0  0  0  0  0  0  0
   10.4247   -2.4047    4.7638 N   0  0  0  0  0  0  0  0  0  0  0  0
   11.0152   -1.8831    3.5554 C   0  0  0  0  0  0  0  0  0  0  0  0
   11.5727   -3.1366    2.8781 C   0  0  0  0  0  0  0  0  0  0  0  0
   11.9329   -4.0652    4.0627 C   0  0  0  0  0  0  0  0  0  0  0  0
   11.3951   -3.3315    5.3052 C   0  0  0  0  0  0  0  0  0  0  0  0
    5.3134   -0.9126    8.0249 C   0  0  0  0  0  0  0  0  0  0  0  0
    4.0544   -0.6010    7.4774 C   0  0  0  0  0  0  0  0  0  0  0  0
    3.2846    0.4604    8.0060 C   0  0  0  0  0  0  0  0  0  0  0  0
    2.0899    0.8314    7.4522 N   0  0  0  0  0  0  0  0  0  0  0  0
    1.7237    0.1608    6.3928 C   0  0  0  0  0  0  0  0  0  0  0  0
    2.3509   -0.8776    5.8007 N   0  0  0  0  0  0  0  0  0  0  0  0
    3.4831   -1.2857    6.3428 C   0  0  0  0  0  0  0  0  0  0  0  0
    4.1158   -2.3728    5.8233 N   0  0  0  0  0  0  0  0  0  0  0  0
    3.9352   -2.8670    4.5055 C   0  0  0  0  0  0  0  0  0  0  0  0
    3.6368   -4.2007    4.3025 C   0  0  0  0  0  0  0  0  0  0  0  0
    3.7304   -4.7152    2.9947 C   0  0  0  0  0  0  0  0  0  0  0  0
    3.6553   -6.0149    2.4072 C   0  0  0  0  0  0  0  0  0  0  0  0
    4.0098   -5.9818    1.1449 N   0  0  0  0  0  0  0  0  0  0  0  0
    4.2847   -4.6952    0.8352 N   0  0  0  0  0  0  0  0  0  0  0  0
    5.1264   -4.4453   -0.3208 C   0  0  0  0  0  0  0  0  0  0  0  0
    4.8785   -3.1055   -0.9699 C   0  0  0  0  0  0  0  0  0  0  0  0
    5.9084   -2.1627   -1.0376 C   0  0  0  0  0  0  0  0  0  0  0  0
    5.6804   -0.9135   -1.6155 C   0  0  0  0  0  0  0  0  0  0  0  0
    4.4220   -0.5954   -2.1239 C   0  0  0  0  0  0  0  0  0  0  0  0
    3.3894   -1.5321   -2.0538 C   0  0  0  0  0  0  0  0  0  0  0  0
    3.6181   -2.7807   -1.4812 C   0  0  0  0  0  0  0  0  0  0  0  0
    4.1382   -3.8844    1.9327 C   0  0  0  0  0  0  0  0  0  0  0  0
    4.3434   -2.5033    2.1204 C   0  0  0  0  0  0  0  0  0  0  0  0
    4.2356   -2.0217    3.4059 C   0  0  0  0  0  0  0  0  0  0  0  0
    6.8036    4.4967    9.5796 H   0  0  0  0  0  0  0  0  0  0  0  0
    5.2301    4.2402   10.3882 H   0  0  0  0  0  0  0  0  0  0  0  0
    5.5350    3.5382    8.7778 H   0  0  0  0  0  0  0  0  0  0  0  0
    7.0083    2.7598   11.3742 H   0  0  0  0  0  0  0  0  0  0  0  0
    7.3247    2.0534    9.7741 H   0  0  0  0  0  0  0  0  0  0  0  0
    3.2243    1.9796    9.5510 H   0  0  0  0  0  0  0  0  0  0  0  0
    7.1701   -0.3899   10.6090 H   0  0  0  0  0  0  0  0  0  0  0  0
    7.8446   -0.2220    7.1219 H   0  0  0  0  0  0  0  0  0  0  0  0
    9.6279   -2.7108    7.4487 H   0  0  0  0  0  0  0  0  0  0  0  0
    7.8405   -5.4925    5.2167 H   0  0  0  0  0  0  0  0  0  0  0  0
    9.1257   -4.4078    4.5926 H   0  0  0  0  0  0  0  0  0  0  0  0
    7.8311   -5.4047    1.7423 H   0  0  0  0  0  0  0  0  0  0  0  0
    7.8006   -7.6884    1.1979 H   0  0  0  0  0  0  0  0  0  0  0  0
    6.0104   -7.6481    1.1614 H   0  0  0  0  0  0  0  0  0  0  0  0
    6.8457   -8.7961    2.2444 H   0  0  0  0  0  0  0  0  0  0  0  0
    7.3431   -2.0017    4.1656 H   0  0  0  0  0  0  0  0  0  0  0  0
    6.6981   -0.4918    1.9288 H   0  0  0  0  0  0  0  0  0  0  0  0
    8.4010   -0.9042    1.6140 H   0  0  0  0  0  0  0  0  0  0  0  0
    7.9635    0.0228    3.0821 H   0  0  0  0  0  0  0  0  0  0  0  0
   10.6805   -0.8000    6.1192 H   0  0  0  0  0  0  0  0  0  0  0  0
    9.2306   -0.7465    5.0972 H   0  0  0  0  0  0  0  0  0  0  0  0
   11.8356   -1.1559    3.7738 H   0  0  0  0  0  0  0  0  0  0  0  0
   10.2648   -1.3591    2.9453 H   0  0  0  0  0  0  0  0  0  0  0  0
   12.4324   -2.9146    2.2289 H   0  0  0  0  0  0  0  0  0  0  0  0
   10.7898   -3.5890    2.2517 H   0  0  0  0  0  0  0  0  0  0  0  0
   13.0154   -4.2425    4.1430 H   0  0  0  0  0  0  0  0  0  0  0  0
   11.4525   -5.0481    3.9497 H   0  0  0  0  0  0  0  0  0  0  0  0
   12.2193   -2.7938    5.8305 H   0  0  0  0  0  0  0  0  0  0  0  0
   10.9317   -4.0090    6.0387 H   0  0  0  0  0  0  0  0  0  0  0  0
    5.9171   -1.7234    7.6210 H   0  0  0  0  0  0  0  0  0  0  0  0
    0.7825    0.4650    5.9160 H   0  0  0  0  0  0  0  0  0  0  0  0
    5.0023   -2.6542    6.2387 H   0  0  0  0  0  0  0  0  0  0  0  0
    3.4109   -4.8458    5.1523 H   0  0  0  0  0  0  0  0  0  0  0  0
    3.4010   -6.9587    2.8851 H   0  0  0  0  0  0  0  0  0  0  0  0
    4.9178   -5.2649   -1.0231 H   0  0  0  0  0  0  0  0  0  0  0  0
    6.1831   -4.5095   -0.0128 H   0  0  0  0  0  0  0  0  0  0  0  0
    6.8752   -2.4026   -0.5852 H   0  0  0  0  0  0  0  0  0  0  0  0
    6.4890   -0.1798   -1.6549 H   0  0  0  0  0  0  0  0  0  0  0  0
    4.2413    0.3863   -2.5682 H   0  0  0  0  0  0  0  0  0  0  0  0
    2.3989   -1.2846   -2.4426 H   0  0  0  0  0  0  0  0  0  0  0  0
    2.8064   -3.5095   -1.4085 H   0  0  0  0  0  0  0  0  0  0  0  0
    4.6223   -1.8461    1.2989 H   0  0  0  0  0  0  0  0  0  0  0  0
    4.4305   -0.9669    3.6082 H   0  0  0  0  0  0  0  0  0  0  0  0
  1 55  1  0  0  0  0
  1  2  1  0  0  0  0
  2  3  1  0  0  0  0
  2 57  1  0  0  0  0
  4  3  1  0  0  0  0
  5 59  1  0  0  0  0
  5  4  1  0  0  0  0
  6  7  1  0  0  0  0
  6  4  2  0  0  0  0
  7 60  1  0  0  0  0
  8  7  1  0  0  0  0
  8  9  2  0  0  0  0
 10  8  1  0  0  0  0
 11 62  1  1  0  0  0
 11 10  1  0  0  0  0
 12 11  1  0  0  0  0
 13 63  1  0  0  0  0
 13 12  1  0  0  0  0
 14 15  1  1  0  0  0
 14 13  1  0  0  0  0
 16 17  1  0  0  0  0
 16 14  1  0  0  0  0
 17 19  2  0  0  0  0
 18 68  1  0  0  0  0
 18 17  1  0  0  0  0
 20 21  1  0  0  0  0
 20 14  1  0  0  0  0
 21 69  1  0  0  0  0
 22 72  1  0  0  0  0
 22 21  1  0  0  0  0
 23 20  2  0  0  0  0
 24 73  1  0  0  0  0
 24 11  1  0  0  0  0
 25 29  1  0  0  0  0
 25 24  1  0  0  0  0
 26 75  1  0  0  0  0
 26 25  1  0  0  0  0
 27 26  1  0  0  0  0
 27 28  1  0  0  0  0
 28 79  1  0  0  0  0
 28 29  1  0  0  0  0
 29 81  1  0  0  0  0
 29 82  1  0  0  0  0
 30  6  1  0  0  0  0
 31 32  1  0  0  0  0
 31 30  2  0  0  0  0
 32  5  2  0  0  0  0
 33 32  1  0  0  0  0
 34 33  2  0  0  0  0
 35 36  2  0  0  0  0
 35 34  1  0  0  0  0
 36 31  1  0  0  0  0
 37 85  1  0  0  0  0
 37 36  1  0  0  0  0
 38 37  1  0  0  0  0
 39 38  1  0  0  0  0
 39 86  1  0  0  0  0
 40 39  2  0  0  0  0
 41 87  1  0  0  0  0
 41 40  1  0  0  0  0
 42 41  2  0  0  0  0
 43 42  1  0  0  0  0
 43 51  1  0  0  0  0
 44 89  1  0  0  0  0
 44 43  1  0  0  0  0
 45 44  1  0  0  0  0
 46 45  1  0  0  0  0
 46 90  1  0  0  0  0
 47 46  2  0  0  0  0
 48 49  2  0  0  0  0
 48 47  1  0  0  0  0
 49 50  1  0  0  0  0
 50 94  1  0  0  0  0
 50 45  2  0  0  0  0
 51 52  2  0  0  0  0
 51 40  1  0  0  0  0
 52 53  1  0  0  0  0
 53 96  1  0  0  0  0
 53 38  2  0  0  0  0
 54  1  1  0  0  0  0
 56  1  1  0  0  0  0
 58  2  1  0  0  0  0
 61 10  1  0  0  0  0
 64 13  1  0  0  0  0
 65 16  1  0  0  0  0
 66 18  1  0  0  0  0
 67 18  1  0  0  0  0
 70 22  1  0  0  0  0
 71 22  1  0  0  0  0
 74 24  1  0  0  0  0
 76 26  1  0  0  0  0
 77 27  1  0  0  0  0
 78 27  1  0  0  0  0
 80 28  1  0  0  0  0
 83 30  1  0  0  0  0
 84 34  1  0  0  0  0
 88 44  1  0  0  0  0
 91 47  1  0  0  0  0
 92 48  1  0  0  0  0
 93 49  1  0  0  0  0
 95 52  1  0  0  0  0
M  END
