-1 1
 OpenBabel05232413483D

 75 77  0  0  1  0  0  0  0  0999 V2000
    1.1482    2.8451    3.5594 O   0  0  0  0  0  0  0  0  0  0  0  0
    0.7895    2.6607    2.4154 C   0  0  0  0  0  0  0  0  0  0  0  0
    1.7131    2.5666    1.3929 N   0  0  0  0  0  0  0  0  0  0  0  0
    1.4432    2.7632    0.0276 C   0  0  0  0  0  0  0  0  0  0  0  0
    1.9808    1.9188   -0.9231 C   0  0  0  0  0  0  0  0  0  0  0  0
    0.6623    3.8221   -0.2812 N   0  0  0  0  0  0  0  0  0  0  0  0
    0.4330    4.0909   -1.5379 C   0  0  0  0  0  0  0  0  0  0  0  0
    0.9768    3.3372   -2.6151 C   0  0  0  0  0  0  0  0  0  0  0  0
    1.7384    2.1934   -2.2884 C   0  0  0  0  0  0  0  0  0  0  0  0
    2.2011    1.4294   -3.4240 C   0  0  2  0  0  3  0  0  0  0  0  0
    2.8963    0.2582   -3.3132 N   0  0  0  0  0  0  0  0  0  0  0  0
    2.7038   -0.7552   -2.3345 C   0  0  0  0  0  0  0  0  0  0  0  0
    3.8293   -1.3973   -1.8142 C   0  0  0  0  0  0  0  0  0  0  0  0
    3.6716   -2.4360   -0.9015 C   0  0  0  0  0  0  0  0  0  0  0  0
    5.0629   -3.2538   -0.2495 Cl  0  0  0  0  0  0  0  0  0  0  0  0
    2.3922   -2.8226   -0.5000 C   0  0  0  0  0  0  0  0  0  0  0  0
    2.2535   -3.8166    0.3694 F   0  0  0  0  0  0  0  0  0  0  0  0
    1.2720   -2.1759   -1.0037 C   0  0  0  0  0  0  0  0  0  0  0  0
    1.4256   -1.1486   -1.9277 C   0  0  0  0  0  0  0  0  0  0  0  0
    2.0131    1.8773   -4.6507 N   0  0  0  0  0  0  0  0  0  0  0  0
    1.3132    3.0169   -4.8191 C   0  0  0  0  0  0  0  0  0  0  0  0
    0.7563    3.7477   -3.8919 N   0  0  0  0  0  2  0  0  0  0  0  0
   -0.6475    2.4387    2.0503 C   0  0  0  0  0  0  0  0  0  0  0  0
   -1.1417    1.2492    1.6902 C   0  0  0  0  0  0  0  0  0  0  0  0
   -5.8022    0.7507   -0.9673 S   0  0  0  0  0  1  0  0  0  0  0  0
   -5.1850   -0.9361   -1.3621 C   0  0  0  0  0  0  0  0  0  0  0  0
   -3.8693   -1.3142   -0.6473 C   0  0  2  0  0  0  0  0  0  0  0  0
   -3.6802   -2.3948   -0.7129 H   0  0  0  0  0  0  0  0  0  0  0  0
   -3.9709   -0.9726    0.7566 N   0  0  0  0  0  0  0  0  0  0  0  0
   -3.7182   -1.8351    1.7677 C   0  0  0  0  0  0  0  0  0  0  0  0
   -3.9687   -1.2762    3.1525 C   0  0  0  0  0  0  0  0  0  0  0  0
   -3.2680   -2.9607    1.6031 O   0  0  0  0  0  0  0  0  0  0  0  0
   -2.6253   -0.6438   -1.2442 C   0  0  0  0  0  0  0  0  0  0  0  0
   -2.7464    0.6671   -1.4933 N   0  0  0  0  0  0  0  0  0  0  0  0
   -1.6448    1.4494   -1.9736 C   0  0  0  0  0  0  0  0  0  0  0  0
   -1.5761   -1.2648   -1.4337 O   0  0  0  0  0  0  0  0  0  0  0  0
   -0.3627   -0.0258    1.5130 C   0  0  0  0  0  0  0  0  0  0  0  0
   -0.5724   -0.9426    2.6200 N   0  0  0  0  0  0  0  0  0  0  0  0
    0.0994   -0.5125    3.8332 C   0  0  0  0  0  0  0  0  0  0  0  0
   -0.2347   -1.4211    5.0106 C   0  0  0  0  0  0  0  0  0  0  0  0
    0.1061   -2.8742    4.6893 C   0  0  0  0  0  0  0  0  0  0  0  0
   -0.5553   -3.2894    3.3779 C   0  0  0  0  0  0  0  0  0  0  0  0
   -0.2327   -2.3097    2.2575 C   0  0  0  0  0  0  0  0  0  0  0  0
    2.6807    2.5561    1.6970 H   0  0  0  0  0  0  0  0  0  0  0  0
    2.5631    1.0559   -0.6051 H   0  0  0  0  0  0  0  0  0  0  0  0
   -0.1987    4.9514   -1.7830 H   0  0  0  0  0  0  0  0  0  0  0  0
    3.2056   -0.0683   -4.2243 H   0  0  0  0  0  0  0  0  0  0  0  0
    4.8292   -1.0843   -2.1168 H   0  0  0  0  0  0  0  0  0  0  0  0
    0.2642   -2.4689   -0.7040 H   0  0  0  0  0  0  0  0  0  0  0  0
    0.5156   -0.6735   -2.3012 H   0  0  0  0  0  0  0  0  0  0  0  0
    1.1893    3.3427   -5.8584 H   0  0  0  0  0  0  0  0  0  0  0  0
   -1.3126    3.2906    2.2125 H   0  0  0  0  0  0  0  0  0  0  0  0
   -2.2223    1.1492    1.5421 H   0  0  0  0  0  0  0  0  0  0  0  0
   -5.0325   -1.0531   -2.4479 H   0  0  0  0  0  0  0  0  0  0  0  0
   -5.9392   -1.6806   -1.0614 H   0  0  0  0  0  0  0  0  0  0  0  0
   -4.5367   -0.1298    0.9057 H   0  0  0  0  0  0  0  0  0  0  0  0
   -2.9956   -0.9133    3.5183 H   0  0  0  0  0  0  0  0  0  0  0  0
   -4.3144   -2.0846    3.8098 H   0  0  0  0  0  0  0  0  0  0  0  0
   -4.6912   -0.4480    3.1596 H   0  0  0  0  0  0  0  0  0  0  0  0
   -3.6940    1.0809   -1.3594 H   0  0  0  0  0  0  0  0  0  0  0  0
   -1.2592    1.0798   -2.9405 H   0  0  0  0  0  0  0  0  0  0  0  0
   -0.8082    1.4384   -1.2547 H   0  0  0  0  0  0  0  0  0  0  0  0
   -1.9736    2.4876   -2.1101 H   0  0  0  0  0  0  0  0  0  0  0  0
    0.7206    0.1856    1.3695 H   0  0  0  0  0  0  0  0  0  0  0  0
   -0.7135   -0.5170    0.5934 H   0  0  0  0  0  0  0  0  0  0  0  0
   -0.1880    0.5241    4.0614 H   0  0  0  0  0  0  0  0  0  0  0  0
    1.2078   -0.5019    3.6838 H   0  0  0  0  0  0  0  0  0  0  0  0
   -1.3117   -1.3346    5.2330 H   0  0  0  0  0  0  0  0  0  0  0  0
    0.3096   -1.0742    5.9038 H   0  0  0  0  0  0  0  0  0  0  0  0
   -0.2018   -3.5401    5.5120 H   0  0  0  0  0  0  0  0  0  0  0  0
    1.2034   -2.9725    4.5948 H   0  0  0  0  0  0  0  0  0  0  0  0
   -1.6504   -3.3286    3.4835 H   0  0  0  0  0  0  0  0  0  0  0  0
   -0.2284   -4.2965    3.0746 H   0  0  0  0  0  0  0  0  0  0  0  0
   -0.8166   -2.5849    1.3673 H   0  0  0  0  0  0  0  0  0  0  0  0
    0.8506   -2.3855    2.0001 H   0  0  0  0  0  0  0  0  0  0  0  0
  2  1  2  0  0  0  0
  3 44  1  0  0  0  0
  3  2  1  0  0  0  0
  4  3  1  0  0  0  0
  5 45  1  0  0  0  0
  5  4  2  0  0  0  0
  6  4  1  0  0  0  0
  7  6  2  0  0  0  0
  8  9  2  0  0  0  0
  8  7  1  0  0  0  0
  9  5  1  0  0  0  0
 10 11  1  1  0  0  0
 10  9  1  0  0  0  0
 11 12  1  0  0  0  0
 12 19  2  0  0  0  0
 12 13  1  0  0  0  0
 13 14  2  0  0  0  0
 14 16  1  0  0  0  0
 14 15  1  0  0  0  0
 16 17  1  0  0  0  0
 18 49  1  0  0  0  0
 18 16  2  0  0  0  0
 19 18  1  0  0  0  0
 20 10  1  0  0  0  0
 21 20  2  0  0  0  0
 21 22  1  0  0  0  0
 22  8  1  0  0  0  0
 23 52  1  0  0  0  0
 23  2  1  0  0  0  0
 24 23  2  0  0  0  0
 26 55  1  0  0  0  0
 26 25  1  0  0  0  0
 26 27  1  0  0  0  0
 27 28  1  6  0  0  0
 27 29  1  0  0  0  0
 29 56  1  0  0  0  0
 29 30  1  0  0  0  0
 30 31  1  0  0  0  0
 31 59  1  0  0  0  0
 31 57  1  0  0  0  0
 31 58  1  0  0  0  0
 32 30  2  0  0  0  0
 33 27  1  0  0  0  0
 34 60  1  0  0  0  0
 34 33  1  0  0  0  0
 35 34  1  0  0  0  0
 35 62  1  0  0  0  0
 36 33  2  0  0  0  0
 37 24  1  0  0  0  0
 37 38  1  0  0  0  0
 38 39  1  0  0  0  0
 39 66  1  0  0  0  0
 39 40  1  0  0  0  0
 40 68  1  0  0  0  0
 40 69  1  0  0  0  0
 41 40  1  0  0  0  0
 41 70  1  0  0  0  0
 42 72  1  0  0  0  0
 42 41  1  0  0  0  0
 43 38  1  0  0  0  0
 43 42  1  0  0  0  0
 46  7  1  0  0  0  0
 47 11  1  0  0  0  0
 48 13  1  0  0  0  0
 50 19  1  0  0  0  0
 51 21  1  0  0  0  0
 53 24  1  0  0  0  0
 54 26  1  0  0  0  0
 61 35  1  0  0  0  0
 63 35  1  0  0  0  0
 64 37  1  0  0  0  0
 65 37  1  0  0  0  0
 67 39  1  0  0  0  0
 71 41  1  0  0  0  0
 73 42  1  0  0  0  0
 74 43  1  0  0  0  0
 75 43  1  0  0  0  0
M  END
