75
-1 1
O         1.148188    2.845141    3.559394
C         0.789484    2.660710    2.415409
N         1.713056    2.566576    1.392928
C         1.443173    2.763158    0.027576
C         1.980752    1.918836   -0.923050
N         0.662275    3.822081   -0.281166
C         0.433047    4.090930   -1.537894
C         0.976822    3.337210   -2.615143
C         1.738370    2.193392   -2.288382
C         2.201127    1.429362   -3.424043
N         2.896255    0.258204   -3.313181
C         2.703768   -0.755248   -2.334543
C         3.829318   -1.397313   -1.814173
C         3.671552   -2.435969   -0.901462
Cl         5.062932   -3.253784   -0.249472
C         2.392204   -2.822613   -0.500010
F         2.253532   -3.816615    0.369353
C         1.271995   -2.175859   -1.003661
C         1.425584   -1.148587   -1.927708
N         2.013087    1.877268   -4.650721
C         1.313184    3.016859   -4.819079
N         0.756333    3.747697   -3.891857
C        -0.647523    2.438660    2.050326
C        -1.141675    1.249183    1.690218
S        -5.802150    0.750733   -0.967326
C        -5.184999   -0.936067   -1.362115
C        -3.869345   -1.314246   -0.647296
H        -3.680195   -2.394802   -0.712851
N        -3.970875   -0.972552    0.756606
C        -3.718232   -1.835078    1.767673
C        -3.968654   -1.276201    3.152542
O        -3.267985   -2.960726    1.603051
C        -2.625272   -0.643792   -1.244153
N        -2.746397    0.667088   -1.493341
C        -1.644775    1.449384   -1.973632
O        -1.576058   -1.264783   -1.433668
C        -0.362714   -0.025782    1.512989
N        -0.572394   -0.942586    2.619967
C         0.099377   -0.512490    3.833161
C        -0.234677   -1.421082    5.010634
C         0.106083   -2.874221    4.689287
C        -0.555285   -3.289414    3.377948
C        -0.232669   -2.309707    2.257534
H         2.680691    2.556094    1.696994
H         2.563134    1.055939   -0.605122
H        -0.198712    4.951356   -1.782984
H         3.205590   -0.068325   -4.224318
H         4.829165   -1.084341   -2.116844
H         0.264191   -2.468915   -0.703977
H         0.515606   -0.673486   -2.301194
H         1.189297    3.342717   -5.858447
H        -1.312634    3.290560    2.212467
H        -2.222349    1.149196    1.542086
H        -5.032546   -1.053115   -2.447897
H        -5.939223   -1.680598   -1.061441
H        -4.536708   -0.129801    0.905691
H        -2.995575   -0.913349    3.518273
H        -4.314393   -2.084550    3.809799
H        -4.691217   -0.448030    3.159585
H        -3.694029    1.080920   -1.359428
H        -1.259246    1.079830   -2.940527
H        -0.808240    1.438448   -1.254667
H        -1.973632    2.487602   -2.110066
H         0.720597    0.185557    1.369480
H        -0.713506   -0.516951    0.593397
H        -0.187954    0.524103    4.061425
H         1.207762   -0.501941    3.683761
H        -1.311726   -1.334591    5.232992
H         0.309601   -1.074153    5.903798
H        -0.201760   -3.540095    5.512037
H         1.203391   -2.972457    4.594762
H        -1.650436   -3.328613    3.483468
H        -0.228379   -4.296494    3.074554
H        -0.816631   -2.584905    1.367277
H         0.850629   -2.385526    2.000099
