-1 1
 OpenBabel05192410563D

 75 78  0  0  1  0  0  0  0  0999 V2000
    0.9020    4.1306    3.1592 O   0  0  0  0  0  0  0  0  0  0  0  0
    0.3477    3.3058    2.4289 C   0  0  0  0  0  0  0  0  0  0  0  0
    1.2070    2.7662    1.3508 N   0  0  0  0  0  0  0  0  0  0  0  0
    1.0366    2.8088    0.0088 C   0  0  0  0  0  0  0  0  0  0  0  0
    1.8510    2.0478   -0.8460 C   0  0  0  0  0  0  0  0  0  0  0  0
    0.0411    3.5953   -0.4865 N   0  0  0  0  0  0  0  0  0  0  0  0
   -0.1123    3.7135   -1.7745 C   0  0  0  0  0  0  0  0  0  0  0  0
    0.7012    3.0542   -2.7364 C   0  0  0  0  0  0  0  0  0  0  0  0
    1.6787    2.1635   -2.2309 C   0  0  0  0  0  0  0  0  0  0  0  0
    2.4072    1.4439   -3.2451 C   0  0  2  0  0  3  0  0  0  0  0  0
    3.3026    0.4373   -2.9039 N   0  0  0  0  0  0  0  0  0  0  0  0
    2.9090   -0.6695   -2.1104 C   0  0  0  0  0  0  0  0  0  0  0  0
    3.8879   -1.4251   -1.4615 C   0  0  0  0  0  0  0  0  0  0  0  0
    3.5202   -2.5465   -0.7212 C   0  0  0  0  0  0  0  0  0  0  0  0
    4.7333   -3.4992    0.0876 Cl  0  0  0  0  0  0  0  0  0  0  0  0
    2.1783   -2.9072   -0.6104 C   0  0  0  0  0  0  0  0  0  0  0  0
    1.8374   -3.9746    0.1089 F   0  0  0  0  0  0  0  0  0  0  0  0
    1.1969   -2.1551   -1.2413 C   0  0  0  0  0  0  0  0  0  0  0  0
    1.5664   -1.0459   -1.9894 C   0  0  0  0  0  0  0  0  0  0  0  0
    2.2766    1.7317   -4.5168 N   0  0  0  0  0  0  0  0  0  0  0  0
    1.3641    2.6751   -4.8649 C   0  0  0  0  0  0  0  0  0  0  0  0
    0.5480    3.3030   -4.0662 N   0  0  0  0  0  2  0  0  0  0  0  0
   -0.9319    2.7551    2.5566 C   0  0  0  0  0  3  0  0  0  0  0  0
   -1.5812    1.6301    1.8570 C   0  0  1  0  0  0  0  0  0  0  0  0
   -2.6493    2.2070    0.3498 S   0  0  0  0  0  0  0  0  0  0  0  0
   -3.9959    0.9768    0.2927 C   0  0  0  0  0  0  0  0  0  0  0  0
   -3.6918   -0.5132    0.0070 C   0  0  2  0  0  0  0  0  0  0  0  0
   -4.6312   -0.9463   -0.3811 H   0  0  0  0  0  0  0  0  0  0  0  0
   -3.4377   -1.2650    1.2066 N   0  0  0  0  0  0  0  0  0  0  0  0
   -4.3373   -2.1826    1.6418 C   0  0  0  0  0  0  0  0  0  0  0  0
   -3.9684   -2.8757    2.9383 C   0  0  0  0  0  0  0  0  0  0  0  0
   -5.3720   -2.4517    1.0526 O   0  0  0  0  0  0  0  0  0  0  0  0
   -2.6705   -0.8321   -1.0996 C   0  0  0  0  0  0  0  0  0  0  0  0
   -2.5981    0.0963   -2.0874 N   0  0  0  0  0  0  0  0  0  0  0  0
   -1.7269   -0.0373   -3.2269 C   0  0  0  0  0  0  0  0  0  0  0  0
   -2.0607   -1.8905   -1.1242 O   0  0  0  0  0  0  0  0  0  0  0  0
   -0.7051    0.4196    1.4715 C   0  0  0  0  0  0  0  0  0  0  0  0
   -0.8150   -0.6895    2.4261 N   0  0  0  0  0  0  0  0  0  0  0  0
   -0.3342   -0.3141    3.7530 C   0  0  0  0  0  0  0  0  0  0  0  0
   -0.4674   -1.4587    4.7486 C   0  0  0  0  0  0  0  0  0  0  0  0
    0.2735   -2.6991    4.2547 C   0  0  0  0  0  0  0  0  0  0  0  0
   -0.1871   -3.0544    2.8437 C   0  0  0  0  0  0  0  0  0  0  0  0
   -0.1023   -1.8535    1.9104 C   0  0  0  0  0  0  0  0  0  0  0  0
    2.1410    2.5456    1.6742 H   0  0  0  0  0  0  0  0  0  0  0  0
    2.5958    1.3708   -0.4268 H   0  0  0  0  0  0  0  0  0  0  0  0
   -0.9148    4.3660   -2.1386 H   0  0  0  0  0  0  0  0  0  0  0  0
    3.8682    0.1781   -3.7073 H   0  0  0  0  0  0  0  0  0  0  0  0
    4.9374   -1.1354   -1.5249 H   0  0  0  0  0  0  0  0  0  0  0  0
    0.1408   -2.4271   -1.1552 H   0  0  0  0  0  0  0  0  0  0  0  0
    0.7926   -0.4672   -2.4895 H   0  0  0  0  0  0  0  0  0  0  0  0
    1.2984    2.8938   -5.9370 H   0  0  0  0  0  0  0  0  0  0  0  0
   -1.5485    3.2740    3.2955 H   0  0  0  0  0  0  0  0  0  0  0  0
   -2.3910    1.2420    2.4976 H   0  0  0  0  0  0  0  0  0  0  0  0
   -4.6784    1.3614   -0.4819 H   0  0  0  0  0  0  0  0  0  0  0  0
   -4.5618    1.0043    1.2364 H   0  0  0  0  0  0  0  0  0  0  0  0
   -2.5927   -1.0830    1.7686 H   0  0  0  0  0  0  0  0  0  0  0  0
   -3.2024   -2.3315    3.5058 H   0  0  0  0  0  0  0  0  0  0  0  0
   -3.5887   -3.8820    2.7061 H   0  0  0  0  0  0  0  0  0  0  0  0
   -4.8768   -2.9921    3.5435 H   0  0  0  0  0  0  0  0  0  0  0  0
   -2.8434    1.0442   -1.8166 H   0  0  0  0  0  0  0  0  0  0  0  0
   -1.3478   -1.0664   -3.2607 H   0  0  0  0  0  0  0  0  0  0  0  0
   -0.8779    0.6642   -3.1661 H   0  0  0  0  0  0  0  0  0  0  0  0
   -2.2687    0.1714   -4.1621 H   0  0  0  0  0  0  0  0  0  0  0  0
    0.3489    0.7292    1.3864 H   0  0  0  0  0  0  0  0  0  0  0  0
   -0.9869    0.0250    0.4863 H   0  0  0  0  0  0  0  0  0  0  0  0
   -0.8786    0.5767    4.0931 H   0  0  0  0  0  0  0  0  0  0  0  0
    0.7338   -0.0031    3.6920 H   0  0  0  0  0  0  0  0  0  0  0  0
   -1.5363   -1.6943    4.8907 H   0  0  0  0  0  0  0  0  0  0  0  0
   -0.0807   -1.1327    5.7271 H   0  0  0  0  0  0  0  0  0  0  0  0
    0.1259   -3.5490    4.9407 H   0  0  0  0  0  0  0  0  0  0  0  0
    1.3578   -2.4871    4.2402 H   0  0  0  0  0  0  0  0  0  0  0  0
   -1.2290   -3.4094    2.8735 H   0  0  0  0  0  0  0  0  0  0  0  0
    0.4182   -3.8703    2.4216 H   0  0  0  0  0  0  0  0  0  0  0  0
   -0.5417   -2.1108    0.9355 H   0  0  0  0  0  0  0  0  0  0  0  0
    0.9685   -1.5997    1.7325 H   0  0  0  0  0  0  0  0  0  0  0  0
  2 23  1  0  0  0  0
  2  1  2  0  0  0  0
  3 44  1  0  0  0  0
  3  2  1  0  0  0  0
  4  3  1  0  0  0  0
  5 45  1  0  0  0  0
  5  4  2  0  0  0  0
  6  4  1  0  0  0  0
  7  6  2  0  0  0  0
  8  9  2  0  0  0  0
  8  7  1  0  0  0  0
  9  5  1  0  0  0  0
 10 11  1  1  0  0  0
 10  9  1  0  0  0  0
 11 12  1  0  0  0  0
 12 19  2  0  0  0  0
 12 13  1  0  0  0  0
 13 14  2  0  0  0  0
 14 16  1  0  0  0  0
 14 15  1  0  0  0  0
 16 17  1  0  0  0  0
 18 49  1  0  0  0  0
 18 16  2  0  0  0  0
 19 18  1  0  0  0  0
 20 10  1  0  0  0  0
 21 20  2  0  0  0  0
 21 22  1  0  0  0  0
 22  8  1  0  0  0  0
 23 52  1  0  0  0  0
 24 53  1  1  0  0  0
 24 23  1  0  0  0  0
 25 24  1  0  0  0  0
 26 25  1  0  0  0  0
 26 55  1  0  0  0  0
 27 28  1  6  0  0  0
 27 26  1  0  0  0  0
 27 29  1  0  0  0  0
 29 30  1  0  0  0  0
 29 56  1  0  0  0  0
 30 31  1  0  0  0  0
 31 57  1  0  0  0  0
 31 59  1  0  0  0  0
 32 30  2  0  0  0  0
 33 27  1  0  0  0  0
 34 60  1  0  0  0  0
 34 33  1  0  0  0  0
 35 62  1  0  0  0  0
 35 34  1  0  0  0  0
 36 33  2  0  0  0  0
 37 24  1  0  0  0  0
 37 38  1  0  0  0  0
 38 39  1  0  0  0  0
 39 66  1  0  0  0  0
 39 40  1  0  0  0  0
 40 68  1  0  0  0  0
 40 69  1  0  0  0  0
 41 40  1  0  0  0  0
 41 70  1  0  0  0  0
 42 72  1  0  0  0  0
 42 41  1  0  0  0  0
 43 38  1  0  0  0  0
 43 42  1  0  0  0  0
 46  7  1  0  0  0  0
 47 11  1  0  0  0  0
 48 13  1  0  0  0  0
 50 19  1  0  0  0  0
 51 21  1  0  0  0  0
 54 26  1  0  0  0  0
 58 31  1  0  0  0  0
 61 35  1  0  0  0  0
 63 35  1  0  0  0  0
 64 37  1  0  0  0  0
 65 37  1  0  0  0  0
 67 39  1  0  0  0  0
 71 41  1  0  0  0  0
 73 42  1  0  0  0  0
 74 43  1  0  0  0  0
 75 43  1  0  0  0  0
M  END
