-1 1
 OpenBabel05192410563D

 99103  0  0  1  0  0  0  0  0999 V2000
   -5.1572   -2.3554   -1.2742 C   0  0  0  0  0  0  0  0  0  0  0  0
   -5.8172   -1.3755   -0.3191 C   0  0  0  0  0  0  0  0  0  0  0  0
   -4.9341   -0.3589    0.0970 O   0  0  0  0  0  0  0  0  0  0  0  0
   -4.5744    0.6221   -0.7391 C   0  0  0  0  0  0  0  0  0  0  0  0
   -5.2410    0.9498   -1.9049 C   0  0  0  0  0  0  0  0  0  0  0  0
   -3.4387    1.3962   -0.3117 C   0  0  0  0  0  0  0  0  0  0  0  0
   -2.8251    1.1307    0.9170 N   0  0  0  0  0  0  0  0  0  0  0  0
   -1.7960    0.1389    1.0805 C   0  0  0  0  0  0  0  0  0  0  0  0
   -0.9819    0.4333    2.0150 O   0  0  0  0  0  0  0  0  0  0  0  0
   -1.7187   -0.9623    0.2608 C   0  0  0  0  0  3  0  0  0  0  0  0
   -0.5756   -1.9032    0.4043 C   0  0  1  0  0  0  0  0  0  0  0  0
   -0.6795   -2.9418    1.9655 S   0  0  0  0  0  0  0  0  0  0  0  0
    1.0579   -2.9255    2.4907 C   0  0  0  0  0  0  0  0  0  0  0  0
    1.5497   -1.5589    3.0126 C   0  0  2  0  0  0  0  0  0  0  0  0
    1.2528   -0.7817    2.2964 H   0  0  0  0  0  0  0  0  0  0  0  0
    2.9864   -1.5340    3.1845 N   0  0  0  0  0  0  0  0  0  0  0  0
    3.8759   -1.2696    2.2105 C   0  0  0  0  0  0  0  0  0  0  0  0
    5.3084   -1.0914    2.6793 C   0  0  0  0  0  0  0  0  0  0  0  0
    3.5763   -1.1392    1.0302 O   0  0  0  0  0  0  0  0  0  0  0  0
    0.9666   -1.2341    4.3931 C   0  0  0  0  0  0  0  0  0  0  0  0
   -0.2172   -0.6174    4.3751 N   0  0  0  0  0  0  0  0  0  0  0  0
   -0.9479   -0.3176    5.5754 C   0  0  0  0  0  0  0  0  0  0  0  0
    1.5895   -1.5484    5.4088 O   0  0  0  0  0  0  0  0  0  0  0  0
   -0.4199   -2.8269   -0.8039 C   0  0  0  0  0  0  0  0  0  0  0  0
    0.8064   -3.6011   -0.7915 N   0  0  0  0  0  0  0  0  0  0  0  0
    1.9692   -2.8565   -1.2318 C   0  0  0  0  0  0  0  0  0  0  0  0
    3.2357   -3.6558   -0.9882 C   0  0  0  0  0  0  0  0  0  0  0  0
    3.1679   -4.9534   -1.6392 N   0  0  0  0  0  0  0  0  0  0  0  0
    1.9895   -5.6842   -1.2182 C   0  0  0  0  0  0  0  0  0  0  0  0
    0.7237   -4.8749   -1.4613 C   0  0  0  0  0  0  0  0  0  0  0  0
    4.3752   -5.7163   -1.4722 C   0  0  0  0  0  0  0  0  0  0  0  0
   -3.0044    2.4223   -1.1169 C   0  0  0  0  0  0  0  0  0  0  0  0
   -3.6458    2.7451   -2.3383 C   0  0  0  0  0  0  0  0  0  0  0  0
   -4.8142    2.0357   -2.7092 C   0  0  0  0  0  0  0  0  0  0  0  0
   -5.5432    2.3891   -3.8077 N   0  0  0  0  0  0  0  0  0  0  0  0
   -5.0908    3.4031   -4.4971 C   0  0  0  0  0  0  0  0  0  0  0  0
   -3.9319    4.0690   -4.3196 N   0  0  0  0  0  0  0  0  0  0  0  0
   -3.1898    3.7171   -3.2851 C   0  0  0  0  0  0  0  0  0  0  0  0
   -1.9523    4.3215   -3.1676 N   0  0  0  0  0  0  0  0  0  0  0  0
   -0.7995    3.5700   -2.7938 C   0  0  0  0  0  0  0  0  0  0  0  0
   -0.6372    2.2627   -3.2643 C   0  0  0  0  0  0  0  0  0  0  0  0
    0.4039    1.4768   -2.8047 C   0  0  0  0  0  0  0  0  0  0  0  0
    0.5719   -0.1466   -3.3945 Cl  0  0  0  0  0  0  0  0  0  0  0  0
    1.3292    1.9686   -1.8643 C   0  0  0  0  0  0  0  0  0  0  0  0
    2.2482    1.1005   -1.4201 O   0  0  0  0  0  0  0  0  0  0  0  0
    3.3463    1.5127   -0.6451 C   0  0  0  0  0  0  0  0  0  0  0  0
    3.0443    1.8530    0.7956 C   0  0  0  0  0  0  0  0  0  0  0  0
    4.1042    2.3063    1.5891 C   0  0  0  0  0  0  0  0  0  0  0  0
    3.8939    2.5211    2.9421 C   0  0  0  0  0  0  0  0  0  0  0  0
    4.9322    2.9113    3.6997 F   0  0  0  0  0  0  0  0  0  0  0  0
    2.6528    2.3273    3.5365 C   0  0  0  0  0  0  0  0  0  0  0  0
    1.6001    1.9000    2.7319 C   0  0  0  0  0  0  0  0  0  0  0  0
    1.7934    1.6513    1.3728 C   0  0  0  0  0  0  0  0  0  0  0  0
    1.2080    3.3032   -1.4628 C   0  0  0  0  0  0  0  0  0  0  0  0
    0.1464    4.0895   -1.9143 C   0  0  0  0  0  0  0  0  0  0  0  0
   -4.8428   -1.8601   -2.2044 H   0  0  0  0  0  0  0  0  0  0  0  0
   -5.8582   -3.1632   -1.5333 H   0  0  0  0  0  0  0  0  0  0  0  0
   -4.2672   -2.7947   -0.8014 H   0  0  0  0  0  0  0  0  0  0  0  0
   -6.1075   -1.8872    0.6090 H   0  0  0  0  0  0  0  0  0  0  0  0
   -6.7368   -0.9434   -0.7536 H   0  0  0  0  0  0  0  0  0  0  0  0
   -6.1304    0.4142   -2.2348 H   0  0  0  0  0  0  0  0  0  0  0  0
   -2.4730    1.9701    1.3645 H   0  0  0  0  0  0  0  0  0  0  0  0
   -2.4737   -1.1536   -0.5026 H   0  0  0  0  0  0  0  0  0  0  0  0
    0.3581   -1.3349    0.5427 H   0  0  0  0  0  0  0  0  0  0  0  0
    1.6761   -3.2225    1.6325 H   0  0  0  0  0  0  0  0  0  0  0  0
    1.1726   -3.6877    3.2772 H   0  0  0  0  0  0  0  0  0  0  0  0
    3.2712   -1.6205    4.1573 H   0  0  0  0  0  0  0  0  0  0  0  0
    5.4939   -0.0149    2.8172 H   0  0  0  0  0  0  0  0  0  0  0  0
    5.5169   -1.6046    3.6285 H   0  0  0  0  0  0  0  0  0  0  0  0
    5.9865   -1.4602    1.8994 H   0  0  0  0  0  0  0  0  0  0  0  0
   -0.6245   -0.3521    3.4503 H   0  0  0  0  0  0  0  0  0  0  0  0
   -1.3006    0.7254    5.5589 H   0  0  0  0  0  0  0  0  0  0  0  0
   -0.2912   -0.4657    6.4431 H   0  0  0  0  0  0  0  0  0  0  0  0
   -1.8293   -0.9718    5.6847 H   0  0  0  0  0  0  0  0  0  0  0  0
   -0.4965   -2.2096   -1.7242 H   0  0  0  0  0  0  0  0  0  0  0  0
   -1.2733   -3.5244   -0.8180 H   0  0  0  0  0  0  0  0  0  0  0  0
    2.0436   -1.9110   -0.6780 H   0  0  0  0  0  0  0  0  0  0  0  0
    1.9015   -2.6121   -2.3163 H   0  0  0  0  0  0  0  0  0  0  0  0
    3.3908   -3.7581    0.1097 H   0  0  0  0  0  0  0  0  0  0  0  0
    4.0995   -3.0968   -1.3813 H   0  0  0  0  0  0  0  0  0  0  0  0
    2.0387   -5.9428   -0.1343 H   0  0  0  0  0  0  0  0  0  0  0  0
    1.9353   -6.6312   -1.7819 H   0  0  0  0  0  0  0  0  0  0  0  0
   -0.1395   -5.4339   -1.0674 H   0  0  0  0  0  0  0  0  0  0  0  0
    0.5795   -4.7613   -2.5628 H   0  0  0  0  0  0  0  0  0  0  0  0
    5.2381   -5.1503   -1.8579 H   0  0  0  0  0  0  0  0  0  0  0  0
    4.3117   -6.6622   -2.0345 H   0  0  0  0  0  0  0  0  0  0  0  0
    4.5898   -5.9708   -0.4071 H   0  0  0  0  0  0  0  0  0  0  0  0
   -2.1262    2.9790   -0.7922 H   0  0  0  0  0  0  0  0  0  0  0  0
   -5.6987    3.7383   -5.3471 H   0  0  0  0  0  0  0  0  0  0  0  0
   -1.8127    5.0107   -3.9008 H   0  0  0  0  0  0  0  0  0  0  0  0
   -1.3540    1.8372   -3.9676 H   0  0  0  0  0  0  0  0  0  0  0  0
    3.8626    2.3566   -1.1409 H   0  0  0  0  0  0  0  0  0  0  0  0
    4.0167    0.6415   -0.6371 H   0  0  0  0  0  0  0  0  0  0  0  0
    5.1033    2.4616    1.1739 H   0  0  0  0  0  0  0  0  0  0  0  0
    2.5313    2.4958    4.6075 H   0  0  0  0  0  0  0  0  0  0  0  0
    0.6074    1.7090    3.1418 H   0  0  0  0  0  0  0  0  0  0  0  0
    0.9508    1.2593    0.8006 H   0  0  0  0  0  0  0  0  0  0  0  0
    1.9082    3.7149   -0.7357 H   0  0  0  0  0  0  0  0  0  0  0  0
    0.0235    5.1064   -1.5368 H   0  0  0  0  0  0  0  0  0  0  0  0
  1 58  1  0  0  0  0
  1  2  1  0  0  0  0
  2  3  1  0  0  0  0
  2 59  1  0  0  0  0
  4  6  1  0  0  0  0
  4  3  1  0  0  0  0
  5  4  2  0  0  0  0
  6  7  1  0  0  0  0
  7  8  1  0  0  0  0
  7 62  1  0  0  0  0
  8  9  2  0  0  0  0
 10 11  1  0  0  0  0
 10  8  1  0  0  0  0
 11 64  1  1  0  0  0
 11 12  1  0  0  0  0
 12 13  1  0  0  0  0
 13 14  1  0  0  0  0
 13 66  1  0  0  0  0
 14 15  1  6  0  0  0
 14 16  1  0  0  0  0
 14 20  1  0  0  0  0
 16 67  1  0  0  0  0
 17 18  1  0  0  0  0
 17 16  1  0  0  0  0
 18 68  1  0  0  0  0
 18 69  1  0  0  0  0
 19 17  2  0  0  0  0
 20 23  2  0  0  0  0
 21 20  1  0  0  0  0
 21 22  1  0  0  0  0
 22 74  1  0  0  0  0
 22 73  1  0  0  0  0
 24 25  1  0  0  0  0
 24 11  1  0  0  0  0
 26 27  1  0  0  0  0
 26 25  1  0  0  0  0
 26 77  1  0  0  0  0
 27 79  1  0  0  0  0
 28 31  1  0  0  0  0
 28 29  1  0  0  0  0
 28 27  1  0  0  0  0
 29 81  1  0  0  0  0
 30 29  1  0  0  0  0
 30 83  1  0  0  0  0
 30 25  1  0  0  0  0
 31 87  1  0  0  0  0
 32 88  1  0  0  0  0
 32  6  2  0  0  0  0
 33 32  1  0  0  0  0
 34 33  2  0  0  0  0
 34  5  1  0  0  0  0
 35 34  1  0  0  0  0
 36 37  1  0  0  0  0
 36 35  2  0  0  0  0
 37 38  2  0  0  0  0
 38 39  1  0  0  0  0
 38 33  1  0  0  0  0
 39 40  1  0  0  0  0
 40 55  1  0  0  0  0
 41 42  1  0  0  0  0
 41 40  2  0  0  0  0
 42 44  2  0  0  0  0
 43 42  1  0  0  0  0
 44 54  1  0  0  0  0
 44 45  1  0  0  0  0
 45 46  1  0  0  0  0
 46 93  1  0  0  0  0
 46 47  1  0  0  0  0
 47 53  2  0  0  0  0
 47 48  1  0  0  0  0
 48 49  2  0  0  0  0
 49 51  1  0  0  0  0
 49 50  1  0  0  0  0
 51 95  1  0  0  0  0
 52 96  1  0  0  0  0
 52 51  2  0  0  0  0
 53 52  1  0  0  0  0
 54 98  1  0  0  0  0
 55 99  1  0  0  0  0
 55 54  2  0  0  0  0
 56  1  1  0  0  0  0
 57  1  1  0  0  0  0
 60  2  1  0  0  0  0
 61  5  1  0  0  0  0
 63 10  1  0  0  0  0
 65 13  1  0  0  0  0
 70 18  1  0  0  0  0
 71 21  1  0  0  0  0
 72 22  1  0  0  0  0
 75 24  1  0  0  0  0
 76 24  1  0  0  0  0
 78 26  1  0  0  0  0
 80 27  1  0  0  0  0
 82 29  1  0  0  0  0
 84 30  1  0  0  0  0
 85 31  1  0  0  0  0
 86 31  1  0  0  0  0
 89 36  1  0  0  0  0
 90 39  1  0  0  0  0
 91 41  1  0  0  0  0
 92 46  1  0  0  0  0
 94 48  1  0  0  0  0
 97 53  1  0  0  0  0
M  END
