88
-1 1
O         2.748190    0.961055    4.733886
C         2.740522    0.532152    3.581430
N         3.907420    0.893017    2.768030
C         3.864285    1.665791    1.642906
C         2.683514    1.878489    0.924838
N         5.037345    2.237432    1.255568
C         5.060889    3.001673    0.189071
C         3.928069    3.285836   -0.612586
C         2.719228    2.683039   -0.211736
C         1.561236    2.987439   -1.030112
N         0.390595    2.383862   -0.686386
C        -0.899678    2.516188   -1.215566
C        -1.937875    2.000189   -0.447215
C        -3.230710    1.972574   -0.991267
C        -4.511736    1.477910   -0.586437
N        -5.412384    1.674380   -1.523421
N        -4.793962    2.306574   -2.538102
C        -5.464939    2.516781   -3.792523
C        -4.977722    1.596921   -4.896580
C        -4.480868    0.324487   -4.598083
C        -4.044407   -0.518872   -5.617243
C        -4.103377   -0.103644   -6.947429
C        -4.598160    1.163227   -7.252416
C        -5.027878    2.009039   -6.230598
C        -3.463692    2.498941   -2.276081
C        -2.431014    3.062789   -3.040975
C        -1.159089    3.067505   -2.501157
N         1.660519    3.816161   -2.045941
C         2.886385    4.342445   -2.315605
N         4.006570    4.125137   -1.691869
C         1.754037   -0.250002    2.943179
C         2.008470   -1.124218    1.813775
S         2.948096   -2.826901    2.354198
C         2.005438   -3.193215    3.850015
C         0.704446   -3.997090    3.627617
H         0.203062   -3.592226    2.735986
N        -0.206178   -3.873780    4.737039
C        -1.170832   -2.921185    4.772623
C        -2.058838   -2.947495    6.002302
O        -1.307377   -2.075324    3.906081
C         0.973657   -5.491391    3.416745
N         1.684108   -5.781009    2.304846
C         2.137520   -7.113121    2.000418
O         0.573551   -6.330816    4.212004
C         0.769320   -1.540621    1.009472
N         0.483743   -0.715449   -0.165887
C         1.499718   -0.828317   -1.211221
C         0.804809   -0.355909   -2.490237
C        -0.682550   -0.701645   -2.266841
C        -0.757581   -1.160057   -0.802373
H         4.731375    1.068930    3.333178
H         1.769997    1.425326    1.308501
H         6.017048    3.458806   -0.093394
H         0.483756    1.565193   -0.078656
H        -1.729457    1.585630    0.541499
H        -4.786635    0.987353    0.346050
H        -5.347857    3.568151   -4.103258
H        -6.533769    2.349272   -3.594985
H        -4.426011   -0.002320   -3.556962
H        -3.648994   -1.505974   -5.367883
H        -3.755449   -0.764067   -7.744813
H        -4.639363    1.500799   -8.290617
H        -5.400699    3.008317   -6.474118
H        -2.611754    3.462124   -4.040554
H        -0.318213    3.484235   -3.051874
H         2.912733    5.024361   -3.174648
H         0.835289   -0.406549    3.514493
H         2.805838   -0.769020    1.147995
H         1.743436   -2.212026    4.282310
H         2.657418   -3.711067    4.569717
H        -0.238838   -4.675643    5.357757
H        -3.088882   -2.721261    5.698285
H        -1.728274   -2.149961    6.684298
H        -2.029736   -3.905577    6.540037
H         2.094397   -4.982540    1.812368
H         3.223561   -7.221064    2.158253
H         1.911242   -7.375620    0.955310
H         1.617242   -7.814144    2.665270
H        -0.105277   -1.515207    1.678732
H         0.885916   -2.590534    0.662645
H         1.824653   -1.888217   -1.319553
H         2.392854   -0.235319   -0.964742
H         1.227255   -0.845455   -3.379404
H         0.934782    0.726367   -2.628018
H        -1.022264   -1.504075   -2.938530
H        -1.326604    0.167545   -2.457081
H        -0.822738   -2.269919   -0.762301
H        -1.634770   -0.769733   -0.264495
