-1 1
 OpenBabel05232414493D

 88 93  0  0  1  0  0  0  0  0999 V2000
    3.2035    5.0952   -1.4325 O   0  0  0  0  0  0  0  0  0  0  0  0
    3.1657    4.8062   -2.6230 C   0  0  0  0  0  0  0  0  0  0  0  0
    4.2844    5.2657   -3.4246 N   0  0  0  0  0  0  0  0  0  0  0  0
    4.2135    6.0606   -4.5385 C   0  0  0  0  0  0  0  0  0  0  0  0
    3.0279    6.2754   -5.2440 C   0  0  0  0  0  0  0  0  0  0  0  0
    5.3755    6.6584   -4.9131 N   0  0  0  0  0  0  0  0  0  0  0  0
    5.3862    7.4509   -5.9590 C   0  0  0  0  0  0  0  0  0  0  0  0
    4.2473    7.7366   -6.7512 C   0  0  0  0  0  0  0  0  0  0  0  0
    3.0496    7.1040   -6.3650 C   0  0  0  0  0  0  0  0  0  0  0  0
    1.8865    7.4029   -7.1788 C   0  0  1  0  0  3  0  0  0  0  0  0
    0.7297    6.7615   -6.8615 N   0  0  0  0  0  0  0  0  0  0  0  0
   -0.5612    6.8862   -7.3949 C   0  0  0  0  0  0  0  0  0  0  0  0
   -1.5932    6.3341   -6.6439 C   0  0  0  0  0  0  0  0  0  0  0  0
   -2.8831    6.2971   -7.1943 C   0  0  0  0  0  0  0  0  0  0  0  0
   -4.1569    5.7710   -6.8071 C   0  0  0  0  0  0  0  0  0  0  0  0
   -5.0566    5.9739   -7.7436 N   0  0  0  0  0  0  0  0  0  0  0  0
   -4.4448    6.6403   -8.7403 N   0  0  0  0  0  0  0  0  0  0  0  0
   -5.1139    6.8686   -9.9928 C   0  0  0  0  0  0  0  0  0  0  0  0
   -4.6013    5.9875  -11.1168 C   0  0  0  0  0  0  0  0  0  0  0  0
   -4.0860    4.7158  -10.8479 C   0  0  0  0  0  0  0  0  0  0  0  0
   -3.6256    3.9078  -11.8850 C   0  0  0  0  0  0  0  0  0  0  0  0
   -3.6789    4.3581  -13.2040 C   0  0  0  0  0  0  0  0  0  0  0  0
   -4.1920    5.6244  -13.4795 C   0  0  0  0  0  0  0  0  0  0  0  0
   -4.6457    6.4349  -12.4395 C   0  0  0  0  0  0  0  0  0  0  0  0
   -3.1195    6.8495   -8.4675 C   0  0  0  0  0  0  0  0  0  0  0  0
   -2.0935    7.4488   -9.2143 C   0  0  0  0  0  0  0  0  0  0  0  0
   -0.8243    7.4625   -8.6685 C   0  0  0  0  0  0  0  0  0  0  0  0
    1.9709    8.2646   -8.1689 N   0  0  0  0  0  0  0  0  0  0  0  0
    3.1854    8.8224   -8.4219 C   0  0  0  0  0  0  0  0  0  0  0  0
    4.3109    8.6063   -7.8068 N   0  0  0  0  0  2  0  0  0  0  0  0
    2.1494    4.0643   -3.2954 C   0  0  0  0  0  3  0  0  0  0  0  0
    2.3789    3.2794   -4.4521 C   0  0  1  0  0  0  0  0  0  0  0  0
    3.3677    1.3818   -3.9328 S   0  0  0  0  0  0  0  0  0  0  0  0
    2.4783    1.1300   -2.3828 C   0  0  0  0  0  0  0  0  0  0  0  0
    1.1318    0.3839   -2.5264 C   0  0  2  0  0  0  0  0  0  0  0  0
    0.6277    0.7718   -3.4244 H   0  0  0  0  0  0  0  0  0  0  0  0
    0.2576    0.6023   -1.4013 N   0  0  0  0  0  0  0  0  0  0  0  0
   -0.6720    1.5872   -1.3862 C   0  0  0  0  0  0  0  0  0  0  0  0
   -1.5204    1.6539   -0.1299 C   0  0  0  0  0  0  0  0  0  0  0  0
   -0.8109    2.3953   -2.2892 O   0  0  0  0  0  0  0  0  0  0  0  0
    1.3213   -1.1306   -2.6703 C   0  0  0  0  0  0  0  0  0  0  0  0
    1.9967   -1.5067   -3.7771 N   0  0  0  0  0  0  0  0  0  0  0  0
    2.3863   -2.8713   -4.0162 C   0  0  0  0  0  0  0  0  0  0  0  0
    0.8932   -1.9108   -1.8292 O   0  0  0  0  0  0  0  0  0  0  0  0
    1.1607    2.8372   -5.2564 C   0  0  0  0  0  0  0  0  0  0  0  0
    0.8646    3.6764   -6.4236 N   0  0  0  0  0  0  0  0  0  0  0  0
    1.8911    3.5991   -7.4629 C   0  0  0  0  0  0  0  0  0  0  0  0
    1.1961    4.0790   -8.7393 C   0  0  0  0  0  0  0  0  0  0  0  0
   -0.2859    3.7007   -8.5322 C   0  0  0  0  0  0  0  0  0  0  0  0
   -0.3600    3.2110   -7.0780 C   0  0  0  0  0  0  0  0  0  0  0  0
    5.1141    5.4414   -2.8679 H   0  0  0  0  0  0  0  0  0  0  0  0
    2.1187    5.8027   -4.8781 H   0  0  0  0  0  0  0  0  0  0  0  0
    6.3344    7.9304   -6.2300 H   0  0  0  0  0  0  0  0  0  0  0  0
    0.8365    5.9138   -6.2944 H   0  0  0  0  0  0  0  0  0  0  0  0
   -1.3817    5.8993   -5.6646 H   0  0  0  0  0  0  0  0  0  0  0  0
   -4.4273    5.2537   -5.8879 H   0  0  0  0  0  0  0  0  0  0  0  0
   -5.0175    7.9298  -10.2760 H   0  0  0  0  0  0  0  0  0  0  0  0
   -6.1799    6.6736   -9.8053 H   0  0  0  0  0  0  0  0  0  0  0  0
   -4.0355    4.3615   -9.8155 H   0  0  0  0  0  0  0  0  0  0  0  0
   -3.2161    2.9210  -11.6585 H   0  0  0  0  0  0  0  0  0  0  0  0
   -3.3124    3.7255  -14.0154 H   0  0  0  0  0  0  0  0  0  0  0  0
   -4.2291    5.9894  -14.5085 H   0  0  0  0  0  0  0  0  0  0  0  0
   -5.0330    7.4341  -12.6596 H   0  0  0  0  0  0  0  0  0  0  0  0
   -2.2769    7.8679  -10.2052 H   0  0  0  0  0  0  0  0  0  0  0  0
    0.0111    7.9064   -9.2061 H   0  0  0  0  0  0  0  0  0  0  0  0
    3.1983    9.5309   -9.2594 H   0  0  0  0  0  0  0  0  0  0  0  0
    1.2345    3.8968   -2.7215 H   0  0  0  0  0  0  0  0  0  0  0  0
    3.2221    3.5855   -5.0795 H   0  0  0  0  0  0  0  0  0  0  0  0
    2.2686    2.1370   -1.9798 H   0  0  0  0  0  0  0  0  0  0  0  0
    3.1238    0.6141   -1.6550 H   0  0  0  0  0  0  0  0  0  0  0  0
    0.2109   -0.1674   -0.7416 H   0  0  0  0  0  0  0  0  0  0  0  0
   -2.5508    1.9047   -0.4128 H   0  0  0  0  0  0  0  0  0  0  0  0
   -1.1381    2.4695    0.5019 H   0  0  0  0  0  0  0  0  0  0  0  0
   -1.5092    0.7222    0.4531 H   0  0  0  0  0  0  0  0  0  0  0  0
    2.4485   -0.7494   -4.3021 H   0  0  0  0  0  0  0  0  0  0  0  0
    3.4665   -3.0230   -3.8524 H   0  0  0  0  0  0  0  0  0  0  0  0
    2.1472   -3.1730   -5.0479 H   0  0  0  0  0  0  0  0  0  0  0  0
    1.8346   -3.5146   -3.3187 H   0  0  0  0  0  0  0  0  0  0  0  0
    0.2841    2.8389   -4.5895 H   0  0  0  0  0  0  0  0  0  0  0  0
    1.3037    1.7961   -5.6122 H   0  0  0  0  0  0  0  0  0  0  0  0
    2.2372    2.5481   -7.5848 H   0  0  0  0  0  0  0  0  0  0  0  0
    2.7711    4.2045   -7.1996 H   0  0  0  0  0  0  0  0  0  0  0  0
    1.6343    3.6125   -9.6332 H   0  0  0  0  0  0  0  0  0  0  0  0
    1.3054    5.1660   -8.8587 H   0  0  0  0  0  0  0  0  0  0  0  0
   -0.6069    2.9064   -9.2224 H   0  0  0  0  0  0  0  0  0  0  0  0
   -0.9452    4.5617   -8.7079 H   0  0  0  0  0  0  0  0  0  0  0  0
   -0.3946    2.0996   -7.0597 H   0  0  0  0  0  0  0  0  0  0  0  0
   -1.2513    3.5671   -6.5397 H   0  0  0  0  0  0  0  0  0  0  0  0
  2  1  2  0  0  0  0
  3 51  1  0  0  0  0
  3  2  1  0  0  0  0
  4  3  1  0  0  0  0
  5 52  1  0  0  0  0
  5  4  2  0  0  0  0
  6  4  1  0  0  0  0
  7  6  2  0  0  0  0
  8  9  2  0  0  0  0
  8  7  1  0  0  0  0
  9  5  1  0  0  0  0
 10 11  1  1  0  0  0
 10  9  1  0  0  0  0
 11 54  1  0  0  0  0
 12 11  1  0  0  0  0
 12 13  1  0  0  0  0
 13 55  1  0  0  0  0
 14 15  1  0  0  0  0
 14 13  2  0  0  0  0
 15 56  1  0  0  0  0
 16 15  2  0  0  0  0
 17 25  1  0  0  0  0
 17 16  1  0  0  0  0
 18 58  1  0  0  0  0
 18 17  1  0  0  0  0
 19 20  1  0  0  0  0
 19 18  1  0  0  0  0
 20 59  1  0  0  0  0
 21 60  1  0  0  0  0
 21 20  2  0  0  0  0
 22 21  1  0  0  0  0
 23 22  2  0  0  0  0
 23 24  1  0  0  0  0
 24 19  2  0  0  0  0
 25 14  1  0  0  0  0
 26 27  1  0  0  0  0
 26 25  2  0  0  0  0
 27 12  2  0  0  0  0
 28 10  1  0  0  0  0
 29 28  2  0  0  0  0
 29 30  1  0  0  0  0
 30  8  1  0  0  0  0
 31 67  1  0  0  0  0
 31  2  1  0  0  0  0
 32 68  1  6  0  0  0
 32 33  1  0  0  0  0
 32 31  1  0  0  0  0
 33 34  1  0  0  0  0
 34 69  1  0  0  0  0
 34 70  1  0  0  0  0
 35 36  1  6  0  0  0
 35 34  1  0  0  0  0
 35 37  1  0  0  0  0
 37 38  1  0  0  0  0
 37 71  1  0  0  0  0
 38 39  1  0  0  0  0
 39 74  1  0  0  0  0
 39 73  1  0  0  0  0
 40 38  2  0  0  0  0
 41 35  1  0  0  0  0
 41 44  2  0  0  0  0
 42 41  1  0  0  0  0
 43 76  1  0  0  0  0
 43 42  1  0  0  0  0
 43 78  1  0  0  0  0
 45 79  1  0  0  0  0
 45 32  1  0  0  0  0
 46 45  1  0  0  0  0
 47 82  1  0  0  0  0
 47 46  1  0  0  0  0
 48 49  1  0  0  0  0
 48 47  1  0  0  0  0
 49 50  1  0  0  0  0
 50 87  1  0  0  0  0
 50 88  1  0  0  0  0
 50 46  1  0  0  0  0
 53  7  1  0  0  0  0
 57 18  1  0  0  0  0
 61 22  1  0  0  0  0
 62 23  1  0  0  0  0
 63 24  1  0  0  0  0
 64 26  1  0  0  0  0
 65 27  1  0  0  0  0
 66 29  1  0  0  0  0
 72 39  1  0  0  0  0
 75 42  1  0  0  0  0
 77 43  1  0  0  0  0
 80 45  1  0  0  0  0
 81 47  1  0  0  0  0
 83 48  1  0  0  0  0
 84 48  1  0  0  0  0
 85 49  1  0  0  0  0
 86 49  1  0  0  0  0
M  END
