85
-1 1
C         1.612525   -4.632902    1.986318
O         1.112883   -3.579521    2.784514
C         0.098223   -2.785229    2.394255
C        -0.637452   -2.214770    3.420278
C        -0.229071   -2.473410    1.035822
N         0.512386   -2.989800   -0.049792
C         1.681638   -2.306222   -0.526286
O         1.871926   -2.370619   -1.769532
C         2.478754   -1.615342    0.378551
C         3.561840   -0.765780   -0.114874
S         2.946347    1.016851   -0.688522
C         1.280142    1.118886    0.006657
C         0.128493    1.103437   -1.006958
H        -0.801802    1.029294   -0.425271
N         0.210683   -0.017754   -1.916731
C        -0.894574   -0.560101   -2.465464
C        -0.659962   -1.686496   -3.440703
O        -2.031718   -0.161157   -2.199797
C         0.005252    2.455286   -1.721854
N         0.522183    2.499907   -2.974237
C         0.560622    3.706361   -3.756344
O        -0.505595    3.407952   -1.161238
C         4.731267   -0.523718    0.853764
N         5.822754   -1.479057    0.739792
C         7.155408   -0.901269    0.856030
C         7.617505   -0.665321    2.303452
C         8.197454   -1.687645    0.056535
C         5.663844   -2.833381    1.276992
C         4.857614   -2.920430    2.577860
C         5.139624   -3.803286    0.213241
C        -1.283054   -1.606723    0.800025
C        -2.022106   -0.998838    1.833028
C        -1.697514   -1.321708    3.175120
N        -2.387949   -0.794672    4.233622
C        -3.338630    0.039565    3.925462
N        -3.699750    0.478021    2.701664
C        -3.050727    0.003616    1.654023
N        -3.325325    0.486690    0.406547
C        -4.118441    1.589891    0.044233
C        -3.861765    2.157101   -1.215262
C        -4.601982    3.241721   -1.659372
Cl        -4.273696    3.946876   -3.218298
C        -5.605409    3.784562   -0.858761
F        -6.316092    4.831662   -1.284570
C        -5.864458    3.231075    0.384393
C        -5.132543    2.137629    0.842704
H         2.150365   -5.295206    2.679000
H         2.306435   -4.263724    1.218830
H         0.800501   -5.192891    1.499180
H        -0.390661   -2.463913    4.452198
H        -0.059996   -3.233186   -0.850436
H         2.216919   -1.576100    1.437004
H         3.953451   -1.143703   -1.068064
H         1.183685    2.028247    0.614610
H         1.166878    0.239983    0.662122
H         1.089223   -0.549321   -1.995840
H        -0.496900   -1.256101   -4.441327
H        -1.560003   -2.312627   -3.481557
H         0.232192   -2.265418   -3.153703
H         0.988844    1.665546   -3.306113
H         0.066410    3.569516   -4.731386
H         1.595282    4.045099   -3.927861
H         0.024645    4.482140   -3.194423
H         4.323060   -0.439510    1.883239
H         5.159870    0.462005    0.628462
H         7.090391    0.088379    0.375171
H         7.736634   -1.618284    2.844479
H         6.881636   -0.055788    2.849983
H         8.586007   -0.140463    2.334416
H         8.390161   -2.682429    0.488607
H         9.157368   -1.147598    0.037687
H         7.849500   -1.827729   -0.976990
H         6.678595   -3.178680    1.535051
H         5.251665   -2.226530    3.336453
H         4.919755   -3.940773    2.988239
H         3.795705   -2.691455    2.417798
H         5.811819   -3.805513   -0.657670
H         4.139527   -3.503545   -0.129790
H         5.081514   -4.830384    0.611887
H        -1.514142   -1.381708   -0.239997
H        -3.921960    0.458259    4.755824
H        -2.781531    0.121233   -0.377401
H        -3.078132    1.738546   -1.848129
H        -6.653357    3.670402    0.997501
H        -5.321202    1.714273    1.824612
