85
-1 1
C         1.823720  -11.535846    9.681912
O         1.434536  -10.379701   10.392895
C         0.402904   -9.606220    9.995697
C        -0.300486   -8.976730   11.008783
C         0.036170   -9.371787    8.633377
N         0.733500   -9.955598    7.550707
C         1.922762   -9.402766    7.012708
O         2.133624   -9.606030    5.807499
C         2.782424   -8.679983    7.885188
C         3.881642   -7.977531    7.363085
S         3.244875   -5.893300    6.727126
C         1.627943   -5.835059    7.532332
C         0.405107   -5.828661    6.602353
H        -0.492992   -5.965252    7.219023
N         0.495298   -6.920312    5.655614
C        -0.573937   -7.519368    5.105044
C        -0.269558   -8.558719    4.055033
O        -1.732920   -7.250306    5.436428
C         0.169904   -4.483889    5.893224
N         1.126357   -4.141647    4.995096
C         1.111031   -2.886905    4.290956
O        -0.814828   -3.804676    6.130595
C         5.065492   -7.646321    8.261058
N         6.138588   -8.627747    8.186372
C         7.482894   -8.067393    8.235320
C         7.978287   -7.742113    9.653864
C         8.493840   -8.925565    7.470937
C         5.965501   -9.939108    8.817222
C         5.177318   -9.923753   10.132046
C         5.411638  -10.972483    7.830184
C        -1.029342   -8.528141    8.375480
C        -1.739708   -7.867480    9.394240
C        -1.376091   -8.107082   10.742765
N        -2.050972   -7.532751   11.786114
C        -3.036284   -6.747800   11.452904
N        -3.443488   -6.394166   10.216941
C        -2.799805   -6.904519    9.181548
N        -3.109850   -6.506438    7.917096
C        -4.025845   -5.522537    7.506317
C        -3.806734   -4.956064    6.240637
C        -4.682158   -4.004133    5.741347
Cl        -4.408230   -3.295780    4.173652
C        -5.781803   -3.595180    6.494257
F        -6.622842   -2.675073    6.014936
C        -6.000509   -4.145437    7.746763
C        -5.132940   -5.107726    8.259046
H         2.338776  -12.176275   10.411562
H         2.513849  -11.294772    8.861276
H         0.953972  -12.073669    9.274981
H        -0.022483   -9.166223   12.045429
H         0.140311  -10.282299    6.795890
H         2.539662   -8.595306    8.945209
H         4.178970   -8.273743    6.353384
H         1.561427   -4.973173    8.211171
H         1.554712   -6.756141    8.142894
H         1.434262   -7.257051    5.434994
H         0.050760   -8.055283    3.129893
H        -1.180577   -9.133105    3.849693
H         0.552615   -9.209599    4.394930
H         1.985110   -4.693205    5.015066
H         1.302774   -3.035231    3.216589
H         1.865315   -2.185473    4.685812
H         0.118414   -2.436128    4.417725
H         4.692400   -7.472421    9.291843
H         5.491780   -6.689782    7.934924
H         7.423001   -7.111757    7.689623
H         8.093418   -8.658069   10.256326
H         7.264207   -7.083602   10.171634
H         8.955538   -7.233520    9.629833
H         8.678178   -9.892273    7.965961
H         9.462459   -8.406398    7.396588
H         8.122384   -9.128414    6.456168
H         6.977809  -10.284087    9.084919
H         5.594734   -9.187592   10.836181
H         5.228724  -10.914946   10.609802
H         4.116717   -9.686152    9.975638
H         6.071642  -11.045617    6.953162
H         4.413029  -10.683496    7.474975
H         5.343762  -11.968456    8.299710
H        -1.298252   -8.369527    7.331897
H        -3.611025   -6.298267   12.273179
H        -2.524499   -6.845011    7.147473
H        -2.934551   -5.251833    5.657301
H        -6.865063   -3.809273    8.321880
H        -5.291247   -5.524486    9.249338
