104
-1 1
C        -3.778675   -3.056732   -3.733696
C        -2.720583   -3.423547   -2.721128
O        -1.930021   -2.287974   -2.436409
C        -0.999176   -2.377387   -1.485133
C        -0.631067   -3.562058   -0.877038
C        -0.315567   -1.153745   -1.139244
N        -0.673632    0.047898   -1.731980
C        -1.980277    0.633864   -1.535409
O        -2.832149   -0.075342   -0.939844
C        -2.120382    1.908802   -2.058702
C        -3.275563    2.843631   -1.874179
S        -4.170715    3.221398   -3.498139
C        -5.572519    2.071910   -3.677553
C        -5.383209    0.542710   -3.760309
H        -6.350568    0.163994   -4.117030
N        -5.159912   -0.082827   -2.472893
C        -6.210334   -0.326036   -1.646632
C        -5.834635   -0.919565   -0.302839
O        -7.373931   -0.098205   -1.950758
C        -4.377208    0.069700   -4.819595
N        -3.079024    0.206612   -4.490190
C        -2.001267   -0.247838   -5.324588
O        -4.768647   -0.422040   -5.869405
C        -4.210687    2.536220   -0.690346
N        -4.762481    3.699955   -0.019237
C        -4.685430    3.664706    1.437603
C        -5.164982    2.359119    2.098467
C        -3.265776    4.009868    1.896393
C        -5.973214    4.252070   -0.620646
C        -7.273811    3.504257   -0.289254
C        -6.107270    5.749872   -0.342919
C         0.743735   -1.224164   -0.257427
C         1.169440   -2.442663    0.329165
C         0.452733   -3.623697    0.031779
N         0.789072   -4.828093    0.581433
C         1.805492   -4.824233    1.396881
N         2.568353   -3.772408    1.761228
C         2.267631   -2.596933    1.243478
N         3.008558   -1.490393    1.571928
C         4.109738   -1.335140    2.422434
C         4.703712   -2.366764    3.140319
C         5.809863   -2.053130    3.953271
C         6.682792   -2.792594    4.812775
N         7.588795   -2.010233    5.358121
N         7.355165   -0.765786    4.907191
C         8.215855    0.329269    5.270699
C         9.058059    0.841777    4.119177
C         9.578674   -0.046881    3.173235
C        10.367682    0.421403    2.125762
C        10.647841    1.783528    2.011303
C        10.130974    2.674953    2.949243
C         9.336880    2.204726    3.995164
C         6.294851   -0.735544    4.042979
C         5.706884    0.312429    3.316027
C         4.626380   -0.008500    2.523155
H        -3.334527   -2.691556   -4.669157
H        -4.435494   -2.271508   -3.337922
H        -4.388721   -3.942608   -3.964111
H        -2.074608   -4.237113   -3.102501
H        -3.187181   -3.782081   -1.785865
H        -1.124927   -4.505178   -1.101170
H         0.067215    0.736846   -1.731316
H        -1.275530    2.320839   -2.620171
H        -2.881643    3.853693   -1.679128
H        -6.024667    2.406864   -4.623963
H        -6.318729    2.259405   -2.890881
H        -4.218236   -0.134254   -2.042959
H        -4.753371   -0.877936   -0.117375
H        -6.181605   -1.963845   -0.273933
H        -6.375600   -0.371564    0.481298
H        -2.816794    0.740448   -3.653449
H        -1.313570   -0.874575   -4.736015
H        -1.433592    0.597339   -5.749465
H        -2.423451   -0.831445   -6.153547
H        -3.605529    1.964212    0.021293
H        -5.000868    1.833426   -0.996309
H        -5.346451    4.467324    1.802901
H        -5.200842    2.474973    3.193651
H        -4.488371    1.519907    1.876276
H        -6.168432    2.076450    1.752246
H        -2.970708    4.994706    1.506169
H        -2.545469    3.268064    1.515450
H        -3.188371    4.021969    2.995779
H        -5.811117    4.163028   -1.704959
H        -7.552315    3.624696    0.770919
H        -7.191726    2.427838   -0.507866
H        -8.106029    3.895081   -0.895914
H        -5.174690    6.267072   -0.611459
H        -6.325530    5.961674    0.716921
H        -6.930541    6.178608   -0.935532
H         1.223768   -0.275490   -0.001415
H         2.088794   -5.783013    1.848814
H         2.709128   -0.638180    1.122943
H         4.306120   -3.374942    3.055541
H         6.669561   -3.857146    5.041066
H         8.857804   -0.050842    6.078502
H         7.611795    1.151262    5.689165
H         9.353116   -1.112795    3.258998
H        10.763421   -0.282232    1.390048
H        11.262701    2.150030    1.186342
H        10.337519    3.744069    2.862137
H         8.923067    2.909876    4.721904
H         6.088686    1.333542    3.361195
H         4.145924    0.784810    1.943126
