-1 1
 OpenBabel05232414493D

104107  0  0  1  0  0  0  0  0999 V2000
    1.6370   -7.0199    3.8696 C   0  0  0  0  0  0  0  0  0  0  0  0
    2.7676   -7.4319    4.7783 C   0  0  0  0  0  0  0  0  0  0  0  0
    3.6101   -6.3163    5.0018 O   0  0  0  0  0  0  0  0  0  0  0  0
    4.5717   -6.4087    5.9151 C   0  0  0  0  0  0  0  0  0  0  0  0
    4.9689   -7.5950    6.5058 C   0  0  0  0  0  0  0  0  0  0  0  0
    5.2519   -5.1868    6.2568 C   0  0  0  0  0  0  0  0  0  0  0  0
    4.8754   -3.9698    5.6823 N   0  0  0  0  0  0  0  0  0  0  0  0
    3.6154   -3.3634    5.9053 C   0  0  0  0  0  0  0  0  0  0  0  0
    2.7017   -4.0439    6.3861 O   0  0  0  0  0  0  0  0  0  0  0  0
    3.5696   -1.9777    5.5709 C   0  0  0  0  0  3  0  0  0  0  0  0
    2.4794   -1.1361    5.8073 C   0  0  0  0  0  3  0  0  0  0  0  0
    1.2765   -0.7523    3.7248 S   0  0  0  0  0  1  0  0  0  0  0  0
   -0.1898   -1.8242    3.5074 C   0  0  0  0  0  0  0  0  0  0  0  0
   -0.0339   -3.3614    3.5398 C   0  0  2  0  0  0  0  0  0  0  0  0
   -0.9943   -3.7761    3.2053 H   0  0  0  0  0  0  0  0  0  0  0  0
    0.1908   -3.8883    4.8761 N   0  0  0  0  0  0  0  0  0  0  0  0
   -0.8411   -4.1237    5.7255 C   0  0  0  0  0  0  0  0  0  0  0  0
   -0.4345   -4.6105    7.1040 C   0  0  0  0  0  0  0  0  0  0  0  0
   -2.0137   -3.9570    5.4237 O   0  0  0  0  0  0  0  0  0  0  0  0
    1.0162   -3.9673    2.5981 C   0  0  0  0  0  0  0  0  0  0  0  0
    2.2870   -3.5984    2.8791 N   0  0  0  0  0  0  0  0  0  0  0  0
    3.4337   -4.1170    2.1838 C   0  0  0  0  0  0  0  0  0  0  0  0
    0.7114   -4.7765    1.7341 O   0  0  0  0  0  0  0  0  0  0  0  0
    1.3943   -1.4444    6.8273 C   0  0  0  0  0  0  0  0  0  0  0  0
    0.8797   -0.2662    7.4973 N   0  0  0  0  0  0  0  0  0  0  0  0
    0.8882   -0.2963    8.9521 C   0  0  0  0  0  0  0  0  0  0  0  0
    0.2522   -1.5404    9.5995 C   0  0  0  0  0  0  0  0  0  0  0  0
    2.3128   -0.0877    9.4749 C   0  0  0  0  0  0  0  0  0  0  0  0
   -0.2374    0.3829    6.8153 C   0  0  0  0  0  0  0  0  0  0  0  0
   -1.6109   -0.2571    7.0649 C   0  0  0  0  0  0  0  0  0  0  0  0
   -0.2674    1.8872    7.0839 C   0  0  0  0  0  0  0  0  0  0  0  0
    6.3185   -5.2428    7.1274 C   0  0  0  0  0  0  0  0  0  0  0  0
    6.7657   -6.4577    7.7031 C   0  0  0  0  0  0  0  0  0  0  0  0
    6.0655   -7.6473    7.3969 C   0  0  0  0  0  0  0  0  0  0  0  0
    6.4303   -8.8528    7.9270 N   0  0  0  0  0  0  0  0  0  0  0  0
    7.4553   -8.8398    8.7307 C   0  0  0  0  0  0  0  0  0  0  0  0
    8.1998   -7.7786    9.1066 N   0  0  0  0  0  0  0  0  0  0  0  0
    7.8718   -6.6006    8.6124 C   0  0  0  0  0  0  0  0  0  0  0  0
    8.5860   -5.4856    8.9608 N   0  0  0  0  0  0  0  0  0  0  0  0
    9.6855   -5.3213    9.8153 C   0  0  0  0  0  0  0  0  0  0  0  0
   10.3186   -6.3559   10.4933 C   0  0  0  0  0  0  0  0  0  0  0  0
   11.4160   -6.0318   11.3139 C   0  0  0  0  0  0  0  0  0  0  0  0
   12.3179   -6.7692   12.1445 C   0  0  0  0  0  0  0  0  0  0  0  0
   13.1961   -5.9738   12.7154 N   0  0  0  0  0  0  0  0  0  0  0  0
   12.9166   -4.7237   12.3089 N   0  0  0  0  0  0  0  0  0  0  0  0
   13.7324   -3.6098   12.7180 C   0  0  0  0  0  0  0  0  0  0  0  0
   14.5385   -3.0062   11.5852 C   0  0  0  0  0  0  0  0  0  0  0  0
   15.0972   -3.8257   10.5995 C   0  0  0  0  0  0  0  0  0  0  0  0
   15.8533   -3.2731    9.5690 C   0  0  0  0  0  0  0  0  0  0  0  0
   16.0620   -1.8946    9.5117 C   0  0  0  0  0  0  0  0  0  0  0  0
   15.5068   -1.0718   10.4895 C   0  0  0  0  0  0  0  0  0  0  0  0
   14.7457   -1.6266   11.5184 C   0  0  0  0  0  0  0  0  0  0  0  0
   11.8529   -4.7012   11.4493 C   0  0  0  0  0  0  0  0  0  0  0  0
   11.2247   -3.6499   10.7620 C   0  0  0  0  0  0  0  0  0  0  0  0
   10.1534   -3.9813    9.9611 C   0  0  0  0  0  0  0  0  0  0  0  0
    1.9983   -6.6661    2.8956 H   0  0  0  0  0  0  0  0  0  0  0  0
    1.0506   -6.2096    4.3221 H   0  0  0  0  0  0  0  0  0  0  0  0
    0.9702   -7.8773    3.6966 H   0  0  0  0  0  0  0  0  0  0  0  0
    3.3578   -8.2554    4.3341 H   0  0  0  0  0  0  0  0  0  0  0  0
    2.3794   -7.7866    5.7498 H   0  0  0  0  0  0  0  0  0  0  0  0
    4.4828   -8.5418    6.2796 H   0  0  0  0  0  0  0  0  0  0  0  0
    5.6324   -3.3086    5.5685 H   0  0  0  0  0  0  0  0  0  0  0  0
    4.4249   -1.5558    5.0347 H   0  0  0  0  0  0  0  0  0  0  0  0
    2.6831   -0.0666    5.7265 H   0  0  0  0  0  0  0  0  0  0  0  0
   -0.6308   -1.5582    2.5334 H   0  0  0  0  0  0  0  0  0  0  0  0
   -0.9494   -1.5822    4.2684 H   0  0  0  0  0  0  0  0  0  0  0  0
    1.1427   -3.9489    5.2508 H   0  0  0  0  0  0  0  0  0  0  0  0
    0.6490   -4.7519    7.2050 H   0  0  0  0  0  0  0  0  0  0  0  0
   -0.9696   -5.5475    7.3149 H   0  0  0  0  0  0  0  0  0  0  0  0
   -0.7699   -3.8675    7.8426 H   0  0  0  0  0  0  0  0  0  0  0  0
    2.3934   -2.7293    3.4121 H   0  0  0  0  0  0  0  0  0  0  0  0
    4.1305   -4.5918    2.8927 H   0  0  0  0  0  0  0  0  0  0  0  0
    3.9646   -3.3182    1.6400 H   0  0  0  0  0  0  0  0  0  0  0  0
    3.0901   -4.8633    1.4551 H   0  0  0  0  0  0  0  0  0  0  0  0
    1.8323   -2.1339    7.5613 H   0  0  0  0  0  0  0  0  0  0  0  0
    0.5885   -2.0247    6.3552 H   0  0  0  0  0  0  0  0  0  0  0  0
    0.2934    0.5713    9.2813 H   0  0  0  0  0  0  0  0  0  0  0  0
    0.1878   -1.4161   10.6925 H   0  0  0  0  0  0  0  0  0  0  0  0
    0.8479   -2.4459    9.4060 H   0  0  0  0  0  0  0  0  0  0  0  0
   -0.7617   -1.7188    9.2161 H   0  0  0  0  0  0  0  0  0  0  0  0
    2.7220    0.8572    9.0890 H   0  0  0  0  0  0  0  0  0  0  0  0
    2.9736   -0.9015    9.1348 H   0  0  0  0  0  0  0  0  0  0  0  0
    2.3412   -0.0678   10.5765 H   0  0  0  0  0  0  0  0  0  0  0  0
   -0.0114    0.2669    5.7432 H   0  0  0  0  0  0  0  0  0  0  0  0
   -1.9506   -0.1033    8.1033 H   0  0  0  0  0  0  0  0  0  0  0  0
   -1.5970   -1.3390    6.8591 H   0  0  0  0  0  0  0  0  0  0  0  0
   -2.3676    0.1874    6.3995 H   0  0  0  0  0  0  0  0  0  0  0  0
    0.7189    2.3272    6.8763 H   0  0  0  0  0  0  0  0  0  0  0  0
   -0.5380    2.1237    8.1269 H   0  0  0  0  0  0  0  0  0  0  0  0
   -1.0113    2.3764    6.4361 H   0  0  0  0  0  0  0  0  0  0  0  0
    6.7922   -4.2893    7.3766 H   0  0  0  0  0  0  0  0  0  0  0  0
    7.7635   -9.7996    9.1635 H   0  0  0  0  0  0  0  0  0  0  0  0
    8.2587   -4.6280    8.5426 H   0  0  0  0  0  0  0  0  0  0  0  0
    9.9571   -7.3742   10.3759 H   0  0  0  0  0  0  0  0  0  0  0  0
   12.3445   -7.8409   12.3347 H   0  0  0  0  0  0  0  0  0  0  0  0
   14.3986   -4.0001   13.5008 H   0  0  0  0  0  0  0  0  0  0  0  0
   13.0974   -2.8365   13.1812 H   0  0  0  0  0  0  0  0  0  0  0  0
   14.9276   -4.9046   10.6407 H   0  0  0  0  0  0  0  0  0  0  0  0
   16.2797   -3.9233    8.8020 H   0  0  0  0  0  0  0  0  0  0  0  0
   16.6512   -1.4620    8.7002 H   0  0  0  0  0  0  0  0  0  0  0  0
   15.6575    0.0092   10.4473 H   0  0  0  0  0  0  0  0  0  0  0  0
   14.3017   -0.9754   12.2770 H   0  0  0  0  0  0  0  0  0  0  0  0
   11.5695   -2.6179   10.8429 H   0  0  0  0  0  0  0  0  0  0  0  0
    9.6421   -3.1855    9.4116 H   0  0  0  0  0  0  0  0  0  0  0  0
  1 57  1  0  0  0  0
  1  2  1  0  0  0  0
  2  3  1  0  0  0  0
  2 60  1  0  0  0  0
  3  4  1  0  0  0  0
  4  6  2  0  0  0  0
  4  5  1  0  0  0  0
  5 34  2  0  0  0  0
  6 32  1  0  0  0  0
  7  8  1  0  0  0  0
  7  6  1  0  0  0  0
  8  9  2  0  0  0  0
 10 11  1  0  0  0  0
 10  8  1  0  0  0  0
 11 24  1  0  0  0  0
 13 14  1  0  0  0  0
 13 12  1  0  0  0  0
 13 66  1  0  0  0  0
 14 15  1  6  0  0  0
 14 16  1  0  0  0  0
 16 67  1  0  0  0  0
 16 17  1  0  0  0  0
 17 18  1  0  0  0  0
 18 68  1  0  0  0  0
 18 69  1  0  0  0  0
 18 70  1  0  0  0  0
 19 17  2  0  0  0  0
 20 21  1  0  0  0  0
 20 14  1  0  0  0  0
 21 71  1  0  0  0  0
 22 21  1  0  0  0  0
 22 72  1  0  0  0  0
 23 20  2  0  0  0  0
 24 25  1  0  0  0  0
 24 75  1  0  0  0  0
 25 26  1  0  0  0  0
 26 77  1  0  0  0  0
 26 28  1  0  0  0  0
 26 27  1  0  0  0  0
 27 78  1  0  0  0  0
 28 83  1  0  0  0  0
 29 30  1  0  0  0  0
 29 31  1  0  0  0  0
 29 25  1  0  0  0  0
 30 85  1  0  0  0  0
 31 89  1  0  0  0  0
 32 91  1  0  0  0  0
 32 33  2  0  0  0  0
 33 38  1  0  0  0  0
 34 33  1  0  0  0  0
 34 35  1  0  0  0  0
 35 36  2  0  0  0  0
 36 37  1  0  0  0  0
 36 92  1  0  0  0  0
 38 39  1  0  0  0  0
 38 37  2  0  0  0  0
 39 40  1  0  0  0  0
 40 55  2  0  0  0  0
 40 41  1  0  0  0  0
 41 42  2  0  0  0  0
 42 53  1  0  0  0  0
 42 43  1  0  0  0  0
 43 95  1  0  0  0  0
 43 44  2  0  0  0  0
 45 44  1  0  0  0  0
 45 46  1  0  0  0  0
 46 97  1  0  0  0  0
 46 96  1  0  0  0  0
 47 46  1  0  0  0  0
 48 98  1  0  0  0  0
 48 47  2  0  0  0  0
 49 48  1  0  0  0  0
 50 49  2  0  0  0  0
 50 51  1  0  0  0  0
 51 52  2  0  0  0  0
 52 47  1  0  0  0  0
 52102  1  0  0  0  0
 53 45  1  0  0  0  0
 54103  1  0  0  0  0
 54 53  2  0  0  0  0
 55 54  1  0  0  0  0
 56  1  1  0  0  0  0
 58  1  1  0  0  0  0
 59  2  1  0  0  0  0
 61  5  1  0  0  0  0
 62  7  1  0  0  0  0
 63 10  1  0  0  0  0
 64 11  1  0  0  0  0
 65 13  1  0  0  0  0
 73 22  1  0  0  0  0
 74 22  1  0  0  0  0
 76 24  1  0  0  0  0
 79 27  1  0  0  0  0
 80 27  1  0  0  0  0
 81 28  1  0  0  0  0
 82 28  1  0  0  0  0
 84 29  1  0  0  0  0
 86 30  1  0  0  0  0
 87 30  1  0  0  0  0
 88 31  1  0  0  0  0
 90 31  1  0  0  0  0
 93 39  1  0  0  0  0
 94 41  1  0  0  0  0
 99 49  1  0  0  0  0
100 50  1  0  0  0  0
101 51  1  0  0  0  0
104 55  1  0  0  0  0
M  END
