104
-1 1
C        -3.982311   -3.123398   -3.216795
C        -2.831591   -3.551661   -2.342518
O        -1.985383   -2.433723   -2.119171
C        -0.975215   -2.547494   -1.267951
C        -0.538175   -3.740483   -0.717974
C        -0.287679   -1.331386   -0.934047
N        -0.716928   -0.102116   -1.463793
C        -1.959013    0.463551   -1.208761
O        -2.820397   -0.151771   -0.603578
C        -2.078451    1.849304   -1.693594
C        -3.058538    2.699492   -1.339852
S        -4.863008    3.172912   -4.049160
C        -5.978057    1.827749   -4.600658
C        -5.568207    0.376727   -4.266851
H        -6.351760   -0.289522   -4.653366
N        -5.475108    0.110143   -2.838832
C        -6.535649   -0.298122   -2.097244
C        -6.239126   -0.518641   -0.623661
O        -7.647797   -0.484100   -2.562499
C        -4.264806   -0.095785   -4.921094
N        -3.179017    0.616079   -4.537739
C        -1.862748    0.327747   -5.039155
O        -4.225125   -1.064268   -5.669331
C        -4.205144    2.440259   -0.406108
N        -4.689492    3.652875    0.221874
C        -4.945477    3.578564    1.652647
C        -5.804142    2.388224    2.116772
C        -3.626395    3.625176    2.429869
C        -5.603277    4.431142   -0.614796
C        -7.061573    3.957840   -0.593269
C        -5.492262    5.926666   -0.325523
C         0.813881   -1.379542   -0.112524
C         1.298315   -2.598335    0.421377
C         0.598170   -3.791027    0.120755
N         1.000191   -5.000990    0.612788
C         2.058750   -4.989076    1.371657
N         2.807201   -3.926533    1.735562
C         2.445826   -2.742959    1.279922
N         3.161278   -1.628462    1.618852
C         4.296669   -1.467822    2.428901
C         4.971730   -2.508182    3.054759
C         6.100104   -2.186664    3.833139
C         7.047518   -2.929099    4.606527
N         7.939692   -2.133528    5.154745
N         7.626529   -0.879199    4.788366
C         8.443800    0.237722    5.188039
C         9.178809    0.887692    4.032995
C         9.709649    0.105241    3.002585
C        10.400200    0.700419    1.950072
C        10.570305    2.084993    1.915086
C        10.042733    2.870881    2.937530
C         9.347140    2.273425    3.988739
C         6.525407   -0.853192    3.978129
C         5.853793    0.204061    3.342670
C         4.752315   -0.124944    2.582841
H        -3.647859   -2.776980   -4.203543
H        -4.535286   -2.297399   -2.750368
H        -4.671827   -3.968167   -3.359417
H        -2.247597   -4.361098   -2.818110
H        -3.188230   -3.923910   -1.365455
H        -1.027045   -4.688134   -0.934184
H        -0.000024    0.517450   -1.816379
H        -1.313498    2.200874   -2.392581
H        -3.025058    3.706480   -1.762416
H        -6.112716    1.874959   -5.694725
H        -6.974980    1.965910   -4.153526
H        -4.590063    0.286874   -2.376279
H        -5.164476   -0.546544   -0.397215
H        -6.720826   -1.455671   -0.312535
H        -6.701732    0.297099   -0.047320
H        -3.399107    1.572358   -4.186271
H        -1.199637   -0.038319   -4.236210
H        -1.411834    1.227379   -5.487989
H        -1.937850   -0.454188   -5.807645
H        -3.895657    1.704230    0.346686
H        -4.994992    1.940131   -0.997920
H        -5.503010    4.493769    1.910044
H        -6.042331    2.479146    3.188717
H        -5.277739    1.431149    1.976997
H        -6.749876    2.334199    1.561019
H        -3.055213    4.522132    2.150406
H        -3.005140    2.744527    2.198765
H        -3.799061    3.634518    3.518306
H        -5.263279    4.270882   -1.652443
H        -7.546152    4.148596    0.379627
H        -7.129093    2.881783   -0.817124
H        -7.638671    4.481381   -1.370171
H        -4.440700    6.245912   -0.376196
H        -5.882556    6.193271    0.671764
H        -6.067717    6.501638   -1.067030
H         1.285841   -0.422980    0.126675
H         2.396120   -5.952793    1.772650
H         2.809155   -0.765446    1.233404
H         4.619232   -3.528811    2.931361
H         7.096775   -4.004129    4.771795
H         9.155988   -0.163071    5.923564
H         7.820835    0.985440    5.706109
H         9.570227   -0.978514    3.026629
H        10.805591    0.079029    1.148540
H        11.108167    2.551063    1.086634
H        10.163871    3.956174    2.913563
H         8.924600    2.895627    4.783021
H         6.188871    1.238515    3.430967
H         4.207151    0.675423    2.073998
