-1 1
 OpenBabel05192410563D

 73 76  0  0  1  0  0  0  0  0999 V2000
    2.7469   -1.4079   -2.8977 O   0  0  0  0  0  0  0  0  0  0  0  0
    2.2518   -0.9180   -1.8833 C   0  0  0  0  0  0  0  0  0  0  0  0
    2.3506   -1.7513   -0.6876 N   0  0  0  0  0  0  0  0  0  0  0  0
    1.3628   -2.2857    0.0829 C   0  0  0  0  0  0  0  0  0  0  0  0
    0.0677   -1.7660    0.1984 C   0  0  0  0  0  0  0  0  0  0  0  0
    1.7384   -3.3971    0.7809 N   0  0  0  0  0  0  0  0  0  0  0  0
    0.8930   -3.9777    1.5896 C   0  0  0  0  0  0  0  0  0  0  0  0
   -0.4294   -3.5214    1.8139 C   0  0  0  0  0  0  0  0  0  0  0  0
   -0.8245   -2.3727    1.0944 C   0  0  0  0  0  0  0  0  0  0  0  0
   -2.1715   -1.9193    1.3763 C   0  0  1  0  0  3  0  0  0  0  0  0
   -2.6378   -0.7816    0.7799 N   0  0  0  0  0  0  0  0  0  0  0  0
   -3.9489   -0.2866    0.9436 C   0  0  0  0  0  0  0  0  0  0  0  0
   -4.6773    0.0729   -0.1938 C   0  0  0  0  0  0  0  0  0  0  0  0
   -5.9355    0.6554   -0.0749 C   0  0  0  0  0  0  0  0  0  0  0  0
   -6.8140    1.1490   -1.4915 Cl  0  0  0  0  0  0  0  0  0  0  0  0
   -6.4944    0.8400    1.1866 C   0  0  0  0  0  0  0  0  0  0  0  0
   -7.7012    1.3887    1.3103 F   0  0  0  0  0  0  0  0  0  0  0  0
   -5.7941    0.4537    2.3228 C   0  0  0  0  0  0  0  0  0  0  0  0
   -4.5248   -0.1004    2.2065 C   0  0  0  0  0  0  0  0  0  0  0  0
   -2.9541   -2.5929    2.1886 N   0  0  0  0  0  0  0  0  0  0  0  0
   -2.4564   -3.7033    2.7852 C   0  0  0  0  0  0  0  0  0  0  0  0
   -1.2569   -4.1930    2.6686 N   0  0  0  0  0  2  0  0  0  0  0  0
    1.6548    0.3536   -1.7593 C   0  0  0  0  0  3  0  0  0  0  0  0
    1.4102    1.0981   -0.5431 C   0  0  1  0  0  0  0  0  0  0  0  0
    2.9149    2.3469   -0.0164 S   0  0  0  0  0  0  0  0  0  0  0  0
    4.3203    1.5845   -0.8509 C   0  0  0  0  0  0  0  0  0  0  0  0
    5.3626    0.8672    0.0337 C   0  0  2  0  0  0  0  0  0  0  0  0
    5.7586    1.5986    0.7584 H   0  0  0  0  0  0  0  0  0  0  0  0
    6.4519    0.3798   -0.7761 N   0  0  0  0  0  0  0  0  0  0  0  0
    7.4351    1.1707   -1.2593 C   0  0  0  0  0  0  0  0  0  0  0  0
    8.4774    0.4562   -2.1020 C   0  0  0  0  0  0  0  0  0  0  0  0
    7.4816    2.3749   -1.0678 O   0  0  0  0  0  0  0  0  0  0  0  0
    4.8340   -0.3488    0.8134 C   0  0  0  0  0  0  0  0  0  0  0  0
    3.9331   -0.0594    1.7721 N   0  0  0  0  0  0  0  0  0  0  0  0
    3.2575   -1.0752    2.5401 C   0  0  0  0  0  0  0  0  0  0  0  0
    5.2534   -1.4742    0.5787 O   0  0  0  0  0  0  0  0  0  0  0  0
    0.2682    2.1124   -0.5908 C   0  0  0  0  0  0  0  0  0  0  0  0
   -1.0909    1.5507   -0.6728 N   0  0  0  0  0  0  0  0  0  0  0  0
   -2.0981    2.5073   -0.2037 C   0  0  0  0  0  0  0  0  0  0  0  0
   -2.4041    3.6040   -1.2195 C   0  0  0  0  0  0  0  0  0  0  0  0
   -2.8111    3.0434   -2.4433 O   0  0  0  0  0  0  0  0  0  0  0  0
   -1.8165    2.1965   -2.9756 C   0  0  0  0  0  0  0  0  0  0  0  0
   -1.4610    1.0714   -2.0110 C   0  0  0  0  0  0  0  0  0  0  0  0
    3.1637   -2.3590   -0.7342 H   0  0  0  0  0  0  0  0  0  0  0  0
   -0.2145   -0.9056   -0.4038 H   0  0  0  0  0  0  0  0  0  0  0  0
    1.2247   -4.8748    2.1260 H   0  0  0  0  0  0  0  0  0  0  0  0
   -1.9713   -0.1764    0.2852 H   0  0  0  0  0  0  0  0  0  0  0  0
   -4.2569   -0.0869   -1.1863 H   0  0  0  0  0  0  0  0  0  0  0  0
   -6.2572    0.6082    3.2986 H   0  0  0  0  0  0  0  0  0  0  0  0
   -3.9725   -0.3980    3.0956 H   0  0  0  0  0  0  0  0  0  0  0  0
   -3.1562   -4.2290    3.4466 H   0  0  0  0  0  0  0  0  0  0  0  0
    1.6146    0.9088   -2.7030 H   0  0  0  0  0  0  0  0  0  0  0  0
    1.3328    0.4670    0.3507 H   0  0  0  0  0  0  0  0  0  0  0  0
    4.8592    2.3730   -1.3922 H   0  0  0  0  0  0  0  0  0  0  0  0
    3.9022    0.8808   -1.5924 H   0  0  0  0  0  0  0  0  0  0  0  0
    6.4730   -0.6321   -0.8707 H   0  0  0  0  0  0  0  0  0  0  0  0
    8.2566    0.6420   -3.1638 H   0  0  0  0  0  0  0  0  0  0  0  0
    8.5003   -0.6296   -1.9352 H   0  0  0  0  0  0  0  0  0  0  0  0
    9.4625    0.8884   -1.8835 H   0  0  0  0  0  0  0  0  0  0  0  0
    3.5405    0.8819    1.7402 H   0  0  0  0  0  0  0  0  0  0  0  0
    3.5456   -1.0359    3.6039 H   0  0  0  0  0  0  0  0  0  0  0  0
    2.1659   -0.9524    2.4680 H   0  0  0  0  0  0  0  0  0  0  0  0
    3.5178   -2.0605    2.1341 H   0  0  0  0  0  0  0  0  0  0  0  0
    0.4787    2.8079   -1.4260 H   0  0  0  0  0  0  0  0  0  0  0  0
    0.3011    2.7213    0.3265 H   0  0  0  0  0  0  0  0  0  0  0  0
   -1.7715    2.9423    0.7530 H   0  0  0  0  0  0  0  0  0  0  0  0
   -3.0373    1.9683   -0.0109 H   0  0  0  0  0  0  0  0  0  0  0  0
   -1.5190    4.2554   -1.3707 H   0  0  0  0  0  0  0  0  0  0  0  0
   -3.2301    4.2361   -0.8612 H   0  0  0  0  0  0  0  0  0  0  0  0
   -0.9135    2.7874   -3.2287 H   0  0  0  0  0  0  0  0  0  0  0  0
   -2.2134    1.7804   -3.9127 H   0  0  0  0  0  0  0  0  0  0  0  0
   -0.6330    0.4653   -2.4046 H   0  0  0  0  0  0  0  0  0  0  0  0
   -2.3373    0.4096   -1.9089 H   0  0  0  0  0  0  0  0  0  0  0  0
  1  2  2  0  0  0  0
  2 23  1  0  0  0  0
  2  3  1  0  0  0  0
  3  4  1  0  0  0  0
  4  5  2  0  0  0  0
  4  6  1  0  0  0  0
  5  9  1  0  0  0  0
  6  7  2  0  0  0  0
  7  8  1  0  0  0  0
  7 46  1  0  0  0  0
  8 22  1  0  0  0  0
  9 10  1  0  0  0  0
  9  8  2  0  0  0  0
 10 11  1  6  0  0  0
 10 20  1  0  0  0  0
 11 12  1  0  0  0  0
 12 19  1  0  0  0  0
 13 14  1  0  0  0  0
 13 12  2  0  0  0  0
 14 16  2  0  0  0  0
 15 14  1  0  0  0  0
 16 17  1  0  0  0  0
 16 18  1  0  0  0  0
 18 49  1  0  0  0  0
 19 18  2  0  0  0  0
 19 50  1  0  0  0  0
 20 21  2  0  0  0  0
 21 51  1  0  0  0  0
 22 21  1  0  0  0  0
 23 24  1  0  0  0  0
 24 25  1  0  0  0  0
 24 53  1  1  0  0  0
 26 25  1  0  0  0  0
 26 27  1  0  0  0  0
 27 28  1  1  0  0  0
 27 33  1  0  0  0  0
 29 27  1  0  0  0  0
 30 32  2  0  0  0  0
 30 29  1  0  0  0  0
 31 58  1  0  0  0  0
 31 59  1  0  0  0  0
 31 30  1  0  0  0  0
 33 34  1  0  0  0  0
 34 35  1  0  0  0  0
 35 61  1  0  0  0  0
 36 33  2  0  0  0  0
 37 24  1  0  0  0  0
 37 65  1  0  0  0  0
 38 37  1  0  0  0  0
 38 39  1  0  0  0  0
 39 67  1  0  0  0  0
 39 66  1  0  0  0  0
 40 69  1  0  0  0  0
 40 39  1  0  0  0  0
 41 40  1  0  0  0  0
 42 41  1  0  0  0  0
 42 43  1  0  0  0  0
 43 73  1  0  0  0  0
 43 38  1  0  0  0  0
 44  3  1  0  0  0  0
 45  5  1  0  0  0  0
 47 11  1  0  0  0  0
 48 13  1  0  0  0  0
 52 23  1  0  0  0  0
 54 26  1  0  0  0  0
 55 26  1  0  0  0  0
 56 29  1  0  0  0  0
 57 31  1  0  0  0  0
 60 34  1  0  0  0  0
 62 35  1  0  0  0  0
 63 35  1  0  0  0  0
 64 37  1  0  0  0  0
 68 40  1  0  0  0  0
 70 42  1  0  0  0  0
 71 42  1  0  0  0  0
 72 43  1  0  0  0  0
M  END
