-1 1
 OpenBabel05232414493D

 73 75  0  0  1  0  0  0  0  0999 V2000
    7.2068   -0.8129   -7.3671 O   0  0  0  0  0  0  0  0  0  0  0  0
    6.4959   -0.4922   -6.4248 C   0  0  0  0  0  0  0  0  0  0  0  0
    6.4528   -1.4048   -5.3274 N   0  0  0  0  0  0  0  0  0  0  0  0
    5.4203   -1.9054   -4.5791 C   0  0  0  0  0  0  0  0  0  0  0  0
    4.1168   -1.4057   -4.5609 C   0  0  0  0  0  0  0  0  0  0  0  0
    5.7721   -2.9792   -3.8197 N   0  0  0  0  0  0  0  0  0  0  0  0
    4.8912   -3.5434   -3.0356 C   0  0  0  0  0  0  0  0  0  0  0  0
    3.5542   -3.0952   -2.8992 C   0  0  0  0  0  0  0  0  0  0  0  0
    3.1879   -1.9804   -3.6814 C   0  0  0  0  0  0  0  0  0  0  0  0
    1.8321   -1.5133   -3.4789 C   0  0  1  0  0  3  0  0  0  0  0  0
    1.4037   -0.3888   -4.1213 N   0  0  0  0  0  0  0  0  0  0  0  0
    0.0911    0.1215   -4.0001 C   0  0  0  0  0  0  0  0  0  0  0  0
   -0.6384    0.3779   -5.1627 C   0  0  0  0  0  0  0  0  0  0  0  0
   -1.8938    0.9749   -5.0920 C   0  0  0  0  0  0  0  0  0  0  0  0
   -2.7809    1.3375   -6.5420 Cl  0  0  0  0  0  0  0  0  0  0  0  0
   -2.4429    1.2802   -3.8496 C   0  0  0  0  0  0  0  0  0  0  0  0
   -3.6453    1.8449   -3.7716 F   0  0  0  0  0  0  0  0  0  0  0  0
   -1.7393    0.9977   -2.6848 C   0  0  0  0  0  0  0  0  0  0  0  0
   -0.4748    0.4259   -2.7570 C   0  0  0  0  0  0  0  0  0  0  0  0
    1.0084   -2.1656   -2.6886 N   0  0  0  0  0  0  0  0  0  0  0  0
    1.4781   -3.2547   -2.0339 C   0  0  0  0  0  0  0  0  0  0  0  0
    2.6853   -3.7408   -2.0658 N   0  0  0  0  0  2  0  0  0  0  0  0
    5.7581    0.7446   -6.3471 C   0  0  0  0  0  3  0  0  0  0  0  0
    5.3546    1.4028   -5.1909 C   0  0  0  0  0  3  0  0  0  0  0  0
    7.0527    2.9061   -4.4101 S   0  0  0  0  0  1  0  0  0  0  0  0
    8.3572    2.2144   -5.4472 C   0  0  0  0  0  0  0  0  0  0  0  0
    9.4456    1.3405   -4.7785 C   0  0  2  0  0  0  0  0  0  0  0  0
    9.9961    1.9723   -4.0614 H   0  0  0  0  0  0  0  0  0  0  0  0
   10.3706    0.8535   -5.7733 N   0  0  0  0  0  0  0  0  0  0  0  0
   11.3644    1.5962   -6.3048 C   0  0  0  0  0  0  0  0  0  0  0  0
   12.1939    0.8890   -7.3642 C   0  0  0  0  0  0  0  0  0  0  0  0
   11.5812    2.7564   -5.9938 O   0  0  0  0  0  0  0  0  0  0  0  0
    8.9362    0.1004   -4.0244 C   0  0  0  0  0  0  0  0  0  0  0  0
    8.1360    0.3693   -2.9763 N   0  0  0  0  0  0  0  0  0  0  0  0
    7.4916   -0.6572   -2.1989 C   0  0  0  0  0  0  0  0  0  0  0  0
    9.2788   -1.0287   -4.3598 O   0  0  0  0  0  0  0  0  0  0  0  0
    4.2962    2.4782   -5.2583 C   0  0  0  0  0  0  0  0  0  0  0  0
    2.9215    1.9601   -5.4419 N   0  0  0  0  0  0  0  0  0  0  0  0
    1.9141    2.9353   -5.0118 C   0  0  0  0  0  0  0  0  0  0  0  0
    1.7227    4.0739   -6.0093 C   0  0  0  0  0  0  0  0  0  0  0  0
    1.3868    3.5677   -7.2785 O   0  0  0  0  0  0  0  0  0  0  0  0
    2.3832    2.6991   -7.7669 C   0  0  0  0  0  0  0  0  0  0  0  0
    2.6214    1.5333   -6.8128 C   0  0  0  0  0  0  0  0  0  0  0  0
    7.2969   -1.9702   -5.2734 H   0  0  0  0  0  0  0  0  0  0  0  0
    3.8455   -0.5800   -5.2124 H   0  0  0  0  0  0  0  0  0  0  0  0
    5.2055   -4.4150   -2.4498 H   0  0  0  0  0  0  0  0  0  0  0  0
    2.0954    0.2380   -4.5585 H   0  0  0  0  0  0  0  0  0  0  0  0
   -0.2200    0.1226   -6.1361 H   0  0  0  0  0  0  0  0  0  0  0  0
   -2.1967    1.2458   -1.7258 H   0  0  0  0  0  0  0  0  0  0  0  0
    0.0833    0.2095   -1.8474 H   0  0  0  0  0  0  0  0  0  0  0  0
    0.7456   -3.7647   -1.3962 H   0  0  0  0  0  0  0  0  0  0  0  0
    5.7249    1.2824   -7.3001 H   0  0  0  0  0  0  0  0  0  0  0  0
    5.3626    0.8360   -4.2570 H   0  0  0  0  0  0  0  0  0  0  0  0
    8.8932    3.0344   -5.9444 H   0  0  0  0  0  0  0  0  0  0  0  0
    7.8709    1.6107   -6.2357 H   0  0  0  0  0  0  0  0  0  0  0  0
   10.2594   -0.1310   -5.9973 H   0  0  0  0  0  0  0  0  0  0  0  0
   11.8556    1.2248   -8.3560 H   0  0  0  0  0  0  0  0  0  0  0  0
   12.1116   -0.2059   -7.3204 H   0  0  0  0  0  0  0  0  0  0  0  0
   13.2432    1.1898   -7.2475 H   0  0  0  0  0  0  0  0  0  0  0  0
    7.7516    1.3216   -2.9578 H   0  0  0  0  0  0  0  0  0  0  0  0
    7.8190   -0.6297   -1.1461 H   0  0  0  0  0  0  0  0  0  0  0  0
    6.3968   -0.5348   -2.2220 H   0  0  0  0  0  0  0  0  0  0  0  0
    7.7349   -1.6396   -2.6222 H   0  0  0  0  0  0  0  0  0  0  0  0
    4.5783    3.1962   -6.0498 H   0  0  0  0  0  0  0  0  0  0  0  0
    4.3011    3.0427   -4.3161 H   0  0  0  0  0  0  0  0  0  0  0  0
    2.1867    3.3272   -4.0203 H   0  0  0  0  0  0  0  0  0  0  0  0
    0.9466    2.4209   -4.9069 H   0  0  0  0  0  0  0  0  0  0  0  0
    2.6387    4.6956   -6.0729 H   0  0  0  0  0  0  0  0  0  0  0  0
    0.8953    4.7252   -5.6910 H   0  0  0  0  0  0  0  0  0  0  0  0
    3.3249    3.2584   -7.9369 H   0  0  0  0  0  0  0  0  0  0  0  0
    2.0383    2.3262   -8.7421 H   0  0  0  0  0  0  0  0  0  0  0  0
    3.4402    0.8960   -7.1748 H   0  0  0  0  0  0  0  0  0  0  0  0
    1.7075    0.9165   -6.7871 H   0  0  0  0  0  0  0  0  0  0  0  0
  1  2  2  0  0  0  0
  2 23  1  0  0  0  0
  2  3  1  0  0  0  0
  3 44  1  0  0  0  0
  3  4  1  0  0  0  0
  4  5  2  0  0  0  0
  4  6  1  0  0  0  0
  5  9  1  0  0  0  0
  6  7  2  0  0  0  0
  7  8  1  0  0  0  0
  7 46  1  0  0  0  0
  8 22  1  0  0  0  0
  9 10  1  0  0  0  0
  9  8  2  0  0  0  0
 10 11  1  6  0  0  0
 10 20  1  0  0  0  0
 11 12  1  0  0  0  0
 12 19  1  0  0  0  0
 13 14  1  0  0  0  0
 13 12  2  0  0  0  0
 14 16  2  0  0  0  0
 15 14  1  0  0  0  0
 16 17  1  0  0  0  0
 16 18  1  0  0  0  0
 18 49  1  0  0  0  0
 19 18  2  0  0  0  0
 19 50  1  0  0  0  0
 20 21  2  0  0  0  0
 21 51  1  0  0  0  0
 22 21  1  0  0  0  0
 23 24  1  0  0  0  0
 24 53  1  0  0  0  0
 26 27  1  0  0  0  0
 26 25  1  0  0  0  0
 27 28  1  1  0  0  0
 27 33  1  0  0  0  0
 29 27  1  0  0  0  0
 30 32  2  0  0  0  0
 30 29  1  0  0  0  0
 31 58  1  0  0  0  0
 31 59  1  0  0  0  0
 31 30  1  0  0  0  0
 33 34  1  0  0  0  0
 34 60  1  0  0  0  0
 34 35  1  0  0  0  0
 35 61  1  0  0  0  0
 36 33  2  0  0  0  0
 37 24  1  0  0  0  0
 37 65  1  0  0  0  0
 38 37  1  0  0  0  0
 38 39  1  0  0  0  0
 39 67  1  0  0  0  0
 39 66  1  0  0  0  0
 40 69  1  0  0  0  0
 40 39  1  0  0  0  0
 41 40  1  0  0  0  0
 42 41  1  0  0  0  0
 42 43  1  0  0  0  0
 43 73  1  0  0  0  0
 43 38  1  0  0  0  0
 45  5  1  0  0  0  0
 47 11  1  0  0  0  0
 48 13  1  0  0  0  0
 52 23  1  0  0  0  0
 54 26  1  0  0  0  0
 55 26  1  0  0  0  0
 56 29  1  0  0  0  0
 57 31  1  0  0  0  0
 62 35  1  0  0  0  0
 63 35  1  0  0  0  0
 64 37  1  0  0  0  0
 68 40  1  0  0  0  0
 70 42  1  0  0  0  0
 71 42  1  0  0  0  0
 72 43  1  0  0  0  0
M  END
