73
-1 1
O         7.206825   -0.812938   -7.367138
C         6.495924   -0.492227   -6.424828
N         6.452815   -1.404815   -5.327417
C         5.420333   -1.905416   -4.579147
C         4.116777   -1.405739   -4.560937
N         5.772086   -2.979235   -3.819659
C         4.891245   -3.543385   -3.035581
C         3.554157   -3.095190   -2.899216
C         3.187931   -1.980423   -3.681427
C         1.832087   -1.513337   -3.478871
N         1.403707   -0.388776   -4.121279
C         0.091100    0.121513   -4.000062
C        -0.638413    0.377918   -5.162690
C        -1.893760    0.974937   -5.091987
Cl        -2.780855    1.337507   -6.541996
C        -2.442949    1.280221   -3.849593
F        -3.645273    1.844903   -3.771555
C        -1.739293    0.997691   -2.684780
C        -0.474807    0.425929   -2.756951
N         1.008368   -2.165601   -2.688623
C         1.478134   -3.254703   -2.033910
N         2.685277   -3.740832   -2.065803
C         5.758117    0.744594   -6.347142
C         5.354582    1.402802   -5.190904
S         7.052659    2.906109   -4.410058
C         8.357186    2.214422   -5.447216
C         9.445580    1.340516   -4.778536
H         9.996138    1.972328   -4.061386
N        10.370598    0.853463   -5.773347
C        11.364415    1.596221   -6.304785
C        12.193885    0.888989   -7.364203
O        11.581242    2.756397   -5.993784
C         8.936184    0.100435   -4.024407
N         8.135997    0.369330   -2.976288
C         7.491562   -0.657162   -2.198901
O         9.278818   -1.028741   -4.359844
C         4.296232    2.478247   -5.258321
N         2.921457    1.960074   -5.441851
C         1.914128    2.935281   -5.011822
C         1.722745    4.073903   -6.009295
O         1.386850    3.567655   -7.278538
C         2.383238    2.699078   -7.766937
C         2.621432    1.533332   -6.812789
H         7.296921   -1.970175   -5.273361
H         3.845537   -0.579998   -5.212447
H         5.205508   -4.415033   -2.449833
H         2.095393    0.238015   -4.558491
H        -0.219997    0.122607   -6.136142
H        -2.196727    1.245787   -1.725763
H         0.083314    0.209452   -1.847377
H         0.745594   -3.764678   -1.396170
H         5.724880    1.282432   -7.300088
H         5.362565    0.835992   -4.257032
H         8.893155    3.034444   -5.944351
H         7.870858    1.610662   -6.235656
H        10.259418   -0.131040   -5.997342
H        11.855571    1.224767   -8.355997
H        12.111560   -0.205898   -7.320351
H        13.243189    1.189766   -7.247477
H         7.751585    1.321649   -2.957784
H         7.818996   -0.629662   -1.146105
H         6.396802   -0.534833   -2.222046
H         7.734936   -1.639557   -2.622217
H         4.578253    3.196151   -6.049819
H         4.301126    3.042718   -4.316077
H         2.186704    3.327163   -4.020303
H         0.946594    2.420927   -4.906924
H         2.638698    4.695639   -6.072887
H         0.895341    4.725162   -5.691046
H         3.324894    3.258412   -7.936880
H         2.038330    2.326197   -8.742110
H         3.440179    0.896035   -7.174801
H         1.707544    0.916492   -6.787127
