89
-1 1
C        11.988929   -3.514128    2.172344
O        10.811652   -2.845293    2.572615
C         9.709344   -2.961779    1.820649
C         9.464793   -3.991085    0.941206
C         8.747566   -1.912022    2.013651
N         9.046594   -0.974317    2.997731
C         8.903466    0.403777    3.086144
O         9.131677    0.933251    4.163605
C         8.543041    1.220381    1.915315
C         8.479092    0.912547    0.613231
S        10.855014   -0.271735   -0.028432
C        11.693375    0.282762    1.480578
C        13.145840    0.776320    1.301915
H        13.686529    0.022859    0.704235
N        13.814183    0.944331    2.572929
C        14.274594   -0.070374    3.329345
C        14.936212    0.344977    4.632779
O        14.161099   -1.250178    3.029203
C        13.242537    2.138526    0.595693
N        12.671933    2.182477   -0.621540
C        12.542710    3.410520   -1.359475
O        13.805757    3.091199    1.126462
C         7.779561    0.917758   -0.513845
N         8.172013    0.956379   -1.868481
C         8.414659   -0.334646   -2.508657
C         8.402353   -0.189669   -4.026454
C         9.405979    0.871274   -4.475764
C         9.146747    2.189000   -3.746171
C         9.142292    1.978652   -2.235226
C         7.598457   -1.914689    1.262055
C         7.389088   -2.903779    0.267781
C         8.292530   -3.986979    0.148118
N         8.060380   -5.020398   -0.713702
C         6.980079   -4.933012   -1.440390
N         6.112833   -3.902659   -1.505806
C         6.334924   -2.883654   -0.701809
N         5.582320   -1.735003   -0.833522
C         4.707525   -1.443951   -1.893733
C         4.812691   -0.202200   -2.537779
C         3.929770    0.141714   -3.557690
C         2.949503   -0.761566   -3.955020
O         2.099731   -0.441226   -4.993373
C         0.926732    0.188131   -4.728420
C         0.504308    0.534323   -3.441206
C        -0.721065    1.180187   -3.273963
C        -1.527952    1.484148   -4.367768
C        -1.096472    1.133708   -5.649175
C         0.121670    0.490034   -5.833531
C         2.849927   -2.006742   -3.339209
C         3.721268   -2.348013   -2.310397
H        12.814935   -3.039946    2.715610
H        12.151058   -3.372410    1.091780
H        11.932756   -4.592044    2.404637
H        10.169389   -4.808962    0.799190
H         9.628537   -1.322178    3.752281
H         8.443151    2.275410    2.189765
H        11.732063   -0.548967    2.196791
H        11.103383    1.090660    1.953882
H        14.037829    1.912183    2.789732
H        15.844028   -0.256523    4.773940
H        14.249169    0.112198    5.459949
H        15.188058    1.413697    4.674719
H        12.053826    1.381368   -0.841757
H        12.602097    3.209885   -2.439667
H        13.355616    4.090603   -1.072270
H        11.583569    3.918348   -1.155787
H         6.687500    0.936746   -0.342331
H         7.633622   -1.038344   -2.192279
H         9.380999   -0.765152   -2.179855
H         7.387368    0.096268   -4.353500
H         8.629795   -1.164082   -4.486787
H         9.362315    1.014053   -5.567951
H        10.427177    0.523658   -4.238164
H         8.168152    2.594794   -4.057573
H         9.911853    2.938127   -4.008840
H         8.870846    2.910552   -1.716260
H        10.155534    1.697447   -1.891990
H         6.862508   -1.130543    1.438389
H         6.753990   -5.777410   -2.103792
H         6.024065   -0.918883   -0.426556
H         5.619048    0.488333   -2.271773
H         4.011033    1.105440   -4.063591
H         1.129253    0.301239   -2.578311
H        -1.043893    1.448383   -2.265166
H        -2.484700    1.990382   -4.225360
H        -1.716768    1.365419   -6.518393
H         0.476496    0.208965   -6.826579
H         2.079724   -2.705041   -3.672215
H         3.656882   -3.323867   -1.833146
