-1 1
 OpenBabel05192410563D

 89 93  0  0  1  0  0  0  0  0999 V2000
    3.7797   -3.3983    3.5127 C   0  0  0  0  0  0  0  0  0  0  0  0
    2.7285   -2.4778    3.6478 O   0  0  0  0  0  0  0  0  0  0  0  0
    1.6550   -2.5883    2.8375 C   0  0  0  0  0  0  0  0  0  0  0  0
    1.3677   -3.6902    2.0644 C   0  0  0  0  0  0  0  0  0  0  0  0
    0.8035   -1.4283    2.8357 C   0  0  0  0  0  0  0  0  0  0  0  0
    1.1532   -0.3881    3.6642 N   0  0  0  0  0  0  0  0  0  0  0  0
    0.6986    0.9689    3.6797 C   0  0  0  0  0  0  0  0  0  0  0  0
    0.5780    1.4846    4.7919 O   0  0  0  0  0  0  0  0  0  0  0  0
    0.4678    1.6106    2.4303 C   0  0  0  0  0  3  0  0  0  0  0  0
    0.8480    1.2209    1.1118 C   0  0  0  0  0  0  0  0  0  0  0  0
    2.4179    0.3722    0.7793 S   0  0  0  0  0  0  0  0  0  0  0  0
    3.4933    0.8190    2.1723 C   0  0  0  0  0  0  0  0  0  0  0  0
    4.8635    1.3501    1.7112 C   0  0  2  0  0  0  0  0  0  0  0  0
    5.2023    0.7588    0.8416 H   0  0  0  0  0  0  0  0  0  0  0  0
    5.8436    1.2490    2.7648 N   0  0  0  0  0  0  0  0  0  0  0  0
    6.3443    0.0778    3.2151 C   0  0  0  0  0  0  0  0  0  0  0  0
    7.3455    0.2000    4.3498 C   0  0  0  0  0  0  0  0  0  0  0  0
    6.0052   -1.0112    2.7787 O   0  0  0  0  0  0  0  0  0  0  0  0
    4.8207    2.8377    1.3119 C   0  0  0  0  0  0  0  0  0  0  0  0
    3.9035    3.1544    0.3791 N   0  0  0  0  0  0  0  0  0  0  0  0
    3.6253    4.5122   -0.0149 C   0  0  0  0  0  0  0  0  0  0  0  0
    5.5791    3.6464    1.8311 O   0  0  0  0  0  0  0  0  0  0  0  0
    0.0622    1.4340    0.0052 C   0  0  0  0  0  0  0  0  0  0  0  0
    0.4122    1.3454   -1.3738 N   0  0  0  0  0  0  0  0  0  0  0  0
    0.7818    0.0710   -1.9667 C   0  0  0  0  0  0  0  0  0  0  0  0
    0.4901    0.0621   -3.4669 C   0  0  0  0  0  0  0  0  0  0  0  0
    1.1872    1.2351   -4.1554 C   0  0  0  0  0  0  0  0  0  0  0  0
    0.8217    2.5525   -3.4721 C   0  0  0  0  0  0  0  0  0  0  0  0
    1.0932    2.4755   -1.9699 C   0  0  0  0  0  0  0  0  0  0  0  0
   -0.2786   -1.4178    1.9784 C   0  0  0  0  0  0  0  0  0  0  0  0
   -0.5108   -2.4910    1.0905 C   0  0  0  0  0  0  0  0  0  0  0  0
    0.2653   -3.6695    1.1712 C   0  0  0  0  0  0  0  0  0  0  0  0
   -0.0170   -4.7673    0.4106 N   0  0  0  0  0  0  0  0  0  0  0  0
   -1.0211   -4.6485   -0.4162 C   0  0  0  0  0  0  0  0  0  0  0  0
   -1.7479   -3.5428   -0.6788 N   0  0  0  0  0  0  0  0  0  0  0  0
   -1.4678   -2.4612    0.0220 C   0  0  0  0  0  0  0  0  0  0  0  0
   -2.0382   -1.2511   -0.2975 N   0  0  0  0  0  0  0  0  0  0  0  0
   -2.9207   -0.9667   -1.3438 C   0  0  0  0  0  0  0  0  0  0  0  0
   -2.8332    0.2949   -1.9555 C   0  0  0  0  0  0  0  0  0  0  0  0
   -3.7212    0.6582   -2.9619 C   0  0  0  0  0  0  0  0  0  0  0  0
   -4.7002   -0.2394   -3.3776 C   0  0  0  0  0  0  0  0  0  0  0  0
   -5.5620    0.1045   -4.4012 O   0  0  0  0  0  0  0  0  0  0  0  0
   -6.7291    0.7298   -4.1079 C   0  0  0  0  0  0  0  0  0  0  0  0
   -7.1355    1.0472   -2.8077 C   0  0  0  0  0  0  0  0  0  0  0  0
   -8.3569    1.6917   -2.6105 C   0  0  0  0  0  0  0  0  0  0  0  0
   -9.1768    2.0230   -3.6868 C   0  0  0  0  0  0  0  0  0  0  0  0
   -8.7620    1.7014   -4.9812 C   0  0  0  0  0  0  0  0  0  0  0  0
   -7.5477    1.0595   -5.1954 C   0  0  0  0  0  0  0  0  0  0  0  0
   -4.7864   -1.4994   -2.7934 C   0  0  0  0  0  0  0  0  0  0  0  0
   -3.9047   -1.8664   -1.7810 C   0  0  0  0  0  0  0  0  0  0  0  0
    4.6325   -2.9883    4.0657 H   0  0  0  0  0  0  0  0  0  0  0  0
    4.0765   -3.5041    2.4568 H   0  0  0  0  0  0  0  0  0  0  0  0
    3.5038   -4.3888    3.9160 H   0  0  0  0  0  0  0  0  0  0  0  0
    1.9825   -4.5892    2.0825 H   0  0  0  0  0  0  0  0  0  0  0  0
    1.6617   -0.6416    4.5026 H   0  0  0  0  0  0  0  0  0  0  0  0
   -0.1124    2.5329    2.5089 H   0  0  0  0  0  0  0  0  0  0  0  0
    3.6462   -0.0834    2.7748 H   0  0  0  0  0  0  0  0  0  0  0  0
    2.9650    1.5657    2.7827 H   0  0  0  0  0  0  0  0  0  0  0  0
    6.2117    2.1470    3.0684 H   0  0  0  0  0  0  0  0  0  0  0  0
    8.1439   -0.5371    4.1950 H   0  0  0  0  0  0  0  0  0  0  0  0
    6.8364   -0.0491    5.2930 H   0  0  0  0  0  0  0  0  0  0  0  0
    7.7793    1.2054    4.4413 H   0  0  0  0  0  0  0  0  0  0  0  0
    3.2551    2.4153    0.1002 H   0  0  0  0  0  0  0  0  0  0  0  0
    3.6110    4.6042   -1.1118 H   0  0  0  0  0  0  0  0  0  0  0  0
    4.4119    5.1603    0.3909 H   0  0  0  0  0  0  0  0  0  0  0  0
    2.6512    4.8468    0.3762 H   0  0  0  0  0  0  0  0  0  0  0  0
   -0.9317    1.8598    0.2123 H   0  0  0  0  0  0  0  0  0  0  0  0
    0.2260   -0.7294   -1.4604 H   0  0  0  0  0  0  0  0  0  0  0  0
    1.8604   -0.1542   -1.8180 H   0  0  0  0  0  0  0  0  0  0  0  0
   -0.5988    0.1302   -3.6250 H   0  0  0  0  0  0  0  0  0  0  0  0
    0.8217   -0.8953   -3.9001 H   0  0  0  0  0  0  0  0  0  0  0  0
    0.9336    1.2684   -5.2276 H   0  0  0  0  0  0  0  0  0  0  0  0
    2.2817    1.0914   -4.0930 H   0  0  0  0  0  0  0  0  0  0  0  0
   -0.2516    2.7599   -3.6253 H   0  0  0  0  0  0  0  0  0  0  0  0
    1.3854    3.3914   -3.9135 H   0  0  0  0  0  0  0  0  0  0  0  0
    0.7500    3.3929   -1.4684 H   0  0  0  0  0  0  0  0  0  0  0  0
    2.1973    2.4165   -1.8168 H   0  0  0  0  0  0  0  0  0  0  0  0
   -0.9207   -0.5390    1.9791 H   0  0  0  0  0  0  0  0  0  0  0  0
   -1.2971   -5.5375   -0.9976 H   0  0  0  0  0  0  0  0  0  0  0  0
   -1.5182   -0.4430    0.0485 H   0  0  0  0  0  0  0  0  0  0  0  0
   -2.0263    0.9759   -1.6689 H   0  0  0  0  0  0  0  0  0  0  0  0
   -3.6488    1.6364   -3.4413 H   0  0  0  0  0  0  0  0  0  0  0  0
   -6.5000    0.7924   -1.9588 H   0  0  0  0  0  0  0  0  0  0  0  0
   -8.6663    1.9370   -1.5917 H   0  0  0  0  0  0  0  0  0  0  0  0
  -10.1305    2.5280   -3.5208 H   0  0  0  0  0  0  0  0  0  0  0  0
   -9.3925    1.9545   -5.8372 H   0  0  0  0  0  0  0  0  0  0  0  0
   -7.2060    0.8006   -6.1991 H   0  0  0  0  0  0  0  0  0  0  0  0
   -5.5543   -2.1945   -3.1387 H   0  0  0  0  0  0  0  0  0  0  0  0
   -3.9550   -2.8582   -1.3376 H   0  0  0  0  0  0  0  0  0  0  0  0
  1  2  1  0  0  0  0
  1 53  1  0  0  0  0
  1 51  1  0  0  0  0
  3  2  1  0  0  0  0
  4 54  1  0  0  0  0
  4  3  2  0  0  0  0
  5  3  1  0  0  0  0
  5  6  1  0  0  0  0
  6  7  1  0  0  0  0
  6 55  1  0  0  0  0
  7  8  2  0  0  0  0
  9 56  1  0  0  0  0
  9  7  1  0  0  0  0
 10  9  1  0  0  0  0
 11 10  1  0  0  0  0
 11 12  1  0  0  0  0
 12 57  1  0  0  0  0
 12 58  1  0  0  0  0
 13 14  1  6  0  0  0
 13 12  1  0  0  0  0
 13 15  1  0  0  0  0
 15 59  1  0  0  0  0
 15 16  1  0  0  0  0
 16 17  1  0  0  0  0
 17 62  1  0  0  0  0
 17 61  1  0  0  0  0
 18 16  2  0  0  0  0
 19 13  1  0  0  0  0
 19 22  2  0  0  0  0
 20 19  1  0  0  0  0
 21 66  1  0  0  0  0
 21 20  1  0  0  0  0
 21 65  1  0  0  0  0
 23 67  1  0  0  0  0
 23 10  2  0  0  0  0
 24 23  1  0  0  0  0
 25 69  1  0  0  0  0
 25 68  1  0  0  0  0
 25 24  1  0  0  0  0
 26 25  1  0  0  0  0
 27 73  1  0  0  0  0
 27 28  1  0  0  0  0
 27 26  1  0  0  0  0
 28 29  1  0  0  0  0
 29 77  1  0  0  0  0
 29 76  1  0  0  0  0
 29 24  1  0  0  0  0
 30 78  1  0  0  0  0
 30  5  2  0  0  0  0
 31 32  2  0  0  0  0
 31 30  1  0  0  0  0
 32  4  1  0  0  0  0
 33 32  1  0  0  0  0
 34 33  2  0  0  0  0
 35 34  1  0  0  0  0
 35 36  2  0  0  0  0
 36 31  1  0  0  0  0
 37 36  1  0  0  0  0
 37 80  1  0  0  0  0
 38 37  1  0  0  0  0
 39 81  1  0  0  0  0
 39 38  2  0  0  0  0
 40 39  1  0  0  0  0
 41 40  2  0  0  0  0
 41 49  1  0  0  0  0
 42 43  1  0  0  0  0
 42 41  1  0  0  0  0
 43 44  1  0  0  0  0
 44 45  2  0  0  0  0
 44 83  1  0  0  0  0
 45 84  1  0  0  0  0
 46 85  1  0  0  0  0
 46 45  1  0  0  0  0
 47 46  2  0  0  0  0
 48 47  1  0  0  0  0
 48 43  2  0  0  0  0
 49 50  2  0  0  0  0
 50 38  1  0  0  0  0
 50 89  1  0  0  0  0
 52  1  1  0  0  0  0
 60 17  1  0  0  0  0
 63 20  1  0  0  0  0
 64 21  1  0  0  0  0
 70 26  1  0  0  0  0
 71 26  1  0  0  0  0
 72 27  1  0  0  0  0
 74 28  1  0  0  0  0
 75 28  1  0  0  0  0
 79 34  1  0  0  0  0
 82 40  1  0  0  0  0
 86 47  1  0  0  0  0
 87 48  1  0  0  0  0
 88 49  1  0  0  0  0
M  END
