-1 1
 OpenBabel05232413483D

 89 92  0  0  1  0  0  0  0  0999 V2000
    3.5244   -3.1682    3.0940 C   0  0  0  0  0  0  0  0  0  0  0  0
    2.3868   -2.3448    3.2633 O   0  0  0  0  0  0  0  0  0  0  0  0
    1.3722   -2.4189    2.3992 C   0  0  0  0  0  0  0  0  0  0  0  0
    1.0650   -3.5194    1.6343 C   0  0  0  0  0  0  0  0  0  0  0  0
    0.5745   -1.2231    2.3340 C   0  0  0  0  0  0  0  0  0  0  0  0
    0.9996   -0.1747    3.1512 N   0  0  0  0  0  0  0  0  0  0  0  0
    0.6240    1.1447    3.2392 C   0  0  0  0  0  0  0  0  0  0  0  0
    0.9398    1.8111    4.2084 O   0  0  0  0  0  0  0  0  0  0  0  0
   -0.1213    1.8091    2.1154 C   0  0  0  0  0  0  0  0  0  0  0  0
    0.2509    1.7156    0.8586 C   0  0  0  0  0  0  0  0  0  0  0  0
    3.8952   -1.7432   -0.3138 S   0  0  0  0  0  1  0  0  0  0  0  0
    3.6942   -0.3372    0.8370 C   0  0  0  0  0  0  0  0  0  0  0  0
    4.9883    0.3852    1.2705 C   0  0  2  0  0  0  0  0  0  0  0  0
    5.6852   -0.3869    1.6430 H   0  0  0  0  0  0  0  0  0  0  0  0
    4.7439    1.3711    2.3032 N   0  0  0  0  0  0  0  0  0  0  0  0
    4.3640    1.0993    3.5695 C   0  0  0  0  0  0  0  0  0  0  0  0
    4.1765    2.3090    4.4640 C   0  0  0  0  0  0  0  0  0  0  0  0
    4.1487   -0.0318    3.9867 O   0  0  0  0  0  0  0  0  0  0  0  0
    5.6769    1.1482    0.1270 C   0  0  0  0  0  0  0  0  0  0  0  0
    5.9791    0.3999   -0.9424 N   0  0  0  0  0  0  0  0  0  0  0  0
    6.5569    0.9530   -2.1363 C   0  0  0  0  0  0  0  0  0  0  0  0
    5.9147    2.3553    0.2192 O   0  0  0  0  0  0  0  0  0  0  0  0
    0.7313    1.4616   -0.3484 C   0  0  0  0  0  0  0  0  0  0  0  0
    1.7001    2.1679   -1.0185 N   0  0  0  0  0  0  0  0  0  0  0  0
    2.4352    1.4981   -2.0868 C   0  0  0  0  0  0  0  0  0  0  0  0
    3.0156    2.5184   -3.0594 C   0  0  0  0  0  0  0  0  0  0  0  0
    3.8524    3.5636   -2.3227 C   0  0  0  0  0  0  0  0  0  0  0  0
    3.0225    4.2273   -1.2270 C   0  0  0  0  0  0  0  0  0  0  0  0
    2.4286    3.1880   -0.2831 C   0  0  0  0  0  0  0  0  0  0  0  0
   -0.5322   -1.2199    1.5170 C   0  0  0  0  0  0  0  0  0  0  0  0
   -0.8322   -2.3266    0.6865 C   0  0  0  0  0  0  0  0  0  0  0  0
   -0.0466   -3.4997    0.7616 C   0  0  0  0  0  0  0  0  0  0  0  0
   -0.3471   -4.6084    0.0236 N   0  0  0  0  0  0  0  0  0  0  0  0
   -1.3789   -4.5140   -0.7654 C   0  0  0  0  0  0  0  0  0  0  0  0
   -2.1612   -3.4324   -0.9792 N   0  0  0  0  0  0  0  0  0  0  0  0
   -1.8838   -2.3455   -0.2901 C   0  0  0  0  0  0  0  0  0  0  0  0
   -2.5818   -1.1801   -0.5132 N   0  0  0  0  0  0  0  0  0  0  0  0
   -3.6428   -0.8901   -1.3701 C   0  0  0  0  0  0  0  0  0  0  0  0
   -4.0469    0.4550   -1.4526 C   0  0  0  0  0  0  0  0  0  0  0  0
   -5.1076    0.8366   -2.2635 C   0  0  0  0  0  0  0  0  0  0  0  0
   -5.7837   -0.1244   -3.0109 C   0  0  0  0  0  0  0  0  0  0  0  0
   -6.8151    0.2542   -3.8446 O   0  0  0  0  0  0  0  0  0  0  0  0
   -8.0867    0.2753   -3.3688 C   0  0  0  0  0  0  0  0  0  0  0  0
   -8.4329   -0.0812   -2.0619 C   0  0  0  0  0  0  0  0  0  0  0  0
   -9.7707   -0.0259   -1.6693 C   0  0  0  0  0  0  0  0  0  0  0  0
  -10.7637    0.3783   -2.5584 C   0  0  0  0  0  0  0  0  0  0  0  0
  -10.4067    0.7320   -3.8617 C   0  0  0  0  0  0  0  0  0  0  0  0
   -9.0787    0.6826   -4.2691 C   0  0  0  0  0  0  0  0  0  0  0  0
   -5.3910   -1.4568   -2.9465 C   0  0  0  0  0  0  0  0  0  0  0  0
   -4.3281   -1.8472   -2.1355 C   0  0  0  0  0  0  0  0  0  0  0  0
    4.3056   -2.7125    3.7128 H   0  0  0  0  0  0  0  0  0  0  0  0
    3.8395   -3.1604    2.0355 H   0  0  0  0  0  0  0  0  0  0  0  0
    3.3183   -4.1976    3.4358 H   0  0  0  0  0  0  0  0  0  0  0  0
    1.6778   -4.4184    1.6615 H   0  0  0  0  0  0  0  0  0  0  0  0
    1.7691   -0.4187    3.7794 H   0  0  0  0  0  0  0  0  0  0  0  0
   -0.8867    2.5200    2.4544 H   0  0  0  0  0  0  0  0  0  0  0  0
    3.2428   -0.6871    1.7710 H   0  0  0  0  0  0  0  0  0  0  0  0
    3.0066    0.4187    0.4275 H   0  0  0  0  0  0  0  0  0  0  0  0
    5.0224    2.3109    2.0315 H   0  0  0  0  0  0  0  0  0  0  0  0
    4.6631    2.1100    5.4284 H   0  0  0  0  0  0  0  0  0  0  0  0
    3.0969    2.4210    4.6450 H   0  0  0  0  0  0  0  0  0  0  0  0
    4.5732    3.2386    4.0323 H   0  0  0  0  0  0  0  0  0  0  0  0
    5.5074   -0.5344   -0.9719 H   0  0  0  0  0  0  0  0  0  0  0  0
    7.3054    0.2616   -2.5528 H   0  0  0  0  0  0  0  0  0  0  0  0
    7.0436    1.9074   -1.8948 H   0  0  0  0  0  0  0  0  0  0  0  0
    5.7965    1.1395   -2.9148 H   0  0  0  0  0  0  0  0  0  0  0  0
    0.2972    0.6200   -0.9045 H   0  0  0  0  0  0  0  0  0  0  0  0
    1.7464    0.8137   -2.6036 H   0  0  0  0  0  0  0  0  0  0  0  0
    3.2447    0.8633   -1.6769 H   0  0  0  0  0  0  0  0  0  0  0  0
    2.1914    3.0182   -3.5985 H   0  0  0  0  0  0  0  0  0  0  0  0
    3.6223    1.9883   -3.8109 H   0  0  0  0  0  0  0  0  0  0  0  0
    4.2357    4.3188   -3.0279 H   0  0  0  0  0  0  0  0  0  0  0  0
    4.7265    3.0862   -1.8514 H   0  0  0  0  0  0  0  0  0  0  0  0
    2.2019    4.8113   -1.6803 H   0  0  0  0  0  0  0  0  0  0  0  0
    3.6421    4.9249   -0.6428 H   0  0  0  0  0  0  0  0  0  0  0  0
    1.7280    3.6637    0.4203 H   0  0  0  0  0  0  0  0  0  0  0  0
    3.2325    2.7288    0.3239 H   0  0  0  0  0  0  0  0  0  0  0  0
   -1.1692   -0.3400    1.5167 H   0  0  0  0  0  0  0  0  0  0  0  0
   -1.6499   -5.4047   -1.3455 H   0  0  0  0  0  0  0  0  0  0  0  0
   -2.2109   -0.3732   -0.0313 H   0  0  0  0  0  0  0  0  0  0  0  0
   -3.5123    1.2144   -0.8748 H   0  0  0  0  0  0  0  0  0  0  0  0
   -5.4159    1.8818   -2.3256 H   0  0  0  0  0  0  0  0  0  0  0  0
   -7.6624   -0.4002   -1.3589 H   0  0  0  0  0  0  0  0  0  0  0  0
  -10.0337   -0.3062   -0.6466 H   0  0  0  0  0  0  0  0  0  0  0  0
  -11.8074    0.4180   -2.2407 H   0  0  0  0  0  0  0  0  0  0  0  0
  -11.1733    1.0513   -4.5719 H   0  0  0  0  0  0  0  0  0  0  0  0
   -8.7800    0.9550   -5.2828 H   0  0  0  0  0  0  0  0  0  0  0  0
   -5.9260   -2.1974   -3.5444 H   0  0  0  0  0  0  0  0  0  0  0  0
   -4.0019   -2.8834   -2.0894 H   0  0  0  0  0  0  0  0  0  0  0  0
  1  2  1  0  0  0  0
  1 53  1  0  0  0  0
  1 51  1  0  0  0  0
  3  2  1  0  0  0  0
  4 54  1  0  0  0  0
  4  3  2  0  0  0  0
  5  3  1  0  0  0  0
  5  6  1  0  0  0  0
  6  7  1  0  0  0  0
  6 55  1  0  0  0  0
  7  8  2  0  0  0  0
  9 56  1  0  0  0  0
  9  7  1  0  0  0  0
 10  9  2  0  0  0  0
 11 12  1  0  0  0  0
 12 13  1  0  0  0  0
 12 57  1  0  0  0  0
 13 14  1  1  0  0  0
 13 15  1  0  0  0  0
 15 16  1  0  0  0  0
 16 18  2  0  0  0  0
 16 17  1  0  0  0  0
 17 61  1  0  0  0  0
 17 60  1  0  0  0  0
 19 22  2  0  0  0  0
 19 13  1  0  0  0  0
 20 19  1  0  0  0  0
 21 65  1  0  0  0  0
 21 20  1  0  0  0  0
 23 10  2  0  0  0  0
 24 23  1  0  0  0  0
 24 29  1  0  0  0  0
 25 69  1  0  0  0  0
 25 24  1  0  0  0  0
 26 27  1  0  0  0  0
 26 25  1  0  0  0  0
 27 73  1  0  0  0  0
 27 28  1  0  0  0  0
 28 75  1  0  0  0  0
 28 29  1  0  0  0  0
 29 77  1  0  0  0  0
 29 76  1  0  0  0  0
 30  5  2  0  0  0  0
 31 32  2  0  0  0  0
 31 30  1  0  0  0  0
 32  4  1  0  0  0  0
 33 32  1  0  0  0  0
 34 33  2  0  0  0  0
 35 34  1  0  0  0  0
 35 36  2  0  0  0  0
 36 31  1  0  0  0  0
 37 36  1  0  0  0  0
 37 80  1  0  0  0  0
 38 37  1  0  0  0  0
 39 38  1  0  0  0  0
 39 81  1  0  0  0  0
 40 39  2  0  0  0  0
 41 49  2  0  0  0  0
 41 40  1  0  0  0  0
 42 43  1  0  0  0  0
 42 41  1  0  0  0  0
 43 44  1  0  0  0  0
 44 45  2  0  0  0  0
 44 83  1  0  0  0  0
 45 84  1  0  0  0  0
 46 85  1  0  0  0  0
 46 45  1  0  0  0  0
 47 46  2  0  0  0  0
 48 47  1  0  0  0  0
 48 43  2  0  0  0  0
 49 50  1  0  0  0  0
 50 89  1  0  0  0  0
 50 38  2  0  0  0  0
 52  1  1  0  0  0  0
 58 12  1  0  0  0  0
 59 15  1  0  0  0  0
 62 17  1  0  0  0  0
 63 20  1  0  0  0  0
 64 21  1  0  0  0  0
 66 21  1  0  0  0  0
 67 23  1  0  0  0  0
 68 25  1  0  0  0  0
 70 26  1  0  0  0  0
 71 26  1  0  0  0  0
 72 27  1  0  0  0  0
 74 28  1  0  0  0  0
 78 30  1  0  0  0  0
 79 34  1  0  0  0  0
 82 40  1  0  0  0  0
 86 47  1  0  0  0  0
 87 48  1  0  0  0  0
 88 49  1  0  0  0  0
M  END
