94
-1 1
C         9.113888    4.275574    1.632041
C         7.922488    5.212926    1.741142
O         6.811513    4.610382    2.366292
C         6.017944    3.756754    1.679366
C         6.145549    3.456893    0.340999
C         4.978772    3.157664    2.465865
N         4.901931    3.523486    3.806893
C         3.818471    3.748042    4.665166
O         4.127352    3.984823    5.848225
C         2.485290    3.714327    4.142203
C         1.337178    3.937765    4.878734
S         0.271626    1.646805    5.644608
C         1.691528    1.287191    6.713017
C         2.903814    0.658754    5.993471
H         3.210115    1.313439    5.168771
N         2.585729   -0.630975    5.431199
C         2.367425   -0.861940    4.132581
C         1.875111   -2.247834    3.780294
O         2.530174   -0.009414    3.260532
C         4.043458    0.466710    6.996050
N         4.759251    1.579607    7.259303
C         5.795128    1.606904    8.256663
O         4.223809   -0.615447    7.542442
C         1.304800    4.686835    6.192717
N         0.068889    4.784449    6.915408
C        -0.089793    4.099877    8.181133
C        -1.520405    4.452788    8.577560
C        -2.236989    4.417459    7.225942
C        -1.198582    4.985451    6.247952
C         4.147606    2.231796    1.872285
C         4.258218    1.922733    0.495602
C         5.250464    2.555186   -0.286392
N         5.373352    2.332230   -1.629006
C         4.501460    1.510226   -2.146567
N         3.523570    0.831717   -1.517363
C         3.394634    1.001602   -0.210396
N         2.439255    0.328809    0.482031
C         1.363077   -0.436778    0.020404
C         1.240911   -0.952686   -1.277382
C         0.126437   -1.713104   -1.611711
Cl        -0.009081   -2.346195   -3.237069
C        -0.891032   -1.994637   -0.691974
O        -1.927138   -2.764154   -1.117082
C        -2.982062   -3.035372   -0.237051
C        -3.877204   -1.843178    0.031879
C        -4.038422   -0.860992   -0.947223
C        -4.882904    0.210844   -0.693498
F        -5.036743    1.148154   -1.630912
C        -5.574477    0.339767    0.505362
C        -5.404976   -0.643506    1.477040
C        -4.560678   -1.728294    1.245137
C        -0.765082   -1.464260    0.595257
C         0.338952   -0.696866    0.943728
H         8.888281    3.405592    0.999342
H         9.401905    3.909374    2.628154
H         9.972720    4.806152    1.194157
H         7.634893    5.613466    0.753622
H         8.173321    6.073163    2.378306
H         6.911475    3.903678   -0.291466
H         5.769236    3.848305    4.217973
H         2.352173    3.443462    3.096864
H         0.421555    3.986413    4.290214
H         1.398795    0.605992    7.531779
H         2.050075    2.210955    7.196452
H         2.532218   -1.389747    6.100228
H         0.778139   -2.208858    3.701379
H         2.143465   -3.000300    4.534926
H         2.275632   -2.538248    2.800813
H         4.535383    2.453682    6.765413
H         5.898789    0.596829    8.673693
H         5.550430    2.305978    9.073454
H         6.760471    1.914041    7.822022
H         1.673097    5.702613    5.923086
H         2.084614    4.296331    6.858668
H         0.650588    4.458144    8.919685
H         0.015524    3.001302    8.088211
H        -1.557750    5.467273    9.009745
H        -1.946161    3.751723    9.311123
H        -3.187499    4.972643    7.215506
H        -2.444015    3.370555    6.956241
H        -1.379735    6.061727    6.036244
H        -1.268474    4.453053    5.282773
H         3.417883    1.726364    2.503687
H         4.566436    1.333758   -3.227975
H         2.495250    0.342149    1.507180
H         2.013566   -0.744220   -2.013089
H        -2.610337   -3.454613    0.715514
H        -3.566746   -3.825737   -0.732450
H        -3.499084   -0.917328   -1.894367
H        -6.217601    1.206095    0.665881
H        -5.925268   -0.552630    2.432654
H        -4.419557   -2.483125    2.022983
H        -1.545838   -1.617515    1.339900
H         0.410439   -0.275195    1.948571
