94
-1 1
C         6.976185    4.248367   -1.479487
C         5.573747    4.740872   -1.164165
O         4.817623    3.798480   -0.433624
C         4.242394    2.750698   -1.062768
C         4.276880    2.511490   -2.421254
C         3.544459    1.853099   -0.194722
N         3.461319    2.172056    1.170218
C         2.397071    2.091313    2.040721
O         2.590117    2.370940    3.222737
C         1.067610    1.695033    1.530757
C        -0.072405    1.843688    2.227223
S        -1.751782   -1.447944    2.335710
C        -0.661587   -1.339408    3.787598
C         0.849274   -1.372997    3.469353
H         1.087186   -0.569521    2.762807
N         1.219822   -2.615652    2.830922
C         1.663988   -2.714267    1.573387
C         1.704899   -4.103975    0.984445
O         2.003713   -1.739079    0.897434
C         1.646078   -1.225601    4.764062
N         2.099515    0.025820    5.026689
C         2.817990    0.347688    6.232168
O         1.797802   -2.173674    5.519840
C        -0.299000    2.481894    3.576499
N        -1.663049    2.895969    3.799844
C        -2.629425    1.834001    4.079289
C        -3.970962    2.469096    3.731090
C        -3.612648    3.297506    2.495973
C        -2.225865    3.850461    2.847166
C         2.976955    0.716130   -0.716279
C         2.946661    0.491489   -2.110525
C         3.584702    1.404591   -2.977494
N         3.519483    1.272165   -4.334433
C         2.764294    0.297008   -4.770907
N         2.066819   -0.605793   -4.056450
C         2.161744   -0.547146   -2.737082
N         1.476783   -1.419174   -1.952759
C         0.200142   -1.970552   -2.181958
C        -0.326411   -2.282124   -3.439853
C        -1.642739   -2.731475   -3.533093
Cl        -2.308440   -3.073237   -5.116339
C        -2.456892   -2.907007   -2.405515
O        -3.737081   -3.312877   -2.588026
C        -4.638041   -3.191851   -1.505189
C        -4.880144   -1.757318   -1.082208
C        -5.308063   -0.825805   -2.035700
C        -5.492139    0.493967   -1.653309
F        -5.908341    1.382720   -2.565853
C        -5.252314    0.927066   -0.352967
C        -4.817279   -0.003203    0.586391
C        -4.640154   -1.339479    0.227901
C        -1.891429   -2.640261   -1.156927
C        -0.598285   -2.159856   -1.049305
H         6.958288    3.359624   -2.126003
H         7.505864    3.987329   -0.551812
H         7.545192    5.036614   -1.994696
H         5.033826    5.032515   -2.081377
H         5.618652    5.629049   -0.517867
H         4.780703    3.175772   -3.122117
H         4.270603    2.623024    1.583632
H         0.992098    1.231876    0.550009
H        -0.972102    1.429633    1.754796
H        -0.863451   -2.155461    4.503694
H        -0.844317   -0.402113    4.342580
H         0.948546   -3.457973    3.322041
H         0.821737   -4.213349    0.335802
H         1.683124   -4.896732    1.744473
H         2.601385   -4.206231    0.359790
H         2.049799    0.752486    4.313956
H         2.825082   -0.543259    6.872922
H         2.335811    1.177683    6.772482
H         3.858414    0.638640    6.013759
H         0.394249    3.326983    3.713059
H        -0.017997    1.760256    4.363478
H        -2.570458    1.521089    5.136200
H        -2.471119    0.927663    3.456415
H        -4.313881    3.127948    4.546668
H        -4.756461    1.721934    3.546073
H        -4.344952    4.083387    2.256861
H        -3.534871    2.630543    1.621809
H        -2.302632    4.860530    3.296260
H        -1.595796    3.955247    1.945036
H         2.532668    0.002520   -0.023435
H         2.678236    0.191390   -5.859898
H         1.735299   -1.452049   -0.961863
H         0.273823   -2.136916   -4.335288
H        -4.301232   -3.790241   -0.641362
H        -5.570081   -3.641641   -1.876473
H        -5.478270   -1.116049   -3.074530
H        -5.388843    1.980600   -0.102338
H        -4.571392    0.304711    1.604588
H        -4.257247   -2.034018    0.981092
H        -2.448629   -2.746290   -0.227600
H        -0.255118   -1.874105   -0.051570
