-1 1
 OpenBabel05192410563D

 68 70  0  0  1  0  0  0  0  0999 V2000
    1.3978   -4.0009    3.1745 C   0  0  0  0  0  0  0  0  0  0  0  0
    2.2022   -2.8755    2.7276 N   0  0  0  0  0  0  0  0  0  0  0  0
    1.3973   -1.8369    2.0628 C   0  0  0  0  0  0  0  0  0  0  0  0
    0.2930   -1.1398    2.8912 C   0  0  1  0  0  0  0  0  0  0  0  0
    0.9359    0.3486    3.8506 S   0  0  0  0  0  0  0  0  0  0  0  0
    2.4646   -0.2280    4.6367 C   0  0  0  0  0  0  0  0  0  0  0  0
    2.2596   -1.3909    5.6233 C   0  0  2  0  0  0  0  0  0  0  0  0
    1.7168   -2.1864    5.1018 H   0  0  0  0  0  0  0  0  0  0  0  0
    1.4647   -1.0434    6.7639 N   0  0  0  0  0  0  0  0  0  0  0  0
    0.2162   -1.5481    6.9509 C   0  0  0  0  0  0  0  0  0  0  0  0
   -0.5179   -1.0079    8.1610 C   0  0  0  0  0  0  0  0  0  0  0  0
   -0.3026   -2.3484    6.1926 O   0  0  0  0  0  0  0  0  0  0  0  0
    3.6173   -1.9434    6.0518 C   0  0  0  0  0  0  0  0  0  0  0  0
    4.1865   -2.6976    5.0817 N   0  0  0  0  0  0  0  0  0  0  0  0
    5.5099   -3.2486    5.1841 C   0  0  0  0  0  0  0  0  0  0  0  0
    4.1260   -1.6879    7.1307 O   0  0  0  0  0  0  0  0  0  0  0  0
   -0.8976   -0.7022    2.1048 C   0  0  0  0  0  3  0  0  0  0  0  0
   -0.8986    0.0649    0.9386 C   0  0  0  0  0  0  0  0  0  0  0  0
    0.3852    0.6664    0.6135 N   0  0  0  0  0  0  0  0  0  0  0  0
    0.7811    1.2118   -0.5592 C   0  0  0  0  0  0  0  0  0  0  0  0
   -0.0336    1.2713   -1.7021 C   0  0  0  0  0  0  0  0  0  0  0  0
    2.0576    1.6977   -0.5711 N   0  0  0  0  0  0  0  0  0  0  0  0
    2.5421    2.2138   -1.6717 C   0  0  0  0  0  0  0  0  0  0  0  0
    1.8228    2.3097   -2.8877 C   0  0  0  0  0  0  0  0  0  0  0  0
    0.4963    1.8216   -2.8704 C   0  0  0  0  0  0  0  0  0  0  0  0
   -0.2147    1.9542   -4.1282 C   0  0  2  0  0  3  0  0  0  0  0  0
   -1.5095    1.5059   -4.1617 N   0  0  0  0  0  0  0  0  0  0  0  0
   -2.4438    1.4886   -5.1939 C   0  0  0  0  0  0  0  0  0  0  0  0
   -3.7117    0.9582   -4.8989 C   0  0  0  0  0  0  0  0  0  0  0  0
   -4.6982    0.9033   -5.8748 C   0  0  0  0  0  0  0  0  0  0  0  0
   -6.2660    0.2446   -5.5034 Cl  0  0  0  0  0  0  0  0  0  0  0  0
   -4.4398    1.3759   -7.1601 C   0  0  0  0  0  0  0  0  0  0  0  0
   -5.3865    1.3240   -8.0986 F   0  0  0  0  0  0  0  0  0  0  0  0
   -3.1921    1.9013   -7.4587 C   0  0  0  0  0  0  0  0  0  0  0  0
   -2.1928    1.9629   -6.4919 C   0  0  0  0  0  0  0  0  0  0  0  0
    0.3591    2.4791   -5.1830 N   0  0  0  0  0  0  0  0  0  0  0  0
    1.6474    2.9036   -5.0611 C   0  0  0  0  0  0  0  0  0  0  0  0
    2.3978    2.8549   -4.0023 N   0  0  0  0  0  2  0  0  0  0  0  0
   -1.8539    0.2834    0.1699 O   0  0  0  0  0  0  0  0  0  0  0  0
    3.2448   -3.3217    1.8228 C   0  0  0  0  0  0  0  0  0  0  0  0
    0.8571   -4.4900    2.3358 H   0  0  0  0  0  0  0  0  0  0  0  0
    0.6564   -3.6841    3.9212 H   0  0  0  0  0  0  0  0  0  0  0  0
    2.0471   -4.7517    3.6525 H   0  0  0  0  0  0  0  0  0  0  0  0
    0.8841   -2.2869    1.1872 H   0  0  0  0  0  0  0  0  0  0  0  0
    2.0997   -1.0920    1.6586 H   0  0  0  0  0  0  0  0  0  0  0  0
   -0.0655   -1.8214    3.6732 H   0  0  0  0  0  0  0  0  0  0  0  0
    2.8943    0.6388    5.1643 H   0  0  0  0  0  0  0  0  0  0  0  0
    3.1878   -0.5312    3.8665 H   0  0  0  0  0  0  0  0  0  0  0  0
    1.9117   -0.4997    7.4905 H   0  0  0  0  0  0  0  0  0  0  0  0
    0.1576   -0.6418    8.9473 H   0  0  0  0  0  0  0  0  0  0  0  0
   -1.1685   -1.7942    8.5630 H   0  0  0  0  0  0  0  0  0  0  0  0
   -1.1542   -0.1738    7.8294 H   0  0  0  0  0  0  0  0  0  0  0  0
    3.6347   -2.7981    4.2241 H   0  0  0  0  0  0  0  0  0  0  0  0
    5.9118   -2.9842    6.1712 H   0  0  0  0  0  0  0  0  0  0  0  0
    6.1815   -2.8429    4.4095 H   0  0  0  0  0  0  0  0  0  0  0  0
    5.4998   -4.3471    5.0921 H   0  0  0  0  0  0  0  0  0  0  0  0
   -1.8746   -1.0619    2.4299 H   0  0  0  0  0  0  0  0  0  0  0  0
    1.0473    0.7920    1.3753 H   0  0  0  0  0  0  0  0  0  0  0  0
   -1.0517    0.8991   -1.5666 H   0  0  0  0  0  0  0  0  0  0  0  0
    3.5698    2.5970   -1.6528 H   0  0  0  0  0  0  0  0  0  0  0  0
   -1.8346    1.1292   -3.2797 H   0  0  0  0  0  0  0  0  0  0  0  0
   -3.9360    0.5835   -3.8978 H   0  0  0  0  0  0  0  0  0  0  0  0
   -3.0095    2.2668   -8.4709 H   0  0  0  0  0  0  0  0  0  0  0  0
   -1.2116    2.3738   -6.7166 H   0  0  0  0  0  0  0  0  0  0  0  0
    2.0796    3.3333   -5.9727 H   0  0  0  0  0  0  0  0  0  0  0  0
    3.8692   -4.0928    2.3045 H   0  0  0  0  0  0  0  0  0  0  0  0
    3.8931   -2.4763    1.5461 H   0  0  0  0  0  0  0  0  0  0  0  0
    2.8376   -3.7568    0.8842 H   0  0  0  0  0  0  0  0  0  0  0  0
  1 43  1  0  0  0  0
  1 42  1  0  0  0  0
  2  1  1  0  0  0  0
  3  2  1  0  0  0  0
  3  4  1  0  0  0  0
  4 46  1  1  0  0  0
  4  5  1  0  0  0  0
  5  6  1  0  0  0  0
  6 47  1  0  0  0  0
  6  7  1  0  0  0  0
  7  8  1  6  0  0  0
  7 13  1  0  0  0  0
  7  9  1  0  0  0  0
  9 10  1  0  0  0  0
  9 49  1  0  0  0  0
 10 11  1  0  0  0  0
 11 51  1  0  0  0  0
 11 50  1  0  0  0  0
 12 10  2  0  0  0  0
 13 16  2  0  0  0  0
 14 15  1  0  0  0  0
 14 13  1  0  0  0  0
 15 54  1  0  0  0  0
 17 57  1  0  0  0  0
 17  4  1  0  0  0  0
 18 17  1  0  0  0  0
 19 18  1  0  0  0  0
 19 58  1  0  0  0  0
 20 19  1  0  0  0  0
 21 59  1  0  0  0  0
 21 20  2  0  0  0  0
 22 20  1  0  0  0  0
 23 60  1  0  0  0  0
 23 22  2  0  0  0  0
 24 25  2  0  0  0  0
 24 23  1  0  0  0  0
 25 21  1  0  0  0  0
 26 27  1  6  0  0  0
 26 25  1  0  0  0  0
 27 61  1  0  0  0  0
 28 29  1  0  0  0  0
 28 27  1  0  0  0  0
 29 62  1  0  0  0  0
 30 31  1  0  0  0  0
 30 29  2  0  0  0  0
 32 30  1  0  0  0  0
 33 32  1  0  0  0  0
 34 32  2  0  0  0  0
 34 35  1  0  0  0  0
 35 28  2  0  0  0  0
 36 37  2  0  0  0  0
 36 26  1  0  0  0  0
 37 38  1  0  0  0  0
 38 24  1  0  0  0  0
 39 18  2  0  0  0  0
 40 66  1  0  0  0  0
 40  2  1  0  0  0  0
 41  1  1  0  0  0  0
 44  3  1  0  0  0  0
 45  3  1  0  0  0  0
 48  6  1  0  0  0  0
 52 11  1  0  0  0  0
 53 14  1  0  0  0  0
 55 15  1  0  0  0  0
 56 15  1  0  0  0  0
 63 34  1  0  0  0  0
 64 35  1  0  0  0  0
 65 37  1  0  0  0  0
 67 40  1  0  0  0  0
 68 40  1  0  0  0  0
M  END
