68
-1 1
C         1.397788   -4.000918    3.174470
N         2.202171   -2.875500    2.727567
C         1.397261   -1.836901    2.062760
C         0.292965   -1.139771    2.891163
S         0.935916    0.348634    3.850557
C         2.464556   -0.228028    4.636682
C         2.259576   -1.390875    5.623331
H         1.716789   -2.186367    5.101819
N         1.464719   -1.043383    6.763945
C         0.216213   -1.548138    6.950865
C        -0.517868   -1.007923    8.160979
O        -0.302582   -2.348352    6.192577
C         3.617258   -1.943353    6.051826
N         4.186465   -2.697574    5.081669
C         5.509901   -3.248639    5.184087
O         4.125994   -1.687888    7.130720
C        -0.897555   -0.702197    2.104809
C        -0.898600    0.064882    0.938639
N         0.385164    0.666438    0.613452
C         0.781101    1.211760   -0.559224
C        -0.033566    1.271344   -1.702054
N         2.057557    1.697738   -0.571086
C         2.542129    2.213831   -1.671688
C         1.822834    2.309724   -2.887728
C         0.496319    1.821581   -2.870396
C        -0.214734    1.954240   -4.128221
N        -1.509479    1.505874   -4.161687
C        -2.443812    1.488606   -5.193917
C        -3.711720    0.958190   -4.898857
C        -4.698169    0.903273   -5.874839
Cl        -6.265974    0.244610   -5.503364
C        -4.439752    1.375921   -7.160090
F        -5.386472    1.324034   -8.098596
C        -3.192117    1.901271   -7.458742
C        -2.192778    1.962908   -6.491856
N         0.359067    2.479136   -5.182965
C         1.647355    2.903584   -5.061069
N         2.397777    2.854894   -4.002278
O        -1.853950    0.283358    0.169903
C         3.244798   -3.321725    1.822845
H         0.857141   -4.489974    2.335774
H         0.656415   -3.684134    3.921222
H         2.047083   -4.751703    3.652506
H         0.884123   -2.286856    1.187238
H         2.099729   -1.091994    1.658564
H        -0.065538   -1.821427    3.673235
H         2.894312    0.638810    5.164347
H         3.187849   -0.531231    3.866472
H         1.911747   -0.499716    7.490513
H         0.157607   -0.641779    8.947302
H        -1.168546   -1.794172    8.562983
H        -1.154241   -0.173778    7.829421
H         3.634664   -2.798062    4.224112
H         5.911805   -2.984193    6.171152
H         6.181452   -2.842892    4.409458
H         5.499764   -4.347083    5.092104
H        -1.874600   -1.061884    2.429870
H         1.047311    0.791963    1.375290
H        -1.051668    0.899077   -1.566629
H         3.569761    2.596995   -1.652826
H        -1.834577    1.129240   -3.279698
H        -3.935956    0.583463   -3.897826
H        -3.009523    2.266764   -8.470877
H        -1.211597    2.373819   -6.716575
H         2.079618    3.333281   -5.972666
H         3.869176   -4.092762    2.304527
H         3.893111   -2.476280    1.546069
H         2.837590   -3.756800    0.884214
