-1 1
 OpenBabel05232413483D

 68 69  0  0  1  0  0  0  0  0999 V2000
    2.4416   -4.9105    2.3935 C   0  0  0  0  0  0  0  0  0  0  0  0
    2.8909   -3.5501    2.5866 N   0  0  0  0  0  0  0  0  0  0  0  0
    2.0658   -2.5737    1.8852 C   0  0  0  0  0  0  0  0  0  0  0  0
    0.7200   -2.4021    2.5367 C   0  0  0  0  0  0  0  0  0  0  0  0
    3.1824    0.8210    2.8603 S   0  0  0  0  0  1  0  0  0  0  0  0
    3.5775   -0.1255    4.3746 C   0  0  0  0  0  0  0  0  0  0  0  0
    2.3871   -0.9191    4.9250 C   0  0  2  0  0  0  0  0  0  0  0  0
    2.0500   -1.5995    4.1373 H   0  0  0  0  0  0  0  0  0  0  0  0
    1.3052   -0.0272    5.2485 N   0  0  0  0  0  0  0  0  0  0  0  0
    0.0618   -0.5018    5.4846 C   0  0  0  0  0  0  0  0  0  0  0  0
   -1.0332    0.5495    5.5047 C   0  0  0  0  0  0  0  0  0  0  0  0
   -0.1820   -1.6890    5.6448 O   0  0  0  0  0  0  0  0  0  0  0  0
    2.8120   -1.7953    6.1017 C   0  0  0  0  0  0  0  0  0  0  0  0
    3.1722   -3.0452    5.6903 N   0  0  0  0  0  0  0  0  0  0  0  0
    3.6604   -4.0417    6.5995 C   0  0  0  0  0  0  0  0  0  0  0  0
    2.8936   -1.4088    7.2521 O   0  0  0  0  0  0  0  0  0  0  0  0
   -0.2611   -1.5639    2.1843 C   0  0  0  0  0  0  0  0  0  0  0  0
   -0.3192   -0.6909    0.9783 C   0  0  0  0  0  0  0  0  0  0  0  0
    0.7896    0.0722    0.7156 N   0  0  0  0  0  0  0  0  0  0  0  0
    0.9648    0.8973   -0.3875 C   0  0  0  0  0  0  0  0  0  0  0  0
    0.0252    1.0541   -1.4026 C   0  0  0  0  0  0  0  0  0  0  0  0
    2.1513    1.5478   -0.4053 N   0  0  0  0  0  0  0  0  0  0  0  0
    2.4425    2.3462   -1.3950 C   0  0  0  0  0  0  0  0  0  0  0  0
    1.5730    2.5825   -2.4935 C   0  0  0  0  0  0  0  0  0  0  0  0
    0.3361    1.9090   -2.4755 C   0  0  0  0  0  0  0  0  0  0  0  0
   -0.5260    2.1789   -3.6072 C   0  0  2  0  0  3  0  0  0  0  0  0
   -1.7445    1.5574   -3.6433 N   0  0  0  0  0  0  0  0  0  0  0  0
   -2.7759    1.6152   -4.5828 C   0  0  0  0  0  0  0  0  0  0  0  0
   -3.9204    0.8462   -4.3148 C   0  0  0  0  0  0  0  0  0  0  0  0
   -4.9932    0.8445   -5.1968 C   0  0  0  0  0  0  0  0  0  0  0  0
   -6.4074   -0.1094   -4.8581 Cl  0  0  0  0  0  0  0  0  0  0  0  0
   -4.9421    1.6098   -6.3604 C   0  0  0  0  0  0  0  0  0  0  0  0
   -5.9697    1.6102   -7.2083 F   0  0  0  0  0  0  0  0  0  0  0  0
   -3.8160    2.3716   -6.6316 C   0  0  0  0  0  0  0  0  0  0  0  0
   -2.7333    2.3830   -5.7569 C   0  0  0  0  0  0  0  0  0  0  0  0
   -0.1470    2.9931   -4.5647 N   0  0  0  0  0  0  0  0  0  0  0  0
    1.0748    3.5745   -4.4585 C   0  0  0  0  0  0  0  0  0  0  0  0
    1.9425    3.4250   -3.5019 N   0  0  0  0  0  2  0  0  0  0  0  0
   -1.3302   -0.6880    0.2877 O   0  0  0  0  0  0  0  0  0  0  0  0
    4.2953   -3.3879    2.2699 C   0  0  0  0  0  0  0  0  0  0  0  0
    2.5410   -5.2465    1.3367 H   0  0  0  0  0  0  0  0  0  0  0  0
    1.3841   -5.0088    2.6792 H   0  0  0  0  0  0  0  0  0  0  0  0
    3.0269   -5.5974    3.0252 H   0  0  0  0  0  0  0  0  0  0  0  0
    1.9512   -2.8359    0.8088 H   0  0  0  0  0  0  0  0  0  0  0  0
    2.5963   -1.6028    1.9177 H   0  0  0  0  0  0  0  0  0  0  0  0
    0.5400   -2.9944    3.4406 H   0  0  0  0  0  0  0  0  0  0  0  0
    3.9403    0.5488    5.1689 H   0  0  0  0  0  0  0  0  0  0  0  0
    4.3873   -0.8489    4.1850 H   0  0  0  0  0  0  0  0  0  0  0  0
    1.4130    0.9052    4.8526 H   0  0  0  0  0  0  0  0  0  0  0  0
   -0.6810    1.5102    5.9054 H   0  0  0  0  0  0  0  0  0  0  0  0
   -1.8734    0.1776    6.1037 H   0  0  0  0  0  0  0  0  0  0  0  0
   -1.3846    0.7157    4.4741 H   0  0  0  0  0  0  0  0  0  0  0  0
    3.0166   -3.2815    4.7078 H   0  0  0  0  0  0  0  0  0  0  0  0
    3.7394   -3.5763    7.5915 H   0  0  0  0  0  0  0  0  0  0  0  0
    4.6557   -4.4161    6.3037 H   0  0  0  0  0  0  0  0  0  0  0  0
    2.9753   -4.9040    6.6742 H   0  0  0  0  0  0  0  0  0  0  0  0
   -1.1891   -1.5773    2.7619 H   0  0  0  0  0  0  0  0  0  0  0  0
    1.5383    0.1640    1.4474 H   0  0  0  0  0  0  0  0  0  0  0  0
   -0.9109    0.5079   -1.3070 H   0  0  0  0  0  0  0  0  0  0  0  0
    3.4098    2.8598   -1.3754 H   0  0  0  0  0  0  0  0  0  0  0  0
   -1.9286    0.9574   -2.8502 H   0  0  0  0  0  0  0  0  0  0  0  0
   -3.9826    0.2394   -3.4089 H   0  0  0  0  0  0  0  0  0  0  0  0
   -3.7962    2.9641   -7.5478 H   0  0  0  0  0  0  0  0  0  0  0  0
   -1.8478    2.9785   -5.9632 H   0  0  0  0  0  0  0  0  0  0  0  0
    1.3417    4.2442   -5.2845 H   0  0  0  0  0  0  0  0  0  0  0  0
    4.9030   -4.0516    2.9054 H   0  0  0  0  0  0  0  0  0  0  0  0
    4.6002   -2.3482    2.4576 H   0  0  0  0  0  0  0  0  0  0  0  0
    4.5245   -3.6260    1.2078 H   0  0  0  0  0  0  0  0  0  0  0  0
  1  2  1  0  0  0  0
  1 42  1  0  0  0  0
  1 43  1  0  0  0  0
  3 45  1  0  0  0  0
  3  4  1  0  0  0  0
  3  2  1  0  0  0  0
  4 46  1  0  0  0  0
  5  6  1  0  0  0  0
  6  7  1  0  0  0  0
  6 47  1  0  0  0  0
  7  8  1  6  0  0  0
  7  9  1  0  0  0  0
  7 13  1  0  0  0  0
  9 10  1  0  0  0  0
 10 11  1  0  0  0  0
 10 12  2  0  0  0  0
 11 50  1  0  0  0  0
 11 51  1  0  0  0  0
 13 16  2  0  0  0  0
 14 13  1  0  0  0  0
 14 15  1  0  0  0  0
 15 56  1  0  0  0  0
 15 54  1  0  0  0  0
 17  4  2  0  0  0  0
 17 57  1  0  0  0  0
 18 17  1  0  0  0  0
 19 18  1  0  0  0  0
 19 58  1  0  0  0  0
 20 19  1  0  0  0  0
 21 59  1  0  0  0  0
 21 20  2  0  0  0  0
 22 20  1  0  0  0  0
 23 60  1  0  0  0  0
 23 22  2  0  0  0  0
 24 25  2  0  0  0  0
 24 23  1  0  0  0  0
 25 21  1  0  0  0  0
 26 27  1  6  0  0  0
 26 25  1  0  0  0  0
 27 61  1  0  0  0  0
 28 29  1  0  0  0  0
 28 27  1  0  0  0  0
 29 62  1  0  0  0  0
 30 31  1  0  0  0  0
 30 29  2  0  0  0  0
 32 30  1  0  0  0  0
 33 32  1  0  0  0  0
 34 32  2  0  0  0  0
 34 35  1  0  0  0  0
 35 28  2  0  0  0  0
 36 37  2  0  0  0  0
 36 26  1  0  0  0  0
 37 38  1  0  0  0  0
 38 24  1  0  0  0  0
 39 18  2  0  0  0  0
 40 67  1  0  0  0  0
 40  2  1  0  0  0  0
 40 66  1  0  0  0  0
 41  1  1  0  0  0  0
 44  3  1  0  0  0  0
 48  6  1  0  0  0  0
 49  9  1  0  0  0  0
 52 11  1  0  0  0  0
 53 14  1  0  0  0  0
 55 15  1  0  0  0  0
 63 34  1  0  0  0  0
 64 35  1  0  0  0  0
 65 37  1  0  0  0  0
 68 40  1  0  0  0  0
M  END
