105
-1 1
C         5.119523    6.273921    7.889450
O         4.572854    6.090845    6.617692
C         5.290002    5.218735    5.787772
C         4.880854    3.763074    6.021410
O         5.677924    2.871086    5.283721
C         5.461242    2.678976    3.957304
C         4.409682    3.202241    3.249155
C         6.439506    1.829871    3.325652
N         7.450655    1.360098    4.130022
C         8.625410    0.665569    3.759058
O         8.788217    0.286851    2.602491
C         9.530470    0.472536    4.857997
C        10.752180   -0.146859    4.687377
S        12.484708    1.361551    3.747063
C        13.141036    0.048414    2.678457
C        14.519366    0.344107    2.104311
H        15.199320    0.630322    2.924530
N        14.466262    1.449543    1.164196
C        15.543180    2.166118    0.805512
C        15.273521    3.294316   -0.165306
O        16.685621    1.925783    1.200784
C        15.120622   -0.877750    1.387083
N        16.475344   -0.872211    1.349980
C        17.211919   -1.847018    0.590394
O        14.442845   -1.762909    0.876719
C        11.538812   -0.585291    5.906342
N        12.713406   -1.383888    5.645155
C        12.502084   -2.816297    5.613103
C        13.816070   -3.555920    5.901666
N        14.964399   -2.999369    5.220843
C        15.143099   -1.572532    5.501575
C        13.953875   -0.949883    6.239273
C        15.034149   -3.339006    3.815951
C         6.302081    1.560040    1.976064
C         5.259487    2.150679    1.215801
C         4.275275    2.943909    1.859843
N         3.191827    3.450422    1.209182
C         3.105031    3.157150   -0.061995
N         3.994643    2.480724   -0.805238
C         5.080043    2.010268   -0.204404
N         5.948583    1.361213   -1.045666
C         7.353146    1.213482   -0.984722
C         8.180432    2.123144   -0.347424
C         9.560193    1.863410   -0.315650
C        10.697144    2.484298    0.280505
N        11.788959    1.820535   -0.016372
N        11.441633    0.772798   -0.782855
C        12.442927   -0.178962   -1.206418
C        13.547190    0.440075   -2.036539
C        14.828302   -0.118658   -1.993953
C        15.858628    0.417383   -2.763693
C        15.620873    1.518439   -3.586222
C        14.345113    2.080003   -3.631638
C        13.315272    1.545201   -2.859504
C        10.092690    0.742584   -0.985645
C         9.263447   -0.161449   -1.671353
C         7.906523    0.081823   -1.641429
H         6.140574    6.699375    7.839790
H         5.171874    5.337371    8.477096
H         4.474430    6.979177    8.431267
H         6.382208    5.311287    5.941889
H         5.080177    5.506805    4.747292
H         3.808497    3.627090    5.803430
H         5.039290    3.493461    7.075498
H         3.644416    3.828032    3.706773
H         7.395373    1.662745    5.092473
H         9.290309    0.930957    5.824229
H        10.881612   -0.736160    3.775986
H        12.441658   -0.156254    1.850855
H        13.212221   -0.875806    3.271762
H        13.538003    1.717401    0.817811
H        15.749431    4.208721    0.214380
H        14.201745    3.465611   -0.330818
H        15.743711    3.039200   -1.126751
H        16.899618    0.041819    1.537121
H        16.635293   -2.780719    0.560376
H        18.186788   -2.039367    1.061630
H        17.389216   -1.521531   -0.450765
H        10.839559   -1.154373    6.560555
H        11.824839    0.311030    6.476182
H        12.095931   -3.118871    4.629064
H        11.747220   -3.137558    6.367222
H        13.711696   -4.618108    5.628862
H        14.007495   -3.537514    6.988733
H        15.268675   -1.030394    4.551076
H        16.064347   -1.398010    6.090810
H        14.017250    0.141967    6.125039
H        14.018872   -1.175848    7.330822
H        15.046131   -4.434980    3.696284
H        15.970170   -2.952232    3.384424
H        14.204389   -2.937080    3.200558
H         7.042323    0.900073    1.533726
H         2.218119    3.517419   -0.598844
H         5.542493    1.278270   -1.971927
H         7.768848    2.999561    0.153410
H        10.746499    3.352745    0.933248
H        11.923221   -0.947211   -1.798326
H        12.873635   -0.694048   -0.332102
H        15.008890   -0.973654   -1.337566
H        16.858034   -0.021109   -2.710458
H        16.430783    1.944431   -4.183102
H        14.151270    2.948504   -4.265657
H        12.322094    2.000537   -2.882462
H         9.661653   -1.040082   -2.180924
H         7.220953   -0.618863   -2.123937
