79
-1 1
C        -5.375778    5.890017   -0.188533
N        -5.477293    5.868775   -1.622585
C        -4.667162    4.901252   -2.322819
C        -4.898196    3.405672   -2.122172
S        -3.372587    2.788209   -0.485301
C        -4.508756    2.762243    0.917360
C        -4.317192    1.594003    1.890022
H        -4.955145    1.766000    2.773098
N        -2.964757    1.542927    2.375832
C        -2.666724    1.125791    3.634989
C        -1.208455    0.763139    3.843837
O        -3.489850    1.043714    4.528308
C        -4.721454    0.203366    1.355567
N        -5.956816    0.129096    0.802676
C        -6.482540   -1.108473    0.280161
O        -4.003946   -0.769392    1.495911
C        -6.170802    2.888571   -1.841486
C        -6.526024    1.521277   -2.059003
N        -5.430441    0.667641   -2.322276
C        -5.459607   -0.602649   -2.830339
C        -6.623072   -1.235831   -3.272943
N        -4.246597   -1.210709   -2.892416
C        -4.154642   -2.420108   -3.380529
C        -5.261218   -3.161387   -3.867560
C        -6.521273   -2.531819   -3.797060
C        -7.630637   -3.328011   -4.286408
N        -8.880197   -2.776758   -4.220508
C       -10.127302   -3.269370   -4.610215
C       -11.238762   -2.436400   -4.390914
C       -12.517238   -2.840183   -4.752058
C       -12.705277   -4.088947   -5.339859
O       -13.976115   -4.508501   -5.668243
C       -14.468196   -4.248206   -6.907878
C       -15.765511   -4.705295   -7.167734
C       -16.343293   -4.479630   -8.411742
C       -15.640263   -3.799093   -9.408497
C       -14.350088   -3.347848   -9.141200
C       -13.755222   -3.565977   -7.898023
C       -11.616116   -4.925114   -5.558689
C       -10.330639   -4.527088   -5.199039
N        -7.436154   -4.531260   -4.771955
C        -6.165623   -5.012523   -4.791095
N        -5.087622   -4.418452   -4.374062
O        -7.677491    1.067438   -2.018110
C        -6.787393    6.169721   -2.132349
H        -5.682444    6.878551    0.198123
H        -4.334304    5.705814    0.114705
H        -6.005593    5.126581    0.316108
H        -3.606672    5.111763   -2.110101
H        -4.808925    5.085923   -3.404002
H        -4.299768    2.838734   -2.842316
H        -5.534982    2.753289    0.495787
H        -4.411771    3.691585    1.498431
H        -2.260914    1.450315    1.650688
H        -0.532054    1.429976    3.289600
H        -1.053705   -0.263980    3.479161
H        -0.978527    0.799107    4.915378
H        -6.462590    0.981261    0.600761
H        -6.942589   -1.724648    1.071704
H        -5.670788   -1.695298   -0.172912
H        -7.233050   -0.872857   -0.484854
H        -6.964405    3.517634   -1.440029
H        -4.519736    0.964728   -1.962905
H        -7.555453   -0.684793   -3.154681
H        -3.164687   -2.888952   -3.415478
H        -8.903256   -1.853251   -3.808352
H       -11.095751   -1.456727   -3.926774
H       -13.377767   -2.191385   -4.579794
H       -16.298560   -5.234620   -6.376114
H       -17.356494   -4.840069   -8.605059
H       -16.096250   -3.622908  -10.384628
H       -13.787246   -2.813770   -9.910369
H       -12.744036   -3.209065   -7.698701
H       -11.780731   -5.902381   -6.016817
H        -9.472444   -5.174302   -5.362314
H        -6.059999   -6.021165   -5.207862
H        -7.589777    5.478332   -1.797806
H        -6.778325    6.147974   -3.232803
H        -7.087017    7.187323   -1.820110
