-1 1
 OpenBabel05232413483D

 79 81  0  0  1  0  0  0  0  0999 V2000
    1.7908    6.5894    2.7575 C   0  0  0  0  0  0  0  0  0  0  0  0
    2.0507    7.0526    1.4182 N   0  0  0  0  0  0  0  0  0  0  0  0
    2.9761    6.2725    0.6313 C   0  0  0  0  0  0  0  0  0  0  0  0
    2.5924    4.8921    0.1743 C   0  0  0  0  0  0  0  0  0  0  0  0
    4.4950    3.0402    2.0382 S   0  0  0  0  0  1  0  0  0  0  0  0
    3.1842    3.1217    3.3012 C   0  0  0  0  0  0  0  0  0  0  0  0
    2.8069    1.7591    3.9315 C   0  0  2  0  0  0  0  0  0  0  0  0
    2.2745    1.9368    4.8822 H   0  0  0  0  0  0  0  0  0  0  0  0
    3.9895    1.0097    4.2244 N   0  0  0  0  0  0  0  0  0  0  0  0
    4.0006   -0.0050    5.1176 C   0  0  0  0  0  0  0  0  0  0  0  0
    5.2420   -0.8765    5.0656 C   0  0  0  0  0  0  0  0  0  0  0  0
    3.0901   -0.2215    5.9017 O   0  0  0  0  0  0  0  0  0  0  0  0
    1.8414    0.9141    3.0751 C   0  0  0  0  0  0  0  0  0  0  0  0
    0.6036    1.4706    2.9215 N   0  0  0  0  0  0  0  0  0  0  0  0
   -0.4948    0.7829    2.2912 C   0  0  0  0  0  0  0  0  0  0  0  0
    2.1345   -0.1708    2.6140 O   0  0  0  0  0  0  0  0  0  0  0  0
    1.4204    4.2712    0.3551 C   0  0  0  0  0  0  0  0  0  0  0  0
    1.1450    2.8773   -0.0719 C   0  0  0  0  0  0  0  0  0  0  0  0
    2.2275    2.0374   -0.0516 N   0  0  0  0  0  0  0  0  0  0  0  0
    2.2317    0.6887   -0.3796 C   0  0  0  0  0  0  0  0  0  0  0  0
    1.0962   -0.0256   -0.7399 C   0  0  0  0  0  0  0  0  0  0  0  0
    3.4540    0.1120   -0.3128 N   0  0  0  0  0  0  0  0  0  0  0  0
    3.5753   -1.1679   -0.5313 C   0  0  0  0  0  0  0  0  0  0  0  0
    2.4855   -2.0160   -0.8623 C   0  0  0  0  0  0  0  0  0  0  0  0
    1.2211   -1.4064   -0.9672 C   0  0  0  0  0  0  0  0  0  0  0  0
    0.1312   -2.3019   -1.2888 C   0  0  2  0  0  3  0  0  0  0  0  0
   -1.1274   -1.7688   -1.3593 N   0  0  0  0  0  0  0  0  0  0  0  0
   -2.3616   -2.3517   -1.6506 C   0  0  0  0  0  0  0  0  0  0  0  0
   -3.4850   -1.5060   -1.6392 C   0  0  0  0  0  0  0  0  0  0  0  0
   -4.7529   -1.9966   -1.9220 C   0  0  0  0  0  0  0  0  0  0  0  0
   -4.9182   -3.3467   -2.2216 C   0  0  0  0  0  0  0  0  0  0  0  0
   -6.1792   -3.8452   -2.4685 O   0  0  0  0  0  0  0  0  0  0  0  0
   -6.6518   -3.8723   -3.7420 C   0  0  0  0  0  0  0  0  0  0  0  0
   -7.9412   -4.3902   -3.9129 C   0  0  0  0  0  0  0  0  0  0  0  0
   -8.4998   -4.4533   -5.1842 C   0  0  0  0  0  0  0  0  0  0  0  0
   -7.7854   -4.0038   -6.2970 C   0  0  0  0  0  0  0  0  0  0  0  0
   -6.5033   -3.4901   -6.1178 C   0  0  0  0  0  0  0  0  0  0  0  0
   -5.9277   -3.4196   -4.8487 C   0  0  0  0  0  0  0  0  0  0  0  0
   -3.8171   -4.1959   -2.2326 C   0  0  0  0  0  0  0  0  0  0  0  0
   -2.5424   -3.7112   -1.9496 C   0  0  0  0  0  0  0  0  0  0  0  0
    0.3460   -3.5802   -1.4972 N   0  0  0  0  0  0  0  0  0  0  0  0
    1.6203   -4.0340   -1.3859 C   0  0  0  0  0  0  0  0  0  0  0  0
    2.6829   -3.3488   -1.0817 N   0  0  0  0  0  2  0  0  0  0  0  0
    0.0110    2.5425   -0.4057 O   0  0  0  0  0  0  0  0  0  0  0  0
    0.9182    7.6199    0.7377 C   0  0  0  0  0  0  0  0  0  0  0  0
    1.4325    7.4261    3.3828 H   0  0  0  0  0  0  0  0  0  0  0  0
    2.7183    6.2010    3.2031 H   0  0  0  0  0  0  0  0  0  0  0  0
    1.0345    5.7784    2.8259 H   0  0  0  0  0  0  0  0  0  0  0  0
    3.9048    6.1331    1.2135 H   0  0  0  0  0  0  0  0  0  0  0  0
    3.2692    6.8655   -0.2556 H   0  0  0  0  0  0  0  0  0  0  0  0
    3.3996    4.3558   -0.3321 H   0  0  0  0  0  0  0  0  0  0  0  0
    2.2722    3.5745    2.8709 H   0  0  0  0  0  0  0  0  0  0  0  0
    3.5050    3.7815    4.1241 H   0  0  0  0  0  0  0  0  0  0  0  0
    4.7143    1.1165    3.5112 H   0  0  0  0  0  0  0  0  0  0  0  0
    6.1388   -0.3103    4.7760 H   0  0  0  0  0  0  0  0  0  0  0  0
    5.0765   -1.6644    4.3149 H   0  0  0  0  0  0  0  0  0  0  0  0
    5.3913   -1.3492    6.0442 H   0  0  0  0  0  0  0  0  0  0  0  0
    0.4356    2.3753    3.3388 H   0  0  0  0  0  0  0  0  0  0  0  0
   -1.3026    0.5663    3.0112 H   0  0  0  0  0  0  0  0  0  0  0  0
   -0.1037   -0.1692    1.9089 H   0  0  0  0  0  0  0  0  0  0  0  0
   -0.8968    1.3638    1.4478 H   0  0  0  0  0  0  0  0  0  0  0  0
    0.5620    4.7718    0.8076 H   0  0  0  0  0  0  0  0  0  0  0  0
    3.0835    2.3453    0.4819 H   0  0  0  0  0  0  0  0  0  0  0  0
    0.1595    0.5237   -0.8028 H   0  0  0  0  0  0  0  0  0  0  0  0
    4.5741   -1.6131   -0.4637 H   0  0  0  0  0  0  0  0  0  0  0  0
   -1.1689   -0.7802   -1.1504 H   0  0  0  0  0  0  0  0  0  0  0  0
   -3.3596   -0.4459   -1.4022 H   0  0  0  0  0  0  0  0  0  0  0  0
   -5.6227   -1.3374   -1.9114 H   0  0  0  0  0  0  0  0  0  0  0  0
   -8.4833   -4.7363   -3.0312 H   0  0  0  0  0  0  0  0  0  0  0  0
   -9.5068   -4.8592   -5.3072 H   0  0  0  0  0  0  0  0  0  0  0  0
   -8.2261   -4.0544   -7.2945 H   0  0  0  0  0  0  0  0  0  0  0  0
   -5.9315   -3.1347   -6.9783 H   0  0  0  0  0  0  0  0  0  0  0  0
   -4.9225   -3.0164   -4.7196 H   0  0  0  0  0  0  0  0  0  0  0  0
   -3.9639   -5.2526   -2.4648 H   0  0  0  0  0  0  0  0  0  0  0  0
   -1.6750   -4.3667   -1.9511 H   0  0  0  0  0  0  0  0  0  0  0  0
    1.7466   -5.1068   -1.5742 H   0  0  0  0  0  0  0  0  0  0  0  0
    0.0877    6.9099    0.5335 H   0  0  0  0  0  0  0  0  0  0  0  0
    1.2340    8.0395   -0.2307 H   0  0  0  0  0  0  0  0  0  0  0  0
    0.4978    8.4469    1.3363 H   0  0  0  0  0  0  0  0  0  0  0  0
  1 48  1  0  0  0  0
  1 47  1  0  0  0  0
  1 46  1  0  0  0  0
  2  1  1  0  0  0  0
  3 49  1  0  0  0  0
  3  2  1  0  0  0  0
  4 17  2  0  0  0  0
  4  3  1  0  0  0  0
  5  6  1  0  0  0  0
  6  7  1  0  0  0  0
  6 53  1  0  0  0  0
  7  9  1  0  0  0  0
  7  8  1  1  0  0  0
  9 10  1  0  0  0  0
 10 12  2  0  0  0  0
 11 10  1  0  0  0  0
 11 57  1  0  0  0  0
 13  7  1  0  0  0  0
 14 13  1  0  0  0  0
 14 58  1  0  0  0  0
 15 14  1  0  0  0  0
 15 59  1  0  0  0  0
 16 13  2  0  0  0  0
 17 62  1  0  0  0  0
 18 19  1  0  0  0  0
 18 17  1  0  0  0  0
 19 63  1  0  0  0  0
 20 22  1  0  0  0  0
 20 19  1  0  0  0  0
 21 20  2  0  0  0  0
 23 65  1  0  0  0  0
 23 22  2  0  0  0  0
 24 23  1  0  0  0  0
 25 24  2  0  0  0  0
 25 21  1  0  0  0  0
 26 27  1  1  0  0  0
 26 25  1  0  0  0  0
 27 66  1  0  0  0  0
 28 29  1  0  0  0  0
 28 27  1  0  0  0  0
 29 67  1  0  0  0  0
 30 68  1  0  0  0  0
 30 29  2  0  0  0  0
 31 30  1  0  0  0  0
 32 31  1  0  0  0  0
 33 32  1  0  0  0  0
 34 33  1  0  0  0  0
 34 69  1  0  0  0  0
 35 34  2  0  0  0  0
 36 37  2  0  0  0  0
 36 35  1  0  0  0  0
 37 38  1  0  0  0  0
 38 73  1  0  0  0  0
 38 33  2  0  0  0  0
 39 31  2  0  0  0  0
 39 40  1  0  0  0  0
 40 28  2  0  0  0  0
 41 42  2  0  0  0  0
 41 26  1  0  0  0  0
 42 43  1  0  0  0  0
 43 24  1  0  0  0  0
 44 18  2  0  0  0  0
 45 79  1  0  0  0  0
 45  2  1  0  0  0  0
 50  3  1  0  0  0  0
 51  4  1  0  0  0  0
 52  6  1  0  0  0  0
 54  9  1  0  0  0  0
 55 11  1  0  0  0  0
 56 11  1  0  0  0  0
 60 15  1  0  0  0  0
 61 15  1  0  0  0  0
 64 21  1  0  0  0  0
 70 35  1  0  0  0  0
 71 36  1  0  0  0  0
 72 37  1  0  0  0  0
 74 39  1  0  0  0  0
 75 40  1  0  0  0  0
 76 42  1  0  0  0  0
 77 45  1  0  0  0  0
 78 45  1  0  0  0  0
M  END
