82
-1 1
C         0.546537    1.775690   -1.350506
N        -0.532700    1.143248   -2.054965
C        -0.234252    0.534336   -3.333908
C         0.555120   -0.790950   -3.331141
S         0.360764   -1.531531   -5.078140
C        -1.217418   -2.440303   -4.932321
C        -1.065943   -3.935600   -5.240002
H        -2.023784   -4.438839   -5.035767
N        -0.030421   -4.532226   -4.432211
C         0.074392   -5.889138   -4.328852
C         1.266623   -6.382561   -3.538442
O        -0.720829   -6.638534   -4.867082
C        -0.866201   -4.114992   -6.755040
N         0.414266   -4.308059   -7.152963
C         0.795544   -4.391577   -8.536352
O        -1.811432   -4.026445   -7.517697
C         1.979694   -0.662769   -2.965813
C         2.809784   -1.734489   -2.629749
N         2.099292   -3.000835   -2.279702
C         1.454081   -3.189244   -1.087360
C         1.043755   -2.134285   -0.265754
N         1.217492   -4.483853   -0.739085
C         0.555887   -4.753683    0.356826
C         0.070841   -3.766950    1.249284
C         0.358729   -2.424267    0.921175
C        -0.090870   -1.452335    1.901761
N         0.243887   -0.141838    1.708851
C        -0.037604    0.984513    2.488972
C         0.703256    2.148626    2.224489
C         0.456933    3.317501    2.924622
Cl         1.384755    4.748188    2.564029
C        -0.523745    3.373668    3.927728
O        -0.692889    4.554390    4.562278
C        -1.665710    4.664137    5.558540
C        -1.671229    6.068163    6.110785
C        -0.799205    7.038287    5.618817
C        -0.843832    8.317731    6.160951
F        -0.008058    9.244908    5.689092
C        -1.726626    8.663802    7.175042
C        -2.594427    7.684946    7.658953
C        -2.569346    6.396517    7.133375
C        -1.243435    2.209553    4.196097
C        -1.011288    1.028263    3.491270
N        -0.781885   -1.825497    2.953045
C        -1.023852   -3.151006    3.123662
N        -0.631711   -4.129168    2.363881
O         4.037773   -1.805485   -2.573289
C        -1.474877    0.430238   -1.233925
H         1.134714    2.395076   -2.044815
H         1.277855    1.074690   -0.887031
H         0.141045    2.437582   -0.565370
H         0.325163    1.261880   -3.947216
H        -1.195846    0.370617   -3.849933
H         0.022236   -1.527597   -2.706234
H        -1.976599   -2.025102   -5.609158
H        -1.580276   -2.315867   -3.899235
H         0.628782   -3.915899   -3.952910
H         2.196743   -6.131033   -4.073029
H         1.195887   -7.472220   -3.441866
H         1.310577   -5.911050   -2.543829
H         1.126259   -4.273859   -6.434594
H         1.421038   -3.535126   -8.836337
H        -0.125180   -4.381375   -9.133961
H         1.346675   -5.322202   -8.746084
H         2.498168    0.257967   -3.249678
H         2.684322   -3.799268   -2.511307
H         1.287149   -1.124494   -0.601556
H         0.366695   -5.805378    0.600340
H         0.807128    0.040770    0.887777
H         1.484025    2.144608    1.462241
H        -1.466088    3.947981    6.378621
H        -2.667168    4.424677    5.152334
H        -0.092449    6.803176    4.822655
H        -1.724674    9.681228    7.568537
H        -3.297573    7.934644    8.456369
H        -3.254035    5.637305    7.520525
H        -2.011058    2.204571    4.970105
H        -1.571256    0.126508    3.723522
H        -1.608822   -3.403998    4.015889
H        -1.792190    1.063129   -0.388021
H        -1.096381   -0.522833   -0.808228
H        -2.373252    0.185183   -1.824310
