82
-1 1
C        -8.423737    1.326093    1.934182
N        -9.472703    0.764933    1.134386
C        -9.074352    0.134562   -0.115517
C        -8.308865   -1.170546    0.036178
S        -8.828360   -2.036805   -2.205650
C       -10.427489   -2.782416   -1.743042
C       -10.467240   -4.320620   -1.858335
H       -11.374595   -4.701859   -1.366046
N        -9.296110   -4.880424   -1.230762
C        -9.131874   -6.219873   -1.070476
C        -7.770486   -6.636563   -0.547873
O       -10.015099   -7.023456   -1.312026
C       -10.640127   -4.721943   -3.332126
N        -9.483501   -4.801711   -4.042029
C        -9.479677   -4.985189   -5.467957
O       -11.744955   -4.899207   -3.812313
C        -6.953778   -1.162419    0.318776
C        -6.173316   -2.342413    0.581353
N        -6.865260   -3.518891    1.040362
C        -7.668140   -3.670659    2.144671
C        -8.092089   -2.619951    2.957985
N        -8.007182   -4.956998    2.418987
C        -8.797133   -5.222143    3.426248
C        -9.321609   -4.233956    4.296301
C        -8.924068   -2.902730    4.052739
C        -9.427147   -1.934718    5.010337
N        -9.012993   -0.638244    4.899933
C        -9.339352    0.482777    5.672547
C        -8.522490    1.616444    5.530058
C        -8.801906    2.781131    6.224887
Cl        -7.776095    4.174112    6.016556
C        -9.895038    2.861377    7.102475
O       -10.089661    4.034536    7.741300
C       -11.179764    4.174281    8.604689
C       -11.199258    5.570355    9.176418
C       -10.247714    6.516500    8.798414
C       -10.311606    7.790559    9.351264
F        -9.399244    8.694267    8.988776
C       -11.290345    8.154383   10.266104
C       -12.237008    7.199437   10.636447
C       -12.194366    5.916670   10.098265
C       -10.691172    1.725740    7.251468
C       -10.425383    0.549771    6.549803
N       -10.245700   -2.300664    5.968857
C       -10.574117   -3.613633    6.066318
N       -10.157147   -4.589243    5.315838
O        -4.973413   -2.456574    0.392098
C       -10.498056    0.067266    1.868383
H        -7.766900    1.951692    1.309909
H        -7.751574    0.578064    2.420570
H        -8.854964    1.967318    2.721293
H        -8.455266    0.845395   -0.686713
H        -9.982334   -0.039781   -0.708570
H        -8.903838   -2.015204    0.397269
H       -11.246690   -2.376271   -2.354523
H       -10.653326   -2.516534   -0.692425
H        -8.511910   -4.235997   -1.120530
H        -6.961540   -6.109593   -1.077327
H        -7.658323   -7.718527   -0.685212
H        -7.700640   -6.389904    0.523241
H        -8.666795   -4.388346   -3.600959
H        -9.316702   -4.035696   -6.006686
H       -10.460817   -5.382177   -5.758757
H        -8.698263   -5.699212   -5.772023
H        -6.353247   -0.290420    0.044269
H        -6.361510   -4.368244    0.805661
H        -7.769149   -1.611824    2.702007
H        -9.066477   -6.267904    3.610185
H        -8.366785   -0.453969    4.143685
H        -7.655354    1.593178    4.867884
H       -11.119084    3.439661    9.430235
H       -12.127750    3.983994    8.066017
H        -9.464003    6.267989    8.082507
H       -11.300091    9.166719   10.672338
H       -13.016146    7.463301   11.354701
H       -12.941289    5.176268   10.396501
H       -11.547237    1.740181    7.926124
H       -11.048721   -0.329230    6.689030
H       -11.262824   -3.860275    6.882847
H       -10.864182    0.697880    2.695666
H       -10.177719   -0.901265    2.306898
H       -11.350337   -0.146422    1.203956
