-1 1
 OpenBabel05192410563D

 82 85  0  0  1  0  0  0  0  0999 V2000
    0.5465    1.7757   -1.3505 C   0  0  0  0  0  0  0  0  0  0  0  0
   -0.5327    1.1432   -2.0550 N   0  0  0  0  0  0  0  0  0  0  0  0
   -0.2343    0.5343   -3.3339 C   0  0  0  0  0  0  0  0  0  0  0  0
    0.5551   -0.7910   -3.3311 C   0  0  1  0  0  0  0  0  0  0  0  0
    0.3608   -1.5315   -5.0781 S   0  0  0  0  0  0  0  0  0  0  0  0
   -1.2174   -2.4403   -4.9323 C   0  0  0  0  0  0  0  0  0  0  0  0
   -1.0659   -3.9356   -5.2400 C   0  0  2  0  0  0  0  0  0  0  0  0
   -2.0238   -4.4388   -5.0358 H   0  0  0  0  0  0  0  0  0  0  0  0
   -0.0304   -4.5322   -4.4322 N   0  0  0  0  0  0  0  0  0  0  0  0
    0.0744   -5.8891   -4.3289 C   0  0  0  0  0  0  0  0  0  0  0  0
    1.2666   -6.3826   -3.5384 C   0  0  0  0  0  0  0  0  0  0  0  0
   -0.7208   -6.6385   -4.8671 O   0  0  0  0  0  0  0  0  0  0  0  0
   -0.8662   -4.1150   -6.7550 C   0  0  0  0  0  0  0  0  0  0  0  0
    0.4143   -4.3081   -7.1530 N   0  0  0  0  0  0  0  0  0  0  0  0
    0.7955   -4.3916   -8.5364 C   0  0  0  0  0  0  0  0  0  0  0  0
   -1.8114   -4.0264   -7.5177 O   0  0  0  0  0  0  0  0  0  0  0  0
    1.9797   -0.6628   -2.9658 C   0  0  0  0  0  3  0  0  0  0  0  0
    2.8098   -1.7345   -2.6297 C   0  0  0  0  0  0  0  0  0  0  0  0
    2.0993   -3.0008   -2.2797 N   0  0  0  0  0  0  0  0  0  0  0  0
    1.4541   -3.1892   -1.0874 C   0  0  0  0  0  0  0  0  0  0  0  0
    1.0438   -2.1343   -0.2658 C   0  0  0  0  0  0  0  0  0  0  0  0
    1.2175   -4.4839   -0.7391 N   0  0  0  0  0  0  0  0  0  0  0  0
    0.5559   -4.7537    0.3568 C   0  0  0  0  0  0  0  0  0  0  0  0
    0.0708   -3.7670    1.2493 C   0  0  0  0  0  0  0  0  0  0  0  0
    0.3587   -2.4243    0.9212 C   0  0  0  0  0  0  0  0  0  0  0  0
   -0.0909   -1.4523    1.9018 C   0  0  2  0  0  3  0  0  0  0  0  0
    0.2439   -0.1418    1.7089 N   0  0  0  0  0  0  0  0  0  0  0  0
   -0.0376    0.9845    2.4890 C   0  0  0  0  0  0  0  0  0  0  0  0
    0.7033    2.1486    2.2245 C   0  0  0  0  0  0  0  0  0  0  0  0
    0.4569    3.3175    2.9246 C   0  0  0  0  0  0  0  0  0  0  0  0
    1.3848    4.7482    2.5640 Cl  0  0  0  0  0  0  0  0  0  0  0  0
   -0.5237    3.3737    3.9277 C   0  0  0  0  0  0  0  0  0  0  0  0
   -0.6929    4.5544    4.5623 O   0  0  0  0  0  0  0  0  0  0  0  0
   -1.6657    4.6641    5.5585 C   0  0  0  0  0  0  0  0  0  0  0  0
   -1.6712    6.0682    6.1108 C   0  0  0  0  0  0  0  0  0  0  0  0
   -0.7992    7.0383    5.6188 C   0  0  0  0  0  0  0  0  0  0  0  0
   -0.8438    8.3177    6.1610 C   0  0  0  0  0  0  0  0  0  0  0  0
   -0.0081    9.2449    5.6891 F   0  0  0  0  0  0  0  0  0  0  0  0
   -1.7266    8.6638    7.1750 C   0  0  0  0  0  0  0  0  0  0  0  0
   -2.5944    7.6849    7.6590 C   0  0  0  0  0  0  0  0  0  0  0  0
   -2.5693    6.3965    7.1334 C   0  0  0  0  0  0  0  0  0  0  0  0
   -1.2434    2.2096    4.1961 C   0  0  0  0  0  0  0  0  0  0  0  0
   -1.0113    1.0283    3.4913 C   0  0  0  0  0  0  0  0  0  0  0  0
   -0.7819   -1.8255    2.9530 N   0  0  0  0  0  0  0  0  0  0  0  0
   -1.0239   -3.1510    3.1237 C   0  0  0  0  0  0  0  0  0  0  0  0
   -0.6317   -4.1292    2.3639 N   0  0  0  0  0  2  0  0  0  0  0  0
    4.0378   -1.8055   -2.5733 O   0  0  0  0  0  0  0  0  0  0  0  0
   -1.4749    0.4302   -1.2339 C   0  0  0  0  0  0  0  0  0  0  0  0
    1.1347    2.3951   -2.0448 H   0  0  0  0  0  0  0  0  0  0  0  0
    1.2779    1.0747   -0.8870 H   0  0  0  0  0  0  0  0  0  0  0  0
    0.1410    2.4376   -0.5654 H   0  0  0  0  0  0  0  0  0  0  0  0
    0.3252    1.2619   -3.9472 H   0  0  0  0  0  0  0  0  0  0  0  0
   -1.1958    0.3706   -3.8499 H   0  0  0  0  0  0  0  0  0  0  0  0
    0.0222   -1.5276   -2.7062 H   0  0  0  0  0  0  0  0  0  0  0  0
   -1.9766   -2.0251   -5.6092 H   0  0  0  0  0  0  0  0  0  0  0  0
   -1.5803   -2.3159   -3.8992 H   0  0  0  0  0  0  0  0  0  0  0  0
    0.6288   -3.9159   -3.9529 H   0  0  0  0  0  0  0  0  0  0  0  0
    2.1967   -6.1310   -4.0730 H   0  0  0  0  0  0  0  0  0  0  0  0
    1.1959   -7.4722   -3.4419 H   0  0  0  0  0  0  0  0  0  0  0  0
    1.3106   -5.9111   -2.5438 H   0  0  0  0  0  0  0  0  0  0  0  0
    1.1263   -4.2739   -6.4346 H   0  0  0  0  0  0  0  0  0  0  0  0
    1.4210   -3.5351   -8.8363 H   0  0  0  0  0  0  0  0  0  0  0  0
   -0.1252   -4.3814   -9.1340 H   0  0  0  0  0  0  0  0  0  0  0  0
    1.3467   -5.3222   -8.7461 H   0  0  0  0  0  0  0  0  0  0  0  0
    2.4982    0.2580   -3.2497 H   0  0  0  0  0  0  0  0  0  0  0  0
    2.6843   -3.7993   -2.5113 H   0  0  0  0  0  0  0  0  0  0  0  0
    1.2871   -1.1245   -0.6016 H   0  0  0  0  0  0  0  0  0  0  0  0
    0.3667   -5.8054    0.6003 H   0  0  0  0  0  0  0  0  0  0  0  0
    0.8071    0.0408    0.8878 H   0  0  0  0  0  0  0  0  0  0  0  0
    1.4840    2.1446    1.4622 H   0  0  0  0  0  0  0  0  0  0  0  0
   -1.4661    3.9480    6.3786 H   0  0  0  0  0  0  0  0  0  0  0  0
   -2.6672    4.4247    5.1523 H   0  0  0  0  0  0  0  0  0  0  0  0
   -0.0924    6.8032    4.8227 H   0  0  0  0  0  0  0  0  0  0  0  0
   -1.7247    9.6812    7.5685 H   0  0  0  0  0  0  0  0  0  0  0  0
   -3.2976    7.9346    8.4564 H   0  0  0  0  0  0  0  0  0  0  0  0
   -3.2540    5.6373    7.5205 H   0  0  0  0  0  0  0  0  0  0  0  0
   -2.0111    2.2046    4.9701 H   0  0  0  0  0  0  0  0  0  0  0  0
   -1.5713    0.1265    3.7235 H   0  0  0  0  0  0  0  0  0  0  0  0
   -1.6088   -3.4040    4.0159 H   0  0  0  0  0  0  0  0  0  0  0  0
   -1.7922    1.0631   -0.3880 H   0  0  0  0  0  0  0  0  0  0  0  0
   -1.0964   -0.5228   -0.8082 H   0  0  0  0  0  0  0  0  0  0  0  0
   -2.3733    0.1852   -1.8243 H   0  0  0  0  0  0  0  0  0  0  0  0
  1 50  1  0  0  0  0
  1 51  1  0  0  0  0
  2  1  1  0  0  0  0
  2 48  1  0  0  0  0
  3  4  1  0  0  0  0
  3  2  1  0  0  0  0
  4 17  1  0  0  0  0
  4 54  1  1  0  0  0
  5  6  1  0  0  0  0
  5  4  1  0  0  0  0
  6 56  1  0  0  0  0
  7  8  1  1  0  0  0
  7  6  1  0  0  0  0
  7  9  1  0  0  0  0
  9 10  1  0  0  0  0
  9 57  1  0  0  0  0
 10 11  1  0  0  0  0
 11 59  1  0  0  0  0
 11 60  1  0  0  0  0
 12 10  2  0  0  0  0
 13  7  1  0  0  0  0
 14 13  1  0  0  0  0
 14 61  1  0  0  0  0
 15 14  1  0  0  0  0
 16 13  2  0  0  0  0
 17 18  1  0  0  0  0
 18 47  2  0  0  0  0
 18 19  1  0  0  0  0
 19 20  1  0  0  0  0
 20 22  2  0  0  0  0
 20 21  1  0  0  0  0
 21 25  2  0  0  0  0
 22 23  1  0  0  0  0
 23 68  1  0  0  0  0
 23 24  2  0  0  0  0
 24 46  1  0  0  0  0
 25 24  1  0  0  0  0
 25 26  1  0  0  0  0
 26 27  1  1  0  0  0
 26 44  1  0  0  0  0
 27 28  1  0  0  0  0
 28 43  1  0  0  0  0
 29 28  2  0  0  0  0
 29 30  1  0  0  0  0
 30 32  2  0  0  0  0
 31 30  1  0  0  0  0
 32 42  1  0  0  0  0
 32 33  1  0  0  0  0
 33 34  1  0  0  0  0
 34 35  1  0  0  0  0
 34 71  1  0  0  0  0
 35 41  1  0  0  0  0
 36 35  2  0  0  0  0
 36 37  1  0  0  0  0
 37 39  2  0  0  0  0
 38 37  1  0  0  0  0
 39 74  1  0  0  0  0
 39 40  1  0  0  0  0
 40 75  1  0  0  0  0
 41 76  1  0  0  0  0
 41 40  2  0  0  0  0
 42 77  1  0  0  0  0
 43 78  1  0  0  0  0
 43 42  2  0  0  0  0
 44 45  2  0  0  0  0
 45 79  1  0  0  0  0
 46 45  1  0  0  0  0
 48 81  1  0  0  0  0
 48 80  1  0  0  0  0
 49  1  1  0  0  0  0
 52  3  1  0  0  0  0
 53  3  1  0  0  0  0
 55  6  1  0  0  0  0
 58 11  1  0  0  0  0
 62 15  1  0  0  0  0
 63 15  1  0  0  0  0
 64 15  1  0  0  0  0
 65 17  1  0  0  0  0
 66 19  1  0  0  0  0
 67 21  1  0  0  0  0
 69 27  1  0  0  0  0
 70 29  1  0  0  0  0
 72 34  1  0  0  0  0
 73 36  1  0  0  0  0
 82 48  1  0  0  0  0
M  END
