82
-1 1
C         2.032024    1.984762   -0.978085
N         1.354977    1.622513   -2.187757
C         2.221058    1.069024   -3.218262
C         2.744543   -0.313329   -2.911009
S        -0.044389   -1.613455   -4.736048
C        -0.816457   -2.381371   -3.255943
C        -1.203601   -3.868652   -3.435159
H        -1.409966   -4.333644   -2.459891
N        -0.090892   -4.555269   -4.051128
C         0.312857   -5.807264   -3.756643
C         1.620791   -6.216251   -4.410454
O        -0.271312   -6.553712   -2.983438
C        -2.517875   -4.026883   -4.220996
N        -2.466639   -3.563017   -5.496162
C        -3.633947   -3.517397   -6.332414
O        -3.512923   -4.518901   -3.714701
C         3.961571   -0.560660   -2.411402
C         4.553065   -1.915309   -2.251108
N         3.748729   -2.998176   -1.922180
C         2.548633   -3.138374   -1.228748
C         1.988219   -2.166339   -0.415844
N         2.001988   -4.366745   -1.371575
C         0.871221   -4.648084   -0.774918
C         0.173183   -3.715393    0.037816
C         0.765251   -2.450709    0.223792
C         0.019717   -1.547344    1.076181
N         0.553737   -0.319941    1.352794
C         0.039519    0.744944    2.101476
C         0.926225    1.787766    2.416193
C         0.491275    2.899066    3.118492
Cl         1.615341    4.181166    3.481121
C        -0.839601    3.012630    3.550252
O        -1.175433    4.128578    4.231763
C        -2.495558    4.301608    4.657558
C        -2.627784    5.620299    5.378445
C        -1.530493    6.464462    5.542441
C        -1.704550    7.668662    6.215053
F        -0.652401    8.474833    6.371333
C        -2.933048    8.060852    6.729059
C        -4.023657    7.208287    6.558483
C        -3.875653    5.997003    5.889285
C        -1.710114    1.965579    3.247034
C        -1.286231    0.844852    2.533117
N        -1.138994   -1.902414    1.579467
C        -1.603690   -3.145962    1.303257
N        -1.021990   -4.063830    0.590560
O         5.730385   -2.106367   -2.483758
C         0.117557    0.899843   -1.977825
H         2.869866    2.668401   -1.191276
H         2.470273    1.120742   -0.416260
H         1.335574    2.502268   -0.299281
H         3.061247    1.767773   -3.370335
H         1.644287    1.006607   -4.154033
H         2.042936   -1.127988   -3.145753
H        -1.717568   -1.826655   -2.947166
H        -0.109263   -2.329231   -2.411203
H         0.463953   -3.944452   -4.657730
H         1.830077   -5.664310   -5.337600
H         1.598856   -7.295195   -4.609916
H         2.425150   -6.009739   -3.688114
H        -1.666563   -2.953110   -5.712987
H        -4.049542   -2.497005   -6.409515
H        -4.399687   -4.167789   -5.889061
H        -3.406414   -3.871834   -7.350939
H         4.688492    0.246177   -2.267028
H         4.176804   -3.890392   -2.149374
H         2.487556   -1.204646   -0.315468
H         0.428342   -5.634380   -0.949047
H         1.442208   -0.126843    0.911739
H         1.971923    1.736883    2.107608
H        -2.795874    3.480513    5.336212
H        -3.187445    4.282321    3.794071
H        -0.550310    6.191139    5.151297
H        -3.020887    9.015838    7.248925
H        -5.000005    7.496520    6.953730
H        -4.737707    5.337148    5.761084
H        -2.752111    2.009047    3.564167
H        -1.976082    0.034354    2.314123
H        -2.577912   -3.387853    1.742764
H        -0.580926    1.520451   -1.392868
H         0.249034   -0.059522   -1.435324
H        -0.338235    0.647346   -2.946487
