-1 1
 OpenBabel05232413483D

 82 84  0  0  1  0  0  0  0  0999 V2000
    2.0320    1.9848   -0.9781 C   0  0  0  0  0  0  0  0  0  0  0  0
    1.3550    1.6225   -2.1878 N   0  0  0  0  0  0  0  0  0  0  0  0
    2.2211    1.0690   -3.2183 C   0  0  0  0  0  0  0  0  0  0  0  0
    2.7445   -0.3133   -2.9110 C   0  0  0  0  0  0  0  0  0  0  0  0
   -0.0444   -1.6135   -4.7360 S   0  0  0  0  0  1  0  0  0  0  0  0
   -0.8165   -2.3814   -3.2559 C   0  0  0  0  0  0  0  0  0  0  0  0
   -1.2036   -3.8687   -3.4352 C   0  0  2  0  0  0  0  0  0  0  0  0
   -1.4100   -4.3336   -2.4599 H   0  0  0  0  0  0  0  0  0  0  0  0
   -0.0909   -4.5553   -4.0511 N   0  0  0  0  0  0  0  0  0  0  0  0
    0.3129   -5.8073   -3.7566 C   0  0  0  0  0  0  0  0  0  0  0  0
    1.6208   -6.2163   -4.4105 C   0  0  0  0  0  0  0  0  0  0  0  0
   -0.2713   -6.5537   -2.9834 O   0  0  0  0  0  0  0  0  0  0  0  0
   -2.5179   -4.0269   -4.2210 C   0  0  0  0  0  0  0  0  0  0  0  0
   -2.4666   -3.5630   -5.4962 N   0  0  0  0  0  0  0  0  0  0  0  0
   -3.6339   -3.5174   -6.3324 C   0  0  0  0  0  0  0  0  0  0  0  0
   -3.5129   -4.5189   -3.7147 O   0  0  0  0  0  0  0  0  0  0  0  0
    3.9616   -0.5607   -2.4114 C   0  0  0  0  0  0  0  0  0  0  0  0
    4.5531   -1.9153   -2.2511 C   0  0  0  0  0  0  0  0  0  0  0  0
    3.7487   -2.9982   -1.9222 N   0  0  0  0  0  0  0  0  0  0  0  0
    2.5486   -3.1384   -1.2287 C   0  0  0  0  0  0  0  0  0  0  0  0
    1.9882   -2.1663   -0.4158 C   0  0  0  0  0  0  0  0  0  0  0  0
    2.0020   -4.3667   -1.3716 N   0  0  0  0  0  0  0  0  0  0  0  0
    0.8712   -4.6481   -0.7749 C   0  0  0  0  0  0  0  0  0  0  0  0
    0.1732   -3.7154    0.0378 C   0  0  0  0  0  0  0  0  0  0  0  0
    0.7653   -2.4507    0.2238 C   0  0  0  0  0  0  0  0  0  0  0  0
    0.0197   -1.5473    1.0762 C   0  0  2  0  0  3  0  0  0  0  0  0
    0.5537   -0.3199    1.3528 N   0  0  0  0  0  0  0  0  0  0  0  0
    0.0395    0.7449    2.1015 C   0  0  0  0  0  0  0  0  0  0  0  0
    0.9262    1.7878    2.4162 C   0  0  0  0  0  0  0  0  0  0  0  0
    0.4913    2.8991    3.1185 C   0  0  0  0  0  0  0  0  0  0  0  0
    1.6153    4.1812    3.4811 Cl  0  0  0  0  0  0  0  0  0  0  0  0
   -0.8396    3.0126    3.5503 C   0  0  0  0  0  0  0  0  0  0  0  0
   -1.1754    4.1286    4.2318 O   0  0  0  0  0  0  0  0  0  0  0  0
   -2.4956    4.3016    4.6576 C   0  0  0  0  0  0  0  0  0  0  0  0
   -2.6278    5.6203    5.3784 C   0  0  0  0  0  0  0  0  0  0  0  0
   -1.5305    6.4645    5.5424 C   0  0  0  0  0  0  0  0  0  0  0  0
   -1.7046    7.6687    6.2151 C   0  0  0  0  0  0  0  0  0  0  0  0
   -0.6524    8.4748    6.3713 F   0  0  0  0  0  0  0  0  0  0  0  0
   -2.9330    8.0609    6.7291 C   0  0  0  0  0  0  0  0  0  0  0  0
   -4.0237    7.2083    6.5585 C   0  0  0  0  0  0  0  0  0  0  0  0
   -3.8757    5.9970    5.8893 C   0  0  0  0  0  0  0  0  0  0  0  0
   -1.7101    1.9656    3.2470 C   0  0  0  0  0  0  0  0  0  0  0  0
   -1.2862    0.8449    2.5331 C   0  0  0  0  0  0  0  0  0  0  0  0
   -1.1390   -1.9024    1.5795 N   0  0  0  0  0  0  0  0  0  0  0  0
   -1.6037   -3.1460    1.3033 C   0  0  0  0  0  0  0  0  0  0  0  0
   -1.0220   -4.0638    0.5906 N   0  0  0  0  0  2  0  0  0  0  0  0
    5.7304   -2.1064   -2.4838 O   0  0  0  0  0  0  0  0  0  0  0  0
    0.1176    0.8998   -1.9778 C   0  0  0  0  0  0  0  0  0  0  0  0
    2.8699    2.6684   -1.1913 H   0  0  0  0  0  0  0  0  0  0  0  0
    2.4703    1.1207   -0.4163 H   0  0  0  0  0  0  0  0  0  0  0  0
    1.3356    2.5023   -0.2993 H   0  0  0  0  0  0  0  0  0  0  0  0
    3.0612    1.7678   -3.3703 H   0  0  0  0  0  0  0  0  0  0  0  0
    1.6443    1.0066   -4.1540 H   0  0  0  0  0  0  0  0  0  0  0  0
    2.0429   -1.1280   -3.1458 H   0  0  0  0  0  0  0  0  0  0  0  0
   -1.7176   -1.8267   -2.9472 H   0  0  0  0  0  0  0  0  0  0  0  0
   -0.1093   -2.3292   -2.4112 H   0  0  0  0  0  0  0  0  0  0  0  0
    0.4640   -3.9445   -4.6577 H   0  0  0  0  0  0  0  0  0  0  0  0
    1.8301   -5.6643   -5.3376 H   0  0  0  0  0  0  0  0  0  0  0  0
    1.5989   -7.2952   -4.6099 H   0  0  0  0  0  0  0  0  0  0  0  0
    2.4251   -6.0097   -3.6881 H   0  0  0  0  0  0  0  0  0  0  0  0
   -1.6666   -2.9531   -5.7130 H   0  0  0  0  0  0  0  0  0  0  0  0
   -4.0495   -2.4970   -6.4095 H   0  0  0  0  0  0  0  0  0  0  0  0
   -4.3997   -4.1678   -5.8891 H   0  0  0  0  0  0  0  0  0  0  0  0
   -3.4064   -3.8718   -7.3509 H   0  0  0  0  0  0  0  0  0  0  0  0
    4.6885    0.2462   -2.2670 H   0  0  0  0  0  0  0  0  0  0  0  0
    4.1768   -3.8904   -2.1494 H   0  0  0  0  0  0  0  0  0  0  0  0
    2.4876   -1.2046   -0.3155 H   0  0  0  0  0  0  0  0  0  0  0  0
    0.4283   -5.6344   -0.9490 H   0  0  0  0  0  0  0  0  0  0  0  0
    1.4422   -0.1268    0.9117 H   0  0  0  0  0  0  0  0  0  0  0  0
    1.9719    1.7369    2.1076 H   0  0  0  0  0  0  0  0  0  0  0  0
   -2.7959    3.4805    5.3362 H   0  0  0  0  0  0  0  0  0  0  0  0
   -3.1874    4.2823    3.7941 H   0  0  0  0  0  0  0  0  0  0  0  0
   -0.5503    6.1911    5.1513 H   0  0  0  0  0  0  0  0  0  0  0  0
   -3.0209    9.0158    7.2489 H   0  0  0  0  0  0  0  0  0  0  0  0
   -5.0000    7.4965    6.9537 H   0  0  0  0  0  0  0  0  0  0  0  0
   -4.7377    5.3371    5.7611 H   0  0  0  0  0  0  0  0  0  0  0  0
   -2.7521    2.0090    3.5642 H   0  0  0  0  0  0  0  0  0  0  0  0
   -1.9761    0.0344    2.3141 H   0  0  0  0  0  0  0  0  0  0  0  0
   -2.5779   -3.3879    1.7428 H   0  0  0  0  0  0  0  0  0  0  0  0
   -0.5809    1.5205   -1.3929 H   0  0  0  0  0  0  0  0  0  0  0  0
    0.2490   -0.0595   -1.4353 H   0  0  0  0  0  0  0  0  0  0  0  0
   -0.3382    0.6473   -2.9465 H   0  0  0  0  0  0  0  0  0  0  0  0
  1 50  1  0  0  0  0
  1 51  1  0  0  0  0
  2 48  1  0  0  0  0
  2  1  1  0  0  0  0
  3  4  1  0  0  0  0
  3  2  1  0  0  0  0
  4 17  2  0  0  0  0
  5  6  1  0  0  0  0
  6 55  1  0  0  0  0
  6 56  1  0  0  0  0
  7  6  1  0  0  0  0
  7  8  1  1  0  0  0
  9 10  1  0  0  0  0
  9  7  1  0  0  0  0
 10 12  2  0  0  0  0
 11 10  1  0  0  0  0
 11 60  1  0  0  0  0
 13 16  2  0  0  0  0
 13  7  1  0  0  0  0
 14 13  1  0  0  0  0
 15 63  1  0  0  0  0
 15 14  1  0  0  0  0
 17 65  1  0  0  0  0
 17 18  1  0  0  0  0
 18 19  1  0  0  0  0
 19 20  1  0  0  0  0
 20 21  1  0  0  0  0
 21 67  1  0  0  0  0
 21 25  2  0  0  0  0
 22 20  2  0  0  0  0
 22 23  1  0  0  0  0
 23 24  2  0  0  0  0
 24 25  1  0  0  0  0
 24 46  1  0  0  0  0
 25 26  1  0  0  0  0
 26 27  1  1  0  0  0
 26 44  1  0  0  0  0
 27 28  1  0  0  0  0
 28 29  2  0  0  0  0
 28 43  1  0  0  0  0
 29 30  1  0  0  0  0
 30 31  1  0  0  0  0
 30 32  2  0  0  0  0
 32 33  1  0  0  0  0
 33 34  1  0  0  0  0
 34 71  1  0  0  0  0
 34 35  1  0  0  0  0
 35 36  2  0  0  0  0
 35 41  1  0  0  0  0
 36 37  1  0  0  0  0
 37 38  1  0  0  0  0
 37 39  2  0  0  0  0
 39 74  1  0  0  0  0
 40 39  1  0  0  0  0
 40 75  1  0  0  0  0
 41 40  2  0  0  0  0
 42 32  1  0  0  0  0
 42 77  1  0  0  0  0
 43 42  2  0  0  0  0
 45 44  2  0  0  0  0
 45 79  1  0  0  0  0
 46 45  1  0  0  0  0
 47 18  2  0  0  0  0
 48 81  1  0  0  0  0
 48 80  1  0  0  0  0
 49  1  1  0  0  0  0
 52  3  1  0  0  0  0
 53  3  1  0  0  0  0
 54  4  1  0  0  0  0
 57  9  1  0  0  0  0
 58 11  1  0  0  0  0
 59 11  1  0  0  0  0
 61 14  1  0  0  0  0
 62 15  1  0  0  0  0
 64 15  1  0  0  0  0
 66 19  1  0  0  0  0
 68 23  1  0  0  0  0
 69 27  1  0  0  0  0
 70 29  1  0  0  0  0
 72 34  1  0  0  0  0
 73 36  1  0  0  0  0
 76 41  1  0  0  0  0
 78 43  1  0  0  0  0
 82 48  1  0  0  0  0
M  END
