71
-1 1
C        -3.879338    4.342758    3.375491
C        -2.773178    3.849943    3.344817
C        -1.453188    3.283763    3.282958
C        -1.233038    2.106606    2.559182
C         0.063137    1.605155    2.423806
N         0.351609    0.534816    1.546143
C        -0.224448   -0.682208    1.612551
N        -1.050019   -0.949873    2.618234
C        -1.587760   -2.175716    2.679015
N        -1.407776   -3.183461    1.862192
C         0.071750   -1.696628    0.624453
C        -0.566607   -2.941921    0.816163
C        -0.339319   -3.977940   -0.125745
C         0.502381   -3.775889   -1.193375
O         0.768195   -4.702393   -2.145586
C         0.144753   -5.956698   -2.073373
C         0.622607   -6.759620   -3.265625
O         0.024349   -8.019268   -3.205067
C         0.382023   -8.858646   -4.257399
C         1.157566   -2.516817   -1.389124
N         1.969966   -2.419537   -2.524654
C         3.060401   -1.629825   -2.830420
O         3.503866   -1.647812   -3.964203
C         3.670183   -0.825813   -1.738032
C         4.403725    0.249265   -2.024965
S         1.699563    2.084905   -0.940765
C         0.634814    3.448285   -0.333415
C        -0.811039    3.571891   -0.876463
H        -0.743025    3.847695   -1.943695
N        -1.529154    4.602261   -0.157436
C        -1.332243    5.928314   -0.311704
C        -2.245641    6.803954    0.533936
O        -0.508989    6.413139   -1.070994
C        -1.704650    2.321500   -0.794723
N        -1.250863    1.231066   -1.432628
C        -2.019511    0.012664   -1.426289
O        -2.791587    2.350174   -0.220888
C         0.911040   -1.493484   -0.498030
C         1.129188    2.254950    3.048653
C         0.907979    3.420547    3.780318
C        -0.374237    3.942657    3.896346
H        -4.866038    4.763974    3.396559
H        -2.060816    1.622497    2.042711
H         0.935897    0.822628    0.725348
H        -2.263692   -2.346082    3.527477
H        -0.855050   -4.921858    0.044349
H        -0.954866   -5.857395   -2.101741
H         0.412749   -6.479981   -1.138571
H         1.728568   -6.833171   -3.239514
H         0.353275   -6.227856   -4.200719
H        -0.136504   -9.816990   -4.117892
H         1.473411   -9.048640   -4.282967
H         0.088632   -8.438882   -5.240024
H         1.732022   -3.053002   -3.280046
H         3.481970   -1.114175   -0.701627
H         4.551795    0.551044   -3.064644
H         4.834910    0.868730   -1.237470
H         1.113969    4.403905   -0.586461
H         0.560152    3.418216    0.761460
H        -2.307490    4.250466    0.395422
H        -1.646916    7.623689    0.952996
H        -2.738693    6.253427    1.347667
H        -3.012466    7.251553   -0.116598
H        -0.240883    1.230222   -1.651920
H        -2.980772    0.153369   -1.945849
H        -2.249137   -0.327469   -0.402719
H        -1.449077   -0.774654   -1.935584
H         1.327862   -0.500046   -0.690055
H         2.136795    1.857990    2.915919
H         1.750145    3.935315    4.247512
H        -0.552839    4.868140    4.446689
