71
-1 1
C        16.189750   16.967906   13.227896
C        16.641177   15.901404   13.582826
C        17.185368   14.640428   14.010413
C        17.468528   13.647970   13.065400
C        18.017550   12.422893   13.466337
N        18.348599   11.513061   12.445116
C        18.304120   10.158136   12.486890
N        17.962983    9.544248   13.611232
C        17.867993    8.204223   13.597045
N        18.045278    7.391376   12.589956
C        18.583117    9.384371   11.294847
C        18.393078    7.987973   11.411272
C        18.541730    7.177720   10.257491
C        18.868524    7.740908    9.044441
O        18.982441    7.051986    7.884678
C        18.778804    5.666047    7.893064
C        18.985789    5.180089    6.473416
O        18.790469    3.797326    6.454456
C        18.958090    3.227718    5.195251
C        19.091286    9.148371    8.925049
N        19.386527    9.655458    7.655304
C        19.803788   10.986650    7.436879
O        19.158719   11.676875    6.637073
C        20.946229   11.412373    8.183974
C        21.190561   12.751840    8.379555
S        19.958390   13.560220   10.395846
C        18.960563   14.938363    9.764200
C        17.950510   14.588250    8.659413
H        18.477738   14.273802    7.747195
N        17.135878   15.748975    8.340497
C        17.498497   16.704642    7.452743
C        16.568287   17.906821    7.391307
O        18.492171   16.635029    6.752380
C        16.969692   13.512317    9.118090
N        17.018047   12.333663    8.479394
C        16.146054   11.252071    8.862783
O        16.159779   13.759690   10.007741
C        18.939664    9.941615   10.045546
C        18.251923   12.185586   14.826689
C        17.949569   13.172212   15.763650
C        17.427537   14.399635   15.372143
H        15.791510   17.908672   12.900209
H        17.232631   13.819442   12.012762
H        18.668242   11.985495   11.585665
H        17.598344    7.747637   14.558719
H        18.372342    6.108961   10.381087
H        17.758362    5.412002    8.232456
H        19.492777    5.161502    8.568295
H        20.007170    5.450898    6.138492
H        18.273943    5.698209    5.799213
H        18.784999    2.146553    5.285742
H        19.980794    3.388966    4.799985
H        18.241887    3.638306    4.455794
H        18.794509    9.297158    6.912810
H        21.492913   10.661294    8.758313
H        20.686094   13.484069    7.746430
H        22.113175   13.084982    8.852771
H        19.616311   15.727518    9.364169
H        18.395994   15.378916   10.603070
H        16.350406   15.894352    8.965464
H        17.068382   18.761234    7.871504
H        15.600358   17.738798    7.884090
H        16.404703   18.167992    6.337401
H        17.707541   12.186985    7.736121
H        15.093567   11.470246    8.615999
H        16.203949   11.069338    9.946653
H        16.458586   10.341385    8.336473
H        19.073195   11.022088    9.938509
H        18.656722   11.226163   15.138799
H        18.137041   12.976297   16.822203
H        17.201480   15.174080   16.107451
