-1 1
 OpenBabel05232414493D

 71 72  0  0  1  0  0  0  0  0999 V2000
   16.1898   16.9679   13.2279 C   0  0  0  0  0  0  0  0  0  0  0  0
   16.6412   15.9014   13.5828 C   0  0  0  0  0  0  0  0  0  0  0  0
   17.1854   14.6404   14.0104 C   0  0  0  0  0  0  0  0  0  0  0  0
   17.4685   13.6480   13.0654 C   0  0  0  0  0  0  0  0  0  0  0  0
   18.0175   12.4229   13.4663 C   0  0  0  0  0  0  0  0  0  0  0  0
   18.3486   11.5131   12.4451 N   0  0  0  0  0  0  0  0  0  0  0  0
   18.3041   10.1581   12.4869 C   0  0  1  0  0  3  0  0  0  0  0  0
   17.9630    9.5442   13.6112 N   0  0  0  0  0  0  0  0  0  0  0  0
   17.8680    8.2042   13.5970 C   0  0  0  0  0  0  0  0  0  0  0  0
   18.0453    7.3914   12.5900 N   0  0  0  0  0  2  0  0  0  0  0  0
   18.5831    9.3844   11.2948 C   0  0  0  0  0  0  0  0  0  0  0  0
   18.3931    7.9880   11.4113 C   0  0  0  0  0  0  0  0  0  0  0  0
   18.5417    7.1777   10.2575 C   0  0  0  0  0  0  0  0  0  0  0  0
   18.8685    7.7409    9.0444 C   0  0  0  0  0  0  0  0  0  0  0  0
   18.9824    7.0520    7.8847 O   0  0  0  0  0  0  0  0  0  0  0  0
   18.7788    5.6660    7.8931 C   0  0  0  0  0  0  0  0  0  0  0  0
   18.9858    5.1801    6.4734 C   0  0  0  0  0  0  0  0  0  0  0  0
   18.7905    3.7973    6.4545 O   0  0  0  0  0  0  0  0  0  0  0  0
   18.9581    3.2277    5.1953 C   0  0  0  0  0  0  0  0  0  0  0  0
   19.0913    9.1484    8.9250 C   0  0  0  0  0  0  0  0  0  0  0  0
   19.3865    9.6555    7.6553 N   0  0  0  0  0  0  0  0  0  0  0  0
   19.8038   10.9866    7.4369 C   0  0  0  0  0  0  0  0  0  0  0  0
   19.1587   11.6769    6.6371 O   0  0  0  0  0  0  0  0  0  0  0  0
   20.9462   11.4124    8.1840 C   0  0  0  0  0  3  0  0  0  0  0  0
   21.1906   12.7518    8.3796 C   0  0  0  0  0  3  0  0  0  0  0  0
   19.9584   13.5602   10.3958 S   0  0  0  0  0  1  0  0  0  0  0  0
   18.9606   14.9384    9.7642 C   0  0  0  0  0  0  0  0  0  0  0  0
   17.9505   14.5883    8.6594 C   0  0  2  0  0  0  0  0  0  0  0  0
   18.4777   14.2738    7.7472 H   0  0  0  0  0  0  0  0  0  0  0  0
   17.1359   15.7490    8.3405 N   0  0  0  0  0  0  0  0  0  0  0  0
   17.4985   16.7046    7.4527 C   0  0  0  0  0  0  0  0  0  0  0  0
   16.5683   17.9068    7.3913 C   0  0  0  0  0  0  0  0  0  0  0  0
   18.4922   16.6350    6.7524 O   0  0  0  0  0  0  0  0  0  0  0  0
   16.9697   13.5123    9.1181 C   0  0  0  0  0  0  0  0  0  0  0  0
   17.0180   12.3337    8.4794 N   0  0  0  0  0  0  0  0  0  0  0  0
   16.1461   11.2521    8.8628 C   0  0  0  0  0  0  0  0  0  0  0  0
   16.1598   13.7597   10.0077 O   0  0  0  0  0  0  0  0  0  0  0  0
   18.9397    9.9416   10.0455 C   0  0  0  0  0  0  0  0  0  0  0  0
   18.2519   12.1856   14.8267 C   0  0  0  0  0  0  0  0  0  0  0  0
   17.9496   13.1722   15.7637 C   0  0  0  0  0  0  0  0  0  0  0  0
   17.4275   14.3996   15.3721 C   0  0  0  0  0  0  0  0  0  0  0  0
   15.7915   17.9087   12.9002 H   0  0  0  0  0  0  0  0  0  0  0  0
   17.2326   13.8194   12.0128 H   0  0  0  0  0  0  0  0  0  0  0  0
   18.6682   11.9855   11.5857 H   0  0  0  0  0  0  0  0  0  0  0  0
   17.5983    7.7476   14.5587 H   0  0  0  0  0  0  0  0  0  0  0  0
   18.3723    6.1090   10.3811 H   0  0  0  0  0  0  0  0  0  0  0  0
   17.7584    5.4120    8.2325 H   0  0  0  0  0  0  0  0  0  0  0  0
   19.4928    5.1615    8.5683 H   0  0  0  0  0  0  0  0  0  0  0  0
   20.0072    5.4509    6.1385 H   0  0  0  0  0  0  0  0  0  0  0  0
   18.2739    5.6982    5.7992 H   0  0  0  0  0  0  0  0  0  0  0  0
   18.7850    2.1466    5.2857 H   0  0  0  0  0  0  0  0  0  0  0  0
   19.9808    3.3890    4.8000 H   0  0  0  0  0  0  0  0  0  0  0  0
   18.2419    3.6383    4.4558 H   0  0  0  0  0  0  0  0  0  0  0  0
   18.7945    9.2972    6.9128 H   0  0  0  0  0  0  0  0  0  0  0  0
   21.4929   10.6613    8.7583 H   0  0  0  0  0  0  0  0  0  0  0  0
   20.6861   13.4841    7.7464 H   0  0  0  0  0  0  0  0  0  0  0  0
   22.1132   13.0850    8.8528 H   0  0  0  0  0  0  0  0  0  0  0  0
   19.6163   15.7275    9.3642 H   0  0  0  0  0  0  0  0  0  0  0  0
   18.3960   15.3789   10.6031 H   0  0  0  0  0  0  0  0  0  0  0  0
   16.3504   15.8944    8.9655 H   0  0  0  0  0  0  0  0  0  0  0  0
   17.0684   18.7612    7.8715 H   0  0  0  0  0  0  0  0  0  0  0  0
   15.6004   17.7388    7.8841 H   0  0  0  0  0  0  0  0  0  0  0  0
   16.4047   18.1680    6.3374 H   0  0  0  0  0  0  0  0  0  0  0  0
   17.7075   12.1870    7.7361 H   0  0  0  0  0  0  0  0  0  0  0  0
   15.0936   11.4702    8.6160 H   0  0  0  0  0  0  0  0  0  0  0  0
   16.2039   11.0693    9.9467 H   0  0  0  0  0  0  0  0  0  0  0  0
   16.4586   10.3414    8.3365 H   0  0  0  0  0  0  0  0  0  0  0  0
   19.0732   11.0221    9.9385 H   0  0  0  0  0  0  0  0  0  0  0  0
   18.6567   11.2262   15.1388 H   0  0  0  0  0  0  0  0  0  0  0  0
   18.1370   12.9763   16.8222 H   0  0  0  0  0  0  0  0  0  0  0  0
   17.2015   15.1741   16.1075 H   0  0  0  0  0  0  0  0  0  0  0  0
  1  2  3  0  0  0  0
  2  3  1  0  0  0  0
  3 41  1  0  0  0  0
  4  5  1  0  0  0  0
  4  3  2  0  0  0  0
  5 39  2  0  0  0  0
  6  5  1  0  0  0  0
  7  6  1  6  0  0  0
  7  8  1  0  0  0  0
  9  8  2  0  0  0  0
  9 45  1  0  0  0  0
 10  9  1  0  0  0  0
 11 12  1  0  0  0  0
 11  7  1  0  0  0  0
 12 10  1  0  0  0  0
 13 46  1  0  0  0  0
 13 12  2  0  0  0  0
 14 13  1  0  0  0  0
 15 16  1  0  0  0  0
 15 14  1  0  0  0  0
 16 47  1  0  0  0  0
 16 48  1  0  0  0  0
 17 16  1  0  0  0  0
 18 17  1  0  0  0  0
 19 51  1  0  0  0  0
 19 18  1  0  0  0  0
 20 14  2  0  0  0  0
 20 38  1  0  0  0  0
 21 20  1  0  0  0  0
 22 21  1  0  0  0  0
 22 24  1  0  0  0  0
 23 22  2  0  0  0  0
 24 25  1  0  0  0  0
 24 55  1  0  0  0  0
 25 57  1  0  0  0  0
 27 26  1  0  0  0  0
 27 59  1  0  0  0  0
 28 29  1  6  0  0  0
 28 34  1  0  0  0  0
 28 27  1  0  0  0  0
 30 28  1  0  0  0  0
 30 60  1  0  0  0  0
 31 30  1  0  0  0  0
 32 31  1  0  0  0  0
 32 61  1  0  0  0  0
 32 62  1  0  0  0  0
 33 31  2  0  0  0  0
 34 37  2  0  0  0  0
 35 36  1  0  0  0  0
 35 34  1  0  0  0  0
 36 66  1  0  0  0  0
 38 11  2  0  0  0  0
 39 69  1  0  0  0  0
 39 40  1  0  0  0  0
 40 70  1  0  0  0  0
 41 40  2  0  0  0  0
 41 71  1  0  0  0  0
 42  1  1  0  0  0  0
 43  4  1  0  0  0  0
 44  6  1  0  0  0  0
 49 17  1  0  0  0  0
 50 17  1  0  0  0  0
 52 19  1  0  0  0  0
 53 19  1  0  0  0  0
 54 21  1  0  0  0  0
 56 25  1  0  0  0  0
 58 27  1  0  0  0  0
 63 32  1  0  0  0  0
 64 35  1  0  0  0  0
 65 36  1  0  0  0  0
 67 36  1  0  0  0  0
 68 38  1  0  0  0  0
M  END
