-1 1
 OpenBabel05232413483D

 80 81  0  0  1  0  0  0  0  0999 V2000
   -0.1190    4.3027    2.6924 O   0  0  0  0  0  0  0  0  0  0  0  0
    0.0568    3.3122    2.0092 C   0  0  0  0  0  0  0  0  0  0  0  0
   -0.3234    3.3676    0.6687 N   0  0  0  0  0  0  0  0  0  0  0  0
   -0.6835    2.4042   -0.2647 C   0  0  0  0  0  0  0  0  0  0  0  0
   -1.0207    1.1020    0.0269 C   0  0  0  0  0  0  0  0  0  0  0  0
   -0.7516    2.8441   -1.6305 C   0  0  0  0  0  0  0  0  0  0  0  0
   -0.4675    4.1477   -1.7989 O   0  0  0  0  0  0  0  0  0  0  0  0
   -0.4035    4.6893   -3.1027 C   0  0  0  0  0  0  0  0  0  0  0  0
   -0.3287    6.1926   -2.9360 C   0  0  0  0  0  0  0  0  0  0  0  0
   -0.2187    6.7644   -4.2043 O   0  0  0  0  0  0  0  0  0  0  0  0
   -0.1597    8.1573   -4.1846 C   0  0  0  0  0  0  0  0  0  0  0  0
   -1.1124    1.9772   -2.6336 C   0  0  0  0  0  0  0  0  0  0  0  0
   -1.4180    0.6278   -2.3391 C   0  0  0  0  0  0  0  0  0  0  0  0
   -1.3480    0.1849   -0.9990 C   0  0  0  0  0  0  0  0  0  0  0  0
   -1.5859   -1.2177   -0.7974 C   0  0  2  0  0  3  0  0  0  0  0  0
   -1.4069   -1.7317    0.4638 N   0  0  0  0  0  0  0  0  0  0  0  0
   -1.5797   -3.0243    0.9582 C   0  0  0  0  0  0  0  0  0  0  0  0
   -1.1962   -3.2560    2.2861 C   0  0  0  0  0  0  0  0  0  0  0  0
   -1.3424   -4.5059    2.8764 C   0  0  0  0  0  0  0  0  0  0  0  0
   -0.9758   -4.6655    4.3288 C   0  0  0  0  0  0  0  0  0  0  0  0
   -0.4068   -3.5805    4.8429 F   0  0  0  0  0  0  0  0  0  0  0  0
   -2.0455   -4.9521    5.0845 F   0  0  0  0  0  0  0  0  0  0  0  0
   -0.1073   -5.6878    4.5183 F   0  0  0  0  0  0  0  0  0  0  0  0
   -1.8723   -5.5861    2.1412 C   0  0  0  0  0  0  0  0  0  0  0  0
   -1.9750   -6.8542    2.7415 N   0  0  0  0  0  0  0  0  0  0  0  0
   -2.7325   -7.9249    2.3406 C   0  0  0  0  0  0  0  0  0  0  0  0
   -2.5986   -9.1082    3.2523 C   0  0  0  0  0  0  0  0  0  0  0  0
   -3.2591  -10.2352    2.9923 C   0  0  0  0  0  0  0  0  0  0  0  0
   -3.4445   -7.9400    1.3571 O   0  0  0  0  0  0  0  0  0  0  0  0
   -2.2613   -5.3478    0.8195 C   0  0  0  0  0  0  0  0  0  0  0  0
   -2.1224   -4.0940    0.2342 C   0  0  0  0  0  0  0  0  0  0  0  0
   -1.9391   -2.0024   -1.7934 N   0  0  0  0  0  0  0  0  0  0  0  0
   -2.0189   -1.4469   -3.0223 C   0  0  0  0  0  0  0  0  0  0  0  0
   -1.7640   -0.2137   -3.3563 N   0  0  0  0  0  2  0  0  0  0  0  0
    0.7303    2.1166    2.5723 C   0  0  0  0  0  0  0  0  0  0  0  0
    1.4887    1.2378    1.9015 C   0  0  0  0  0  0  0  0  0  0  0  0
    4.3541    1.9755    0.8154 S   0  0  0  0  0  1  0  0  0  0  0  0
    3.5164    3.4000    0.0311 C   0  0  0  0  0  0  0  0  0  0  0  0
    3.5262    3.4229   -1.5113 C   0  0  2  0  0  0  0  0  0  0  0  0
    4.5546    3.2328   -1.8560 H   0  0  0  0  0  0  0  0  0  0  0  0
    3.1666    4.7335   -2.0061 N   0  0  0  0  0  0  0  0  0  0  0  0
    3.7863    5.3179   -3.0675 C   0  0  0  0  0  0  0  0  0  0  0  0
    3.1164    6.5869   -3.5686 C   0  0  0  0  0  0  0  0  0  0  0  0
    4.8009    4.8860   -3.5785 O   0  0  0  0  0  0  0  0  0  0  0  0
    2.6275    2.3704   -2.1912 C   0  0  0  0  0  0  0  0  0  0  0  0
    2.6927    1.1412   -1.6488 N   0  0  0  0  0  0  0  0  0  0  0  0
    2.0067    0.0007   -2.1916 C   0  0  0  0  0  0  0  0  0  0  0  0
    1.9295    2.6545   -3.1613 O   0  0  0  0  0  0  0  0  0  0  0  0
   -0.4850    4.3222    0.3665 H   0  0  0  0  0  0  0  0  0  0  0  0
   -1.0147    0.8026    1.0729 H   0  0  0  0  0  0  0  0  0  0  0  0
   -1.3097    4.4368   -3.6788 H   0  0  0  0  0  0  0  0  0  0  0  0
    0.4840    4.2815   -3.6141 H   0  0  0  0  0  0  0  0  0  0  0  0
    0.5385    6.4613   -2.2999 H   0  0  0  0  0  0  0  0  0  0  0  0
   -1.2358    6.5553   -2.4103 H   0  0  0  0  0  0  0  0  0  0  0  0
   -0.0749    8.5063   -5.2225 H   0  0  0  0  0  0  0  0  0  0  0  0
    0.7174    8.5234   -3.6167 H   0  0  0  0  0  0  0  0  0  0  0  0
   -1.0699    8.6001   -3.7339 H   0  0  0  0  0  0  0  0  0  0  0  0
   -1.1267    2.2764   -3.6788 H   0  0  0  0  0  0  0  0  0  0  0  0
   -1.0032   -1.0846    1.1267 H   0  0  0  0  0  0  0  0  0  0  0  0
   -0.7768   -2.4403    2.8779 H   0  0  0  0  0  0  0  0  0  0  0  0
   -1.4092   -7.0001    3.5666 H   0  0  0  0  0  0  0  0  0  0  0  0
   -1.9524   -9.0249    4.1326 H   0  0  0  0  0  0  0  0  0  0  0  0
   -3.8994  -10.2913    2.1075 H   0  0  0  0  0  0  0  0  0  0  0  0
   -3.1807  -11.1097    3.6413 H   0  0  0  0  0  0  0  0  0  0  0  0
   -2.6894   -6.1659    0.2453 H   0  0  0  0  0  0  0  0  0  0  0  0
   -2.4168   -3.9309   -0.7995 H   0  0  0  0  0  0  0  0  0  0  0  0
   -2.3213   -2.1317   -3.8238 H   0  0  0  0  0  0  0  0  0  0  0  0
    0.7153    2.1188    3.6652 H   0  0  0  0  0  0  0  0  0  0  0  0
    1.5879    1.2415    0.8149 H   0  0  0  0  0  0  0  0  0  0  0  0
    2.0567    0.4710    2.4299 H   0  0  0  0  0  0  0  0  0  0  0  0
    4.0086    4.3309    0.3499 H   0  0  0  0  0  0  0  0  0  0  0  0
    2.4649    3.4712    0.3715 H   0  0  0  0  0  0  0  0  0  0  0  0
    2.2512    5.0736   -1.7405 H   0  0  0  0  0  0  0  0  0  0  0  0
    2.2283    6.3348   -4.1691 H   0  0  0  0  0  0  0  0  0  0  0  0
    3.8280    7.1317   -4.2000 H   0  0  0  0  0  0  0  0  0  0  0  0
    2.7979    7.2306   -2.7340 H   0  0  0  0  0  0  0  0  0  0  0  0
    3.3223    1.0418   -0.8249 H   0  0  0  0  0  0  0  0  0  0  0  0
    1.3754    0.3264   -3.0286 H   0  0  0  0  0  0  0  0  0  0  0  0
    1.3639   -0.4747   -1.4322 H   0  0  0  0  0  0  0  0  0  0  0  0
    2.7178   -0.7583   -2.5585 H   0  0  0  0  0  0  0  0  0  0  0  0
  2 35  1  0  0  0  0
  2  1  2  0  0  0  0
  3  2  1  0  0  0  0
  4  5  1  0  0  0  0
  4  3  1  0  0  0  0
  5 50  1  0  0  0  0
  6  4  2  0  0  0  0
  7  6  1  0  0  0  0
  8  9  1  0  0  0  0
  8  7  1  0  0  0  0
  9 54  1  0  0  0  0
  9 53  1  0  0  0  0
 10 11  1  0  0  0  0
 10  9  1  0  0  0  0
 11 57  1  0  0  0  0
 11 56  1  0  0  0  0
 12 13  2  0  0  0  0
 12  6  1  0  0  0  0
 13 14  1  0  0  0  0
 14 15  1  0  0  0  0
 14  5  2  0  0  0  0
 15 16  1  6  0  0  0
 16 17  1  0  0  0  0
 16 59  1  0  0  0  0
 17 18  1  0  0  0  0
 18 19  2  0  0  0  0
 18 60  1  0  0  0  0
 19 20  1  0  0  0  0
 20 23  1  0  0  0  0
 20 21  1  0  0  0  0
 20 22  1  0  0  0  0
 24 25  1  0  0  0  0
 24 19  1  0  0  0  0
 25 61  1  0  0  0  0
 26 25  1  0  0  0  0
 26 27  1  0  0  0  0
 27 62  1  0  0  0  0
 28 27  2  0  0  0  0
 28 64  1  0  0  0  0
 29 26  2  0  0  0  0
 30 24  2  0  0  0  0
 31 30  1  0  0  0  0
 31 17  2  0  0  0  0
 32 15  1  0  0  0  0
 33 32  2  0  0  0  0
 34 33  1  0  0  0  0
 34 13  1  0  0  0  0
 35 68  1  0  0  0  0
 36 70  1  0  0  0  0
 36 35  2  0  0  0  0
 38 71  1  0  0  0  0
 38 72  1  0  0  0  0
 38 37  1  0  0  0  0
 39 40  1  6  0  0  0
 39 38  1  0  0  0  0
 41 73  1  0  0  0  0
 41 39  1  0  0  0  0
 42 41  1  0  0  0  0
 43 42  1  0  0  0  0
 43 76  1  0  0  0  0
 44 42  2  0  0  0  0
 45 46  1  0  0  0  0
 45 39  1  0  0  0  0
 46 77  1  0  0  0  0
 47 46  1  0  0  0  0
 47 79  1  0  0  0  0
 48 45  2  0  0  0  0
 49  3  1  0  0  0  0
 51  8  1  0  0  0  0
 52  8  1  0  0  0  0
 55 11  1  0  0  0  0
 58 12  1  0  0  0  0
 63 28  1  0  0  0  0
 65 30  1  0  0  0  0
 66 31  1  0  0  0  0
 67 33  1  0  0  0  0
 69 36  1  0  0  0  0
 74 43  1  0  0  0  0
 75 43  1  0  0  0  0
 78 47  1  0  0  0  0
 80 47  1  0  0  0  0
M  END
