80
-1 1
O        -0.352222    4.089769    2.531386
C         0.184487    3.189907    1.879499
N        -0.000919    3.311690    0.419907
C        -0.626890    2.432847   -0.418520
C        -0.949848    1.125135   -0.099379
C        -0.933160    2.894716   -1.751307
O        -0.640682    4.196242   -1.952004
C        -0.582465    4.703575   -3.261589
C        -0.272956    6.181292   -3.132013
O         0.028233    6.684225   -4.400441
C         0.201087    8.066996   -4.424280
C        -1.477961    2.058846   -2.692101
C        -1.768820    0.706528   -2.372661
C        -1.498963    0.247478   -1.062995
C        -1.770129   -1.143748   -0.835931
N        -1.458623   -1.664080    0.399971
C        -1.592126   -2.949781    0.912645
C        -1.137144   -3.168211    2.221711
C        -1.226200   -4.418584    2.822071
C        -0.780100   -4.564522    4.253008
F        -0.207597   -3.467664    4.734846
F        -1.800318   -4.874253    5.066574
F         0.120433   -5.568709    4.398316
C        -1.770755   -5.513319    2.119268
N        -1.815850   -6.781113    2.730281
C        -2.553544   -7.876565    2.366118
C        -2.350388   -9.046526    3.283368
C        -2.983725  -10.196285    3.057993
O        -3.300095   -7.925710    1.409130
C        -2.233634   -5.288792    0.819506
C        -2.151579   -4.034940    0.223391
N        -2.279164   -1.912950   -1.776469
C        -2.519179   -1.344823   -2.977896
N        -2.290232   -0.110816   -3.331987
C         0.962092    2.119502    2.347373
C         1.808343    1.225705    1.555922
S         3.636788    1.762436    1.227521
C         3.356059    3.318041    0.341725
C         3.453783    3.324226   -1.198524
H         4.489002    3.091167   -1.493268
N         3.188964    4.662937   -1.672042
C         3.973698    5.256230   -2.619736
C         3.351641    6.478252   -3.267915
O         5.083952    4.857487   -2.912181
C         2.544496    2.358986   -1.992914
N         2.650204    1.053968   -1.673972
C         1.825177    0.032623   -2.269794
O         1.829139    2.777872   -2.891340
H        -0.186507    4.281298    0.186629
H        -0.752644    0.825456    0.931711
H        -1.543550    4.571130   -3.788269
H         0.213085    4.185404   -3.820268
H         0.579061    6.319021   -2.436556
H        -1.137486    6.712309   -2.685285
H         0.446615    8.359691   -5.454173
H         1.025710    8.391694   -3.760168
H        -0.717946    8.601716   -4.112628
H        -1.680022    2.385342   -3.710794
H        -1.038713   -0.999189    1.035306
H        -0.708720   -2.339621    2.789051
H        -1.214913   -6.904874    3.533629
H        -1.676916   -8.933930    4.139749
H        -3.652896  -10.281338    2.197150
H        -2.855276  -11.061023    3.712253
H        -2.675642   -6.118154    0.272448
H        -2.511299   -3.877168   -0.790625
H        -2.948065   -2.014113   -3.733659
H         1.086836    2.106426    3.433340
H         1.430643    1.022228    0.546041
H         1.991812    0.259012    2.051376
H         4.094145    4.045454    0.705632
H         2.364788    3.675566    0.657529
H         2.204583    4.909224   -1.672630
H         2.520721    6.174906   -3.924900
H         4.114740    6.991856   -3.863836
H         2.951859    7.165184   -2.506460
H         3.226958    0.828489   -0.862231
H         1.094968    0.514371   -2.932489
H         1.276032   -0.524593   -1.494807
H         2.424095   -0.680131   -2.859712
