80
-1 1
O        -0.119049    4.302729    2.692412
C         0.056795    3.312155    2.009183
N        -0.323367    3.367585    0.668704
C        -0.683525    2.404216   -0.264726
C        -1.020660    1.102002    0.026919
C        -0.751551    2.844077   -1.630515
O        -0.467549    4.147661   -1.798878
C        -0.403541    4.689269   -3.102732
C        -0.328660    6.192612   -2.935981
O        -0.218735    6.764388   -4.204257
C        -0.159749    8.157265   -4.184620
C        -1.112372    1.977162   -2.633579
C        -1.417973    0.627827   -2.339106
C        -1.347966    0.184870   -0.999007
C        -1.585883   -1.217671   -0.797418
N        -1.406882   -1.731675    0.463802
C        -1.579695   -3.024329    0.958179
C        -1.196222   -3.255994    2.286073
C        -1.342404   -4.505937    2.876366
C        -0.975820   -4.665488    4.328782
F        -0.406834   -3.580465    4.842862
F        -2.045502   -4.952092    5.084538
F        -0.107298   -5.687781    4.518347
C        -1.872257   -5.586138    2.141205
N        -1.974951   -6.854163    2.741518
C        -2.732501   -7.924943    2.340629
C        -2.598581   -9.108168    3.252283
C        -3.259094  -10.235154    2.992292
O        -3.444493   -7.939972    1.357145
C        -2.261332   -5.347774    0.819512
C        -2.122380   -4.094028    0.234236
N        -1.939150   -2.002440   -1.793422
C        -2.018945   -1.446922   -3.022341
N        -1.764009   -0.213674   -3.356312
C         0.730290    2.116642    2.572289
C         1.488715    1.237842    1.901517
S         4.354127    1.975506    0.815351
C         3.516433    3.400028    0.031073
C         3.526206    3.422855   -1.511252
H         4.554636    3.232805   -1.856004
N         3.166625    4.733534   -2.006129
C         3.786341    5.317872   -3.067477
C         3.116370    6.586929   -3.568593
O         4.800921    4.885973   -3.578485
C         2.627478    2.370360   -2.191171
N         2.692659    1.141160   -1.648801
C         2.006730    0.000653   -2.191594
O         1.929474    2.654453   -3.161288
H        -0.484996    4.322233    0.366532
H        -1.014734    0.802565    1.072940
H        -1.309729    4.436802   -3.678800
H         0.484049    4.281479   -3.614113
H         0.538508    6.461254   -2.299858
H        -1.235756    6.555271   -2.410346
H        -0.074917    8.506259   -5.222481
H         0.717390    8.523371   -3.616696
H        -1.069893    8.600107   -3.733923
H        -1.126685    2.276448   -3.678840
H        -1.003183   -1.084647    1.126712
H        -0.776799   -2.440269    2.877934
H        -1.409176   -7.000073    3.566556
H        -1.952365   -9.024885    4.132586
H        -3.899417  -10.291345    2.107481
H        -3.180668  -11.109732    3.641277
H        -2.689441   -6.165865    0.245314
H        -2.416786   -3.930852   -0.799508
H        -2.321275   -2.131658   -3.823774
H         0.715305    2.118801    3.665250
H         1.587917    1.241500    0.814862
H         2.056656    0.471013    2.429925
H         4.008608    4.330908    0.349934
H         2.464907    3.471245    0.371517
H         2.251174    5.073613   -1.740522
H         2.228295    6.334841   -4.169074
H         3.828016    7.131720   -4.200048
H         2.797938    7.230617   -2.733972
H         3.322259    1.041774   -0.824897
H         1.375364    0.326375   -3.028622
H         1.363869   -0.474664   -1.432241
H         2.717773   -0.758300   -2.558480
