-1 1
 OpenBabel05232414493D

 80 81  0  0  1  0  0  0  0  0999 V2000
    7.3057   -1.2680   -8.7087 O   0  0  0  0  0  0  0  0  0  0  0  0
    7.6221   -2.2420   -9.3783 C   0  0  0  0  0  0  0  0  0  0  0  0
    7.2985   -2.1659  -10.7705 N   0  0  0  0  0  0  0  0  0  0  0  0
    6.7588   -3.0885  -11.6367 C   0  0  0  0  0  0  0  0  0  0  0  0
    6.4271   -4.3900  -11.3203 C   0  0  0  0  0  0  0  0  0  0  0  0
    6.5200   -2.6349  -12.9835 C   0  0  0  0  0  0  0  0  0  0  0  0
    6.8071   -1.3335  -13.1753 O   0  0  0  0  0  0  0  0  0  0  0  0
    6.8809   -0.8172  -14.4841 C   0  0  0  0  0  0  0  0  0  0  0  0
    7.1188    0.6718  -14.3403 C   0  0  0  0  0  0  0  0  0  0  0  0
    7.3715    1.2005  -15.6078 O   0  0  0  0  0  0  0  0  0  0  0  0
    7.5123    2.5874  -15.6149 C   0  0  0  0  0  0  0  0  0  0  0  0
    6.0206   -3.4812  -13.9415 C   0  0  0  0  0  0  0  0  0  0  0  0
    5.7236   -4.8307  -13.6252 C   0  0  0  0  0  0  0  0  0  0  0  0
    5.9424   -5.2835  -12.3048 C   0  0  0  0  0  0  0  0  0  0  0  0
    5.6904   -6.6798  -12.0842 C   0  0  2  0  0  3  0  0  0  0  0  0
    5.9904   -7.2021  -10.8481 N   0  0  0  0  0  0  0  0  0  0  0  0
    5.8513   -8.4914  -10.3401 C   0  0  0  0  0  0  0  0  0  0  0  0
    6.3265   -8.7211   -9.0410 C   0  0  0  0  0  0  0  0  0  0  0  0
    6.2274   -9.9716   -8.4426 C   0  0  0  0  0  0  0  0  0  0  0  0
    6.6951  -10.1292   -7.0195 C   0  0  0  0  0  0  0  0  0  0  0  0
    7.2926   -9.0423   -6.5450 F   0  0  0  0  0  0  0  0  0  0  0  0
    5.6829  -10.4237   -6.1907 F   0  0  0  0  0  0  0  0  0  0  0  0
    7.5809  -11.1476   -6.8919 F   0  0  0  0  0  0  0  0  0  0  0  0
    5.6528  -11.0547   -9.1391 C   0  0  0  0  0  0  0  0  0  0  0  0
    5.5983  -12.3233   -8.5322 N   0  0  0  0  0  0  0  0  0  0  0  0
    4.8299  -13.4025   -8.8838 C   0  0  0  0  0  0  0  0  0  0  0  0
    5.0321  -14.5814   -7.9784 C   0  0  0  0  0  0  0  0  0  0  0  0
    4.3709  -15.7172   -8.1950 C   0  0  0  0  0  0  0  0  0  0  0  0
    4.0596  -13.4301   -9.8224 O   0  0  0  0  0  0  0  0  0  0  0  0
    5.1709  -10.8185  -10.4300 C   0  0  0  0  0  0  0  0  0  0  0  0
    5.2630   -9.5642  -11.0236 C   0  0  0  0  0  0  0  0  0  0  0  0
    5.2115   -7.4522  -13.0376 N   0  0  0  0  0  0  0  0  0  0  0  0
    5.0027   -6.8871  -14.2462 C   0  0  0  0  0  0  0  0  0  0  0  0
    5.2413   -5.6551  -14.5994 N   0  0  0  0  0  2  0  0  0  0  0  0
    8.3304   -3.3860   -8.8517 C   0  0  0  0  0  3  0  0  0  0  0  0
    9.0483   -4.3383   -9.5517 C   0  0  0  0  0  3  0  0  0  0  0  0
   11.3319   -3.7337  -10.1462 S   0  0  0  0  0  1  0  0  0  0  0  0
   10.8492   -2.1924  -10.9761 C   0  0  0  0  0  0  0  0  0  0  0  0
   10.9020   -2.1579  -12.5188 C   0  0  2  0  0  0  0  0  0  0  0  0
   11.9309   -2.3816  -12.8408 H   0  0  0  0  0  0  0  0  0  0  0  0
   10.6130   -0.8202  -12.9864 N   0  0  0  0  0  0  0  0  0  0  0  0
   11.3378   -0.2288  -13.9790 C   0  0  0  0  0  0  0  0  0  0  0  0
   10.6923    1.0108  -14.5723 C   0  0  0  0  0  0  0  0  0  0  0  0
   12.4182   -0.6372  -14.3573 O   0  0  0  0  0  0  0  0  0  0  0  0
    9.9815   -3.1359  -13.2811 C   0  0  0  0  0  0  0  0  0  0  0  0
   10.0505   -4.4206  -12.8876 N   0  0  0  0  0  0  0  0  0  0  0  0
    9.2712   -5.4710  -13.4880 C   0  0  0  0  0  0  0  0  0  0  0  0
    9.2797   -2.7462  -14.2077 O   0  0  0  0  0  0  0  0  0  0  0  0
    7.1230   -1.2042  -11.0388 H   0  0  0  0  0  0  0  0  0  0  0  0
    6.5662   -4.6936  -10.2835 H   0  0  0  0  0  0  0  0  0  0  0  0
    5.9396   -0.9867  -15.0346 H   0  0  0  0  0  0  0  0  0  0  0  0
    7.7130   -1.3039  -15.0168 H   0  0  0  0  0  0  0  0  0  0  0  0
    7.9740    0.8461  -13.6573 H   0  0  0  0  0  0  0  0  0  0  0  0
    6.2344    1.1523  -13.8747 H   0  0  0  0  0  0  0  0  0  0  0  0
    7.7170    2.9011  -16.6474 H   0  0  0  0  0  0  0  0  0  0  0  0
    8.3510    2.9199  -14.9730 H   0  0  0  0  0  0  0  0  0  0  0  0
    6.5917    3.0954  -15.2651 H   0  0  0  0  0  0  0  0  0  0  0  0
    5.8671   -3.1642  -14.9711 H   0  0  0  0  0  0  0  0  0  0  0  0
    6.4379   -6.5510  -10.2176 H   0  0  0  0  0  0  0  0  0  0  0  0
    6.7807   -7.9024   -8.4794 H   0  0  0  0  0  0  0  0  0  0  0  0
    6.2158  -12.4624   -7.7440 H   0  0  0  0  0  0  0  0  0  0  0  0
    5.7283  -14.4873   -7.1382 H   0  0  0  0  0  0  0  0  0  0  0  0
    3.6796  -15.7841   -9.0398 H   0  0  0  0  0  0  0  0  0  0  0  0
    4.4984  -16.5883   -7.5491 H   0  0  0  0  0  0  0  0  0  0  0  0
    4.7068  -11.6388  -10.9722 H   0  0  0  0  0  0  0  0  0  0  0  0
    4.8924   -9.3997  -12.0325 H   0  0  0  0  0  0  0  0  0  0  0  0
    4.5968   -7.5597  -15.0115 H   0  0  0  0  0  0  0  0  0  0  0  0
    8.4526   -3.3247   -7.7677 H   0  0  0  0  0  0  0  0  0  0  0  0
    8.8604   -4.5081  -10.6120 H   0  0  0  0  0  0  0  0  0  0  0  0
    9.4363   -5.2022   -9.0095 H   0  0  0  0  0  0  0  0  0  0  0  0
   11.5077   -1.3811  -10.6346 H   0  0  0  0  0  0  0  0  0  0  0  0
    9.8306   -1.9276  -10.6435 H   0  0  0  0  0  0  0  0  0  0  0  0
    9.6420   -0.5429  -12.8984 H   0  0  0  0  0  0  0  0  0  0  0  0
    9.8568    0.7208  -15.2293 H   0  0  0  0  0  0  0  0  0  0  0  0
   11.4410    1.5509  -15.1633 H   0  0  0  0  0  0  0  0  0  0  0  0
   10.2978    1.6698  -13.7837 H   0  0  0  0  0  0  0  0  0  0  0  0
   10.6275   -4.6067  -12.0543 H   0  0  0  0  0  0  0  0  0  0  0  0
    8.5814   -5.0274  -14.2176 H   0  0  0  0  0  0  0  0  0  0  0  0
    8.6792   -6.0045  -12.7271 H   0  0  0  0  0  0  0  0  0  0  0  0
    9.9105   -6.2049  -14.0059 H   0  0  0  0  0  0  0  0  0  0  0  0
  2 35  1  0  0  0  0
  2  1  2  0  0  0  0
  3  2  1  0  0  0  0
  4  5  1  0  0  0  0
  4  3  1  0  0  0  0
  5 50  1  0  0  0  0
  6  4  2  0  0  0  0
  7  6  1  0  0  0  0
  8  9  1  0  0  0  0
  8  7  1  0  0  0  0
  9 54  1  0  0  0  0
  9 53  1  0  0  0  0
 10  9  1  0  0  0  0
 11 10  1  0  0  0  0
 11 57  1  0  0  0  0
 11 56  1  0  0  0  0
 12 13  2  0  0  0  0
 12  6  1  0  0  0  0
 13 14  1  0  0  0  0
 14 15  1  0  0  0  0
 14  5  2  0  0  0  0
 15 16  1  6  0  0  0
 16 17  1  0  0  0  0
 16 59  1  0  0  0  0
 17 18  1  0  0  0  0
 18 60  1  0  0  0  0
 18 19  2  0  0  0  0
 19 20  1  0  0  0  0
 20 23  1  0  0  0  0
 20 21  1  0  0  0  0
 20 22  1  0  0  0  0
 24 25  1  0  0  0  0
 24 19  1  0  0  0  0
 25 61  1  0  0  0  0
 26 25  1  0  0  0  0
 26 27  1  0  0  0  0
 27 62  1  0  0  0  0
 28 27  2  0  0  0  0
 28 64  1  0  0  0  0
 29 26  2  0  0  0  0
 30 24  2  0  0  0  0
 31 30  1  0  0  0  0
 31 17  2  0  0  0  0
 32 15  1  0  0  0  0
 33 32  2  0  0  0  0
 34 33  1  0  0  0  0
 34 13  1  0  0  0  0
 35 68  1  0  0  0  0
 36 70  1  0  0  0  0
 36 35  1  0  0  0  0
 38 72  1  0  0  0  0
 38 71  1  0  0  0  0
 38 37  1  0  0  0  0
 39 40  1  6  0  0  0
 39 38  1  0  0  0  0
 41 73  1  0  0  0  0
 41 39  1  0  0  0  0
 42 41  1  0  0  0  0
 43 42  1  0  0  0  0
 43 76  1  0  0  0  0
 44 42  2  0  0  0  0
 45 46  1  0  0  0  0
 45 39  1  0  0  0  0
 46 77  1  0  0  0  0
 47 46  1  0  0  0  0
 47 79  1  0  0  0  0
 48 45  2  0  0  0  0
 49  3  1  0  0  0  0
 51  8  1  0  0  0  0
 52  8  1  0  0  0  0
 55 11  1  0  0  0  0
 58 12  1  0  0  0  0
 63 28  1  0  0  0  0
 65 30  1  0  0  0  0
 66 31  1  0  0  0  0
 67 33  1  0  0  0  0
 69 36  1  0  0  0  0
 74 43  1  0  0  0  0
 75 43  1  0  0  0  0
 78 47  1  0  0  0  0
 80 47  1  0  0  0  0
M  END
