-1 1
 OpenBabel05192410563D

 70 72  0  0  1  0  0  0  0  0999 V2000
   -2.0638   -1.4883    1.2728 O   0  0  0  0  0  0  0  0  0  0  0  0
   -2.2234   -0.3325    1.6970 C   0  0  0  0  0  0  0  0  0  0  0  0
   -1.6891    0.7542    0.9316 N   0  0  0  0  0  0  0  0  0  0  0  0
   -1.0075    0.6938   -0.2518 C   0  0  0  0  0  0  0  0  0  0  0  0
   -0.7711   -0.4625   -0.9784 C   0  0  0  0  0  0  0  0  0  0  0  0
   -0.4853    1.9368   -0.7691 C   0  0  0  0  0  0  0  0  0  0  0  0
   -0.7188    3.0000    0.0224 O   0  0  0  0  0  0  0  0  0  0  0  0
   -0.0627    4.2225   -0.2379 C   0  0  0  0  0  0  0  0  0  0  0  0
   -0.1353    5.0413    1.0326 C   0  0  0  0  0  0  0  0  0  0  0  0
    0.3112    6.3369    0.7445 O   0  0  0  0  0  0  0  0  0  0  0  0
    0.5861    7.0847    1.8859 C   0  0  0  0  0  0  0  0  0  0  0  0
    0.1912    1.9880   -1.9641 C   0  0  0  0  0  0  0  0  0  0  0  0
    0.4212    0.8057   -2.7122 C   0  0  0  0  0  0  0  0  0  0  0  0
   -0.0625   -0.4212   -2.2010 C   0  0  0  0  0  0  0  0  0  0  0  0
    0.2295   -1.5755   -3.0044 C   0  0  2  0  0  3  0  0  0  0  0  0
   -0.2128   -2.7984   -2.5519 N   0  0  0  0  0  0  0  0  0  0  0  0
   -0.0881   -4.0722   -3.0936 C   0  0  0  0  0  0  0  0  0  0  0  0
   -0.6650   -5.1353   -2.3827 C   0  0  0  0  0  0  0  0  0  0  0  0
   -0.5852   -6.4496   -2.8577 C   0  0  0  0  0  0  0  0  0  0  0  0
   -1.1785   -7.5342   -2.1269 C   0  0  0  0  0  0  0  0  0  0  0  0
   -1.6578   -8.4063   -1.5366 N   0  0  0  0  0  0  0  0  0  0  0  0
    0.0820   -6.7014   -4.0606 C   0  0  0  0  0  0  0  0  0  0  0  0
    0.1611   -7.9506   -4.5179 F   0  0  0  0  0  0  0  0  0  0  0  0
    0.6565   -5.6622   -4.7731 C   0  0  0  0  0  0  0  0  0  0  0  0
    0.5769   -4.3558   -4.3012 C   0  0  0  0  0  0  0  0  0  0  0  0
    0.8967   -1.4806   -4.1362 N   0  0  0  0  0  0  0  0  0  0  0  0
    1.2991   -0.2473   -4.5167 C   0  0  0  0  0  0  0  0  0  0  0  0
    1.1078    0.8785   -3.8896 N   0  0  0  0  0  2  0  0  0  0  0  0
   -2.8906    0.0319    2.8864 C   0  0  0  0  0  3  0  0  0  0  0  0
   -3.0597    1.3666    3.4107 C   0  0  0  0  0  0  0  0  0  0  0  0
   -1.6625    1.9992    4.7188 S   0  0  0  0  0  0  0  0  0  0  0  0
   -0.2493    1.0730    4.0945 C   0  0  0  0  0  0  0  0  0  0  0  0
    0.6395    1.8463    3.1066 C   0  0  2  0  0  0  0  0  0  0  0  0
   -0.0060    2.4701    2.4686 H   0  0  0  0  0  0  0  0  0  0  0  0
    1.3662    0.9372    2.2574 N   0  0  0  0  0  0  0  0  0  0  0  0
    2.0822    1.3956    1.2028 C   0  0  0  0  0  0  0  0  0  0  0  0
    2.7107    0.3441    0.3166 C   0  0  0  0  0  0  0  0  0  0  0  0
    2.1935    2.5889    0.9670 O   0  0  0  0  0  0  0  0  0  0  0  0
    1.6041    2.7664    3.8726 C   0  0  0  0  0  0  0  0  0  0  0  0
    1.0183    3.9279    4.2870 N   0  0  0  0  0  0  0  0  0  0  0  0
    1.6921    4.8340    5.1797 C   0  0  0  0  0  0  0  0  0  0  0  0
    2.7561    2.4704    4.1116 O   0  0  0  0  0  0  0  0  0  0  0  0
   -1.7946    1.6879    1.3026 H   0  0  0  0  0  0  0  0  0  0  0  0
   -1.1678   -1.3713   -0.5256 H   0  0  0  0  0  0  0  0  0  0  0  0
   -0.5567    4.7539   -1.0709 H   0  0  0  0  0  0  0  0  0  0  0  0
    0.9922    4.0378   -0.4876 H   0  0  0  0  0  0  0  0  0  0  0  0
    0.5046    4.5630    1.7948 H   0  0  0  0  0  0  0  0  0  0  0  0
   -1.1771    5.0525    1.4159 H   0  0  0  0  0  0  0  0  0  0  0  0
    0.9215    8.0819    1.5672 H   0  0  0  0  0  0  0  0  0  0  0  0
    1.3823    6.6205    2.4997 H   0  0  0  0  0  0  0  0  0  0  0  0
   -0.3091    7.2058    2.5296 H   0  0  0  0  0  0  0  0  0  0  0  0
    0.5881    2.9199   -2.3625 H   0  0  0  0  0  0  0  0  0  0  0  0
   -0.7180   -2.7538   -1.6765 H   0  0  0  0  0  0  0  0  0  0  0  0
   -1.1879   -4.9473   -1.4422 H   0  0  0  0  0  0  0  0  0  0  0  0
    1.1715   -5.8850   -5.7088 H   0  0  0  0  0  0  0  0  0  0  0  0
    1.0224   -3.5287   -4.8497 H   0  0  0  0  0  0  0  0  0  0  0  0
    1.8498   -0.2084   -5.4645 H   0  0  0  0  0  0  0  0  0  0  0  0
   -3.2458   -0.8146    3.4776 H   0  0  0  0  0  0  0  0  0  0  0  0
   -3.9394    1.4814    4.0563 H   0  0  0  0  0  0  0  0  0  0  0  0
   -3.0697    2.1784    2.6693 H   0  0  0  0  0  0  0  0  0  0  0  0
   -0.7004    0.1968    3.5855 H   0  0  0  0  0  0  0  0  0  0  0  0
    0.3483    0.7009    4.9399 H   0  0  0  0  0  0  0  0  0  0  0  0
    1.2184   -0.0560    2.3721 H   0  0  0  0  0  0  0  0  0  0  0  0
    3.7571    0.6217    0.1345 H   0  0  0  0  0  0  0  0  0  0  0  0
    2.1888    0.3510   -0.6514 H   0  0  0  0  0  0  0  0  0  0  0  0
    2.6648   -0.6689    0.7383 H   0  0  0  0  0  0  0  0  0  0  0  0
    0.0011    3.9507    4.2488 H   0  0  0  0  0  0  0  0  0  0  0  0
    1.4438    5.8772    4.9312 H   0  0  0  0  0  0  0  0  0  0  0  0
    2.7733    4.6855    5.0644 H   0  0  0  0  0  0  0  0  0  0  0  0
    1.4308    4.6548    6.2372 H   0  0  0  0  0  0  0  0  0  0  0  0
  1  2  2  0  0  0  0
  2 29  1  0  0  0  0
  3 43  1  0  0  0  0
  3  2  1  0  0  0  0
  4  3  1  0  0  0  0
  5 44  1  0  0  0  0
  5  4  2  0  0  0  0
  6  4  1  0  0  0  0
  6  7  1  0  0  0  0
  8  7  1  0  0  0  0
  8  9  1  0  0  0  0
  9 48  1  0  0  0  0
  9 47  1  0  0  0  0
 10  9  1  0  0  0  0
 10 11  1  0  0  0  0
 11 50  1  0  0  0  0
 11 51  1  0  0  0  0
 12  6  2  0  0  0  0
 13 14  2  0  0  0  0
 13 12  1  0  0  0  0
 14  5  1  0  0  0  0
 15 16  1  1  0  0  0
 15 14  1  0  0  0  0
 16 53  1  0  0  0  0
 17 16  1  0  0  0  0
 17 18  1  0  0  0  0
 18 54  1  0  0  0  0
 19 18  2  0  0  0  0
 19 20  1  0  0  0  0
 20 21  3  0  0  0  0
 22 19  1  0  0  0  0
 23 22  1  0  0  0  0
 24 25  1  0  0  0  0
 24 22  2  0  0  0  0
 25 17  2  0  0  0  0
 26 15  1  0  0  0  0
 27 26  2  0  0  0  0
 27 28  1  0  0  0  0
 28 13  1  0  0  0  0
 29 30  1  0  0  0  0
 29 58  1  0  0  0  0
 30 59  1  0  0  0  0
 30 31  1  0  0  0  0
 32 31  1  0  0  0  0
 32 62  1  0  0  0  0
 33 34  1  6  0  0  0
 33 39  1  0  0  0  0
 33 32  1  0  0  0  0
 35 63  1  0  0  0  0
 35 33  1  0  0  0  0
 36 35  1  0  0  0  0
 37 66  1  0  0  0  0
 37 36  1  0  0  0  0
 38 36  2  0  0  0  0
 39 42  2  0  0  0  0
 39 40  1  0  0  0  0
 40 41  1  0  0  0  0
 41 70  1  0  0  0  0
 45  8  1  0  0  0  0
 46  8  1  0  0  0  0
 49 11  1  0  0  0  0
 52 12  1  0  0  0  0
 55 24  1  0  0  0  0
 56 25  1  0  0  0  0
 57 27  1  0  0  0  0
 60 30  1  0  0  0  0
 61 32  1  0  0  0  0
 64 37  1  0  0  0  0
 65 37  1  0  0  0  0
 67 40  1  0  0  0  0
 68 41  1  0  0  0  0
 69 41  1  0  0  0  0
M  END
