-1 1
 OpenBabel05232413483D

 70 71  0  0  1  0  0  0  0  0999 V2000
   -2.3366   -1.4919    1.1708 O   0  0  0  0  0  0  0  0  0  0  0  0
   -2.4380   -0.3388    1.5659 C   0  0  0  0  0  0  0  0  0  0  0  0
   -1.8595    0.7330    0.9197 N   0  0  0  0  0  0  0  0  0  0  0  0
   -1.1147    0.6935   -0.2529 C   0  0  0  0  0  0  0  0  0  0  0  0
   -0.8520   -0.4500   -0.9774 C   0  0  0  0  0  0  0  0  0  0  0  0
   -0.5795    1.9468   -0.7128 C   0  0  0  0  0  0  0  0  0  0  0  0
   -0.8798    2.9927    0.0663 O   0  0  0  0  0  0  0  0  0  0  0  0
   -0.1373    4.1938   -0.0604 C   0  0  0  0  0  0  0  0  0  0  0  0
   -0.5696    5.1046    1.0693 C   0  0  0  0  0  0  0  0  0  0  0  0
    0.1811    6.2833    0.9701 O   0  0  0  0  0  0  0  0  0  0  0  0
    0.2272    7.0024    2.1638 C   0  0  0  0  0  0  0  0  0  0  0  0
    0.1826    2.0100   -1.8550 C   0  0  0  0  0  0  0  0  0  0  0  0
    0.4536    0.8415   -2.6034 C   0  0  0  0  0  0  0  0  0  0  0  0
   -0.0692   -0.3949   -2.1567 C   0  0  0  0  0  0  0  0  0  0  0  0
    0.2706   -1.5357   -2.9589 C   0  0  2  0  0  3  0  0  0  0  0  0
   -0.2003   -2.7685   -2.5680 N   0  0  0  0  0  0  0  0  0  0  0  0
   -0.0374   -4.0304   -3.1324 C   0  0  0  0  0  0  0  0  0  0  0  0
   -0.6650   -5.1076   -2.4906 C   0  0  0  0  0  0  0  0  0  0  0  0
   -0.5547   -6.4108   -2.9897 C   0  0  0  0  0  0  0  0  0  0  0  0
   -1.2026   -7.5080   -2.3278 C   0  0  0  0  0  0  0  0  0  0  0  0
   -1.7285   -8.3873   -1.7901 N   0  0  0  0  0  0  0  0  0  0  0  0
    0.1961   -6.6359   -4.1475 C   0  0  0  0  0  0  0  0  0  0  0  0
    0.3048   -7.8731   -4.6278 F   0  0  0  0  0  0  0  0  0  0  0  0
    0.8222   -5.5818   -4.7917 C   0  0  0  0  0  0  0  0  0  0  0  0
    0.7117   -4.2868   -4.2955 C   0  0  0  0  0  0  0  0  0  0  0  0
    1.0141   -1.4206   -4.0401 N   0  0  0  0  0  0  0  0  0  0  0  0
    1.4443   -0.1814   -4.3665 C   0  0  0  0  0  0  0  0  0  0  0  0
    1.2167    0.9324   -3.7321 N   0  0  0  0  0  2  0  0  0  0  0  0
   -3.2020   -0.0107    2.7910 C   0  0  0  0  0  0  0  0  0  0  0  0
   -3.7299    1.1853    3.0827 C   0  0  0  0  0  0  0  0  0  0  0  0
   -1.4944    2.9889    4.2322 S   0  0  0  0  0  1  0  0  0  0  0  0
   -0.3152    1.6308    3.9361 C   0  0  0  0  0  0  0  0  0  0  0  0
    0.8285    2.0067    2.9735 C   0  0  2  0  0  0  0  0  0  0  0  0
    0.4080    2.6460    2.1872 H   0  0  0  0  0  0  0  0  0  0  0  0
    1.3777    0.8487    2.3088 N   0  0  0  0  0  0  0  0  0  0  0  0
    2.0832    0.9748    1.1569 C   0  0  0  0  0  0  0  0  0  0  0  0
    2.6728   -0.3038    0.5977 C   0  0  0  0  0  0  0  0  0  0  0  0
    2.1922    2.0322    0.5588 O   0  0  0  0  0  0  0  0  0  0  0  0
    1.9459    2.7972    3.6802 C   0  0  0  0  0  0  0  0  0  0  0  0
    1.5249    3.9703    4.2171 N   0  0  0  0  0  0  0  0  0  0  0  0
    2.3912    4.7745    5.0364 C   0  0  0  0  0  0  0  0  0  0  0  0
    3.0933    2.3896    3.7403 O   0  0  0  0  0  0  0  0  0  0  0  0
   -1.8592    1.6319    1.4012 H   0  0  0  0  0  0  0  0  0  0  0  0
   -1.2608   -1.3750   -0.5771 H   0  0  0  0  0  0  0  0  0  0  0  0
   -0.3387    4.6694   -1.0366 H   0  0  0  0  0  0  0  0  0  0  0  0
    0.9361    3.9615    0.0240 H   0  0  0  0  0  0  0  0  0  0  0  0
   -0.4136    4.5962    2.0381 H   0  0  0  0  0  0  0  0  0  0  0  0
   -1.6570    5.3115    1.0005 H   0  0  0  0  0  0  0  0  0  0  0  0
    0.8436    7.8972    1.9959 H   0  0  0  0  0  0  0  0  0  0  0  0
    0.6763    6.4042    2.9787 H   0  0  0  0  0  0  0  0  0  0  0  0
   -0.7798    7.3254    2.4952 H   0  0  0  0  0  0  0  0  0  0  0  0
    0.6277    2.9420   -2.1961 H   0  0  0  0  0  0  0  0  0  0  0  0
   -0.7640   -2.7516   -1.7292 H   0  0  0  0  0  0  0  0  0  0  0  0
   -1.2533   -4.9418   -1.5852 H   0  0  0  0  0  0  0  0  0  0  0  0
    1.4026   -5.7839   -5.6932 H   0  0  0  0  0  0  0  0  0  0  0  0
    1.1970   -3.4490   -4.7912 H   0  0  0  0  0  0  0  0  0  0  0  0
    2.0567   -0.1261   -5.2747 H   0  0  0  0  0  0  0  0  0  0  0  0
   -3.3297   -0.8649    3.4601 H   0  0  0  0  0  0  0  0  0  0  0  0
   -4.2842    1.3445    4.0082 H   0  0  0  0  0  0  0  0  0  0  0  0
   -3.6664    2.0419    2.4107 H   0  0  0  0  0  0  0  0  0  0  0  0
   -0.8520    0.7724    3.4929 H   0  0  0  0  0  0  0  0  0  0  0  0
    0.1132    1.2667    4.8870 H   0  0  0  0  0  0  0  0  0  0  0  0
    1.4843    0.0020    2.8502 H   0  0  0  0  0  0  0  0  0  0  0  0
    3.7287   -0.1265    0.3546 H   0  0  0  0  0  0  0  0  0  0  0  0
    2.1465   -0.5353   -0.3403 H   0  0  0  0  0  0  0  0  0  0  0  0
    2.5892   -1.1643    1.2758 H   0  0  0  0  0  0  0  0  0  0  0  0
    0.5009    4.0696    4.3081 H   0  0  0  0  0  0  0  0  0  0  0  0
    2.1960    5.8454    4.8694 H   0  0  0  0  0  0  0  0  0  0  0  0
    3.4326    4.5548    4.7667 H   0  0  0  0  0  0  0  0  0  0  0  0
    2.2642    4.5656    6.1135 H   0  0  0  0  0  0  0  0  0  0  0  0
  1  2  2  0  0  0  0
  2 29  1  0  0  0  0
  3 43  1  0  0  0  0
  3  2  1  0  0  0  0
  4  3  1  0  0  0  0
  5 44  1  0  0  0  0
  5  4  2  0  0  0  0
  6  4  1  0  0  0  0
  6  7  1  0  0  0  0
  8 46  1  0  0  0  0
  8  7  1  0  0  0  0
  8  9  1  0  0  0  0
  9 47  1  0  0  0  0
 10  9  1  0  0  0  0
 10 11  1  0  0  0  0
 11 51  1  0  0  0  0
 11 50  1  0  0  0  0
 12  6  2  0  0  0  0
 13 14  2  0  0  0  0
 13 12  1  0  0  0  0
 14  5  1  0  0  0  0
 15 16  1  1  0  0  0
 15 14  1  0  0  0  0
 16 53  1  0  0  0  0
 17 16  1  0  0  0  0
 17 18  1  0  0  0  0
 18 54  1  0  0  0  0
 19 18  2  0  0  0  0
 19 20  1  0  0  0  0
 20 21  3  0  0  0  0
 22 19  1  0  0  0  0
 23 22  1  0  0  0  0
 24 25  1  0  0  0  0
 24 22  2  0  0  0  0
 25 17  2  0  0  0  0
 26 15  1  0  0  0  0
 27 26  2  0  0  0  0
 27 28  1  0  0  0  0
 28 13  1  0  0  0  0
 29 30  2  0  0  0  0
 29 58  1  0  0  0  0
 30 59  1  0  0  0  0
 32 31  1  0  0  0  0
 32 62  1  0  0  0  0
 33 34  1  6  0  0  0
 33 39  1  0  0  0  0
 33 32  1  0  0  0  0
 35 63  1  0  0  0  0
 35 33  1  0  0  0  0
 36 35  1  0  0  0  0
 37 36  1  0  0  0  0
 37 66  1  0  0  0  0
 38 36  2  0  0  0  0
 39 42  2  0  0  0  0
 39 40  1  0  0  0  0
 40 67  1  0  0  0  0
 40 41  1  0  0  0  0
 41 70  1  0  0  0  0
 45  8  1  0  0  0  0
 48  9  1  0  0  0  0
 49 11  1  0  0  0  0
 52 12  1  0  0  0  0
 55 24  1  0  0  0  0
 56 25  1  0  0  0  0
 57 27  1  0  0  0  0
 60 30  1  0  0  0  0
 61 32  1  0  0  0  0
 64 37  1  0  0  0  0
 65 37  1  0  0  0  0
 68 41  1  0  0  0  0
 69 41  1  0  0  0  0
M  END
