-1 1
 OpenBabel05232414493D

 70 72  0  0  1  0  0  0  0  0999 V2000
    4.6469   -0.1246   -9.1333 O   0  0  0  0  0  0  0  0  0  0  0  0
    4.4571    1.0320   -8.7438 C   0  0  0  0  0  0  0  0  0  0  0  0
    4.9601    2.1173   -9.5008 N   0  0  0  0  0  0  0  0  0  0  0  0
    5.6511    2.0619  -10.6864 C   0  0  0  0  0  0  0  0  0  0  0  0
    5.8811    0.9108  -11.4188 C   0  0  0  0  0  0  0  0  0  0  0  0
    6.1783    3.3067  -11.1894 C   0  0  0  0  0  0  0  0  0  0  0  0
    5.9436    4.3632  -10.3937 O   0  0  0  0  0  0  0  0  0  0  0  0
    6.6088    5.5849  -10.6417 C   0  0  0  0  0  0  0  0  0  0  0  0
    6.5048    6.4107   -9.3778 C   0  0  0  0  0  0  0  0  0  0  0  0
    6.9484    7.7068   -9.6683 O   0  0  0  0  0  0  0  0  0  0  0  0
    7.1597    8.4769   -8.5275 C   0  0  0  0  0  0  0  0  0  0  0  0
    6.8614    3.3622  -12.3808 C   0  0  0  0  0  0  0  0  0  0  0  0
    7.0862    2.1853  -13.1370 C   0  0  0  0  0  0  0  0  0  0  0  0
    6.5945    0.9560  -12.6398 C   0  0  0  0  0  0  0  0  0  0  0  0
    6.8868   -0.1936  -13.4492 C   0  0  2  0  0  3  0  0  0  0  0  0
    6.4448   -1.4203  -13.0080 N   0  0  0  0  0  0  0  0  0  0  0  0
    6.5722   -2.6900  -13.5607 C   0  0  0  0  0  0  0  0  0  0  0  0
    6.0003   -3.7599  -12.8564 C   0  0  0  0  0  0  0  0  0  0  0  0
    6.0815   -5.0703  -13.3419 C   0  0  0  0  0  0  0  0  0  0  0  0
    5.4927   -6.1614  -12.6173 C   0  0  0  0  0  0  0  0  0  0  0  0
    5.0163   -7.0380  -12.0312 N   0  0  0  0  0  0  0  0  0  0  0  0
    6.7454   -5.3109  -14.5488 C   0  0  0  0  0  0  0  0  0  0  0  0
    6.8260   -6.5559  -15.0161 F   0  0  0  0  0  0  0  0  0  0  0  0
    7.3152   -4.2646  -15.2548 C   0  0  0  0  0  0  0  0  0  0  0  0
    7.2340   -2.9623  -14.7724 C   0  0  0  0  0  0  0  0  0  0  0  0
    7.5568   -0.0911  -14.5789 N   0  0  0  0  0  0  0  0  0  0  0  0
    7.9629    1.1439  -14.9487 C   0  0  0  0  0  0  0  0  0  0  0  0
    7.7755    2.2651  -14.3126 N   0  0  0  0  0  2  0  0  0  0  0  0
    3.7501    1.3835   -7.5506 C   0  0  0  0  0  3  0  0  0  0  0  0
    3.4448    2.6818   -7.1096 C   0  0  0  0  0  0  0  0  0  0  0  0
    5.0041    3.6184   -5.8021 S   0  0  0  0  0  0  0  0  0  0  0  0
    6.3741    2.5755   -6.3306 C   0  0  0  0  0  0  0  0  0  0  0  0
    7.3367    3.2532   -7.3210 C   0  0  2  0  0  0  0  0  0  0  0  0
    6.7431    3.8930   -7.9907 H   0  0  0  0  0  0  0  0  0  0  0  0
    8.0210    2.2829   -8.1380 N   0  0  0  0  0  0  0  0  0  0  0  0
    8.7311    2.6709   -9.2232 C   0  0  0  0  0  0  0  0  0  0  0  0
    9.3421    1.5642  -10.0536 C   0  0  0  0  0  0  0  0  0  0  0  0
    8.8450    3.8461   -9.5369 O   0  0  0  0  0  0  0  0  0  0  0  0
    8.3441    4.1439   -6.5747 C   0  0  0  0  0  0  0  0  0  0  0  0
    7.7983    5.3160   -6.1384 N   0  0  0  0  0  0  0  0  0  0  0  0
    8.5187    6.1959   -5.2563 C   0  0  0  0  0  0  0  0  0  0  0  0
    9.4984    3.8219   -6.3792 O   0  0  0  0  0  0  0  0  0  0  0  0
    4.8910    3.0429   -9.0977 H   0  0  0  0  0  0  0  0  0  0  0  0
    5.4894   -0.0039  -10.9762 H   0  0  0  0  0  0  0  0  0  0  0  0
    6.1338    6.1140  -11.4871 H   0  0  0  0  0  0  0  0  0  0  0  0
    7.6678    5.3933  -10.8676 H   0  0  0  0  0  0  0  0  0  0  0  0
    7.1310    5.9463   -8.5958 H   0  0  0  0  0  0  0  0  0  0  0  0
    5.4562    6.4160   -9.0151 H   0  0  0  0  0  0  0  0  0  0  0  0
    7.5067    9.4699   -8.8466 H   0  0  0  0  0  0  0  0  0  0  0  0
    7.9244    8.0277   -7.8646 H   0  0  0  0  0  0  0  0  0  0  0  0
    6.2315    8.6032   -7.9339 H   0  0  0  0  0  0  0  0  0  0  0  0
    7.2672    4.2944  -12.7690 H   0  0  0  0  0  0  0  0  0  0  0  0
    5.9431   -1.3865  -12.1305 H   0  0  0  0  0  0  0  0  0  0  0  0
    5.4803   -3.5812  -11.9125 H   0  0  0  0  0  0  0  0  0  0  0  0
    7.8280   -4.4787  -16.1938 H   0  0  0  0  0  0  0  0  0  0  0  0
    7.6765   -2.1301  -15.3156 H   0  0  0  0  0  0  0  0  0  0  0  0
    8.5146    1.1889  -15.8956 H   0  0  0  0  0  0  0  0  0  0  0  0
    3.4795    0.5255   -6.9320 H   0  0  0  0  0  0  0  0  0  0  0  0
    2.6592    2.7705   -6.3560 H   0  0  0  0  0  0  0  0  0  0  0  0
    3.3995    3.4940   -7.8421 H   0  0  0  0  0  0  0  0  0  0  0  0
    5.9024    1.6992   -6.8246 H   0  0  0  0  0  0  0  0  0  0  0  0
    6.9292    2.1957   -5.4588 H   0  0  0  0  0  0  0  0  0  0  0  0
    7.9316    1.3021   -7.9134 H   0  0  0  0  0  0  0  0  0  0  0  0
   10.3977    1.8054  -10.2356 H   0  0  0  0  0  0  0  0  0  0  0  0
    8.8306    1.5438  -11.0271 H   0  0  0  0  0  0  0  0  0  0  0  0
    9.2643    0.5715   -9.5901 H   0  0  0  0  0  0  0  0  0  0  0  0
    6.7776    5.3486   -6.1330 H   0  0  0  0  0  0  0  0  0  0  0  0
    8.2757    7.2469   -5.4764 H   0  0  0  0  0  0  0  0  0  0  0  0
    9.5931    6.0360   -5.4133 H   0  0  0  0  0  0  0  0  0  0  0  0
    8.2938    6.0020   -4.1930 H   0  0  0  0  0  0  0  0  0  0  0  0
  1  2  2  0  0  0  0
  2 29  1  0  0  0  0
  3 43  1  0  0  0  0
  3  2  1  0  0  0  0
  4  3  1  0  0  0  0
  5 44  1  0  0  0  0
  5  4  2  0  0  0  0
  6  4  1  0  0  0  0
  6  7  1  0  0  0  0
  8  7  1  0  0  0  0
  8  9  1  0  0  0  0
  9 48  1  0  0  0  0
  9 47  1  0  0  0  0
 10  9  1  0  0  0  0
 10 11  1  0  0  0  0
 11 51  1  0  0  0  0
 11 50  1  0  0  0  0
 12  6  2  0  0  0  0
 13 14  2  0  0  0  0
 13 12  1  0  0  0  0
 14  5  1  0  0  0  0
 15 16  1  1  0  0  0
 15 14  1  0  0  0  0
 16 53  1  0  0  0  0
 17 16  1  0  0  0  0
 17 18  1  0  0  0  0
 18 54  1  0  0  0  0
 19 18  2  0  0  0  0
 19 20  1  0  0  0  0
 20 21  3  0  0  0  0
 22 19  1  0  0  0  0
 23 22  1  0  0  0  0
 24 25  1  0  0  0  0
 24 22  2  0  0  0  0
 25 17  2  0  0  0  0
 26 15  1  0  0  0  0
 27 26  2  0  0  0  0
 27 28  1  0  0  0  0
 28 13  1  0  0  0  0
 29 30  1  0  0  0  0
 29 58  1  0  0  0  0
 30 59  1  0  0  0  0
 30 31  1  0  0  0  0
 32 31  1  0  0  0  0
 32 62  1  0  0  0  0
 33 34  1  6  0  0  0
 33 39  1  0  0  0  0
 33 32  1  0  0  0  0
 35 63  1  0  0  0  0
 35 33  1  0  0  0  0
 36 35  1  0  0  0  0
 37 66  1  0  0  0  0
 37 36  1  0  0  0  0
 38 36  2  0  0  0  0
 39 42  2  0  0  0  0
 39 40  1  0  0  0  0
 40 67  1  0  0  0  0
 40 41  1  0  0  0  0
 41 70  1  0  0  0  0
 45  8  1  0  0  0  0
 46  8  1  0  0  0  0
 49 11  1  0  0  0  0
 52 12  1  0  0  0  0
 55 24  1  0  0  0  0
 56 25  1  0  0  0  0
 57 27  1  0  0  0  0
 60 30  1  0  0  0  0
 61 32  1  0  0  0  0
 64 37  1  0  0  0  0
 65 37  1  0  0  0  0
 68 41  1  0  0  0  0
 69 41  1  0  0  0  0
M  END
