84
-1 1
O        -1.406619    2.001841   -1.738912
C        -0.632310    2.920251   -1.416170
N         0.364043    2.648030   -0.393270
C         0.551446    1.487750    0.305236
C        -0.096292    0.286677    0.019920
C         1.465988    1.486232    1.411150
O         2.082090    2.661542    1.780008
C         1.268754    3.631815    2.457810
H         0.519079    4.027862    1.755402
C         0.644483    3.075794    3.733425
C         1.805329    3.191493    4.711302
O         2.442954    4.402809    4.371028
C         2.211334    4.703777    3.009672
C         1.772524    0.339343    2.102582
C         1.143222   -0.886431    1.787444
C         0.182064   -0.883883    0.748914
C        -0.454250   -2.159725    0.498987
N        -1.404446   -2.214351   -0.480115
C        -2.173479   -3.278013   -0.962166
C        -3.068745   -2.995976   -2.010717
C        -3.867742   -3.987230   -2.555973
C        -3.799431   -5.296627   -2.069349
O        -4.620617   -6.206259   -2.676208
C        -4.513429   -7.555456   -2.331113
C        -5.147905   -7.909033   -1.000717
C        -6.151873   -7.099406   -0.468253
C        -6.745723   -7.462264    0.733150
F        -7.704802   -6.685698    1.240295
C        -6.375157   -8.609649    1.424280
C        -5.370719   -9.411270    0.885569
C        -4.757262   -9.064218   -0.316731
C        -2.923545   -5.586000   -1.024412
C        -2.114036   -4.588132   -0.475643
N        -0.130568   -3.231729    1.192241
C         0.813011   -3.095261    2.153261
N         1.455758   -2.015775    2.493605
C        -0.602705    4.233148   -1.895755
C         0.295619    5.283452   -1.409010
S         2.118463    5.149623   -2.024798
C         3.025570    5.564907   -0.502490
C         4.507694    5.167779   -0.568573
H         4.914083    5.254495    0.455928
N         5.275000    6.015067   -1.442079
C         5.614249    7.285554   -1.128502
C         6.390239    8.027703   -2.201008
O         5.300677    7.818203   -0.076420
C         4.715325    3.723563   -1.065896
N         4.140050    2.762706   -0.318303
C         4.078178    1.388049   -0.760658
O         5.376055    3.503478   -2.069885
H         1.132530    3.305486   -0.344966
H        -0.804260    0.351029   -0.808780
H         0.248401    2.059245    3.611208
H        -0.183131    3.735278    4.036420
H         2.496548    2.334038    4.600114
H         1.490999    3.243029    5.764381
H         3.159762    4.704570    2.447270
H         1.764550    5.708626    2.925552
H         2.489760    0.372086    2.923562
H        -1.580927   -1.328145   -0.935615
H        -3.132517   -1.978291   -2.406012
H        -4.555383   -3.764846   -3.373682
H        -5.037243   -8.103320   -3.130680
H        -3.459535   -7.889568   -2.346497
H        -6.460316   -6.184461   -0.976083
H        -6.865727   -8.852189    2.367960
H        -5.057634  -10.312389    1.417281
H        -3.960877   -9.693051   -0.723350
H        -2.861810   -6.589097   -0.600915
H        -1.430747   -4.812566    0.339772
H         1.049676   -4.014705    2.703289
H        -1.276206    4.451969   -2.725573
H         0.424404    5.313917   -0.309895
H        -0.032632    6.282485   -1.723403
H         2.550659    5.026836    0.333798
H         2.976087    6.637170   -0.264065
H         5.610867    5.549040   -2.280657
H         6.872068    7.359572   -2.928131
H         7.145157    8.660367   -1.716768
H         5.693452    8.686508   -2.740574
H         3.537280    3.019295    0.459780
H         4.182747    0.709675    0.097418
H         4.894461    1.212071   -1.471829
H         3.120609    1.172560   -1.262830
