-1 1
 OpenBabel05232413483D

 84 87  0  0  1  0  0  0  0  0999 V2000
   -2.3907    2.7210    0.1586 O   0  0  0  0  0  0  0  0  0  0  0  0
   -1.4879    3.4917   -0.1401 C   0  0  0  0  0  0  0  0  0  0  0  0
   -0.1632    3.1918    0.0374 N   0  0  0  0  0  0  0  0  0  0  0  0
    0.2449    1.9948    0.6441 C   0  0  0  0  0  0  0  0  0  0  0  0
   -0.3051    0.7836    0.2677 C   0  0  0  0  0  0  0  0  0  0  0  0
    1.2344    1.9953    1.6801 C   0  0  0  0  0  0  0  0  0  0  0  0
    1.8555    3.0966    2.1459 O   0  0  0  0  0  0  0  0  0  0  0  0
    1.2004    4.3620    2.3251 C   0  0  1  0  0  0  0  0  0  0  0  0
    1.1530    4.8855    1.3588 H   0  0  0  0  0  0  0  0  0  0  0  0
   -0.1284    4.2197    3.0583 C   0  0  0  0  0  0  0  0  0  0  0  0
    0.3372    4.0507    4.5006 C   0  0  0  0  0  0  0  0  0  0  0  0
    1.4863    4.8604    4.6244 O   0  0  0  0  0  0  0  0  0  0  0  0
    2.0301    5.1325    3.3448 C   0  0  0  0  0  0  0  0  0  0  0  0
    1.6664    0.7975    2.2224 C   0  0  0  0  0  0  0  0  0  0  0  0
    1.1313   -0.4365    1.8114 C   0  0  0  0  0  0  0  0  0  0  0  0
    0.0963   -0.4365    0.8457 C   0  0  0  0  0  0  0  0  0  0  0  0
   -0.4517   -1.7301    0.5156 C   0  0  2  0  0  3  0  0  0  0  0  0
   -1.5166   -1.7866   -0.3377 N   0  0  0  0  0  0  0  0  0  0  0  0
   -2.2137   -2.8775   -0.8735 C   0  0  0  0  0  0  0  0  0  0  0  0
   -3.3069   -2.5887   -1.7099 C   0  0  0  0  0  0  0  0  0  0  0  0
   -4.0467   -3.6009   -2.2988 C   0  0  0  0  0  0  0  0  0  0  0  0
   -3.7171   -4.9404   -2.0692 C   0  0  0  0  0  0  0  0  0  0  0  0
   -4.4976   -5.8667   -2.6996 O   0  0  0  0  0  0  0  0  0  0  0  0
   -4.1412   -7.2171   -2.6328 C   0  0  0  0  0  0  0  0  0  0  0  0
   -4.4696   -7.8814   -1.3108 C   0  0  0  0  0  0  0  0  0  0  0  0
   -5.4747   -7.3586   -0.4963 C   0  0  0  0  0  0  0  0  0  0  0  0
   -5.7837   -8.0043    0.6935 C   0  0  0  0  0  0  0  0  0  0  0  0
   -6.7443   -7.5013    1.4705 F   0  0  0  0  0  0  0  0  0  0  0  0
   -5.1258   -9.1589    1.1004 C   0  0  0  0  0  0  0  0  0  0  0  0
   -4.1228   -9.6728    0.2811 C   0  0  0  0  0  0  0  0  0  0  0  0
   -3.7924   -9.0388   -0.9153 C   0  0  0  0  0  0  0  0  0  0  0  0
   -2.6421   -5.2389   -1.2330 C   0  0  0  0  0  0  0  0  0  0  0  0
   -1.8941   -4.2188   -0.6406 C   0  0  0  0  0  0  0  0  0  0  0  0
    0.0542   -2.8320    1.0317 N   0  0  0  0  0  0  0  0  0  0  0  0
    1.0722   -2.6978    1.9117 C   0  0  0  0  0  0  0  0  0  0  0  0
    1.6191   -1.5991    2.3449 N   0  0  0  0  0  2  0  0  0  0  0  0
   -1.8401    4.8360   -0.6883 C   0  0  0  0  0  0  0  0  0  0  0  0
   -1.0284    5.8702   -0.9167 C   0  0  0  0  0  0  0  0  0  0  0  0
    2.3183    4.9430   -1.0892 S   0  0  0  0  0  1  0  0  0  0  0  0
    3.7929    4.7991   -0.0292 C   0  0  0  0  0  0  0  0  0  0  0  0
    4.9685    4.0550   -0.6851 C   0  0  2  0  0  0  0  0  0  0  0  0
    5.7625    3.9392    0.0764 H   0  0  0  0  0  0  0  0  0  0  0  0
    5.5342    4.7706   -1.7986 N   0  0  0  0  0  0  0  0  0  0  0  0
    6.3524    5.8329   -1.6568 C   0  0  0  0  0  0  0  0  0  0  0  0
    6.7442    6.5148   -2.9571 C   0  0  0  0  0  0  0  0  0  0  0  0
    6.7384    6.2484   -0.5750 O   0  0  0  0  0  0  0  0  0  0  0  0
    4.6033    2.6524   -1.1886 C   0  0  0  0  0  0  0  0  0  0  0  0
    3.9853    1.8578   -0.2788 N   0  0  0  0  0  0  0  0  0  0  0  0
    3.4724    0.5589   -0.6385 C   0  0  0  0  0  0  0  0  0  0  0  0
    4.9055    2.2760   -2.3088 O   0  0  0  0  0  0  0  0  0  0  0  0
    0.6104    3.8113   -0.3181 H   0  0  0  0  0  0  0  0  0  0  0  0
   -1.0614    0.8213   -0.5145 H   0  0  0  0  0  0  0  0  0  0  0  0
   -0.7551    3.3948    2.6931 H   0  0  0  0  0  0  0  0  0  0  0  0
   -0.6966    5.1539    2.9306 H   0  0  0  0  0  0  0  0  0  0  0  0
    0.5813    2.9904    4.7074 H   0  0  0  0  0  0  0  0  0  0  0  0
   -0.4121    4.3760    5.2393 H   0  0  0  0  0  0  0  0  0  0  0  0
    3.0860    4.8244    3.2980 H   0  0  0  0  0  0  0  0  0  0  0  0
    1.9763    6.2153    3.1363 H   0  0  0  0  0  0  0  0  0  0  0  0
    2.4405    0.8109    2.9897 H   0  0  0  0  0  0  0  0  0  0  0  0
   -1.8928   -0.8863   -0.6003 H   0  0  0  0  0  0  0  0  0  0  0  0
   -3.5779   -1.5474   -1.9055 H   0  0  0  0  0  0  0  0  0  0  0  0
   -4.8896   -3.3711   -2.9526 H   0  0  0  0  0  0  0  0  0  0  0  0
   -4.7177   -7.7094   -3.4319 H   0  0  0  0  0  0  0  0  0  0  0  0
   -3.0709   -7.3586   -2.8708 H   0  0  0  0  0  0  0  0  0  0  0  0
   -6.0050   -6.4473   -0.7766 H   0  0  0  0  0  0  0  0  0  0  0  0
   -5.3981   -9.6292    2.0462 H   0  0  0  0  0  0  0  0  0  0  0  0
   -3.5867  -10.5739    0.5866 H   0  0  0  0  0  0  0  0  0  0  0  0
   -2.9944   -9.4430   -1.5436 H   0  0  0  0  0  0  0  0  0  0  0  0
   -2.3721   -6.2711   -1.0080 H   0  0  0  0  0  0  0  0  0  0  0  0
   -1.0609   -4.4522    0.0175 H   0  0  0  0  0  0  0  0  0  0  0  0
    1.4667   -3.6417    2.3081 H   0  0  0  0  0  0  0  0  0  0  0  0
   -2.9172    4.9155   -0.8645 H   0  0  0  0  0  0  0  0  0  0  0  0
    0.0592    5.8336   -0.7603 H   0  0  0  0  0  0  0  0  0  0  0  0
   -1.4432    6.8068   -1.3008 H   0  0  0  0  0  0  0  0  0  0  0  0
    3.5507    4.2914    0.9199 H   0  0  0  0  0  0  0  0  0  0  0  0
    4.1723    5.7941    0.2490 H   0  0  0  0  0  0  0  0  0  0  0  0
    5.2721    4.4221   -2.7130 H   0  0  0  0  0  0  0  0  0  0  0  0
    6.6860    5.8466   -3.8280 H   0  0  0  0  0  0  0  0  0  0  0  0
    7.7629    6.9108   -2.8564 H   0  0  0  0  0  0  0  0  0  0  0  0
    6.0620    7.3620   -3.1247 H   0  0  0  0  0  0  0  0  0  0  0  0
    3.6023    2.3070    0.5445 H   0  0  0  0  0  0  0  0  0  0  0  0
    3.6342   -0.1632    0.1753 H   0  0  0  0  0  0  0  0  0  0  0  0
    4.0033    0.2216   -1.5371 H   0  0  0  0  0  0  0  0  0  0  0  0
    2.3933    0.5944   -0.8660 H   0  0  0  0  0  0  0  0  0  0  0  0
  2  3  1  0  0  0  0
  2  1  2  0  0  0  0
  3  4  1  0  0  0  0
  4  6  1  0  0  0  0
  5  4  2  0  0  0  0
  5 16  1  0  0  0  0
  6  7  1  0  0  0  0
  6 14  2  0  0  0  0
  7  8  1  0  0  0  0
  8  9  1  6  0  0  0
  8 10  1  0  0  0  0
  8 13  1  0  0  0  0
 10 11  1  0  0  0  0
 11 12  1  0  0  0  0
 11 55  1  0  0  0  0
 11 56  1  0  0  0  0
 13 12  1  0  0  0  0
 14 59  1  0  0  0  0
 15 14  1  0  0  0  0
 15 36  1  0  0  0  0
 16 15  2  0  0  0  0
 17 18  1  1  0  0  0
 17 16  1  0  0  0  0
 17 34  1  0  0  0  0
 19 33  1  0  0  0  0
 19 18  1  0  0  0  0
 20 19  2  0  0  0  0
 21 22  2  0  0  0  0
 21 20  1  0  0  0  0
 22 32  1  0  0  0  0
 23 24  1  0  0  0  0
 23 22  1  0  0  0  0
 24 25  1  0  0  0  0
 25 31  2  0  0  0  0
 25 26  1  0  0  0  0
 26 27  2  0  0  0  0
 27 29  1  0  0  0  0
 27 28  1  0  0  0  0
 29 66  1  0  0  0  0
 30 67  1  0  0  0  0
 30 29  2  0  0  0  0
 31 30  1  0  0  0  0
 32 69  1  0  0  0  0
 32 33  2  0  0  0  0
 33 70  1  0  0  0  0
 34 35  2  0  0  0  0
 35 71  1  0  0  0  0
 35 36  1  0  0  0  0
 37  2  1  0  0  0  0
 38 73  1  0  0  0  0
 38 37  2  0  0  0  0
 39 40  1  0  0  0  0
 40 76  1  0  0  0  0
 40 75  1  0  0  0  0
 41 40  1  0  0  0  0
 41 42  1  1  0  0  0
 43 44  1  0  0  0  0
 43 41  1  0  0  0  0
 44 46  2  0  0  0  0
 45 79  1  0  0  0  0
 45 44  1  0  0  0  0
 47 41  1  0  0  0  0
 47 48  1  0  0  0  0
 48 81  1  0  0  0  0
 49 48  1  0  0  0  0
 49 82  1  0  0  0  0
 50 47  2  0  0  0  0
 51  3  1  0  0  0  0
 52  5  1  0  0  0  0
 53 10  1  0  0  0  0
 54 10  1  0  0  0  0
 57 13  1  0  0  0  0
 58 13  1  0  0  0  0
 60 18  1  0  0  0  0
 61 20  1  0  0  0  0
 62 21  1  0  0  0  0
 63 24  1  0  0  0  0
 64 24  1  0  0  0  0
 65 26  1  0  0  0  0
 68 31  1  0  0  0  0
 72 37  1  0  0  0  0
 74 38  1  0  0  0  0
 77 43  1  0  0  0  0
 78 45  1  0  0  0  0
 80 45  1  0  0  0  0
 83 49  1  0  0  0  0
 84 49  1  0  0  0  0
M  END
