-1 1
 OpenBabel05232413483D

 83 86  0  0  1  0  0  0  0  0999 V2000
    0.1252    0.9709    4.7117 O   0  0  0  0  0  0  0  0  0  0  0  0
   -0.0903    0.7646    3.5285 C   0  0  0  0  0  0  0  0  0  0  0  0
   -0.4378    1.8126    2.7057 N   0  0  0  0  0  0  0  0  0  0  0  0
   -0.4823    1.9342    1.3190 C   0  0  0  0  0  0  0  0  0  0  0  0
    0.2185    1.1434    0.4384 C   0  0  0  0  0  0  0  0  0  0  0  0
   -1.2890    3.0089    0.8011 C   0  0  0  0  0  0  0  0  0  0  0  0
   -1.8720    3.7378    1.7642 O   0  0  0  0  0  0  0  0  0  0  0  0
   -2.9151    4.6845    1.5592 C   0  0  1  0  0  0  0  0  0  0  0  0
   -3.3066    4.8191    2.5747 H   0  0  0  0  0  0  0  0  0  0  0  0
   -2.4320    6.0102    0.9412 C   0  0  0  0  0  0  0  0  0  0  0  0
   -3.5138    6.3100   -0.1006 C   0  0  0  0  0  0  0  0  0  0  0  0
   -3.9676    5.0511   -0.5301 O   0  0  0  0  0  0  0  0  0  0  0  0
   -4.0571    4.2402    0.6229 C   0  0  0  0  0  0  0  0  0  0  0  0
   -1.3826    3.2206   -0.5567 C   0  0  0  0  0  0  0  0  0  0  0  0
   -0.6802    2.3895   -1.4630 C   0  0  0  0  0  0  0  0  0  0  0  0
    0.1054    1.3278   -0.9601 C   0  0  0  0  0  0  0  0  0  0  0  0
    0.7385    0.5000   -1.9506 C   0  0  1  0  0  3  0  0  0  0  0  0
    1.4187   -0.6151   -1.5297 N   0  0  0  0  0  0  0  0  0  0  0  0
    2.1508   -1.5679   -2.2422 C   0  0  0  0  0  0  0  0  0  0  0  0
    2.4229   -1.4856   -3.6165 C   0  0  0  0  0  0  0  0  0  0  0  0
    3.1784   -2.4763   -4.2271 C   0  0  0  0  0  0  0  0  0  0  0  0
    3.5082   -2.3563   -5.9377 Cl  0  0  0  0  0  0  0  0  0  0  0  0
    3.6862   -3.5763   -3.5206 C   0  0  0  0  0  0  0  0  0  0  0  0
    4.4074   -4.4848   -4.2116 O   0  0  0  0  0  0  0  0  0  0  0  0
    4.9196   -5.6050   -3.5505 C   0  0  0  0  0  0  0  0  0  0  0  0
    5.6668   -6.4716   -4.5329 C   0  0  0  0  0  0  0  0  0  0  0  0
    6.2271   -7.5607   -4.0055 N   0  0  0  0  0  0  0  0  0  0  0  0
    6.8997   -8.3759   -4.8119 C   0  0  0  0  0  0  0  0  0  0  0  0
    7.0495   -8.1496   -6.1798 C   0  0  0  0  0  0  0  0  0  0  0  0
    6.4625   -7.0101   -6.7237 C   0  0  0  0  0  0  0  0  0  0  0  0
    5.7550   -6.1491   -5.8890 C   0  0  0  0  0  0  0  0  0  0  0  0
    3.4078   -3.6515   -2.1544 C   0  0  0  0  0  0  0  0  0  0  0  0
    2.6538   -2.6634   -1.5291 C   0  0  0  0  0  0  0  0  0  0  0  0
    0.6611    0.7887   -3.2328 N   0  0  0  0  0  0  0  0  0  0  0  0
   -0.0827    1.8607   -3.5839 C   0  0  0  0  0  0  0  0  0  0  0  0
   -0.7637    2.6480   -2.8011 N   0  0  0  0  0  2  0  0  0  0  0  0
   -0.0584   -0.6351    3.0098 C   0  0  0  0  0  0  0  0  0  0  0  0
   -1.0836   -1.2036    2.3704 C   0  0  0  0  0  0  0  0  0  0  0  0
   -4.6407   -0.2433    2.4483 S   0  0  0  0  0  1  0  0  0  0  0  0
   -3.9661    1.3963    2.8707 C   0  0  0  0  0  0  0  0  0  0  0  0
   -3.5879    1.5500    4.3577 C   0  0  2  0  0  0  0  0  0  0  0  0
   -2.7256    0.8932    4.5792 H   0  0  0  0  0  0  0  0  0  0  0  0
   -4.7175    1.1433    5.1542 N   0  0  0  0  0  0  0  0  0  0  0  0
   -4.7320    1.2464    6.4956 C   0  0  0  0  0  0  0  0  0  0  0  0
   -5.9346    0.6261    7.1846 C   0  0  0  0  0  0  0  0  0  0  0  0
   -3.8592    1.8203    7.1346 O   0  0  0  0  0  0  0  0  0  0  0  0
   -3.1992    2.9998    4.6543 C   0  0  0  0  0  0  0  0  0  0  0  0
   -1.9006    3.1816    5.0320 N   0  0  0  0  0  0  0  0  0  0  0  0
   -1.4416    4.4808    5.4524 C   0  0  0  0  0  0  0  0  0  0  0  0
   -3.9554    3.9396    4.4691 O   0  0  0  0  0  0  0  0  0  0  0  0
   -0.7966    2.6174    3.2251 H   0  0  0  0  0  0  0  0  0  0  0  0
    0.8625    0.3698    0.8517 H   0  0  0  0  0  0  0  0  0  0  0  0
   -1.4545    5.8639    0.4593 H   0  0  0  0  0  0  0  0  0  0  0  0
   -2.3236    6.8036    1.6929 H   0  0  0  0  0  0  0  0  0  0  0  0
   -3.1472    6.8657   -0.9751 H   0  0  0  0  0  0  0  0  0  0  0  0
   -4.3437    6.8890    0.3547 H   0  0  0  0  0  0  0  0  0  0  0  0
   -4.0068    3.1812    0.3356 H   0  0  0  0  0  0  0  0  0  0  0  0
   -5.0207    4.4068    1.1375 H   0  0  0  0  0  0  0  0  0  0  0  0
   -2.0141    4.0014   -0.9782 H   0  0  0  0  0  0  0  0  0  0  0  0
    1.2958   -0.8370   -0.5520 H   0  0  0  0  0  0  0  0  0  0  0  0
    2.0271   -0.6508   -4.1900 H   0  0  0  0  0  0  0  0  0  0  0  0
    4.1114   -6.2050   -3.0923 H   0  0  0  0  0  0  0  0  0  0  0  0
    5.6113   -5.3126   -2.7388 H   0  0  0  0  0  0  0  0  0  0  0  0
    7.3469   -9.2614   -4.3464 H   0  0  0  0  0  0  0  0  0  0  0  0
    7.6124   -8.8511   -6.7980 H   0  0  0  0  0  0  0  0  0  0  0  0
    6.5530   -6.7913   -7.7902 H   0  0  0  0  0  0  0  0  0  0  0  0
    5.2762   -5.2441   -6.2628 H   0  0  0  0  0  0  0  0  0  0  0  0
    3.7770   -4.4869   -1.5598 H   0  0  0  0  0  0  0  0  0  0  0  0
    2.4523   -2.7520   -0.4584 H   0  0  0  0  0  0  0  0  0  0  0  0
   -0.1164    2.0706   -4.6598 H   0  0  0  0  0  0  0  0  0  0  0  0
    0.7885   -1.2259    3.3740 H   0  0  0  0  0  0  0  0  0  0  0  0
   -1.0708   -2.2768    2.1590 H   0  0  0  0  0  0  0  0  0  0  0  0
   -2.0081   -0.6745    2.0933 H   0  0  0  0  0  0  0  0  0  0  0  0
   -4.6977    2.1911    2.6482 H   0  0  0  0  0  0  0  0  0  0  0  0
   -3.0638    1.6133    2.2831 H   0  0  0  0  0  0  0  0  0  0  0  0
   -5.3219    0.4868    4.6474 H   0  0  0  0  0  0  0  0  0  0  0  0
   -6.5107    1.4271    7.6704 H   0  0  0  0  0  0  0  0  0  0  0  0
   -5.5756   -0.0486    7.9743 H   0  0  0  0  0  0  0  0  0  0  0  0
   -6.5912    0.0740    6.4986 H   0  0  0  0  0  0  0  0  0  0  0  0
   -1.4071    2.3723    5.4000 H   0  0  0  0  0  0  0  0  0  0  0  0
   -1.9043    4.7932    6.4042 H   0  0  0  0  0  0  0  0  0  0  0  0
   -1.6939    5.2332    4.6921 H   0  0  0  0  0  0  0  0  0  0  0  0
   -0.3503    4.4521    5.5757 H   0  0  0  0  0  0  0  0  0  0  0  0
  2  1  2  0  0  0  0
  3 51  1  0  0  0  0
  3  2  1  0  0  0  0
  4  3  1  0  0  0  0
  5 52  1  0  0  0  0
  5  4  2  0  0  0  0
  6  4  1  0  0  0  0
  6  7  1  0  0  0  0
  8  7  1  0  0  0  0
  8  9  1  1  0  0  0
 10  8  1  0  0  0  0
 10 54  1  0  0  0  0
 11 56  1  0  0  0  0
 11 10  1  0  0  0  0
 12 11  1  0  0  0  0
 12 13  1  0  0  0  0
 13 58  1  0  0  0  0
 13  8  1  0  0  0  0
 14  6  2  0  0  0  0
 15 16  2  0  0  0  0
 15 14  1  0  0  0  0
 16  5  1  0  0  0  0
 17 18  1  6  0  0  0
 17 16  1  0  0  0  0
 18 60  1  0  0  0  0
 19 18  1  0  0  0  0
 19 33  1  0  0  0  0
 20 19  2  0  0  0  0
 21 20  1  0  0  0  0
 21 23  2  0  0  0  0
 22 21  1  0  0  0  0
 23 32  1  0  0  0  0
 24 25  1  0  0  0  0
 24 23  1  0  0  0  0
 25 62  1  0  0  0  0
 25 63  1  0  0  0  0
 26 27  1  0  0  0  0
 26 25  1  0  0  0  0
 28 64  1  0  0  0  0
 28 27  2  0  0  0  0
 29 28  1  0  0  0  0
 30 29  2  0  0  0  0
 30 31  1  0  0  0  0
 31 26  2  0  0  0  0
 32 68  1  0  0  0  0
 32 33  2  0  0  0  0
 33 69  1  0  0  0  0
 34 17  1  0  0  0  0
 35 34  2  0  0  0  0
 35 36  1  0  0  0  0
 36 15  1  0  0  0  0
 37 71  1  0  0  0  0
 37  2  1  0  0  0  0
 38 37  2  0  0  0  0
 39 40  1  0  0  0  0
 40 41  1  0  0  0  0
 41 42  1  1  0  0  0
 41 47  1  0  0  0  0
 41 43  1  0  0  0  0
 43 44  1  0  0  0  0
 44 46  2  0  0  0  0
 44 45  1  0  0  0  0
 45 77  1  0  0  0  0
 45 78  1  0  0  0  0
 47 48  1  0  0  0  0
 48 80  1  0  0  0  0
 48 49  1  0  0  0  0
 49 83  1  0  0  0  0
 49 81  1  0  0  0  0
 50 47  2  0  0  0  0
 53 10  1  0  0  0  0
 55 11  1  0  0  0  0
 57 13  1  0  0  0  0
 59 14  1  0  0  0  0
 61 20  1  0  0  0  0
 65 29  1  0  0  0  0
 66 30  1  0  0  0  0
 67 31  1  0  0  0  0
 70 35  1  0  0  0  0
 72 38  1  0  0  0  0
 73 38  1  0  0  0  0
 74 40  1  0  0  0  0
 75 40  1  0  0  0  0
 76 43  1  0  0  0  0
 79 45  1  0  0  0  0
 82 49  1  0  0  0  0
M  END
