-1 1
 OpenBabel05232414493D

 83 86  0  0  1  0  0  0  0  0999 V2000
    4.6715    5.6053   -6.8105 O   0  0  0  0  0  0  0  0  0  0  0  0
    4.3866    5.3460   -7.9851 C   0  0  0  0  0  0  0  0  0  0  0  0
    4.3392    6.4611   -8.8498 N   0  0  0  0  0  0  0  0  0  0  0  0
    4.2708    6.5780  -10.2226 C   0  0  0  0  0  0  0  0  0  0  0  0
    4.9371    5.7546  -11.1029 C   0  0  0  0  0  0  0  0  0  0  0  0
    3.4507    7.6405  -10.7451 C   0  0  0  0  0  0  0  0  0  0  0  0
    2.8693    8.3708   -9.7755 O   0  0  0  0  0  0  0  0  0  0  0  0
    1.7574    9.2361   -9.9566 C   0  0  1  0  0  0  0  0  0  0  0  0
    1.3938    9.3687   -8.9299 H   0  0  0  0  0  0  0  0  0  0  0  0
    2.1126   10.5761  -10.6278 C   0  0  0  0  0  0  0  0  0  0  0  0
    0.9603   10.7726  -11.6166 C   0  0  0  0  0  0  0  0  0  0  0  0
    0.5788    9.4746  -11.9980 O   0  0  0  0  0  0  0  0  0  0  0  0
    0.6122    8.6839  -10.8293 C   0  0  0  0  0  0  0  0  0  0  0  0
    3.3199    7.8230  -12.1034 C   0  0  0  0  0  0  0  0  0  0  0  0
    3.9973    6.9668  -13.0082 C   0  0  0  0  0  0  0  0  0  0  0  0
    4.7909    5.9109  -12.5008 C   0  0  0  0  0  0  0  0  0  0  0  0
    5.3940    5.0595  -13.4912 C   0  0  1  0  0  3  0  0  0  0  0  0
    6.1020    3.9653  -13.0621 N   0  0  0  0  0  0  0  0  0  0  0  0
    6.8004    2.9867  -13.7713 C   0  0  0  0  0  0  0  0  0  0  0  0
    6.9866    3.0038  -15.1625 C   0  0  0  0  0  0  0  0  0  0  0  0
    7.7118    1.9891  -15.7704 C   0  0  0  0  0  0  0  0  0  0  0  0
    7.9342    2.0279  -17.5028 Cl  0  0  0  0  0  0  0  0  0  0  0  0
    8.2731    0.9285  -15.0451 C   0  0  0  0  0  0  0  0  0  0  0  0
    8.9591   -0.0083  -15.7356 O   0  0  0  0  0  0  0  0  0  0  0  0
    9.5238   -1.0903  -15.0548 C   0  0  0  0  0  0  0  0  0  0  0  0
   10.2184   -1.9968  -16.0399 C   0  0  0  0  0  0  0  0  0  0  0  0
   10.8152   -3.0600  -15.4997 N   0  0  0  0  0  0  0  0  0  0  0  0
   11.4457   -3.9064  -16.3081 C   0  0  0  0  0  0  0  0  0  0  0  0
   11.5150   -3.7388  -17.6908 C   0  0  0  0  0  0  0  0  0  0  0  0
   10.8901   -2.6262  -18.2481 C   0  0  0  0  0  0  0  0  0  0  0  0
   10.2263   -1.7330  -17.4116 C   0  0  0  0  0  0  0  0  0  0  0  0
    8.0807    0.9181  -13.6621 C   0  0  0  0  0  0  0  0  0  0  0  0
    7.3571    1.9300  -13.0390 C   0  0  0  0  0  0  0  0  0  0  0  0
    5.2675    5.3087  -14.7781 N   0  0  0  0  0  0  0  0  0  0  0  0
    4.5128    6.3715  -15.1338 C   0  0  0  0  0  0  0  0  0  0  0  0
    3.8683    7.1878  -14.3496 N   0  0  0  0  0  2  0  0  0  0  0  0
    4.0430    4.0161   -8.4234 C   0  0  0  0  0  3  0  0  0  0  0  0
    3.1845    3.6535   -9.4499 C   0  0  0  0  0  3  0  0  0  0  0  0
    0.8017    3.9268   -9.0286 S   0  0  0  0  0  1  0  0  0  0  0  0
    0.9792    5.6755   -8.5738 C   0  0  0  0  0  0  0  0  0  0  0  0
    1.1735    5.9227   -7.0699 C   0  0  2  0  0  0  0  0  0  0  0  0
    2.0524    5.3577   -6.7177 H   0  0  0  0  0  0  0  0  0  0  0  0
   -0.0109    5.4685   -6.3789 N   0  0  0  0  0  0  0  0  0  0  0  0
   -0.2178    5.6694   -5.0590 C   0  0  0  0  0  0  0  0  0  0  0  0
   -1.4578    5.0020   -4.4869 C   0  0  0  0  0  0  0  0  0  0  0  0
    0.5089    6.3593   -4.3639 O   0  0  0  0  0  0  0  0  0  0  0  0
    1.4216    7.4188   -6.8553 C   0  0  0  0  0  0  0  0  0  0  0  0
    2.6735    7.7287   -6.4498 N   0  0  0  0  0  0  0  0  0  0  0  0
    3.0727    9.0964   -6.2498 C   0  0  0  0  0  0  0  0  0  0  0  0
    0.5845    8.2693   -7.1271 O   0  0  0  0  0  0  0  0  0  0  0  0
    4.0825    7.3037   -8.3461 H   0  0  0  0  0  0  0  0  0  0  0  0
    5.5436    4.9614  -10.6634 H   0  0  0  0  0  0  0  0  0  0  0  0
    3.0719   10.4851  -11.1571 H   0  0  0  0  0  0  0  0  0  0  0  0
    2.2030   11.3945   -9.9008 H   0  0  0  0  0  0  0  0  0  0  0  0
    1.2398   11.3331  -12.5197 H   0  0  0  0  0  0  0  0  0  0  0  0
    0.1143   11.3007  -11.1295 H   0  0  0  0  0  0  0  0  0  0  0  0
    0.7436    7.6287  -11.1048 H   0  0  0  0  0  0  0  0  0  0  0  0
   -0.3355    8.7779  -10.2685 H   0  0  0  0  0  0  0  0  0  0  0  0
    2.6666    8.5840  -12.5279 H   0  0  0  0  0  0  0  0  0  0  0  0
    6.0559    3.8001  -12.0666 H   0  0  0  0  0  0  0  0  0  0  0  0
    6.5506    3.8095  -15.7486 H   0  0  0  0  0  0  0  0  0  0  0  0
    8.7530   -1.6746  -14.5184 H   0  0  0  0  0  0  0  0  0  0  0  0
   10.2612   -0.7533  -14.3028 H   0  0  0  0  0  0  0  0  0  0  0  0
   11.9248   -4.7691  -15.8316 H   0  0  0  0  0  0  0  0  0  0  0  0
   12.0460   -4.4641  -18.3099 H   0  0  0  0  0  0  0  0  0  0  0  0
   10.9176   -2.4532  -19.3265 H   0  0  0  0  0  0  0  0  0  0  0  0
    9.7208   -0.8468  -17.7953 H   0  0  0  0  0  0  0  0  0  0  0  0
    8.4941    0.1153  -13.0517 H   0  0  0  0  0  0  0  0  0  0  0  0
    7.2221    1.8920  -11.9550 H   0  0  0  0  0  0  0  0  0  0  0  0
    4.4366    6.5470  -16.2137 H   0  0  0  0  0  0  0  0  0  0  0  0
    4.2436    3.2809   -7.6395 H   0  0  0  0  0  0  0  0  0  0  0  0
    3.0332    2.5894   -9.6380 H   0  0  0  0  0  0  0  0  0  0  0  0
    3.0237    4.2865  -10.3217 H   0  0  0  0  0  0  0  0  0  0  0  0
    0.0882    6.2446   -8.8846 H   0  0  0  0  0  0  0  0  0  0  0  0
    1.8368    6.1106   -9.1021 H   0  0  0  0  0  0  0  0  0  0  0  0
   -0.5196    4.7391   -6.8716 H   0  0  0  0  0  0  0  0  0  0  0  0
   -2.1611    5.7870   -4.1731 H   0  0  0  0  0  0  0  0  0  0  0  0
   -1.1681    4.4391   -3.5890 H   0  0  0  0  0  0  0  0  0  0  0  0
   -1.9633    4.3298   -5.1939 H   0  0  0  0  0  0  0  0  0  0  0  0
    3.3335    6.9782   -6.2376 H   0  0  0  0  0  0  0  0  0  0  0  0
    2.3121    9.6406   -5.6696 H   0  0  0  0  0  0  0  0  0  0  0  0
    3.2104    9.6292   -7.2075 H   0  0  0  0  0  0  0  0  0  0  0  0
    4.0251    9.1157   -5.7040 H   0  0  0  0  0  0  0  0  0  0  0  0
  2  1  2  0  0  0  0
  3 51  1  0  0  0  0
  3  2  1  0  0  0  0
  4  3  1  0  0  0  0
  5 52  1  0  0  0  0
  5  4  2  0  0  0  0
  6  4  1  0  0  0  0
  6  7  1  0  0  0  0
  8  7  1  0  0  0  0
  8  9  1  1  0  0  0
 10  8  1  0  0  0  0
 10 54  1  0  0  0  0
 11 56  1  0  0  0  0
 11 10  1  0  0  0  0
 12 11  1  0  0  0  0
 12 13  1  0  0  0  0
 13 58  1  0  0  0  0
 13  8  1  0  0  0  0
 14  6  2  0  0  0  0
 15 16  2  0  0  0  0
 15 14  1  0  0  0  0
 16  5  1  0  0  0  0
 17 18  1  6  0  0  0
 17 16  1  0  0  0  0
 18 60  1  0  0  0  0
 19 18  1  0  0  0  0
 19 33  1  0  0  0  0
 20 19  2  0  0  0  0
 21 20  1  0  0  0  0
 21 23  2  0  0  0  0
 22 21  1  0  0  0  0
 23 32  1  0  0  0  0
 24 25  1  0  0  0  0
 24 23  1  0  0  0  0
 25 62  1  0  0  0  0
 25 63  1  0  0  0  0
 26 27  1  0  0  0  0
 26 25  1  0  0  0  0
 28 64  1  0  0  0  0
 28 27  2  0  0  0  0
 29 28  1  0  0  0  0
 30 29  2  0  0  0  0
 30 31  1  0  0  0  0
 31 26  2  0  0  0  0
 32 68  1  0  0  0  0
 32 33  2  0  0  0  0
 33 69  1  0  0  0  0
 34 17  1  0  0  0  0
 35 34  2  0  0  0  0
 35 36  1  0  0  0  0
 36 15  1  0  0  0  0
 37  2  1  0  0  0  0
 37 71  1  0  0  0  0
 38 37  1  0  0  0  0
 39 40  1  0  0  0  0
 40 41  1  0  0  0  0
 41 47  1  0  0  0  0
 41 42  1  1  0  0  0
 41 43  1  0  0  0  0
 43 44  1  0  0  0  0
 44 45  1  0  0  0  0
 44 46  2  0  0  0  0
 45 77  1  0  0  0  0
 45 78  1  0  0  0  0
 47 48  1  0  0  0  0
 48 49  1  0  0  0  0
 48 80  1  0  0  0  0
 49 83  1  0  0  0  0
 49 81  1  0  0  0  0
 50 47  2  0  0  0  0
 53 10  1  0  0  0  0
 55 11  1  0  0  0  0
 57 13  1  0  0  0  0
 59 14  1  0  0  0  0
 61 20  1  0  0  0  0
 65 29  1  0  0  0  0
 66 30  1  0  0  0  0
 67 31  1  0  0  0  0
 70 35  1  0  0  0  0
 72 38  1  0  0  0  0
 73 38  1  0  0  0  0
 74 40  1  0  0  0  0
 75 40  1  0  0  0  0
 76 43  1  0  0  0  0
 79 45  1  0  0  0  0
 82 49  1  0  0  0  0
M  END
