72
-1 1
C        19.454977   12.182293   19.256409
C        19.360835   12.455755   18.080402
C        19.247784   12.788897   16.685120
C        19.166311   11.758038   15.736806
C        19.050337   12.065331   14.373728
N        18.930209   11.118301   13.355970
C        19.043371    9.749712   13.395886
N        19.279357    9.135367   14.536613
C        19.359738    7.786737   14.523792
N        19.212475    6.991739   13.502837
C        18.899382    9.005788   12.167120
C        18.971737    7.598843   12.303269
C        18.765806    6.809337   11.146276
C        18.517243    7.393293    9.931630
O        18.220604    6.622636    8.840047
C        16.863821    6.216609    8.738416
H        16.357702    6.410967    9.696002
C        16.075196    6.900394    7.626501
C        14.946233    5.900278    7.440010
O        15.508526    4.616602    7.685127
C        16.752708    4.747467    8.336070
C        18.506760    8.817784    9.765858
N        18.260254    9.306132    8.500309
C        17.606924   10.557235    8.224320
O        16.570242   10.508373    7.560357
C        18.264342   11.709969    8.736008
C        17.581195   12.910367    8.986735
S        16.788645   13.040489   11.038569
C        15.524308   11.737143   10.892954
C        15.357717   10.787392   12.098242
H        16.325419   10.288353   12.276254
N        14.348965    9.789001   11.825035
C        14.536968    8.709661   11.040203
C        13.351331    7.769022   10.926852
O        15.574197    8.491039   10.434593
C        14.907843   11.461366   13.409927
N        15.785605   12.326174   13.946915
C        15.527316   13.057241   15.160836
O        13.832333   11.178655   13.925303
C        18.690046    9.592566   10.902027
C        19.026267   13.419038   13.986356
C        19.098281   14.431995   14.933963
C        19.210638   14.133114   16.288996
H        19.536927   11.931094   20.296509
H        19.192460   10.715903   16.042564
H        18.645268   11.515644   12.461888
H        19.564639    7.324272   15.497327
H        18.771725    5.722768   11.241590
H        16.701648    6.948814    6.719640
H        15.750734    7.916982    7.889192
H        14.512423    5.914190    6.428097
H        14.129264    6.094144    8.161258
H        17.588873    4.496706    7.655532
H        16.797069    4.064170    9.200083
H        17.957173    8.582034    7.860460
H        19.286678   11.593046    9.100210
H        16.623787   13.045545    8.474106
H        18.158637   13.835435    9.075719
H        15.804851   11.100524   10.039544
H        14.545974   12.190503   10.669746
H        13.526285    9.881406   12.416481
H        12.980943    7.803549    9.891781
H        12.526293    8.014026   11.609650
H        13.695662    6.744093   11.122608
H        16.555741   12.628024   13.352260
H        14.788109   12.503965   15.753603
H        15.126420   14.064631   14.957858
H        16.457830   13.157841   15.738193
H        18.605321   10.671449   10.791985
H        18.925909   13.667220   12.927449
H        19.065765   15.472594   14.604135
H        19.269533   14.923904   17.038363
