-1 1
 OpenBabel05232414493D

 72 75  0  0  1  0  0  0  0  0999 V2000
   19.4550   12.1823   19.2564 C   0  0  0  0  0  0  0  0  0  0  0  0
   19.3608   12.4558   18.0804 C   0  0  0  0  0  0  0  0  0  0  0  0
   19.2478   12.7889   16.6851 C   0  0  0  0  0  0  0  0  0  0  0  0
   19.1663   11.7580   15.7368 C   0  0  0  0  0  0  0  0  0  0  0  0
   19.0503   12.0653   14.3737 C   0  0  0  0  0  0  0  0  0  0  0  0
   18.9302   11.1183   13.3560 N   0  0  0  0  0  0  0  0  0  0  0  0
   19.0434    9.7497   13.3959 C   0  0  2  0  0  3  0  0  0  0  0  0
   19.2794    9.1354   14.5366 N   0  0  0  0  0  0  0  0  0  0  0  0
   19.3597    7.7867   14.5238 C   0  0  0  0  0  0  0  0  0  0  0  0
   19.2125    6.9917   13.5028 N   0  0  0  0  0  2  0  0  0  0  0  0
   18.8994    9.0058   12.1671 C   0  0  0  0  0  0  0  0  0  0  0  0
   18.9717    7.5988   12.3033 C   0  0  0  0  0  0  0  0  0  0  0  0
   18.7658    6.8093   11.1463 C   0  0  0  0  0  0  0  0  0  0  0  0
   18.5172    7.3933    9.9316 C   0  0  0  0  0  0  0  0  0  0  0  0
   18.2206    6.6226    8.8400 O   0  0  0  0  0  0  0  0  0  0  0  0
   16.8638    6.2166    8.7384 C   0  0  1  0  0  0  0  0  0  0  0  0
   16.3577    6.4110    9.6960 H   0  0  0  0  0  0  0  0  0  0  0  0
   16.0752    6.9004    7.6265 C   0  0  0  0  0  0  0  0  0  0  0  0
   14.9462    5.9003    7.4400 C   0  0  0  0  0  0  0  0  0  0  0  0
   15.5085    4.6166    7.6851 O   0  0  0  0  0  0  0  0  0  0  0  0
   16.7527    4.7475    8.3361 C   0  0  0  0  0  0  0  0  0  0  0  0
   18.5068    8.8178    9.7659 C   0  0  0  0  0  0  0  0  0  0  0  0
   18.2603    9.3061    8.5003 N   0  0  0  0  0  0  0  0  0  0  0  0
   17.6069   10.5572    8.2243 C   0  0  0  0  0  0  0  0  0  0  0  0
   16.5702   10.5084    7.5604 O   0  0  0  0  0  0  0  0  0  0  0  0
   18.2643   11.7100    8.7360 C   0  0  0  0  0  3  0  0  0  0  0  0
   17.5812   12.9104    8.9867 C   0  0  0  0  0  0  0  0  0  0  0  0
   16.7886   13.0405   11.0386 S   0  0  0  0  0  0  0  0  0  0  0  0
   15.5243   11.7371   10.8930 C   0  0  0  0  0  0  0  0  0  0  0  0
   15.3577   10.7874   12.0982 C   0  0  2  0  0  0  0  0  0  0  0  0
   16.3254   10.2884   12.2763 H   0  0  0  0  0  0  0  0  0  0  0  0
   14.3490    9.7890   11.8250 N   0  0  0  0  0  0  0  0  0  0  0  0
   14.5370    8.7097   11.0402 C   0  0  0  0  0  0  0  0  0  0  0  0
   13.3513    7.7690   10.9269 C   0  0  0  0  0  0  0  0  0  0  0  0
   15.5742    8.4910   10.4346 O   0  0  0  0  0  0  0  0  0  0  0  0
   14.9078   11.4614   13.4099 C   0  0  0  0  0  0  0  0  0  0  0  0
   15.7856   12.3262   13.9469 N   0  0  0  0  0  0  0  0  0  0  0  0
   15.5273   13.0572   15.1608 C   0  0  0  0  0  0  0  0  0  0  0  0
   13.8323   11.1787   13.9253 O   0  0  0  0  0  0  0  0  0  0  0  0
   18.6900    9.5926   10.9020 C   0  0  0  0  0  0  0  0  0  0  0  0
   19.0263   13.4190   13.9864 C   0  0  0  0  0  0  0  0  0  0  0  0
   19.0983   14.4320   14.9340 C   0  0  0  0  0  0  0  0  0  0  0  0
   19.2106   14.1331   16.2890 C   0  0  0  0  0  0  0  0  0  0  0  0
   19.5369   11.9311   20.2965 H   0  0  0  0  0  0  0  0  0  0  0  0
   19.1925   10.7159   16.0426 H   0  0  0  0  0  0  0  0  0  0  0  0
   18.6453   11.5156   12.4619 H   0  0  0  0  0  0  0  0  0  0  0  0
   19.5646    7.3243   15.4973 H   0  0  0  0  0  0  0  0  0  0  0  0
   18.7717    5.7228   11.2416 H   0  0  0  0  0  0  0  0  0  0  0  0
   16.7016    6.9488    6.7196 H   0  0  0  0  0  0  0  0  0  0  0  0
   15.7507    7.9170    7.8892 H   0  0  0  0  0  0  0  0  0  0  0  0
   14.5124    5.9142    6.4281 H   0  0  0  0  0  0  0  0  0  0  0  0
   14.1293    6.0941    8.1613 H   0  0  0  0  0  0  0  0  0  0  0  0
   17.5889    4.4967    7.6555 H   0  0  0  0  0  0  0  0  0  0  0  0
   16.7971    4.0642    9.2001 H   0  0  0  0  0  0  0  0  0  0  0  0
   17.9572    8.5820    7.8605 H   0  0  0  0  0  0  0  0  0  0  0  0
   19.2867   11.5930    9.1002 H   0  0  0  0  0  0  0  0  0  0  0  0
   16.6238   13.0455    8.4741 H   0  0  0  0  0  0  0  0  0  0  0  0
   18.1586   13.8354    9.0757 H   0  0  0  0  0  0  0  0  0  0  0  0
   15.8049   11.1005   10.0395 H   0  0  0  0  0  0  0  0  0  0  0  0
   14.5460   12.1905   10.6697 H   0  0  0  0  0  0  0  0  0  0  0  0
   13.5263    9.8814   12.4165 H   0  0  0  0  0  0  0  0  0  0  0  0
   12.9809    7.8035    9.8918 H   0  0  0  0  0  0  0  0  0  0  0  0
   12.5263    8.0140   11.6097 H   0  0  0  0  0  0  0  0  0  0  0  0
   13.6957    6.7441   11.1226 H   0  0  0  0  0  0  0  0  0  0  0  0
   16.5557   12.6280   13.3523 H   0  0  0  0  0  0  0  0  0  0  0  0
   14.7881   12.5040   15.7536 H   0  0  0  0  0  0  0  0  0  0  0  0
   15.1264   14.0646   14.9579 H   0  0  0  0  0  0  0  0  0  0  0  0
   16.4578   13.1578   15.7382 H   0  0  0  0  0  0  0  0  0  0  0  0
   18.6053   10.6714   10.7920 H   0  0  0  0  0  0  0  0  0  0  0  0
   18.9259   13.6672   12.9274 H   0  0  0  0  0  0  0  0  0  0  0  0
   19.0658   15.4726   14.6041 H   0  0  0  0  0  0  0  0  0  0  0  0
   19.2695   14.9239   17.0384 H   0  0  0  0  0  0  0  0  0  0  0  0
  1 44  1  0  0  0  0
  2  1  3  0  0  0  0
  3  2  1  0  0  0  0
  4 45  1  0  0  0  0
  4  3  2  0  0  0  0
  5  4  1  0  0  0  0
  6  5  1  0  0  0  0
  7  6  1  6  0  0  0
  7  8  1  0  0  0  0
  9  8  2  0  0  0  0
  9 47  1  0  0  0  0
 10  9  1  0  0  0  0
 11 12  1  0  0  0  0
 11  7  1  0  0  0  0
 12 10  1  0  0  0  0
 13 48  1  0  0  0  0
 13 12  2  0  0  0  0
 14 13  1  0  0  0  0
 15 14  1  0  0  0  0
 16 15  1  0  0  0  0
 16 17  1  1  0  0  0
 18 50  1  0  0  0  0
 18 16  1  0  0  0  0
 19 18  1  0  0  0  0
 19 20  1  0  0  0  0
 19 52  1  0  0  0  0
 20 21  1  0  0  0  0
 21 16  1  0  0  0  0
 21 54  1  0  0  0  0
 22 14  2  0  0  0  0
 22 40  1  0  0  0  0
 23 22  1  0  0  0  0
 24 23  1  0  0  0  0
 24 26  1  0  0  0  0
 25 24  2  0  0  0  0
 26 27  1  0  0  0  0
 26 56  1  0  0  0  0
 27 58  1  0  0  0  0
 27 28  1  0  0  0  0
 29 28  1  0  0  0  0
 29 30  1  0  0  0  0
 30 31  1  1  0  0  0
 30 36  1  0  0  0  0
 32 30  1  0  0  0  0
 32 61  1  0  0  0  0
 33 32  1  0  0  0  0
 34 33  1  0  0  0  0
 34 64  1  0  0  0  0
 34 63  1  0  0  0  0
 35 33  2  0  0  0  0
 36 39  2  0  0  0  0
 36 37  1  0  0  0  0
 37 38  1  0  0  0  0
 38 68  1  0  0  0  0
 38 66  1  0  0  0  0
 40 11  2  0  0  0  0
 41  5  2  0  0  0  0
 41 42  1  0  0  0  0
 42 43  2  0  0  0  0
 43  3  1  0  0  0  0
 43 72  1  0  0  0  0
 46  6  1  0  0  0  0
 49 18  1  0  0  0  0
 51 19  1  0  0  0  0
 53 21  1  0  0  0  0
 55 23  1  0  0  0  0
 57 27  1  0  0  0  0
 59 29  1  0  0  0  0
 60 29  1  0  0  0  0
 62 34  1  0  0  0  0
 65 37  1  0  0  0  0
 67 38  1  0  0  0  0
 69 40  1  0  0  0  0
 70 41  1  0  0  0  0
 71 42  1  0  0  0  0
M  END
