72
-1 1
C         2.544589    2.331314    7.384111
C         2.336572    2.586298    6.218717
C         2.087977    2.897566    4.836058
C         2.009516    1.855068    3.899865
C         1.763166    2.144596    2.550793
N         1.616958    1.178106    1.552913
C         1.753735   -0.196649    1.599725
N         1.969360   -0.805254    2.744825
C         2.057817   -2.155711    2.728555
N         1.936202   -2.945537    1.700038
C         1.633575   -0.931970    0.368834
C         1.712759   -2.339585    0.497750
C         1.529261   -3.120614   -0.669604
C         1.286467   -2.528859   -1.882092
O         0.994542   -3.294625   -2.977896
C        -0.375119   -3.658737   -3.094783
H        -0.882854   -3.460248   -2.138546
C        -1.132562   -2.945526   -4.210635
C        -2.287547   -3.911744   -4.413398
O        -1.763277   -5.213014   -4.175605
C        -0.523214   -5.121230   -3.509648
C         1.269173   -1.100847   -2.039683
N         1.047559   -0.574571   -3.289132
C         0.239820    0.630800   -3.469816
O        -0.888816    0.451093   -3.976881
C         0.818673    1.806643   -3.011268
C         0.017515    2.999198   -2.711561
S        -0.654584    3.049713   -0.925274
C        -1.901803    1.726358   -1.079424
C        -2.049972    0.803227    0.141695
H        -1.103020    0.266948    0.308771
N        -3.083761   -0.173175   -0.115798
C        -2.850002   -1.390893   -0.656879
C        -4.088682   -2.203238   -0.980757
O        -1.730505   -1.807720   -0.898114
C        -2.488800    1.582330    1.383821
N        -1.492731    1.970272    2.203373
C        -1.694998    2.840736    3.334558
O        -3.670790    1.828297    1.578440
C         1.438858   -0.337405   -0.891662
C         1.601061    3.487768    2.161055
C         1.676501    4.510419    3.097109
C         1.919128    4.231183    4.439340
H         2.728881    2.096764    8.415020
H         2.126916    0.817986    4.203587
H         1.408304    1.559322    0.634054
H         2.245950   -2.620792    3.703916
H         1.532939   -4.207890   -0.583354
H        -0.495182   -2.917672   -5.111281
H        -1.422439   -1.912616   -3.962618
H        -2.713453   -3.877263   -5.428302
H        -3.104838   -3.702811   -3.696590
H         0.312891   -5.391211   -4.183162
H        -0.508158   -5.811376   -2.650012
H         0.797138   -1.288319   -3.963151
H         1.860992    1.788465   -2.687585
H        -0.878164    3.077559   -3.344213
H         0.572918    3.947530   -2.770110
H        -1.623518    1.105670   -1.943582
H        -2.881530    2.184328   -1.286088
H        -4.022146    0.133159    0.117418
H        -4.295624   -2.099007   -2.056736
H        -4.977936   -1.882482   -0.420084
H        -3.882675   -3.261651   -0.776547
H        -0.545341    1.732101    1.937767
H        -2.708261    2.683698    3.726909
H        -1.588525    3.902052    3.055298
H        -0.955799    2.611453    4.114790
H         1.367146    0.741019   -1.012488
H         1.382472    3.716248    1.114984
H         1.537089    5.542857    2.769749
H         1.976738    5.030550    5.179602
