-1 1
 OpenBabel05232413483D

 73 75  0  0  1  0  0  0  0  0999 V2000
   -2.1533    0.2261    1.6327 O   0  0  0  0  0  0  0  0  0  0  0  0
   -1.3614   -0.5988    2.0583 C   0  0  0  0  0  0  0  0  0  0  0  0
   -0.5387   -1.3528    1.2552 N   0  0  0  0  0  0  0  0  0  0  0  0
   -0.3904   -1.2207   -0.1251 C   0  0  0  0  0  0  0  0  0  0  0  0
   -0.7930   -0.0927   -0.8163 C   0  0  0  0  0  0  0  0  0  0  0  0
    0.1706   -2.3168   -0.8639 C   0  0  0  0  0  0  0  0  0  0  0  0
    0.4558   -3.4761   -0.2363 O   0  0  0  0  0  0  0  0  0  0  0  0
    1.7231   -3.6628    0.4359 C   0  0  1  0  0  0  0  0  0  0  0  0
    1.8094   -2.9818    1.2978 H   0  0  0  0  0  0  0  0  0  0  0  0
    1.7709   -5.1311    0.8155 C   0  0  0  0  0  0  0  0  0  0  0  0
    2.3303   -5.7617   -0.4521 C   0  0  0  0  0  0  0  0  0  0  0  0
    3.2712   -4.8262   -0.9431 O   0  0  0  0  0  0  0  0  0  0  0  0
    2.9294   -3.5242   -0.4894 C   0  0  0  0  0  0  0  0  0  0  0  0
    0.3206   -2.2284   -2.2300 C   0  0  0  0  0  0  0  0  0  0  0  0
   -0.0747   -1.0746   -2.9426 C   0  0  0  0  0  0  0  0  0  0  0  0
   -0.6439   -0.0015   -2.2176 C   0  0  0  0  0  0  0  0  0  0  0  0
   -1.0488    1.1308   -3.0103 C   0  0  2  0  0  3  0  0  0  0  0  0
   -1.6307    2.1988   -2.3701 N   0  0  0  0  0  0  0  0  0  0  0  0
   -2.1260    3.4000   -2.8654 C   0  0  0  0  0  0  0  0  0  0  0  0
   -2.7109    4.2795   -1.9389 C   0  0  0  0  0  0  0  0  0  0  0  0
   -3.2366    5.5076   -2.3258 C   0  0  0  0  0  0  0  0  0  0  0  0
   -3.8540    6.4053   -1.2755 C   0  0  0  0  0  0  0  0  0  0  0  0
   -3.8026    5.8499   -0.0612 F   0  0  0  0  0  0  0  0  0  0  0  0
   -3.2243    7.5816   -1.1928 F   0  0  0  0  0  0  0  0  0  0  0  0
   -5.1416    6.6594   -1.5326 F   0  0  0  0  0  0  0  0  0  0  0  0
   -3.1802    5.8758   -3.6760 C   0  0  0  0  0  0  0  0  0  0  0  0
   -3.8195    7.4015   -4.2385 Cl  0  0  0  0  0  0  0  0  0  0  0  0
   -2.6039    5.0137   -4.6012 C   0  0  0  0  0  0  0  0  0  0  0  0
   -2.0789    3.7859   -4.2130 C   0  0  0  0  0  0  0  0  0  0  0  0
   -0.8754    1.1513   -4.3138 N   0  0  0  0  0  0  0  0  0  0  0  0
   -0.3105    0.0631   -4.8861 C   0  0  0  0  0  0  0  0  0  0  0  0
    0.0873   -1.0274   -4.2984 N   0  0  0  0  0  2  0  0  0  0  0  0
   -1.2384   -0.8457    3.5233 C   0  0  0  0  0  0  0  0  0  0  0  0
   -0.0776   -1.0624    4.1437 C   0  0  0  0  0  0  0  0  0  0  0  0
    3.1388   -0.9615    2.5226 S   0  0  0  0  0  1  0  0  0  0  0  0
    3.5842   -1.6178    4.1655 C   0  0  0  0  0  0  0  0  0  0  0  0
    3.5140   -3.1643    4.2785 C   0  0  2  0  0  0  0  0  0  0  0  0
    4.0742   -3.4912    5.1724 H   0  0  0  0  0  0  0  0  0  0  0  0
    4.1374   -3.7530    3.1318 N   0  0  0  0  0  0  0  0  0  0  0  0
    4.7045   -4.9801    3.1477 C   0  0  0  0  0  0  0  0  0  0  0  0
    5.3972   -5.3815    1.8570 C   0  0  0  0  0  0  0  0  0  0  0  0
    4.6924   -5.7011    4.1346 O   0  0  0  0  0  0  0  0  0  0  0  0
    2.0676   -3.6363    4.4640 C   0  0  0  0  0  0  0  0  0  0  0  0
    1.6361   -3.5735    5.7581 N   0  0  0  0  0  0  0  0  0  0  0  0
    0.3059   -3.9549    6.1517 C   0  0  0  0  0  0  0  0  0  0  0  0
    1.3375   -3.9875    3.5563 O   0  0  0  0  0  0  0  0  0  0  0  0
    0.0207   -2.0673    1.7124 H   0  0  0  0  0  0  0  0  0  0  0  0
   -1.2578    0.6961   -0.2301 H   0  0  0  0  0  0  0  0  0  0  0  0
    0.7818   -5.4968    1.1164 H   0  0  0  0  0  0  0  0  0  0  0  0
    2.4478   -5.2538    1.6689 H   0  0  0  0  0  0  0  0  0  0  0  0
    1.5277   -5.9318   -1.1960 H   0  0  0  0  0  0  0  0  0  0  0  0
    2.8486   -6.7172   -0.2776 H   0  0  0  0  0  0  0  0  0  0  0  0
    2.7291   -2.8563   -1.3424 H   0  0  0  0  0  0  0  0  0  0  0  0
    3.7734   -3.0881    0.0710 H   0  0  0  0  0  0  0  0  0  0  0  0
    0.7307   -3.0749   -2.7809 H   0  0  0  0  0  0  0  0  0  0  0  0
   -1.7330    2.0831   -1.3711 H   0  0  0  0  0  0  0  0  0  0  0  0
   -2.7590    3.9981   -0.8855 H   0  0  0  0  0  0  0  0  0  0  0  0
   -2.5647    5.3098   -5.6503 H   0  0  0  0  0  0  0  0  0  0  0  0
   -1.6302    3.1103   -4.9370 H   0  0  0  0  0  0  0  0  0  0  0  0
   -0.1838    0.1237   -5.9738 H   0  0  0  0  0  0  0  0  0  0  0  0
   -2.1763   -0.7063    4.0694 H   0  0  0  0  0  0  0  0  0  0  0  0
    0.8772   -1.1122    3.5924 H   0  0  0  0  0  0  0  0  0  0  0  0
   -0.0414   -1.1522    5.2327 H   0  0  0  0  0  0  0  0  0  0  0  0
    2.9368   -1.1974    4.9550 H   0  0  0  0  0  0  0  0  0  0  0  0
    4.6166   -1.3259    4.4187 H   0  0  0  0  0  0  0  0  0  0  0  0
    4.1228   -3.1417    2.3094 H   0  0  0  0  0  0  0  0  0  0  0  0
    6.3501   -4.8367    1.7703 H   0  0  0  0  0  0  0  0  0  0  0  0
    4.7999   -5.1520    0.9614 H   0  0  0  0  0  0  0  0  0  0  0  0
    5.6086   -6.4569    1.8939 H   0  0  0  0  0  0  0  0  0  0  0  0
    2.3164   -3.3572    6.4728 H   0  0  0  0  0  0  0  0  0  0  0  0
    0.2877   -4.9304    6.6675 H   0  0  0  0  0  0  0  0  0  0  0  0
   -0.2988   -4.0344    5.2392 H   0  0  0  0  0  0  0  0  0  0  0  0
   -0.1470   -3.1998    6.8138 H   0  0  0  0  0  0  0  0  0  0  0  0
  1  2  2  0  0  0  0
  2 33  1  0  0  0  0
  3 47  1  0  0  0  0
  3  2  1  0  0  0  0
  4  3  1  0  0  0  0
  5 48  1  0  0  0  0
  5  4  1  0  0  0  0
  6  7  1  0  0  0  0
  6  4  2  0  0  0  0
  7  8  1  0  0  0  0
  8 10  1  0  0  0  0
  8  9  1  1  0  0  0
 10 49  1  0  0  0  0
 10 50  1  0  0  0  0
 11 52  1  0  0  0  0
 11 10  1  0  0  0  0
 12 13  1  0  0  0  0
 12 11  1  0  0  0  0
 13 54  1  0  0  0  0
 13  8  1  0  0  0  0
 14  6  1  0  0  0  0
 15 14  2  0  0  0  0
 15 16  1  0  0  0  0
 16  5  2  0  0  0  0
 17 18  1  6  0  0  0
 17 16  1  0  0  0  0
 18 56  1  0  0  0  0
 19 18  1  0  0  0  0
 19 20  1  0  0  0  0
 20 57  1  0  0  0  0
 21 20  2  0  0  0  0
 21 22  1  0  0  0  0
 22 24  1  0  0  0  0
 22 23  1  0  0  0  0
 25 22  1  0  0  0  0
 26 21  1  0  0  0  0
 27 26  1  0  0  0  0
 28 29  1  0  0  0  0
 28 26  2  0  0  0  0
 29 19  2  0  0  0  0
 30 17  1  0  0  0  0
 31 30  2  0  0  0  0
 31 32  1  0  0  0  0
 32 15  1  0  0  0  0
 33 61  1  0  0  0  0
 33 34  2  0  0  0  0
 34 63  1  0  0  0  0
 35 36  1  0  0  0  0
 36 37  1  0  0  0  0
 36 65  1  0  0  0  0
 36 64  1  0  0  0  0
 37 43  1  0  0  0  0
 37 38  1  1  0  0  0
 39 40  1  0  0  0  0
 39 37  1  0  0  0  0
 40 42  2  0  0  0  0
 41 69  1  0  0  0  0
 41 40  1  0  0  0  0
 43 44  1  0  0  0  0
 44 45  1  0  0  0  0
 44 70  1  0  0  0  0
 45 71  1  0  0  0  0
 45 73  1  0  0  0  0
 46 43  2  0  0  0  0
 51 11  1  0  0  0  0
 53 13  1  0  0  0  0
 55 14  1  0  0  0  0
 58 28  1  0  0  0  0
 59 29  1  0  0  0  0
 60 31  1  0  0  0  0
 62 34  1  0  0  0  0
 66 39  1  0  0  0  0
 67 41  1  0  0  0  0
 68 41  1  0  0  0  0
 72 45  1  0  0  0  0
M  END
