-1 1
 OpenBabel05192410563D

 73 76  0  0  1  0  0  0  0  0999 V2000
   -0.6000    1.4717    1.8653 O   0  0  0  0  0  0  0  0  0  0  0  0
   -0.2278    0.4252    2.4201 C   0  0  0  0  0  0  0  0  0  0  0  0
   -0.2989   -0.8033    1.6652 N   0  0  0  0  0  0  0  0  0  0  0  0
   -0.6447   -0.9743    0.3584 C   0  0  0  0  0  0  0  0  0  0  0  0
   -1.0483    0.0432   -0.5012 C   0  0  0  0  0  0  0  0  0  0  0  0
   -0.5769   -2.3095   -0.1748 C   0  0  0  0  0  0  0  0  0  0  0  0
   -0.2093   -3.3082    0.6824 O   0  0  0  0  0  0  0  0  0  0  0  0
    1.1670   -3.5888    0.8912 C   0  0  1  0  0  0  0  0  0  0  0  0
    1.3100   -3.6184    1.9811 H   0  0  0  0  0  0  0  0  0  0  0  0
    1.6043   -4.9133    0.2703 C   0  0  0  0  0  0  0  0  0  0  0  0
    3.1258   -4.7565    0.1937 C   0  0  0  0  0  0  0  0  0  0  0  0
    3.4061   -3.3781    0.4539 O   0  0  0  0  0  0  0  0  0  0  0  0
    2.2152   -2.6257    0.3312 C   0  0  0  0  0  0  0  0  0  0  0  0
   -0.9174   -2.5902   -1.4731 C   0  0  0  0  0  0  0  0  0  0  0  0
   -1.3301   -1.5575   -2.3503 C   0  0  0  0  0  0  0  0  0  0  0  0
   -1.3837   -0.2365   -1.8410 C   0  0  0  0  0  0  0  0  0  0  0  0
   -1.8085    0.7618   -2.7906 C   0  0  2  0  0  3  0  0  0  0  0  0
   -1.8782    2.0653   -2.3559 N   0  0  0  0  0  0  0  0  0  0  0  0
   -2.2561    3.2261   -3.0153 C   0  0  0  0  0  0  0  0  0  0  0  0
   -2.2276    4.4220   -2.2765 C   0  0  0  0  0  0  0  0  0  0  0  0
   -2.5890    5.6401   -2.8419 C   0  0  0  0  0  0  0  0  0  0  0  0
   -2.5374    6.8894   -1.9899 C   0  0  0  0  0  0  0  0  0  0  0  0
   -2.1249    6.6238   -0.7481 F   0  0  0  0  0  0  0  0  0  0  0  0
   -1.6975    7.8013   -2.4927 F   0  0  0  0  0  0  0  0  0  0  0  0
   -3.7381    7.4705   -1.8855 F   0  0  0  0  0  0  0  0  0  0  0  0
   -2.9918    5.6749   -4.1833 C   0  0  0  0  0  0  0  0  0  0  0  0
   -3.4621    7.1678   -4.9629 Cl  0  0  0  0  0  0  0  0  0  0  0  0
   -3.0231    4.4993   -4.9235 C   0  0  0  0  0  0  0  0  0  0  0  0
   -2.6616    3.2817   -4.3575 C   0  0  0  0  0  0  0  0  0  0  0  0
   -2.1203    0.4494   -4.0289 N   0  0  0  0  0  0  0  0  0  0  0  0
   -2.0271   -0.8530   -4.3874 C   0  0  0  0  0  0  0  0  0  0  0  0
   -1.6592   -1.8547   -3.6420 N   0  0  0  0  0  2  0  0  0  0  0  0
    0.2574    0.2848    3.7292 C   0  0  0  0  0  3  0  0  0  0  0  0
    0.7867   -0.9405    4.3247 C   0  0  0  0  0  0  0  0  0  0  0  0
    2.6132   -1.2775    3.8094 S   0  0  0  0  0  0  0  0  0  0  0  0
    3.2208   -2.5616    4.9611 C   0  0  0  0  0  0  0  0  0  0  0  0
    3.4896   -3.9400    4.3424 C   0  0  2  0  0  0  0  0  0  0  0  0
    4.0206   -4.5519    5.0927 H   0  0  0  0  0  0  0  0  0  0  0  0
    4.3913   -3.8445    3.2255 N   0  0  0  0  0  0  0  0  0  0  0  0
    5.6401   -4.3771    3.2574 C   0  0  0  0  0  0  0  0  0  0  0  0
    6.4063   -4.2639    1.9538 C   0  0  0  0  0  0  0  0  0  0  0  0
    6.1203   -4.9052    4.2454 O   0  0  0  0  0  0  0  0  0  0  0  0
    2.2733   -4.7874    3.9316 C   0  0  0  0  0  0  0  0  0  0  0  0
    1.0692   -4.4277    4.4442 N   0  0  0  0  0  0  0  0  0  0  0  0
   -0.1502   -5.0870    4.0364 C   0  0  0  0  0  0  0  0  0  0  0  0
    2.4086   -5.7616    3.2111 O   0  0  0  0  0  0  0  0  0  0  0  0
   -0.0825   -1.6602    2.1544 H   0  0  0  0  0  0  0  0  0  0  0  0
   -1.0843    1.0331   -0.0434 H   0  0  0  0  0  0  0  0  0  0  0  0
    1.1477   -4.9974   -0.7282 H   0  0  0  0  0  0  0  0  0  0  0  0
    1.3062   -5.7744    0.8809 H   0  0  0  0  0  0  0  0  0  0  0  0
    3.5285   -5.0370   -0.7945 H   0  0  0  0  0  0  0  0  0  0  0  0
    3.6304   -5.3501    0.9700 H   0  0  0  0  0  0  0  0  0  0  0  0
    2.0046   -2.3711   -0.7245 H   0  0  0  0  0  0  0  0  0  0  0  0
    2.3217   -1.7050    0.9191 H   0  0  0  0  0  0  0  0  0  0  0  0
   -0.8730   -3.6147   -1.8435 H   0  0  0  0  0  0  0  0  0  0  0  0
   -1.6091    2.1914   -1.3882 H   0  0  0  0  0  0  0  0  0  0  0  0
   -1.9149    4.3999   -1.2309 H   0  0  0  0  0  0  0  0  0  0  0  0
   -3.3378    4.5374   -5.9673 H   0  0  0  0  0  0  0  0  0  0  0  0
   -2.6855    2.3609   -4.9354 H   0  0  0  0  0  0  0  0  0  0  0  0
   -2.2959   -1.0697   -5.4284 H   0  0  0  0  0  0  0  0  0  0  0  0
    0.3881    1.2219    4.2729 H   0  0  0  0  0  0  0  0  0  0  0  0
    0.2316   -1.8552    4.0494 H   0  0  0  0  0  0  0  0  0  0  0  0
    0.8266   -0.8873    5.4236 H   0  0  0  0  0  0  0  0  0  0  0  0
    2.5362   -2.6330    5.8238 H   0  0  0  0  0  0  0  0  0  0  0  0
    4.1764   -2.2025    5.3689 H   0  0  0  0  0  0  0  0  0  0  0  0
    4.0381   -3.4546    2.3497 H   0  0  0  0  0  0  0  0  0  0  0  0
    7.3776   -3.7918    2.1558 H   0  0  0  0  0  0  0  0  0  0  0  0
    5.8661   -3.6943    1.1856 H   0  0  0  0  0  0  0  0  0  0  0  0
    6.6046   -5.2800    1.5824 H   0  0  0  0  0  0  0  0  0  0  0  0
    0.9885   -3.5278    4.8963 H   0  0  0  0  0  0  0  0  0  0  0  0
   -0.9118   -4.9765    4.8202 H   0  0  0  0  0  0  0  0  0  0  0  0
    0.0568   -6.1533    3.8802 H   0  0  0  0  0  0  0  0  0  0  0  0
   -0.5481   -4.6723    3.0938 H   0  0  0  0  0  0  0  0  0  0  0  0
  1  2  2  0  0  0  0
  2 33  1  0  0  0  0
  3 47  1  0  0  0  0
  3  2  1  0  0  0  0
  4  3  1  0  0  0  0
  5 48  1  0  0  0  0
  5  4  2  0  0  0  0
  6  4  1  0  0  0  0
  6  7  1  0  0  0  0
  7  8  1  0  0  0  0
  8  9  1  1  0  0  0
 10 50  1  0  0  0  0
 10  8  1  0  0  0  0
 11 10  1  0  0  0  0
 11 12  1  0  0  0  0
 11 52  1  0  0  0  0
 13 12  1  0  0  0  0
 13  8  1  0  0  0  0
 13 54  1  0  0  0  0
 14  6  2  0  0  0  0
 15 16  2  0  0  0  0
 15 14  1  0  0  0  0
 16  5  1  0  0  0  0
 17 18  1  1  0  0  0
 17 16  1  0  0  0  0
 18 56  1  0  0  0  0
 19 18  1  0  0  0  0
 19 20  1  0  0  0  0
 20 57  1  0  0  0  0
 21 20  2  0  0  0  0
 21 22  1  0  0  0  0
 22 25  1  0  0  0  0
 22 23  1  0  0  0  0
 24 22  1  0  0  0  0
 26 21  1  0  0  0  0
 27 26  1  0  0  0  0
 28 29  1  0  0  0  0
 28 26  2  0  0  0  0
 29 19  2  0  0  0  0
 30 17  1  0  0  0  0
 31 30  2  0  0  0  0
 31 32  1  0  0  0  0
 32 15  1  0  0  0  0
 33 61  1  0  0  0  0
 33 34  1  0  0  0  0
 34 63  1  0  0  0  0
 35 34  1  0  0  0  0
 35 36  1  0  0  0  0
 36 65  1  0  0  0  0
 36 64  1  0  0  0  0
 37 36  1  0  0  0  0
 37 38  1  1  0  0  0
 39 40  1  0  0  0  0
 39 37  1  0  0  0  0
 40 42  2  0  0  0  0
 41 67  1  0  0  0  0
 41 40  1  0  0  0  0
 43 37  1  0  0  0  0
 43 44  1  0  0  0  0
 44 70  1  0  0  0  0
 45 44  1  0  0  0  0
 45 71  1  0  0  0  0
 46 43  2  0  0  0  0
 49 10  1  0  0  0  0
 51 11  1  0  0  0  0
 53 13  1  0  0  0  0
 55 14  1  0  0  0  0
 58 28  1  0  0  0  0
 59 29  1  0  0  0  0
 60 31  1  0  0  0  0
 62 34  1  0  0  0  0
 66 39  1  0  0  0  0
 68 41  1  0  0  0  0
 69 41  1  0  0  0  0
 72 45  1  0  0  0  0
 73 45  1  0  0  0  0
M  END
