-1 1
 OpenBabel05192410563D

 70 73  0  0  1  0  0  0  0  0999 V2000
    0.9534    2.5819   -4.6470 O   0  0  0  0  0  0  0  0  0  0  0  0
    1.2622    1.9184   -3.6512 C   0  0  0  0  0  0  0  0  0  0  0  0
    1.0958    0.4624   -3.8302 N   0  0  0  0  0  0  0  0  0  0  0  0
    0.2462   -0.3667   -3.1580 C   0  0  0  0  0  0  0  0  0  0  0  0
   -0.3201   -0.0963   -1.9209 C   0  0  0  0  0  0  0  0  0  0  0  0
   -0.0855   -1.6305   -3.7764 C   0  0  0  0  0  0  0  0  0  0  0  0
    0.4810   -1.8106   -4.9937 O   0  0  0  0  0  0  0  0  0  0  0  0
    0.1145   -2.9244   -5.7695 C   0  0  1  0  0  0  0  0  0  0  0  0
   -0.9866   -3.0003   -5.7899 H   0  0  0  0  0  0  0  0  0  0  0  0
    0.6906   -2.7507   -7.1775 C   0  0  0  0  0  0  0  0  0  0  0  0
    1.1644   -4.1587   -7.5182 C   0  0  0  0  0  0  0  0  0  0  0  0
    1.6411   -4.6713   -6.3005 O   0  0  0  0  0  0  0  0  0  0  0  0
    0.7481   -4.2574   -5.2937 C   0  0  0  0  0  0  0  0  0  0  0  0
   -0.9250   -2.5314   -3.1684 C   0  0  0  0  0  0  0  0  0  0  0  0
   -1.4872   -2.2530   -1.8954 C   0  0  0  0  0  0  0  0  0  0  0  0
   -1.1585   -1.0298   -1.2686 C   0  0  0  0  0  0  0  0  0  0  0  0
   -1.7345   -0.8388    0.0373 C   0  0  2  0  0  3  0  0  0  0  0  0
   -1.3925    0.2869    0.7421 N   0  0  0  0  0  0  0  0  0  0  0  0
   -1.8607    0.7689    1.9620 C   0  0  0  0  0  0  0  0  0  0  0  0
   -1.3316    1.9977    2.4018 C   0  0  0  0  0  0  0  0  0  0  0  0
   -1.7248    2.5469    3.6138 C   0  0  0  0  0  0  0  0  0  0  0  0
   -1.0775    4.0718    4.1399 Cl  0  0  0  0  0  0  0  0  0  0  0  0
   -2.6551    1.8863    4.4142 C   0  0  0  0  0  0  0  0  0  0  0  0
   -3.0347    2.4110    5.5809 F   0  0  0  0  0  0  0  0  0  0  0  0
   -3.1906    0.6822    3.9864 C   0  0  0  0  0  0  0  0  0  0  0  0
   -2.8067    0.1187    2.7715 C   0  0  0  0  0  0  0  0  0  0  0  0
   -2.5614   -1.7301    0.5549 N   0  0  0  0  0  0  0  0  0  0  0  0
   -2.8212   -2.8417   -0.1660 C   0  0  0  0  0  0  0  0  0  0  0  0
   -2.3310   -3.1638   -1.3297 N   0  0  0  0  0  2  0  0  0  0  0  0
    1.8089    2.3697   -2.4466 C   0  0  0  0  0  3  0  0  0  0  0  0
    2.4523    1.5337   -1.4236 C   0  0  0  0  0  0  0  0  0  0  0  0
    1.6850    1.7674    0.2932 S   0  0  0  0  0  0  0  0  0  0  0  0
    2.6670    0.5643    1.2496 C   0  0  0  0  0  0  0  0  0  0  0  0
    2.2819    0.4175    2.7270 C   0  0  2  0  0  0  0  0  0  0  0  0
    3.1160   -0.1472    3.1880 H   0  0  0  0  0  0  0  0  0  0  0  0
    1.0728   -0.3389    2.9365 N   0  0  0  0  0  0  0  0  0  0  0  0
    1.0505   -1.6932    2.7951 C   0  0  0  0  0  0  0  0  0  0  0  0
   -0.2518   -2.3573    3.1835 C   0  0  0  0  0  0  0  0  0  0  0  0
    2.0052   -2.3146    2.3609 O   0  0  0  0  0  0  0  0  0  0  0  0
    2.1656    1.7028    3.5651 C   0  0  0  0  0  0  0  0  0  0  0  0
    2.8624    2.7754    3.1191 N   0  0  0  0  0  0  0  0  0  0  0  0
    2.7930    4.0438    3.8061 C   0  0  0  0  0  0  0  0  0  0  0  0
    1.5291    1.6974    4.6049 O   0  0  0  0  0  0  0  0  0  0  0  0
    1.1470    0.2515   -4.8210 H   0  0  0  0  0  0  0  0  0  0  0  0
   -0.1117    0.8808   -1.4893 H   0  0  0  0  0  0  0  0  0  0  0  0
    1.5489   -2.0673   -7.1057 H   0  0  0  0  0  0  0  0  0  0  0  0
   -0.0317   -2.3338   -7.8919 H   0  0  0  0  0  0  0  0  0  0  0  0
    1.9799   -4.1864   -8.2544 H   0  0  0  0  0  0  0  0  0  0  0  0
    0.3272   -4.7753   -7.9098 H   0  0  0  0  0  0  0  0  0  0  0  0
    1.3001   -4.1272   -4.3521 H   0  0  0  0  0  0  0  0  0  0  0  0
   -0.0377   -5.0218   -5.1341 H   0  0  0  0  0  0  0  0  0  0  0  0
   -1.1919   -3.4857   -3.6209 H   0  0  0  0  0  0  0  0  0  0  0  0
   -0.5852    0.7961    0.3783 H   0  0  0  0  0  0  0  0  0  0  0  0
   -0.5984    2.5271    1.7907 H   0  0  0  0  0  0  0  0  0  0  0  0
   -3.9218    0.1816    4.6239 H   0  0  0  0  0  0  0  0  0  0  0  0
   -3.2217   -0.8274    2.4351 H   0  0  0  0  0  0  0  0  0  0  0  0
   -3.5162   -3.5501    0.3018 H   0  0  0  0  0  0  0  0  0  0  0  0
    1.9601    3.4514   -2.3943 H   0  0  0  0  0  0  0  0  0  0  0  0
    3.5160    1.7710   -1.2416 H   0  0  0  0  0  0  0  0  0  0  0  0
    2.3727    0.4588   -1.6438 H   0  0  0  0  0  0  0  0  0  0  0  0
    3.7310    0.8465    1.1800 H   0  0  0  0  0  0  0  0  0  0  0  0
    2.5716   -0.4307    0.7928 H   0  0  0  0  0  0  0  0  0  0  0  0
    0.3566    0.1149    3.4929 H   0  0  0  0  0  0  0  0  0  0  0  0
   -0.9523   -2.3221    2.3345 H   0  0  0  0  0  0  0  0  0  0  0  0
   -0.7373   -1.8570    4.0338 H   0  0  0  0  0  0  0  0  0  0  0  0
   -0.0498   -3.4071    3.4273 H   0  0  0  0  0  0  0  0  0  0  0  0
    3.0688    2.7998    2.1244 H   0  0  0  0  0  0  0  0  0  0  0  0
    2.6225    3.8563    4.8732 H   0  0  0  0  0  0  0  0  0  0  0  0
    1.9633    4.6665    3.4337 H   0  0  0  0  0  0  0  0  0  0  0  0
    3.7372    4.5920    3.6776 H   0  0  0  0  0  0  0  0  0  0  0  0
  1  2  2  0  0  0  0
  2 30  1  0  0  0  0
  3  2  1  0  0  0  0
  3  4  1  0  0  0  0
  4  5  1  0  0  0  0
  5 45  1  0  0  0  0
  5 16  2  0  0  0  0
  6 14  1  0  0  0  0
  6  4  2  0  0  0  0
  7  6  1  0  0  0  0
  8  9  1  6  0  0  0
  8 13  1  0  0  0  0
  8  7  1  0  0  0  0
 10 46  1  0  0  0  0
 10  8  1  0  0  0  0
 11 10  1  0  0  0  0
 11 12  1  0  0  0  0
 12 13  1  0  0  0  0
 13 51  1  0  0  0  0
 13 50  1  0  0  0  0
 14 15  2  0  0  0  0
 15 29  1  0  0  0  0
 15 16  1  0  0  0  0
 16 17  1  0  0  0  0
 17 27  1  0  0  0  0
 17 18  1  1  0  0  0
 18 19  1  0  0  0  0
 19 20  2  0  0  0  0
 19 26  1  0  0  0  0
 20 21  1  0  0  0  0
 21 22  1  0  0  0  0
 21 23  2  0  0  0  0
 23 24  1  0  0  0  0
 25 23  1  0  0  0  0
 25 55  1  0  0  0  0
 26 25  2  0  0  0  0
 28 57  1  0  0  0  0
 28 27  2  0  0  0  0
 29 28  1  0  0  0  0
 30 58  1  0  0  0  0
 30 31  1  0  0  0  0
 31 59  1  0  0  0  0
 31 32  1  0  0  0  0
 32 33  1  0  0  0  0
 33 34  1  0  0  0  0
 34 36  1  0  0  0  0
 34 35  1  1  0  0  0
 34 40  1  0  0  0  0
 36 63  1  0  0  0  0
 37 36  1  0  0  0  0
 37 38  1  0  0  0  0
 38 66  1  0  0  0  0
 38 65  1  0  0  0  0
 39 37  2  0  0  0  0
 40 43  2  0  0  0  0
 41 40  1  0  0  0  0
 41 42  1  0  0  0  0
 42 68  1  0  0  0  0
 44  3  1  0  0  0  0
 47 10  1  0  0  0  0
 48 11  1  0  0  0  0
 49 11  1  0  0  0  0
 52 14  1  0  0  0  0
 53 18  1  0  0  0  0
 54 20  1  0  0  0  0
 56 26  1  0  0  0  0
 60 31  1  0  0  0  0
 61 33  1  0  0  0  0
 62 33  1  0  0  0  0
 64 38  1  0  0  0  0
 67 41  1  0  0  0  0
 69 42  1  0  0  0  0
 70 42  1  0  0  0  0
M  END
