-1 1
 OpenBabel05232413483D

 70 72  0  0  1  0  0  0  0  0999 V2000
   -0.2936    2.7427   -5.4772 O   0  0  0  0  0  0  0  0  0  0  0  0
    0.0134    2.2226   -4.4198 C   0  0  0  0  0  0  0  0  0  0  0  0
    0.0238    0.8412   -4.3308 N   0  0  0  0  0  0  0  0  0  0  0  0
   -0.1930   -0.0667   -3.2856 C   0  0  0  0  0  0  0  0  0  0  0  0
   -0.6640    0.2292   -2.0237 C   0  0  0  0  0  0  0  0  0  0  0  0
    0.0256   -1.4425   -3.6359 C   0  0  0  0  0  0  0  0  0  0  0  0
    0.4779   -1.6305   -4.8988 O   0  0  0  0  0  0  0  0  0  0  0  0
    0.6175   -2.9434   -5.3960 C   0  0  1  0  0  0  0  0  0  0  0  0
   -0.3134   -3.5007   -5.1960 H   0  0  0  0  0  0  0  0  0  0  0  0
    0.9191   -2.8649   -6.8958 C   0  0  0  0  0  0  0  0  0  0  0  0
    2.0159   -3.9115   -7.0711 C   0  0  0  0  0  0  0  0  0  0  0  0
    2.7642   -3.8321   -5.8865 O   0  0  0  0  0  0  0  0  0  0  0  0
    1.8475   -3.6962   -4.8286 C   0  0  0  0  0  0  0  0  0  0  0  0
   -0.2616   -2.4548   -2.7523 C   0  0  0  0  0  0  0  0  0  0  0  0
   -0.7847   -2.1592   -1.4696 C   0  0  0  0  0  0  0  0  0  0  0  0
   -0.9515   -0.8063   -1.0972 C   0  0  0  0  0  0  0  0  0  0  0  0
   -1.4960   -0.5930    0.2204 C   0  0  2  0  0  3  0  0  0  0  0  0
   -1.5752    0.6841    0.7104 N   0  0  0  0  0  0  0  0  0  0  0  0
   -2.2459    1.0447    1.8820 C   0  0  0  0  0  0  0  0  0  0  0  0
   -1.6979    2.0591    2.6815 C   0  0  0  0  0  0  0  0  0  0  0  0
   -2.3506    2.4682    3.8390 C   0  0  0  0  0  0  0  0  0  0  0  0
   -1.6597    3.7153    4.8416 Cl  0  0  0  0  0  0  0  0  0  0  0  0
   -3.5517    1.8765    4.2180 C   0  0  0  0  0  0  0  0  0  0  0  0
   -4.1747    2.2621    5.3341 F   0  0  0  0  0  0  0  0  0  0  0  0
   -4.1081    0.8820    3.4245 C   0  0  0  0  0  0  0  0  0  0  0  0
   -3.4696    0.4708    2.2613 C   0  0  0  0  0  0  0  0  0  0  0  0
   -1.9067   -1.6148    0.9484 N   0  0  0  0  0  0  0  0  0  0  0  0
   -1.6882   -2.8564    0.4799 C   0  0  0  0  0  0  0  0  0  0  0  0
   -1.1362   -3.1926   -0.6552 N   0  0  0  0  0  2  0  0  0  0  0  0
    0.4891    3.0458   -3.2814 C   0  0  0  0  0  0  0  0  0  0  0  0
    1.4899    2.6972   -2.4692 C   0  0  0  0  0  0  0  0  0  0  0  0
    1.3316    1.9703    0.7396 S   0  0  0  0  0  1  0  0  0  0  0  0
    2.0211    0.2676    0.6643 C   0  0  0  0  0  0  0  0  0  0  0  0
    2.2037   -0.4490    2.0143 C   0  0  2  0  0  0  0  0  0  0  0  0
    2.4087   -1.5135    1.8385 H   0  0  0  0  0  0  0  0  0  0  0  0
    0.9982   -0.3999    2.8145 N   0  0  0  0  0  0  0  0  0  0  0  0
    0.3693   -1.5042    3.3004 C   0  0  0  0  0  0  0  0  0  0  0  0
   -0.8717   -1.2277    4.1260 C   0  0  0  0  0  0  0  0  0  0  0  0
    0.7494   -2.6420    3.0866 O   0  0  0  0  0  0  0  0  0  0  0  0
    3.4115    0.0528    2.8280 C   0  0  0  0  0  0  0  0  0  0  0  0
    3.4307    1.3926    3.0477 N   0  0  0  0  0  0  0  0  0  0  0  0
    4.4964    2.0375    3.7644 C   0  0  0  0  0  0  0  0  0  0  0  0
    4.2593   -0.7137    3.2547 O   0  0  0  0  0  0  0  0  0  0  0  0
   -0.0624    0.4177   -5.2493 H   0  0  0  0  0  0  0  0  0  0  0  0
   -0.8432    1.2650   -1.7388 H   0  0  0  0  0  0  0  0  0  0  0  0
    1.3167   -1.8617   -7.1058 H   0  0  0  0  0  0  0  0  0  0  0  0
    0.0350   -3.0331   -7.5252 H   0  0  0  0  0  0  0  0  0  0  0  0
    2.6819   -3.7166   -7.9229 H   0  0  0  0  0  0  0  0  0  0  0  0
    1.5791   -4.9247   -7.1999 H   0  0  0  0  0  0  0  0  0  0  0  0
    2.3233   -3.1428   -4.0071 H   0  0  0  0  0  0  0  0  0  0  0  0
    1.5420   -4.6904   -4.4471 H   0  0  0  0  0  0  0  0  0  0  0  0
   -0.1218   -3.5078   -2.9914 H   0  0  0  0  0  0  0  0  0  0  0  0
   -0.7216    1.2632    0.5164 H   0  0  0  0  0  0  0  0  0  0  0  0
   -0.7386    2.5019    2.3983 H   0  0  0  0  0  0  0  0  0  0  0  0
   -5.0535    0.4342    3.7355 H   0  0  0  0  0  0  0  0  0  0  0  0
   -3.9067   -0.3201    1.6559 H   0  0  0  0  0  0  0  0  0  0  0  0
   -1.9985   -3.6696    1.1460 H   0  0  0  0  0  0  0  0  0  0  0  0
    0.0634    4.0523   -3.2559 H   0  0  0  0  0  0  0  0  0  0  0  0
    1.8877    3.3756   -1.7150 H   0  0  0  0  0  0  0  0  0  0  0  0
    1.9491    1.7059   -2.5117 H   0  0  0  0  0  0  0  0  0  0  0  0
    2.9971    0.2870    0.1526 H   0  0  0  0  0  0  0  0  0  0  0  0
    1.3591   -0.3625    0.0512 H   0  0  0  0  0  0  0  0  0  0  0  0
    0.5839    0.5180    2.9391 H   0  0  0  0  0  0  0  0  0  0  0  0
   -1.7444   -1.4658    3.5012 H   0  0  0  0  0  0  0  0  0  0  0  0
   -0.9540   -0.1839    4.4613 H   0  0  0  0  0  0  0  0  0  0  0  0
   -0.8655   -1.8995    4.9945 H   0  0  0  0  0  0  0  0  0  0  0  0
    2.7588    1.9571    2.5137 H   0  0  0  0  0  0  0  0  0  0  0  0
    5.1091    1.2594    4.2384 H   0  0  0  0  0  0  0  0  0  0  0  0
    4.1022    2.7092    4.5442 H   0  0  0  0  0  0  0  0  0  0  0  0
    5.1439    2.6310    3.0957 H   0  0  0  0  0  0  0  0  0  0  0  0
  1  2  2  0  0  0  0
  2  3  1  0  0  0  0
  2 30  1  0  0  0  0
  3  4  1  0  0  0  0
  4  5  1  0  0  0  0
  5 45  1  0  0  0  0
  5 16  2  0  0  0  0
  6  4  2  0  0  0  0
  6 14  1  0  0  0  0
  7  6  1  0  0  0  0
  8  9  1  1  0  0  0
  8  7  1  0  0  0  0
  8 13  1  0  0  0  0
 10  8  1  0  0  0  0
 11 10  1  0  0  0  0
 11 12  1  0  0  0  0
 12 13  1  0  0  0  0
 13 51  1  0  0  0  0
 13 50  1  0  0  0  0
 14 15  2  0  0  0  0
 15 16  1  0  0  0  0
 15 29  1  0  0  0  0
 16 17  1  0  0  0  0
 17 18  1  1  0  0  0
 17 27  1  0  0  0  0
 18 19  1  0  0  0  0
 19 26  2  0  0  0  0
 19 20  1  0  0  0  0
 20 21  2  0  0  0  0
 21 23  1  0  0  0  0
 21 22  1  0  0  0  0
 23 24  1  0  0  0  0
 25 55  1  0  0  0  0
 25 23  2  0  0  0  0
 26 25  1  0  0  0  0
 28 27  2  0  0  0  0
 28 57  1  0  0  0  0
 29 28  1  0  0  0  0
 30 58  1  0  0  0  0
 30 31  2  0  0  0  0
 31 59  1  0  0  0  0
 33 32  1  0  0  0  0
 33 34  1  0  0  0  0
 34 35  1  6  0  0  0
 34 36  1  0  0  0  0
 34 40  1  0  0  0  0
 36 63  1  0  0  0  0
 36 37  1  0  0  0  0
 37 38  1  0  0  0  0
 38 65  1  0  0  0  0
 38 66  1  0  0  0  0
 39 37  2  0  0  0  0
 40 41  1  0  0  0  0
 40 43  2  0  0  0  0
 41 42  1  0  0  0  0
 42 68  1  0  0  0  0
 42 69  1  0  0  0  0
 44  3  1  0  0  0  0
 46 10  1  0  0  0  0
 47 10  1  0  0  0  0
 48 11  1  0  0  0  0
 49 11  1  0  0  0  0
 52 14  1  0  0  0  0
 53 18  1  0  0  0  0
 54 20  1  0  0  0  0
 56 26  1  0  0  0  0
 60 31  1  0  0  0  0
 61 33  1  0  0  0  0
 62 33  1  0  0  0  0
 64 38  1  0  0  0  0
 67 41  1  0  0  0  0
 70 42  1  0  0  0  0
M  END
