70
-1 1
O         0.642663    0.732135   -1.485792
C        -0.454484    0.574847   -0.927948
N        -0.417944    0.121707    0.458401
C         0.822846   -0.066917    1.051400
C         1.244678   -1.315986    1.456568
C         1.699520    1.058741    1.281424
O         1.369908    2.325536    0.985774
C         0.092553    2.869371    1.336135
H        -0.691815    2.511564    0.661487
C        -0.244018    2.634179    2.803139
C         0.625403    3.683384    3.490072
O         0.690217    4.774708    2.595792
C         0.246651    4.380514    1.309124
C         2.936330    0.862646    1.858324
C         3.380672   -0.420327    2.249013
C         2.527363   -1.532826    2.013861
C         3.084261   -2.801039    2.348001
N         2.445882   -4.005260    2.055052
C         1.940208   -4.420819    0.825659
C         1.359111   -5.698123    0.765436
F         1.353341   -6.434054    1.886401
C         0.819381   -6.228935   -0.391393
C         0.845378   -5.454486   -1.550786
Br         0.093675   -6.149970   -3.146702
C         1.420339   -4.188372   -1.541913
C         1.975672   -3.685192   -0.366729
N         4.223571   -2.911114    3.000490
C         4.895254   -1.771213    3.262850
N         4.574513   -0.561387    2.889091
C        -1.733274    0.792562   -1.454454
C        -3.003997    0.714179   -0.705700
S        -3.551256    2.258503    0.236278
C        -3.836739    3.431734   -1.129411
C        -3.084893    4.768645   -0.950097
H        -2.855066    4.878169    0.126172
N        -3.862570    5.907768   -1.381481
C        -4.939460    6.360947   -0.696597
C        -5.495716    7.690748   -1.177858
O        -5.441238    5.762658    0.239164
C        -1.744195    4.883217   -1.708695
N        -0.966731    3.796405   -1.740252
C         0.319789    3.801713   -2.403606
O        -1.429705    5.952413   -2.224621
H        -1.086545   -0.611156    0.664434
H         0.578534   -2.162155    1.283872
H        -0.047350    1.605285    3.134519
H        -1.315956    2.840706    2.944335
H         1.639595    3.283835    3.682981
H         0.208379    4.026356    4.451056
H         0.972635    4.689805    0.542795
H        -0.725693    4.852322    1.082432
H         3.570135    1.726341    2.058408
H         2.809923   -4.761425    2.625696
H         0.383994   -7.227992   -0.367693
H         1.442157   -3.578999   -2.445972
H         2.425391   -2.693041   -0.383858
H         5.827558   -1.892266    3.827872
H        -1.771965    0.970367   -2.531802
H        -3.026064   -0.030256    0.108120
H        -3.850932    0.468215   -1.363125
H        -4.910706    3.648665   -1.166997
H        -3.549897    2.941371   -2.072742
H        -3.337012    6.526374   -1.996840
H        -5.079308    8.015036   -2.141380
H        -5.279340    8.456411   -0.418127
H        -6.587615    7.605221   -1.258428
H        -1.314713    2.878948   -1.432083
H         0.981709    4.560261   -1.957657
H         0.214091    4.042723   -3.474059
H         0.757257    2.801458   -2.281127
