94
-1 1
C         0.424065    6.886970   -0.890459
O         1.763501    6.713625   -0.539092
C         2.329715    5.498652   -0.953002
C         1.604074    4.272935   -0.412195
O         2.450609    3.167606   -0.684653
C         1.990396    1.953747   -1.012903
C         2.802568    1.226795   -1.862674
C         0.743563    1.375218   -0.555808
N        -0.096341    2.033627    0.323104
C         0.365886    2.493013    1.619121
O         1.557000    2.242763    1.902080
C        -0.568595    3.180806    2.374900
C        -0.201006    3.714446    3.710952
S        -0.117955    2.244242    4.880384
C         0.884539    2.695537    6.326203
C         2.417539    2.743980    6.158811
H         2.743658    3.784245    5.988639
N         2.880867    1.952177    5.029196
C         4.050126    2.227300    4.392748
C         4.260232    1.516550    3.082130
O         4.883890    3.004675    4.857765
C         3.086780    2.282329    7.481804
N         4.403515    2.585958    7.550742
C         5.234808    2.157381    8.642979
O         2.471415    1.723685    8.375037
C         1.108030    4.521555    3.770568
N         1.227629    5.544846    2.753372
C         2.556939    6.102033    2.708278
C         0.204244    6.552900    2.804870
C         0.380152    0.142596   -1.076310
C         1.178368   -0.574311   -1.997014
C         2.432983   -0.034256   -2.372452
N         3.269126   -0.686845   -3.234879
C         2.849704   -1.832786   -3.687064
N         1.679610   -2.451308   -3.410947
C         0.852164   -1.842331   -2.587587
N        -0.361565   -2.416437   -2.279747
C        -0.953945   -3.599309   -2.715749
C        -2.252951   -3.869581   -2.254397
C        -2.925447   -5.017605   -2.653513
Cl        -4.544657   -5.298276   -2.074305
C        -2.325442   -5.943124   -3.513732
O        -2.984742   -7.073449   -3.898310
C        -3.412190   -7.103712   -5.251712
C        -4.479815   -6.076730   -5.544254
C        -5.826658   -6.394894   -5.352292
C        -6.790987   -5.416261   -5.544420
F        -8.077283   -5.728988   -5.363798
C        -6.457346   -4.119326   -5.915675
C        -5.113113   -3.806532   -6.104800
C        -4.129320   -4.777696   -5.926195
C        -1.028103   -5.675857   -3.950260
C        -0.340640   -4.527858   -3.573387
H         0.252532    6.690335   -1.968574
H         0.158641    7.934038   -0.684210
H        -0.253826    6.238520   -0.305652
H         3.360685    5.487928   -0.571039
H         2.380194    5.450185   -2.061548
H         0.630130    4.135588   -0.904220
H         1.437050    4.391753    0.669856
H         3.744096    1.667346   -2.190253
H        -1.054979    1.710509    0.319204
H        -1.576825    3.353028    1.992283
H        -1.023887    4.332040    4.101293
H         0.653567    1.916271    7.065986
H         0.541160    3.645906    6.759882
H         2.132135    1.543836    4.461173
H         5.266236    1.744799    2.712314
H         3.487568    1.835330    2.362907
H         4.148668    0.430154    3.214939
H         4.825485    2.940416    6.685688
H         4.586136    1.763581    9.436104
H         5.823730    2.996678    9.046544
H         5.935772    1.361791    8.337430
H         1.937550    3.824423    3.613766
H         1.210461    4.974051    4.786425
H         2.822309    6.678979    3.626233
H         2.646976    6.768979    1.836983
H         3.294182    5.291324    2.603632
H        -0.786214    6.100559    2.645774
H         0.370688    7.289786    2.004214
H         0.182228    7.106428    3.775347
H        -0.550644   -0.281731   -0.689031
H         3.509506   -2.373607   -4.376860
H        -0.934746   -1.870007   -1.654037
H        -2.756897   -3.173843   -1.580218
H        -3.796130   -8.119920   -5.412692
H        -2.549961   -6.953164   -5.925641
H        -6.133980   -7.394110   -5.037494
H        -7.246796   -3.378133   -6.048634
H        -4.830876   -2.791807   -6.392397
H        -3.076961   -4.520410   -6.066834
H        -0.542840   -6.402237   -4.606568
H         0.668591   -4.327261   -3.923490
