94
-1 1
C         0.373274    6.879800   -1.128653
O         1.653472    6.650367   -0.622443
C         2.259405    5.463121   -1.049576
C         1.567469    4.202564   -0.540447
O         2.414421    3.127312   -0.920734
C         1.954693    1.945758   -1.339634
C         2.695178    1.321684   -2.329742
C         0.784630    1.286188   -0.830186
N         0.017961    1.823423    0.219335
C         0.532317    2.091258    1.486493
O         1.719438    1.962835    1.702377
C        -0.500616    2.518355    2.454355
C        -0.272293    3.305468    3.518329
S        -0.192803    2.132368    6.567661
C         1.011869    2.899326    7.714388
C         2.405729    3.136570    7.103242
H         2.383338    4.029682    6.451165
N         2.760184    1.987813    6.280048
C         3.637592    2.019718    5.260315
C         3.558315    0.861495    4.293464
O         4.448558    2.933809    5.079649
C         3.457724    3.425397    8.199618
N         4.673592    3.779714    7.709371
C         5.801592    4.026709    8.562964
O         3.204332    3.378485    9.391605
C         1.032489    3.988976    3.828767
N         1.486239    4.867392    2.759008
C         2.891092    5.186484    2.887403
C         0.667378    6.048950    2.626287
C         0.399145    0.084073   -1.391705
C         1.117965   -0.528410   -2.439885
C         2.306287    0.094803   -2.897826
N         3.066955   -0.453345   -3.894236
C         2.639238   -1.577171   -4.389193
N         1.529111   -2.268246   -4.042741
C         0.771441   -1.767542   -3.090973
N        -0.371897   -2.417395   -2.706280
C        -0.961106   -3.597178   -3.173517
C        -2.199699   -3.947267   -2.615070
C        -2.866395   -5.094174   -3.027195
Cl        -4.411103   -5.477997   -2.323988
C        -2.315011   -5.937002   -3.998714
O        -2.964386   -7.068447   -4.387742
C        -3.493200   -7.056548   -5.706257
C        -4.596278   -6.039761   -5.875024
C        -5.912093   -6.377147   -5.547818
C        -6.902689   -5.409408   -5.629847
F        -8.158544   -5.739429   -5.319960
C        -6.624583   -4.105217   -6.021928
C        -5.311089   -3.773160   -6.345082
C        -4.302264   -4.732916   -6.276626
C        -1.075359   -5.588294   -4.533916
C        -0.397085   -4.438536   -4.144327
H         0.339326    6.750529   -2.229072
H         0.101963    7.918056   -0.892016
H        -0.389905    6.217601   -0.678520
H         3.286743    5.472679   -0.658661
H         2.320746    5.429641   -2.157391
H         0.573189    4.082933   -0.999371
H         1.464713    4.250451    0.557985
H         3.591530    1.813554   -2.706477
H        -0.988131    1.805937    0.118853
H        -1.513100    2.132610    2.292512
H        -1.100312    3.498707    4.203502
H         1.142287    2.266021    8.604027
H         0.650478    3.870392    8.083860
H         1.933184    1.377231    6.170662
H         4.573503    0.599264    3.968490
H         2.989081    1.186445    3.407444
H         3.060554   -0.015460    4.728338
H         4.796797    3.693859    6.694742
H         5.452938    4.001859    9.603992
H         6.251887    5.013695    8.363091
H         6.588205    3.262214    8.437810
H         1.793369    3.215959    3.981597
H         0.926785    4.526168    4.792358
H         3.115144    5.786607    3.797391
H         3.220385    5.766947    2.010162
H         3.484755    4.264061    2.951809
H        -0.384062    5.762786    2.463405
H         1.003353    6.633515    1.756147
H         0.703408    6.703878    3.527163
H        -0.478693   -0.392976   -0.947982
H         3.238086   -2.033837   -5.186587
H        -0.896645   -1.958095   -1.976816
H        -2.663499   -3.317733   -1.852622
H        -3.870595   -8.073696   -5.874932
H        -2.687959   -6.865247   -6.437587
H        -6.173303   -7.383066   -5.213477
H        -7.432876   -3.373854   -6.067002
H        -5.072848   -2.752796   -6.651940
H        -3.273086   -4.461223   -6.522505
H        -0.626832   -6.250404   -5.278085
H         0.566216   -4.176489   -4.573213
