-1 1
 OpenBabel05232413483D

 82 83  0  0  1  0  0  0  0  0999 V2000
   -0.9218    6.3042   -4.0498 C   0  0  0  0  0  0  0  0  0  0  0  0
    0.0187    5.5522   -3.9197 C   0  0  0  0  0  0  0  0  0  0  0  0
    1.1339    4.6589   -3.7550 C   0  0  0  0  0  0  0  0  0  0  0  0
    0.9467    3.4319   -3.1145 C   0  0  0  0  0  0  0  0  0  0  0  0
    2.0196    2.5457   -2.9126 C   0  0  0  0  0  0  0  0  0  0  0  0
    1.7155    1.3483   -2.2734 N   0  0  0  0  0  0  0  0  0  0  0  0
    2.5422    0.3475   -1.8299 C   0  0  1  0  0  3  0  0  0  0  0  0
    3.8512    0.5203   -1.7908 N   0  0  0  0  0  0  0  0  0  0  0  0
    4.5917   -0.4697   -1.2541 C   0  0  0  0  0  0  0  0  0  0  0  0
    4.1738   -1.5978   -0.7501 N   0  0  0  0  0  2  0  0  0  0  0  0
    1.9446   -0.8893   -1.4053 C   0  0  0  0  0  0  0  0  0  0  0  0
    2.8318   -1.8322   -0.8373 C   0  0  0  0  0  0  0  0  0  0  0  0
    2.3237   -3.0759   -0.3911 C   0  0  0  0  0  0  0  0  0  0  0  0
    0.9938   -3.3831   -0.5499 C   0  0  0  0  0  0  0  0  0  0  0  0
    0.4284   -4.5636   -0.2381 O   0  0  0  0  0  0  0  0  0  0  0  0
    1.1272   -5.5098    0.5363 C   0  0  0  0  0  0  0  0  0  0  0  0
    1.1639   -5.1287    2.0066 C   0  0  0  0  0  0  0  0  0  0  0  0
    1.9294   -6.1062    2.6615 O   0  0  0  0  0  0  0  0  0  0  0  0
    2.0626   -5.8618    4.0266 C   0  0  0  0  0  0  0  0  0  0  0  0
    0.0917   -2.4461   -1.1617 C   0  0  0  0  0  0  0  0  0  0  0  0
   -1.2096   -2.8979   -1.3626 N   0  0  0  0  0  0  0  0  0  0  0  0
   -2.4268   -2.2505   -1.3873 C   0  0  0  0  0  0  0  0  0  0  0  0
   -3.4248   -2.8791   -1.6947 O   0  0  0  0  0  0  0  0  0  0  0  0
   -2.4710   -0.8147   -1.0008 C   0  0  0  0  0  0  0  0  0  0  0  0
   -3.5647   -0.0955   -1.2696 C   0  0  0  0  0  0  0  0  0  0  0  0
   -0.6710   -2.0560    2.2841 S   0  0  0  0  0  1  0  0  0  0  0  0
    0.1159   -0.4195    2.0623 C   0  0  0  0  0  0  0  0  0  0  0  0
   -0.8692    0.7656    2.1218 C   0  0  2  0  0  0  0  0  0  0  0  0
   -1.7211    0.5497    1.4588 H   0  0  0  0  0  0  0  0  0  0  0  0
   -0.2767    2.0183    1.6913 N   0  0  0  0  0  0  0  0  0  0  0  0
   -0.1443    2.4126    0.4250 C   0  0  0  0  0  0  0  0  0  0  0  0
    0.4233    3.8021    0.2247 C   0  0  0  0  0  0  0  0  0  0  0  0
   -0.4391    1.7060   -0.5473 O   0  0  0  0  0  0  0  0  0  0  0  0
   -1.4417    1.0560    3.5167 C   0  0  0  0  0  0  0  0  0  0  0  0
   -2.0335    0.0115    4.1119 N   0  0  0  0  0  0  0  0  0  0  0  0
   -2.5513    0.0815    5.4508 C   0  0  0  0  0  0  0  0  0  0  0  0
   -1.3696    2.1854    4.0071 O   0  0  0  0  0  0  0  0  0  0  0  0
   -3.7603    1.3352   -0.8326 C   0  0  0  0  0  0  0  0  0  0  0  0
   -3.5888    1.5220    0.5932 N   0  0  0  0  0  0  0  0  0  0  0  0
   -3.5178    2.9054    0.9859 C   0  0  0  0  0  0  0  0  0  0  0  0
   -4.5021    0.7555    1.4058 C   0  0  0  0  0  0  0  0  0  0  0  0
    0.5788   -1.2311   -1.5870 C   0  0  0  0  0  0  0  0  0  0  0  0
    3.2924    2.9111   -3.3816 C   0  0  0  0  0  0  0  0  0  0  0  0
    3.4655    4.1317   -4.0325 C   0  0  0  0  0  0  0  0  0  0  0  0
    2.4091    5.0146   -4.2245 C   0  0  0  0  0  0  0  0  0  0  0  0
   -1.7592    6.9657   -4.1642 H   0  0  0  0  0  0  0  0  0  0  0  0
   -0.0425    3.1564   -2.7439 H   0  0  0  0  0  0  0  0  0  0  0  0
    0.7790    1.3365   -1.8518 H   0  0  0  0  0  0  0  0  0  0  0  0
    5.6730   -0.2836   -1.2318 H   0  0  0  0  0  0  0  0  0  0  0  0
    3.0321   -3.7648    0.0655 H   0  0  0  0  0  0  0  0  0  0  0  0
    2.1532   -5.6608    0.1591 H   0  0  0  0  0  0  0  0  0  0  0  0
    0.5867   -6.4578    0.4090 H   0  0  0  0  0  0  0  0  0  0  0  0
    0.1344   -5.0749    2.4074 H   0  0  0  0  0  0  0  0  0  0  0  0
    1.5839   -4.1147    2.1404 H   0  0  0  0  0  0  0  0  0  0  0  0
    2.6782   -6.6646    4.4578 H   0  0  0  0  0  0  0  0  0  0  0  0
    1.0824   -5.8492    4.5426 H   0  0  0  0  0  0  0  0  0  0  0  0
    2.5535   -4.8896    4.2262 H   0  0  0  0  0  0  0  0  0  0  0  0
   -1.3128   -3.9064   -1.3297 H   0  0  0  0  0  0  0  0  0  0  0  0
   -1.6326   -0.3750   -0.4575 H   0  0  0  0  0  0  0  0  0  0  0  0
   -4.3743   -0.5913   -1.8163 H   0  0  0  0  0  0  0  0  0  0  0  0
    0.5874   -0.3751    1.0674 H   0  0  0  0  0  0  0  0  0  0  0  0
    0.9178   -0.2547    2.8032 H   0  0  0  0  0  0  0  0  0  0  0  0
   -0.1949    2.6963    2.4470 H   0  0  0  0  0  0  0  0  0  0  0  0
   -0.2316    4.3669   -0.4533 H   0  0  0  0  0  0  0  0  0  0  0  0
    1.4028    3.7171   -0.2684 H   0  0  0  0  0  0  0  0  0  0  0  0
    0.5433    4.3571    1.1646 H   0  0  0  0  0  0  0  0  0  0  0  0
   -1.8541   -0.9124    3.6570 H   0  0  0  0  0  0  0  0  0  0  0  0
   -1.8632   -0.3783    6.1811 H   0  0  0  0  0  0  0  0  0  0  0  0
   -3.5179   -0.4415    5.5168 H   0  0  0  0  0  0  0  0  0  0  0  0
   -2.6917    1.1355    5.7252 H   0  0  0  0  0  0  0  0  0  0  0  0
   -4.7604    1.6913   -1.1759 H   0  0  0  0  0  0  0  0  0  0  0  0
   -3.0056    1.9615   -1.3372 H   0  0  0  0  0  0  0  0  0  0  0  0
   -2.7853    3.4358    0.3581 H   0  0  0  0  0  0  0  0  0  0  0  0
   -3.1826    2.9813    2.0327 H   0  0  0  0  0  0  0  0  0  0  0  0
   -4.4924    3.4407    0.8901 H   0  0  0  0  0  0  0  0  0  0  0  0
   -4.4374   -0.3105    1.1450 H   0  0  0  0  0  0  0  0  0  0  0  0
   -5.5620    1.0850    1.2921 H   0  0  0  0  0  0  0  0  0  0  0  0
   -4.2217    0.8490    2.4659 H   0  0  0  0  0  0  0  0  0  0  0  0
   -0.0914   -0.5413   -2.0974 H   0  0  0  0  0  0  0  0  0  0  0  0
    4.1292    2.2400   -3.2052 H   0  0  0  0  0  0  0  0  0  0  0  0
    4.4627    4.3995   -4.3904 H   0  0  0  0  0  0  0  0  0  0  0  0
    2.5564    5.9721   -4.7264 H   0  0  0  0  0  0  0  0  0  0  0  0
  1  2  3  0  0  0  0
  2  3  1  0  0  0  0
  3  4  1  0  0  0  0
  4  5  2  0  0  0  0
  4 47  1  0  0  0  0
  5  6  1  0  0  0  0
  6 48  1  0  0  0  0
  7  6  1  1  0  0  0
  7  8  1  0  0  0  0
  7 11  1  0  0  0  0
  8  9  2  0  0  0  0
  9 49  1  0  0  0  0
  9 10  1  0  0  0  0
 11 12  1  0  0  0  0
 12 10  1  0  0  0  0
 12 13  2  0  0  0  0
 13 50  1  0  0  0  0
 14 13  1  0  0  0  0
 14 15  1  0  0  0  0
 15 16  1  0  0  0  0
 16 17  1  0  0  0  0
 17 54  1  0  0  0  0
 17 53  1  0  0  0  0
 17 18  1  0  0  0  0
 18 19  1  0  0  0  0
 19 57  1  0  0  0  0
 19 55  1  0  0  0  0
 19 56  1  0  0  0  0
 20 14  2  0  0  0  0
 21 58  1  0  0  0  0
 21 20  1  0  0  0  0
 22 21  1  0  0  0  0
 22 24  1  0  0  0  0
 23 22  2  0  0  0  0
 24 59  1  0  0  0  0
 25 24  2  0  0  0  0
 25 38  1  0  0  0  0
 27 28  1  0  0  0  0
 27 26  1  0  0  0  0
 27 62  1  0  0  0  0
 28 29  1  6  0  0  0
 28 34  1  0  0  0  0
 30 28  1  0  0  0  0
 30 63  1  0  0  0  0
 31 30  1  0  0  0  0
 32 31  1  0  0  0  0
 32 66  1  0  0  0  0
 33 31  2  0  0  0  0
 34 37  2  0  0  0  0
 34 35  1  0  0  0  0
 35 36  1  0  0  0  0
 36 69  1  0  0  0  0
 36 70  1  0  0  0  0
 36 68  1  0  0  0  0
 38 39  1  0  0  0  0
 39 40  1  0  0  0  0
 39 41  1  0  0  0  0
 40 74  1  0  0  0  0
 41 78  1  0  0  0  0
 42 11  2  0  0  0  0
 42 20  1  0  0  0  0
 43 80  1  0  0  0  0
 43  5  1  0  0  0  0
 44 43  2  0  0  0  0
 45 44  1  0  0  0  0
 45  3  2  0  0  0  0
 46  1  1  0  0  0  0
 51 16  1  0  0  0  0
 52 16  1  0  0  0  0
 60 25  1  0  0  0  0
 61 27  1  0  0  0  0
 64 32  1  0  0  0  0
 65 32  1  0  0  0  0
 67 35  1  0  0  0  0
 71 38  1  0  0  0  0
 72 38  1  0  0  0  0
 73 40  1  0  0  0  0
 75 40  1  0  0  0  0
 76 41  1  0  0  0  0
 77 41  1  0  0  0  0
 79 42  1  0  0  0  0
 81 44  1  0  0  0  0
 82 45  1  0  0  0  0
M  END
