82
-1 1
C        -0.921833    6.304166   -4.049799
C         0.018704    5.552154   -3.919709
C         1.133927    4.658940   -3.754974
C         0.946750    3.431923   -3.114463
C         2.019550    2.545669   -2.912606
N         1.715464    1.348259   -2.273401
C         2.542207    0.347485   -1.829926
N         3.851159    0.520253   -1.790849
C         4.591676   -0.469697   -1.254060
N         4.173822   -1.597790   -0.750148
C         1.944551   -0.889337   -1.405346
C         2.831812   -1.832212   -0.837343
C         2.323707   -3.075863   -0.391055
C         0.993847   -3.383055   -0.549934
O         0.428406   -4.563604   -0.238088
C         1.127248   -5.509784    0.536252
C         1.163942   -5.128663    2.006578
O         1.929379   -6.106235    2.661478
C         2.062586   -5.861808    4.026632
C         0.091667   -2.446066   -1.161673
N        -1.209577   -2.897875   -1.362560
C        -2.426809   -2.250548   -1.387279
O        -3.424773   -2.879119   -1.694702
C        -2.471048   -0.814739   -1.000831
C        -3.564681   -0.095504   -1.269604
S        -0.670983   -2.055965    2.284136
C         0.115855   -0.419464    2.062288
C        -0.869218    0.765564    2.121811
H        -1.721129    0.549673    1.458768
N        -0.276706    2.018299    1.691326
C        -0.144344    2.412558    0.424982
C         0.423274    3.802066    0.224722
O        -0.439144    1.705959   -0.547318
C        -1.441724    1.056017    3.516715
N        -2.033476    0.011522    4.111867
C        -2.551272    0.081492    5.450847
O        -1.369570    2.185385    4.007147
C        -3.760319    1.335168   -0.832604
N        -3.588807    1.522048    0.593188
C        -3.517775    2.905433    0.985935
C        -4.502142    0.755531    1.405801
C         0.578787   -1.231126   -1.586990
C         3.292401    2.911082   -3.381593
C         3.465501    4.131671   -4.032514
C         2.409128    5.014563   -4.224518
H        -1.759201    6.965723   -4.164182
H        -0.042479    3.156413   -2.743869
H         0.779012    1.336538   -1.851840
H         5.673039   -0.283644   -1.231845
H         3.032113   -3.764779    0.065451
H         2.153168   -5.660774    0.159129
H         0.586699   -6.457798    0.408963
H         0.134448   -5.074926    2.407401
H         1.583869   -4.114655    2.140380
H         2.678194   -6.664636    4.457819
H         1.082432   -5.849177    4.542559
H         2.553541   -4.889604    4.226182
H        -1.312772   -3.906375   -1.329706
H        -1.632579   -0.375001   -0.457474
H        -4.374273   -0.591330   -1.816260
H         0.587377   -0.375063    1.067430
H         0.917771   -0.254748    2.803174
H        -0.194917    2.696301    2.447045
H        -0.231576    4.366909   -0.453271
H         1.402807    3.717107   -0.268367
H         0.543317    4.357064    1.164581
H        -1.854082   -0.912356    3.657025
H        -1.863153   -0.378300    6.181071
H        -3.517926   -0.441510    5.516802
H        -2.691700    1.135469    5.725152
H        -4.760408    1.691292   -1.175941
H        -3.005552    1.961469   -1.337189
H        -2.785263    3.435757    0.358073
H        -3.182639    2.981308    2.032655
H        -4.492362    3.440713    0.890105
H        -4.437433   -0.310507    1.145044
H        -5.562000    1.085005    1.292073
H        -4.221658    0.849019    2.465862
H        -0.091446   -0.541270   -2.097357
H         4.129216    2.239956   -3.205221
H         4.462672    4.399482   -4.390402
H         2.556419    5.972071   -4.726367
