-1 1
 OpenBabel05232414493D

 82 83  0  0  1  0  0  0  0  0999 V2000
   10.7829   15.3558    3.5670 C   0  0  0  0  0  0  0  0  0  0  0  0
   11.6070   14.5551    3.1846 C   0  0  0  0  0  0  0  0  0  0  0  0
   12.5848   13.6013    2.7339 C   0  0  0  0  0  0  0  0  0  0  0  0
   12.5232   12.2807    3.1886 C   0  0  0  0  0  0  0  0  0  0  0  0
   13.4655   11.3250    2.7688 C   0  0  0  0  0  0  0  0  0  0  0  0
   13.2936   10.0268    3.2527 N   0  0  0  0  0  0  0  0  0  0  0  0
   14.1693    8.9760    3.2509 C   0  0  1  0  0  3  0  0  0  0  0  0
   15.4088    9.1388    2.8208 N   0  0  0  0  0  0  0  0  0  0  0  0
   16.2592    8.1023    2.9385 C   0  0  0  0  0  0  0  0  0  0  0  0
   16.0159    6.9273    3.4507 N   0  0  0  0  0  2  0  0  0  0  0  0
   13.7213    7.6953    3.7466 C   0  0  0  0  0  0  0  0  0  0  0  0
   14.7291    6.7101    3.8491 C   0  0  0  0  0  0  0  0  0  0  0  0
   14.3810    5.4344    4.3585 C   0  0  0  0  0  0  0  0  0  0  0  0
   13.0855    5.1509    4.7091 C   0  0  0  0  0  0  0  0  0  0  0  0
   12.6618    3.9500    5.1732 O   0  0  0  0  0  0  0  0  0  0  0  0
   13.5775    2.9278    5.4704 C   0  0  0  0  0  0  0  0  0  0  0  0
   14.2586    3.1598    6.8108 C   0  0  0  0  0  0  0  0  0  0  0  0
   15.1129    2.0782    7.0425 O   0  0  0  0  0  0  0  0  0  0  0  0
   15.8132    2.1684    8.2435 C   0  0  0  0  0  0  0  0  0  0  0  0
   12.0275    6.1270    4.5639 C   0  0  0  0  0  0  0  0  0  0  0  0
   10.7717    5.6709    4.8872 N   0  0  0  0  0  0  0  0  0  0  0  0
    9.4820    6.2262    5.1116 C   0  0  0  0  0  0  0  0  0  0  0  0
    8.5970    5.3975    5.2945 O   0  0  0  0  0  0  0  0  0  0  0  0
    9.3010    7.6512    5.1492 C   0  0  0  0  0  3  0  0  0  0  0  0
    8.0798    8.1694    5.5492 C   0  0  0  0  0  3  0  0  0  0  0  0
    8.0220    8.1197    8.0373 S   0  0  0  0  0  1  0  0  0  0  0  0
    9.7652    8.5656    8.1133 C   0  0  0  0  0  0  0  0  0  0  0  0
   10.0565   10.0474    7.7879 C   0  0  2  0  0  0  0  0  0  0  0  0
    9.6101   10.2743    6.8151 H   0  0  0  0  0  0  0  0  0  0  0  0
   11.4779   10.3014    7.6764 N   0  0  0  0  0  0  0  0  0  0  0  0
   12.1204   10.3448    6.5062 C   0  0  0  0  0  0  0  0  0  0  0  0
   13.6128   10.5751    6.5491 C   0  0  0  0  0  0  0  0  0  0  0  0
   11.5372   10.1865    5.4267 O   0  0  0  0  0  0  0  0  0  0  0  0
    9.5012   10.9976    8.8416 C   0  0  0  0  0  0  0  0  0  0  0  0
    8.2155   11.3413    8.6430 N   0  0  0  0  0  0  0  0  0  0  0  0
    7.4438   12.0236    9.6456 C   0  0  0  0  0  0  0  0  0  0  0  0
   10.2035   11.3889    9.7682 O   0  0  0  0  0  0  0  0  0  0  0  0
    7.7836    9.6045    5.1659 C   0  0  0  0  0  0  0  0  0  0  0  0
    6.9191   10.4121    6.0142 N   0  0  0  0  0  0  0  0  0  0  0  0
    6.8318   11.7649    5.5170 C   0  0  0  0  0  0  0  0  0  0  0  0
    5.6182    9.8196    6.2228 C   0  0  0  0  0  0  0  0  0  0  0  0
   12.3775    7.3785    4.0820 C   0  0  0  0  0  0  0  0  0  0  0  0
   14.4787   11.7226    1.8805 C   0  0  0  0  0  0  0  0  0  0  0  0
   14.5287   13.0410    1.4311 C   0  0  0  0  0  0  0  0  0  0  0  0
   13.5991   13.9884    1.8435 C   0  0  0  0  0  0  0  0  0  0  0  0
   10.0483   16.0577    3.9128 H   0  0  0  0  0  0  0  0  0  0  0  0
   11.7359   11.9816    3.8831 H   0  0  0  0  0  0  0  0  0  0  0  0
   12.5197    9.9473    3.9272 H   0  0  0  0  0  0  0  0  0  0  0  0
   17.2769    8.2873    2.5716 H   0  0  0  0  0  0  0  0  0  0  0  0
   15.1841    4.7032    4.4409 H   0  0  0  0  0  0  0  0  0  0  0  0
   14.3315    2.8088    4.6746 H   0  0  0  0  0  0  0  0  0  0  0  0
   12.9933    1.9989    5.5176 H   0  0  0  0  0  0  0  0  0  0  0  0
   13.4850    3.2450    7.5999 H   0  0  0  0  0  0  0  0  0  0  0  0
   14.8183    4.1160    6.7986 H   0  0  0  0  0  0  0  0  0  0  0  0
   16.4523    1.2789    8.3311 H   0  0  0  0  0  0  0  0  0  0  0  0
   15.1334    2.2017    9.1177 H   0  0  0  0  0  0  0  0  0  0  0  0
   16.4564    3.0697    8.2803 H   0  0  0  0  0  0  0  0  0  0  0  0
   10.7304    4.6721    5.0549 H   0  0  0  0  0  0  0  0  0  0  0  0
   10.1412    8.3308    5.0275 H   0  0  0  0  0  0  0  0  0  0  0  0
    7.2419    7.4705    5.5655 H   0  0  0  0  0  0  0  0  0  0  0  0
   10.3172    7.9684    7.3625 H   0  0  0  0  0  0  0  0  0  0  0  0
   10.1859    8.3231    9.1029 H   0  0  0  0  0  0  0  0  0  0  0  0
   11.9400   10.5526    8.5447 H   0  0  0  0  0  0  0  0  0  0  0  0
   13.8734   11.3847    5.8528 H   0  0  0  0  0  0  0  0  0  0  0  0
   14.1138    9.6614    6.1947 H   0  0  0  0  0  0  0  0  0  0  0  0
   13.9824   10.8184    7.5541 H   0  0  0  0  0  0  0  0  0  0  0  0
    7.7207   10.8208    7.9042 H   0  0  0  0  0  0  0  0  0  0  0  0
    6.7857   11.3255   10.1905 H   0  0  0  0  0  0  0  0  0  0  0  0
    6.8198   12.8099    9.1920 H   0  0  0  0  0  0  0  0  0  0  0  0
    8.1338   12.4859   10.3637 H   0  0  0  0  0  0  0  0  0  0  0  0
    7.3422    9.5471    4.1401 H   0  0  0  0  0  0  0  0  0  0  0  0
    8.7381   10.1405    5.0440 H   0  0  0  0  0  0  0  0  0  0  0  0
    7.8371   12.2102    5.4566 H   0  0  0  0  0  0  0  0  0  0  0  0
    6.2306   12.3809    6.2047 H   0  0  0  0  0  0  0  0  0  0  0  0
    6.3682   11.8316    4.5057 H   0  0  0  0  0  0  0  0  0  0  0  0
    5.7311    8.8400    6.7054 H   0  0  0  0  0  0  0  0  0  0  0  0
    5.0511    9.6927    5.2721 H   0  0  0  0  0  0  0  0  0  0  0  0
    5.0212   10.4569    6.8942 H   0  0  0  0  0  0  0  0  0  0  0  0
   11.5966    8.1149    3.9177 H   0  0  0  0  0  0  0  0  0  0  0  0
   15.2247   10.9960    1.5710 H   0  0  0  0  0  0  0  0  0  0  0  0
   15.3237   13.3311    0.7397 H   0  0  0  0  0  0  0  0  0  0  0  0
   13.6472   15.0192    1.4890 H   0  0  0  0  0  0  0  0  0  0  0  0
  1 46  1  0  0  0  0
  2  1  3  0  0  0  0
  3  2  1  0  0  0  0
  3  4  1  0  0  0  0
  4 47  1  0  0  0  0
  5  4  2  0  0  0  0
  5  6  1  0  0  0  0
  6 48  1  0  0  0  0
  7  6  1  1  0  0  0
  7 11  1  0  0  0  0
  8  9  2  0  0  0  0
  8  7  1  0  0  0  0
  9 10  1  0  0  0  0
 10 12  1  0  0  0  0
 11 12  2  0  0  0  0
 11 42  1  0  0  0  0
 12 13  1  0  0  0  0
 13 50  1  0  0  0  0
 13 14  2  0  0  0  0
 14 15  1  0  0  0  0
 15 16  1  0  0  0  0
 16 52  1  0  0  0  0
 16 17  1  0  0  0  0
 17 18  1  0  0  0  0
 17 53  1  0  0  0  0
 18 19  1  0  0  0  0
 19 57  1  0  0  0  0
 19 55  1  0  0  0  0
 19 56  1  0  0  0  0
 20 14  1  0  0  0  0
 20 21  1  0  0  0  0
 21 58  1  0  0  0  0
 21 22  1  0  0  0  0
 22 24  1  0  0  0  0
 22 23  2  0  0  0  0
 24 25  1  0  0  0  0
 25 60  1  0  0  0  0
 26 27  1  0  0  0  0
 27 62  1  0  0  0  0
 28 29  1  6  0  0  0
 28 27  1  0  0  0  0
 28 34  1  0  0  0  0
 30 28  1  0  0  0  0
 30 63  1  0  0  0  0
 31 32  1  0  0  0  0
 31 30  1  0  0  0  0
 32 66  1  0  0  0  0
 33 31  2  0  0  0  0
 34 37  2  0  0  0  0
 35 34  1  0  0  0  0
 35 36  1  0  0  0  0
 36 68  1  0  0  0  0
 36 70  1  0  0  0  0
 38 25  1  0  0  0  0
 38 39  1  0  0  0  0
 39 41  1  0  0  0  0
 40 39  1  0  0  0  0
 40 74  1  0  0  0  0
 41 76  1  0  0  0  0
 41 78  1  0  0  0  0
 42 20  2  0  0  0  0
 43  5  1  0  0  0  0
 44 45  1  0  0  0  0
 44 43  2  0  0  0  0
 45  3  2  0  0  0  0
 49  9  1  0  0  0  0
 51 16  1  0  0  0  0
 54 17  1  0  0  0  0
 59 24  1  0  0  0  0
 61 27  1  0  0  0  0
 64 32  1  0  0  0  0
 65 32  1  0  0  0  0
 67 35  1  0  0  0  0
 69 36  1  0  0  0  0
 71 38  1  0  0  0  0
 72 38  1  0  0  0  0
 73 40  1  0  0  0  0
 75 40  1  0  0  0  0
 77 41  1  0  0  0  0
 79 42  1  0  0  0  0
 80 43  1  0  0  0  0
 81 44  1  0  0  0  0
 82 45  1  0  0  0  0
M  END
