82
-1 1
C        -1.054092    6.277490   -1.907366
C        -0.147079    5.532035   -2.205244
C         0.929131    4.642254   -2.551289
C         0.901525    3.320853   -2.097966
C         1.940681    2.421742   -2.404818
N         1.811521    1.127954   -1.902574
C         2.643471    0.044059   -2.027714
N         3.839463    0.188363   -2.571490
C         4.649351   -0.885962   -2.617770
N         4.400370   -2.084231   -2.168098
C         2.191710   -1.243848   -1.554494
C         3.157502   -2.273912   -1.639688
C         2.808370   -3.569054   -1.179232
C         1.555503   -3.823440   -0.687093
O         1.135934   -5.039292   -0.252935
C         2.021776   -6.123562   -0.183448
C         2.898083   -6.052947    1.058502
O         3.709001   -7.192363    1.072101
C         4.581743   -7.241437    2.155717
C         0.533327   -2.795765   -0.620224
N        -0.674439   -3.209013   -0.148830
C        -1.937544   -2.607679    0.214786
O        -2.808203   -3.451529    0.486886
C        -2.068617   -1.217350    0.249581
C        -3.326938   -0.633528    0.728551
S        -3.392030   -0.367861    2.639055
C        -1.764660    0.358623    2.900560
C        -1.609092    1.823881    2.440792
H        -1.992884    1.903338    1.418484
N        -0.218630    2.216633    2.407849
C         0.536322    2.015885    1.317050
C         1.972846    2.475095    1.369578
O         0.074960    1.485876    0.305217
C        -2.350052    2.803217    3.344532
N        -3.654773    2.937848    3.049555
C        -4.561615    3.684344    3.878630
O        -1.764955    3.386750    4.250849
C        -3.656621    0.651726   -0.046339
N        -4.619936    1.585513    0.534544
C        -4.683263    2.810077   -0.233043
C        -5.929035    0.996447    0.716093
C         0.888507   -1.523867   -1.063447
C         3.009096    2.881675   -3.194944
C         3.020209    4.199267   -3.651141
C         2.000911    5.090957   -3.340285
H        -1.861074    6.932151   -1.638952
H         0.063994    2.977356   -1.489721
H         1.060569    1.037649   -1.210355
H         5.631362   -0.714711   -3.077063
H         3.578643   -4.336104   -1.250117
H         2.649045   -6.200773   -1.087312
H         1.398467   -7.027000   -0.132847
H         2.249558   -6.005340    1.956255
H         3.508577   -5.128664    1.047837
H         5.171480   -8.165248    2.075942
H         4.041343   -7.251191    3.123269
H         5.277574   -6.379140    2.166402
H        -0.743397   -4.206713    0.011483
H        -1.227795   -0.546899    0.098955
H        -4.130975   -1.376986    0.627435
H        -1.049622   -0.256480    2.328873
H        -1.520739    0.275154    3.970650
H         0.116041    2.721489    3.222579
H         2.129675    3.224663    0.579670
H         2.621462    1.618254    1.139035
H         2.257254    2.899929    2.341366
H        -4.032180    2.338243    2.297338
H        -5.254505    3.017952    4.419041
H        -5.157411    4.389102    3.276670
H        -3.975981    4.252361    4.613228
H        -3.997554    0.326720   -1.054435
H        -2.719906    1.204312   -0.218224
H        -3.685351    3.271911   -0.289458
H        -5.362969    3.528212    0.253840
H        -5.042524    2.651671   -1.274133
H        -5.860447    0.119637    1.373838
H        -6.386827    0.677059   -0.246432
H        -6.606403    1.723350    1.192503
H         0.124478   -0.751767   -1.075852
H         3.818508    2.194659   -3.426329
H         3.860411    4.534247   -4.264605
H         2.021231    6.122027   -3.696741
