83
-1 1
C         7.702910   -2.917097   12.082749
O         7.587969   -2.737027   10.707011
C         8.487658   -1.832901   10.128065
C         8.104046   -0.373197   10.318020
O         6.879264   -0.080489    9.678257
C         5.693367   -0.327929   10.266050
C         5.449960   -0.242262   11.616571
C         4.633276   -0.645888    9.347577
N         4.972071   -0.748337    8.009951
C         4.212626   -1.347241    6.991140
O         3.140741   -1.908019    7.239335
C         4.819681   -1.290513    5.686624
C         5.860220   -0.443059    5.348797
S         7.954564   -1.204559    6.439958
C         7.827059   -2.907096    5.827150
C         7.780340   -3.982738    6.917582
H         7.541336   -4.956938    6.451019
N         6.704873   -3.675650    7.840193
C         6.052282   -4.562165    8.618665
C         4.888150   -4.006915    9.400704
O         6.398001   -5.740922    8.705744
C         9.158039   -4.186813    7.591914
N         9.113316   -4.948187    8.714373
C        10.276982   -5.216773    9.509421
O        10.190503   -3.735758    7.127915
C         6.218535   -0.336850    3.885535
N         7.478257    0.270326    3.518454
C         7.742162    1.533070    4.154793
C         7.635569    0.317563    2.091119
C         3.364663   -0.854661    9.849502
C         3.107650   -0.808639   11.242184
C         4.157591   -0.485905   12.140938
N         3.959313   -0.371415   13.485655
C         2.737289   -0.567582   13.902055
N         1.662144   -0.901819   13.164874
C         1.832303   -1.038719   11.859592
N         0.689465   -1.354809   11.159255
C         0.601162   -2.064390    9.933644
C         1.143269   -3.343954    9.800389
C         1.068273   -4.033594    8.592496
C         1.633153   -5.435554    8.502317
F         2.117145   -5.841261    9.683061
F         0.682318   -6.319302    8.160426
F         2.612687   -5.539421    7.611585
C         0.444613   -3.418367    7.501214
Cl         0.362358   -4.196518    5.947508
C        -0.119226   -2.154456    7.630316
C        -0.045868   -1.483352    8.844011
H         8.719652   -3.256136   12.364834
H         6.980395   -3.690851   12.376248
H         7.469323   -2.001883   12.659189
H         8.498657   -2.029059    9.046175
H         9.514359   -1.988977   10.517224
H         8.858093    0.247398    9.814575
H         8.078077   -0.076632   11.380064
H         6.231528    0.022209   12.327637
H         5.964863   -0.601941    7.791816
H         4.430230   -2.013946    4.966401
H         5.990007    0.467155    5.937129
H         8.671443   -3.125570    5.160748
H         6.886691   -2.994720    5.251207
H         6.457399   -2.689409    7.878278
H         4.168032   -3.498193    8.742454
H         5.266581   -3.271197   10.124759
H         4.401205   -4.832421    9.929941
H         8.220729   -5.391032    8.942352
H        10.126580   -4.898766   10.555283
H        11.118855   -4.655565    9.082737
H        10.538870   -6.289003    9.512526
H         5.371126    0.228764    3.417862
H         6.183754   -1.348249    3.446518
H         6.958312    2.302296    3.949558
H         8.704732    1.930224    3.798020
H         7.832986    1.396600    5.241381
H         8.641749    0.681640    1.830606
H         6.892236    0.980106    1.581719
H         7.523052   -0.691350    1.663430
H         2.596399   -1.111471    9.131639
H         2.553080   -0.460675   14.978794
H        -0.114193   -1.413192   11.776349
H         1.646713   -3.802227   10.651694
H        -0.588821   -1.689511    6.763666
H        -0.455712   -0.477236    8.945985
