83
-1 1
C         2.943091   -0.818481    4.745635
O         2.695488   -1.088544    3.402631
C         3.554964   -0.435543    2.501232
C         3.099337    0.955923    2.108999
O         1.869615    0.906305    1.404567
C         0.690492    1.211943    1.935204
C         0.425673    1.298481    3.284987
C        -0.342750    1.478565    0.963300
N         0.003603    1.465410   -0.394678
C        -0.886454    1.143869   -1.395939
O        -2.040220    0.805212   -1.168396
C        -0.441305    1.213859   -2.812831
C         0.614647    1.852982   -3.326620
S         3.314402    2.165869   -1.176002
C         3.916483    0.833823   -2.279658
C         3.954116   -0.571660   -1.661717
H         3.981496   -1.322521   -2.473060
N         2.741297   -0.808254   -0.902885
C         2.180408   -2.005987   -0.659373
C         0.895282   -1.978450    0.138187
O         2.699266   -3.069431   -1.006346
C         5.233966   -0.834667   -0.834178
N         5.223590   -2.043219   -0.201627
C         6.318454   -2.495942    0.610496
O         6.174509   -0.065389   -0.780161
C         0.814777    1.975801   -4.811329
N         2.189747    1.826518   -5.245693
C         3.031096    2.940265   -4.861108
C         2.283850    1.536333   -6.653365
C        -1.620262    1.717749    1.416037
C        -1.925717    1.701992    2.800422
C        -0.883045    1.560144    3.750180
N        -1.113884    1.671493    5.088986
C        -2.349314    1.908598    5.443595
N        -3.436280    1.957726    4.649201
C        -3.238961    1.809958    3.351377
N        -4.379147    1.798590    2.567831
C        -4.613019    0.984580    1.444216
C        -3.936660   -0.224528    1.253337
C        -4.133748   -0.989064    0.109702
C        -3.325707   -2.258281   -0.065671
F        -2.478802   -2.441601    0.952422
F        -4.122409   -3.338808   -0.103184
F        -2.605801   -2.257282   -1.182636
C        -5.067875   -0.564288   -0.840065
Cl        -5.360812   -1.469412   -2.301716
C        -5.782573    0.611613   -0.639530
C        -5.547953    1.388560    0.488559
H         3.931576   -1.203979    5.066940
H         2.161306   -1.311066    5.339756
H         2.915954    0.263918    4.981774
H         3.605237   -1.052956    1.593931
H         4.584421   -0.367953    2.905321
H         3.809476    1.386373    1.381751
H         3.016079    1.634752    2.973259
H         1.197076    1.126280    4.030367
H         0.996735    1.666454   -0.636520
H        -1.176878    0.736922   -3.469686
H         1.363177    2.320111   -2.664252
H         4.937788    1.068385   -2.610243
H         3.279261    0.777339   -3.177726
H         2.336920    0.049764   -0.519792
H         0.272155   -1.108180   -0.100880
H         1.142804   -1.934232    1.211124
H         0.336193   -2.900712   -0.055353
H         4.447459   -2.674437   -0.416573
H         5.976127   -2.792166    1.616353
H         7.035712   -1.670158    0.706370
H         6.840454   -3.357755    0.159606
H         0.403095    2.966289   -5.133386
H         0.201381    1.214107   -5.319211
H         2.715254    3.892940   -5.348334
H         4.071746    2.734972   -5.153969
H         3.029687    3.081273   -3.768781
H         3.334538    1.358386   -6.929383
H         1.902360    2.362853   -7.300210
H         1.713181    0.627054   -6.899018
H        -2.398515    1.905420    0.684907
H        -2.542070    2.055779    6.513657
H        -5.200525    2.069635    3.098139
H        -3.209448   -0.559918    1.990447
H        -6.503553    0.932964   -1.391769
H        -6.076348    2.335095    0.619563
