-1 1
 OpenBabel05192410563D

 83 85  0  0  1  0  0  0  0  0999 V2000
    2.7440   -0.5269    3.4917 C   0  0  0  0  0  0  0  0  0  0  0  0
    2.6700   -0.2968    2.1193 O   0  0  0  0  0  0  0  0  0  0  0  0
    3.6030    0.6014    1.5899 C   0  0  0  0  0  0  0  0  0  0  0  0
    3.3407    2.0606    1.9288 C   0  0  0  0  0  0  0  0  0  0  0  0
    2.1450    2.5245    1.3408 O   0  0  0  0  0  0  0  0  0  0  0  0
    0.9486    2.2016    1.9005 C   0  0  0  0  0  0  0  0  0  0  0  0
    0.6813    2.3253    3.2415 C   0  0  0  0  0  0  0  0  0  0  0  0
   -0.0605    1.7642    0.9767 C   0  0  0  0  0  0  0  0  0  0  0  0
    0.3075    1.6427   -0.3395 N   0  0  0  0  0  0  0  0  0  0  0  0
   -0.4313    1.0450   -1.4203 C   0  0  0  0  0  0  0  0  0  0  0  0
   -1.5257    0.4944   -1.1511 O   0  0  0  0  0  0  0  0  0  0  0  0
    0.1972    1.0955   -2.6623 C   0  0  0  0  0  3  0  0  0  0  0  0
    1.4424    1.8300   -2.9856 C   0  0  1  0  0  0  0  0  0  0  0  0
    3.0615    1.1045   -2.2841 S   0  0  0  0  0  0  0  0  0  0  0  0
    2.8958   -0.6459   -2.7447 C   0  0  0  0  0  0  0  0  0  0  0  0
    2.8956   -1.6126   -1.5622 C   0  0  2  0  0  0  0  0  0  0  0  0
    2.7432   -2.6373   -1.9488 H   0  0  0  0  0  0  0  0  0  0  0  0
    1.7858   -1.3167   -0.6797 N   0  0  0  0  0  0  0  0  0  0  0  0
    1.2051   -2.2050    0.1539 C   0  0  0  0  0  0  0  0  0  0  0  0
   -0.0111   -1.7025    0.8850 C   0  0  0  0  0  0  0  0  0  0  0  0
    1.6587   -3.3390    0.3220 O   0  0  0  0  0  0  0  0  0  0  0  0
    4.2611   -1.6308   -0.8372 C   0  0  0  0  0  0  0  0  0  0  0  0
    4.3131   -2.4999    0.1972 N   0  0  0  0  0  0  0  0  0  0  0  0
    5.4377   -2.5726    1.0870 C   0  0  0  0  0  0  0  0  0  0  0  0
    5.1989   -0.9323   -1.1889 O   0  0  0  0  0  0  0  0  0  0  0  0
    1.5444    2.0241   -4.5015 C   0  0  0  0  0  0  0  0  0  0  0  0
    2.7395    2.6602   -5.0165 N   0  0  0  0  0  0  0  0  0  0  0  0
    2.9876    3.9715   -4.4753 C   0  0  0  0  0  0  0  0  0  0  0  0
    2.7695    2.6463   -6.4548 C   0  0  0  0  0  0  0  0  0  0  0  0
   -1.3192    1.4747    1.4787 C   0  0  0  0  0  0  0  0  0  0  0  0
   -1.5997    1.5582    2.8629 C   0  0  0  0  0  0  0  0  0  0  0  0
   -0.5925    1.9943    3.7651 C   0  0  0  0  0  0  0  0  0  0  0  0
   -0.8083    2.1250    5.1063 N   0  0  0  0  0  0  0  0  0  0  0  0
   -2.0090    1.8250    5.5208 C   0  0  0  0  0  0  0  0  0  0  0  0
   -3.0464    1.3882    4.7832 N   0  0  0  0  0  0  0  0  0  0  0  0
   -2.8622    1.2462    3.4796 C   0  0  0  0  0  0  0  0  0  0  0  0
   -3.9778    0.8238    2.7959 N   0  0  0  0  0  0  0  0  0  0  0  0
   -4.0594    0.2382    1.5042 C   0  0  0  0  0  0  0  0  0  0  0  0
   -3.6173   -1.0657    1.2819 C   0  0  0  0  0  0  0  0  0  0  0  0
   -3.6805   -1.6398    0.0134 C   0  0  0  0  0  0  0  0  0  0  0  0
   -3.2178   -3.0675   -0.1773 C   0  0  0  0  0  0  0  0  0  0  0  0
   -2.8179   -3.6093    0.9820 F   0  0  0  0  0  0  0  0  0  0  0  0
   -4.2130   -3.8458   -0.6325 F   0  0  0  0  0  0  0  0  0  0  0  0
   -2.2070   -3.1760   -1.0331 F   0  0  0  0  0  0  0  0  0  0  0  0
   -4.1857   -0.8789   -1.0459 C   0  0  0  0  0  0  0  0  0  0  0  0
   -4.2464   -1.5097   -2.6652 Cl  0  0  0  0  0  0  0  0  0  0  0  0
   -4.6485    0.4141   -0.8307 C   0  0  0  0  0  0  0  0  0  0  0  0
   -4.5954    0.9652    0.4419 C   0  0  0  0  0  0  0  0  0  0  0  0
    3.7712   -0.8053    3.8025 H   0  0  0  0  0  0  0  0  0  0  0  0
    2.0699   -1.3639    3.7200 H   0  0  0  0  0  0  0  0  0  0  0  0
    2.4179    0.3439    4.0907 H   0  0  0  0  0  0  0  0  0  0  0  0
    3.5569    0.4971    0.4971 H   0  0  0  0  0  0  0  0  0  0  0  0
    4.6315    0.3385    1.9137 H   0  0  0  0  0  0  0  0  0  0  0  0
    4.1475    2.6664    1.4922 H   0  0  0  0  0  0  0  0  0  0  0  0
    3.3436    2.2397    3.0179 H   0  0  0  0  0  0  0  0  0  0  0  0
    1.4342    2.6856    3.9432 H   0  0  0  0  0  0  0  0  0  0  0  0
    1.2735    1.8938   -0.5231 H   0  0  0  0  0  0  0  0  0  0  0  0
   -0.3172    0.5617   -3.4646 H   0  0  0  0  0  0  0  0  0  0  0  0
    1.4702    2.8189   -2.4937 H   0  0  0  0  0  0  0  0  0  0  0  0
    3.7082   -0.9106   -3.4328 H   0  0  0  0  0  0  0  0  0  0  0  0
    1.9270   -0.7441   -3.2597 H   0  0  0  0  0  0  0  0  0  0  0  0
    1.3844   -0.3856   -0.7546 H   0  0  0  0  0  0  0  0  0  0  0  0
   -0.6849   -1.1414    0.2175 H   0  0  0  0  0  0  0  0  0  0  0  0
    0.3233   -1.0114    1.6728 H   0  0  0  0  0  0  0  0  0  0  0  0
   -0.5248   -2.5573    1.3379 H   0  0  0  0  0  0  0  0  0  0  0  0
    3.4523   -3.0193    0.4030 H   0  0  0  0  0  0  0  0  0  0  0  0
    5.1626   -2.2525    2.1068 H   0  0  0  0  0  0  0  0  0  0  0  0
    6.2222   -1.9058    0.7056 H   0  0  0  0  0  0  0  0  0  0  0  0
    5.8423   -3.5963    1.1472 H   0  0  0  0  0  0  0  0  0  0  0  0
    0.6286    2.5857   -4.8050 H   0  0  0  0  0  0  0  0  0  0  0  0
    1.4642    1.0304   -4.9746 H   0  0  0  0  0  0  0  0  0  0  0  0
    2.1547    4.6895   -4.6676 H   0  0  0  0  0  0  0  0  0  0  0  0
    3.9034    4.3903   -4.9206 H   0  0  0  0  0  0  0  0  0  0  0  0
    3.1503    3.9189   -3.3895 H   0  0  0  0  0  0  0  0  0  0  0  0
    3.7303    3.0423   -6.8209 H   0  0  0  0  0  0  0  0  0  0  0  0
    1.9547    3.2512   -6.9217 H   0  0  0  0  0  0  0  0  0  0  0  0
    2.6681    1.6145   -6.8258 H   0  0  0  0  0  0  0  0  0  0  0  0
   -2.0392    1.1286    0.7481 H   0  0  0  0  0  0  0  0  0  0  0  0
   -2.2089    1.9302    6.5952 H   0  0  0  0  0  0  0  0  0  0  0  0
   -4.7551    0.6619    3.4273 H   0  0  0  0  0  0  0  0  0  0  0  0
   -3.1980   -1.6340    2.1118 H   0  0  0  0  0  0  0  0  0  0  0  0
   -5.0199    0.9936   -1.6753 H   0  0  0  0  0  0  0  0  0  0  0  0
   -4.9266    1.9900    0.6162 H   0  0  0  0  0  0  0  0  0  0  0  0
  1 50  1  0  0  0  0
  1 49  1  0  0  0  0
  1 51  1  0  0  0  0
  2  1  1  0  0  0  0
  3 53  1  0  0  0  0
  3  4  1  0  0  0  0
  3  2  1  0  0  0  0
  4 55  1  0  0  0  0
  5  6  1  0  0  0  0
  5  4  1  0  0  0  0
  6  7  1  0  0  0  0
  7 32  2  0  0  0  0
  7 56  1  0  0  0  0
  8 30  1  0  0  0  0
  8  6  2  0  0  0  0
  9  8  1  0  0  0  0
 10 11  2  0  0  0  0
 10  9  1  0  0  0  0
 12 10  1  0  0  0  0
 13 12  1  0  0  0  0
 13 59  1  1  0  0  0
 13 14  1  0  0  0  0
 15 14  1  0  0  0  0
 15 16  1  0  0  0  0
 16 17  1  6  0  0  0
 16 22  1  0  0  0  0
 16 18  1  0  0  0  0
 18 19  1  0  0  0  0
 19 21  2  0  0  0  0
 19 20  1  0  0  0  0
 20 65  1  0  0  0  0
 20 64  1  0  0  0  0
 22 23  1  0  0  0  0
 23 66  1  0  0  0  0
 23 24  1  0  0  0  0
 24 69  1  0  0  0  0
 24 67  1  0  0  0  0
 25 22  2  0  0  0  0
 26 13  1  0  0  0  0
 27 26  1  0  0  0  0
 27 28  1  0  0  0  0
 28 74  1  0  0  0  0
 29 27  1  0  0  0  0
 30 31  2  0  0  0  0
 31 36  1  0  0  0  0
 31 32  1  0  0  0  0
 32 33  1  0  0  0  0
 33 34  2  0  0  0  0
 34 79  1  0  0  0  0
 35 34  1  0  0  0  0
 36 35  2  0  0  0  0
 37 80  1  0  0  0  0
 37 36  1  0  0  0  0
 38 37  1  0  0  0  0
 39 38  1  0  0  0  0
 39 81  1  0  0  0  0
 40 39  2  0  0  0  0
 41 40  1  0  0  0  0
 41 42  1  0  0  0  0
 43 41  1  0  0  0  0
 44 41  1  0  0  0  0
 45 47  2  0  0  0  0
 45 40  1  0  0  0  0
 46 45  1  0  0  0  0
 47 48  1  0  0  0  0
 48 83  1  0  0  0  0
 48 38  2  0  0  0  0
 52  3  1  0  0  0  0
 54  4  1  0  0  0  0
 57  9  1  0  0  0  0
 58 12  1  0  0  0  0
 60 15  1  0  0  0  0
 61 15  1  0  0  0  0
 62 18  1  0  0  0  0
 63 20  1  0  0  0  0
 68 24  1  0  0  0  0
 70 26  1  0  0  0  0
 71 26  1  0  0  0  0
 72 28  1  0  0  0  0
 73 28  1  0  0  0  0
 75 29  1  0  0  0  0
 76 29  1  0  0  0  0
 77 29  1  0  0  0  0
 78 30  1  0  0  0  0
 82 47  1  0  0  0  0
M  END
