-1 1
 OpenBabel05232414493D

 94 96  0  0  1  0  0  0  0  0999 V2000
    6.1982   -0.8990    3.5737 C   0  0  0  0  0  0  0  0  0  0  0  0
    6.5143    0.2776    4.2477 O   0  0  0  0  0  0  0  0  0  0  0  0
    6.0578    0.3392    5.5665 C   0  0  0  0  0  0  0  0  0  0  0  0
    6.8463    1.3740    6.3327 C   0  0  0  0  0  0  0  0  0  0  0  0
    6.6044    2.7318    5.9331 O   0  0  0  0  0  0  0  0  0  0  0  0
    6.8393    3.0280    4.6305 C   0  0  0  0  0  0  0  0  0  0  0  0
    5.7822    3.3635    3.8141 C   0  0  0  0  0  0  0  0  0  0  0  0
    8.1717    2.9934    4.1116 C   0  0  0  0  0  0  0  0  0  0  0  0
    9.2627    2.7964    4.9637 N   0  0  0  0  0  0  0  0  0  0  0  0
   10.0872    1.6481    4.9983 C   0  0  0  0  0  0  0  0  0  0  0  0
   10.8954    1.5846    5.9398 O   0  0  0  0  0  0  0  0  0  0  0  0
    9.8775    0.6568    4.0016 C   0  0  0  0  0  3  0  0  0  0  0  0
   10.4247   -0.6151    4.1636 C   0  0  0  0  0  3  0  0  0  0  0  0
    9.1929   -1.8022    5.7754 S   0  0  0  0  0  1  0  0  0  0  0  0
   10.3377   -1.5839    7.1821 C   0  0  0  0  0  0  0  0  0  0  0  0
    9.6269   -1.3849    8.5245 C   0  0  2  0  0  0  0  0  0  0  0  0
   10.3789   -1.4177    9.3308 H   0  0  0  0  0  0  0  0  0  0  0  0
    8.7145   -2.4662    8.7804 N   0  0  0  0  0  0  0  0  0  0  0  0
    8.4786   -2.9486   10.0265 C   0  0  0  0  0  0  0  0  0  0  0  0
    7.2464   -3.8296   10.1320 C   0  0  0  0  0  0  0  0  0  0  0  0
    9.1809   -2.7038   10.9908 O   0  0  0  0  0  0  0  0  0  0  0  0
    8.9014   -0.0346    8.7335 C   0  0  0  0  0  0  0  0  0  0  0  0
    9.5886    1.0713    8.3598 N   0  0  0  0  0  0  0  0  0  0  0  0
    9.0987    2.3898    8.6724 C   0  0  0  0  0  0  0  0  0  0  0  0
    7.8293    0.0179    9.3170 O   0  0  0  0  0  0  0  0  0  0  0  0
   10.4207   -1.6024    3.0137 C   0  0  0  0  0  0  0  0  0  0  0  0
    9.3094   -1.4693    2.0867 N   0  0  0  0  0  0  0  0  0  0  0  0
    8.7396   -2.7211    1.6622 C   0  0  0  0  0  0  0  0  0  0  0  0
    9.5677   -0.5699    0.9911 C   0  0  0  0  0  0  0  0  0  0  0  0
    8.3523    3.1233    2.7516 C   0  0  0  0  0  0  0  0  0  0  0  0
    7.2563    3.3025    1.8813 C   0  0  0  0  0  0  0  0  0  0  0  0
    5.9644    3.5123    2.4217 C   0  0  0  0  0  0  0  0  0  0  0  0
    4.8944    3.8037    1.6198 N   0  0  0  0  0  0  0  0  0  0  0  0
    5.1300    3.8416    0.3397 C   0  0  0  0  0  0  0  0  0  0  0  0
    6.2874    3.5623   -0.3021 N   0  0  0  0  0  0  0  0  0  0  0  0
    7.3308    3.2621    0.4438 C   0  0  0  0  0  0  0  0  0  0  0  0
    8.5098    2.8614   -0.1250 N   0  0  0  0  0  0  0  0  0  0  0  0
    8.8533    2.6263   -1.4619 C   0  0  0  0  0  0  0  0  0  0  0  0
   10.0625    1.9636   -1.7060 C   0  0  0  0  0  0  0  0  0  0  0  0
   10.4989    1.6933   -3.0008 C   0  0  0  0  0  0  0  0  0  0  0  0
    9.7149    2.0809   -4.0891 C   0  0  0  0  0  0  0  0  0  0  0  0
   10.0368    1.8566   -5.3975 O   0  0  0  0  0  0  0  0  0  0  0  0
   11.1614    1.0830   -5.6992 C   0  0  0  0  0  0  0  0  0  0  0  0
   12.4800    1.8070   -5.5147 C   0  0  0  0  0  0  0  0  0  0  0  0
   12.5263    3.2004   -5.5769 C   0  0  0  0  0  0  0  0  0  0  0  0
   13.7497    3.8422   -5.4395 C   0  0  0  0  0  0  0  0  0  0  0  0
   13.7900    5.1745   -5.4979 F   0  0  0  0  0  0  0  0  0  0  0  0
   14.9342    3.1419   -5.2441 C   0  0  0  0  0  0  0  0  0  0  0  0
   14.8781    1.7511   -5.1824 C   0  0  0  0  0  0  0  0  0  0  0  0
   13.6605    1.0855   -5.3132 C   0  0  0  0  0  0  0  0  0  0  0  0
    8.5097    2.7465   -3.8536 C   0  0  0  0  0  0  0  0  0  0  0  0
    8.0762    3.0213   -2.5629 C   0  0  0  0  0  0  0  0  0  0  0  0
    5.1024   -1.0264    3.4557 H   0  0  0  0  0  0  0  0  0  0  0  0
    6.6079   -1.7836    4.0974 H   0  0  0  0  0  0  0  0  0  0  0  0
    6.6676   -0.8449    2.5830 H   0  0  0  0  0  0  0  0  0  0  0  0
    6.2321   -0.6227    6.0863 H   0  0  0  0  0  0  0  0  0  0  0  0
    4.9700    0.5623    5.5987 H   0  0  0  0  0  0  0  0  0  0  0  0
    7.9107    1.1150    6.2388 H   0  0  0  0  0  0  0  0  0  0  0  0
    6.5805    1.3273    7.3965 H   0  0  0  0  0  0  0  0  0  0  0  0
    4.7752    3.4249    4.2267 H   0  0  0  0  0  0  0  0  0  0  0  0
    9.2079    3.2424    5.8724 H   0  0  0  0  0  0  0  0  0  0  0  0
    9.0078    0.7468    3.3540 H   0  0  0  0  0  0  0  0  0  0  0  0
   11.3246   -0.6805    4.7840 H   0  0  0  0  0  0  0  0  0  0  0  0
   10.9973   -0.7276    6.9757 H   0  0  0  0  0  0  0  0  0  0  0  0
   10.9821   -2.4711    7.2833 H   0  0  0  0  0  0  0  0  0  0  0  0
    8.0445   -2.6397    8.0380 H   0  0  0  0  0  0  0  0  0  0  0  0
    7.0890   -4.4381    9.2295 H   0  0  0  0  0  0  0  0  0  0  0  0
    6.3686   -3.1790   10.2669 H   0  0  0  0  0  0  0  0  0  0  0  0
    7.3432   -4.4788   11.0106 H   0  0  0  0  0  0  0  0  0  0  0  0
   10.2752    1.0294    7.6010 H   0  0  0  0  0  0  0  0  0  0  0  0
    8.6015    2.3728    9.6518 H   0  0  0  0  0  0  0  0  0  0  0  0
    8.3647    2.7690    7.9397 H   0  0  0  0  0  0  0  0  0  0  0  0
    9.9453    3.0905    8.7047 H   0  0  0  0  0  0  0  0  0  0  0  0
   10.4300   -2.6202    3.4237 H   0  0  0  0  0  0  0  0  0  0  0  0
   11.3892   -1.4750    2.4762 H   0  0  0  0  0  0  0  0  0  0  0  0
    8.4563   -3.3217    2.5392 H   0  0  0  0  0  0  0  0  0  0  0  0
    9.4258   -3.3322    1.0289 H   0  0  0  0  0  0  0  0  0  0  0  0
    7.8263   -2.5383    1.0719 H   0  0  0  0  0  0  0  0  0  0  0  0
   10.2853   -0.9857    0.2434 H   0  0  0  0  0  0  0  0  0  0  0  0
    9.9939    0.3665    1.3811 H   0  0  0  0  0  0  0  0  0  0  0  0
    8.6342   -0.3241    0.4578 H   0  0  0  0  0  0  0  0  0  0  0  0
    9.3798    3.0720    2.3858 H   0  0  0  0  0  0  0  0  0  0  0  0
    4.2912    4.1088   -0.3153 H   0  0  0  0  0  0  0  0  0  0  0  0
    9.1903    2.5165    0.5382 H   0  0  0  0  0  0  0  0  0  0  0  0
   10.6848    1.6476   -0.8642 H   0  0  0  0  0  0  0  0  0  0  0  0
   11.4572    1.1919   -3.1364 H   0  0  0  0  0  0  0  0  0  0  0  0
   11.0499    0.8099   -6.7605 H   0  0  0  0  0  0  0  0  0  0  0  0
   11.1641    0.1404   -5.1213 H   0  0  0  0  0  0  0  0  0  0  0  0
   11.6157    3.7849   -5.7164 H   0  0  0  0  0  0  0  0  0  0  0  0
   15.8718    3.6886   -5.1351 H   0  0  0  0  0  0  0  0  0  0  0  0
   15.7957    1.1818   -5.0197 H   0  0  0  0  0  0  0  0  0  0  0  0
   13.6265   -0.0052   -5.2488 H   0  0  0  0  0  0  0  0  0  0  0  0
    7.9050    3.0433   -4.7127 H   0  0  0  0  0  0  0  0  0  0  0  0
    7.1287    3.5236   -2.3837 H   0  0  0  0  0  0  0  0  0  0  0  0
  1 54  1  0  0  0  0
  1  2  1  0  0  0  0
  2  3  1  0  0  0  0
  3 57  1  0  0  0  0
  3 56  1  0  0  0  0
  3  4  1  0  0  0  0
  4 59  1  0  0  0  0
  5  4  1  0  0  0  0
  6  5  1  0  0  0  0
  7 60  1  0  0  0  0
  7  6  2  0  0  0  0
  8  6  1  0  0  0  0
  8  9  1  0  0  0  0
  9 10  1  0  0  0  0
  9 61  1  0  0  0  0
 10 11  2  0  0  0  0
 12 13  1  0  0  0  0
 12 10  1  0  0  0  0
 13 63  1  0  0  0  0
 14 15  1  0  0  0  0
 15 65  1  0  0  0  0
 15 16  1  0  0  0  0
 16 22  1  0  0  0  0
 16 18  1  0  0  0  0
 16 17  1  1  0  0  0
 18 19  1  0  0  0  0
 19 20  1  0  0  0  0
 19 21  2  0  0  0  0
 20 68  1  0  0  0  0
 20 69  1  0  0  0  0
 22 25  2  0  0  0  0
 23 24  1  0  0  0  0
 23 22  1  0  0  0  0
 24 73  1  0  0  0  0
 24 71  1  0  0  0  0
 26 74  1  0  0  0  0
 26 13  1  0  0  0  0
 27 26  1  0  0  0  0
 28 27  1  0  0  0  0
 28 76  1  0  0  0  0
 29 80  1  0  0  0  0
 29 27  1  0  0  0  0
 30  8  2  0  0  0  0
 31 32  2  0  0  0  0
 31 30  1  0  0  0  0
 32  7  1  0  0  0  0
 33 32  1  0  0  0  0
 34 33  2  0  0  0  0
 35 34  1  0  0  0  0
 35 36  2  0  0  0  0
 36 31  1  0  0  0  0
 37 36  1  0  0  0  0
 37 84  1  0  0  0  0
 38 37  1  0  0  0  0
 39 38  1  0  0  0  0
 39 85  1  0  0  0  0
 40 39  2  0  0  0  0
 41 51  2  0  0  0  0
 41 40  1  0  0  0  0
 42 41  1  0  0  0  0
 43 44  1  0  0  0  0
 43 42  1  0  0  0  0
 43 88  1  0  0  0  0
 44 50  1  0  0  0  0
 45 44  2  0  0  0  0
 45 46  1  0  0  0  0
 46 48  2  0  0  0  0
 47 46  1  0  0  0  0
 48 49  1  0  0  0  0
 48 90  1  0  0  0  0
 49 91  1  0  0  0  0
 50 92  1  0  0  0  0
 50 49  2  0  0  0  0
 51 52  1  0  0  0  0
 52 94  1  0  0  0  0
 52 38  2  0  0  0  0
 53  1  1  0  0  0  0
 55  1  1  0  0  0  0
 58  4  1  0  0  0  0
 62 12  1  0  0  0  0
 64 15  1  0  0  0  0
 66 18  1  0  0  0  0
 67 20  1  0  0  0  0
 70 23  1  0  0  0  0
 72 24  1  0  0  0  0
 75 26  1  0  0  0  0
 77 28  1  0  0  0  0
 78 28  1  0  0  0  0
 79 29  1  0  0  0  0
 81 29  1  0  0  0  0
 82 30  1  0  0  0  0
 83 34  1  0  0  0  0
 86 40  1  0  0  0  0
 87 43  1  0  0  0  0
 89 45  1  0  0  0  0
 93 51  1  0  0  0  0
M  END
