94
-1 1
C         6.198223   -0.898976    3.573686
O         6.514324    0.277554    4.247658
C         6.057848    0.339157    5.566539
C         6.846327    1.374005    6.332704
O         6.604419    2.731842    5.933116
C         6.839290    3.027966    4.630471
C         5.782156    3.363471    3.814080
C         8.171690    2.993386    4.111557
N         9.262707    2.796391    4.963682
C        10.087243    1.648127    4.998299
O        10.895436    1.584574    5.939764
C         9.877516    0.656778    4.001609
C        10.424742   -0.615060    4.163562
S         9.192943   -1.802184    5.775424
C        10.337719   -1.583936    7.182142
C         9.626870   -1.384875    8.524502
H        10.378892   -1.417698    9.330846
N         8.714539   -2.466234    8.780409
C         8.478597   -2.948615   10.026538
C         7.246370   -3.829558   10.132032
O         9.180899   -2.703811   10.990810
C         8.901435   -0.034613    8.733517
N         9.588569    1.071312    8.359826
C         9.098668    2.389813    8.672438
O         7.829340    0.017929    9.316985
C        10.420697   -1.602429    3.013699
N         9.309370   -1.469321    2.086673
C         8.739594   -2.721116    1.662225
C         9.567715   -0.569886    0.991075
C         8.352318    3.123336    2.751639
C         7.256347    3.302474    1.881314
C         5.964417    3.512317    2.421705
N         4.894447    3.803652    1.619779
C         5.130001    3.841643    0.339736
N         6.287404    3.562283   -0.302123
C         7.330774    3.262066    0.443778
N         8.509782    2.861369   -0.124966
C         8.853294    2.626264   -1.461907
C        10.062490    1.963591   -1.706004
C        10.498881    1.693288   -3.000788
C         9.714918    2.080923   -4.089082
O        10.036766    1.856575   -5.397531
C        11.161357    1.082959   -5.699212
C        12.480037    1.807016   -5.514699
C        12.526261    3.200370   -5.576919
C        13.749686    3.842184   -5.439464
F        13.789959    5.174540   -5.497934
C        14.934167    3.141915   -5.244127
C        14.878099    1.751071   -5.182358
C        13.660452    1.085500   -5.313162
C         8.509743    2.746463   -3.853621
C         8.076225    3.021294   -2.562889
H         5.102358   -1.026378    3.455667
H         6.607912   -1.783646    4.097409
H         6.667592   -0.844858    2.582961
H         6.232148   -0.622743    6.086278
H         4.970024    0.562278    5.598666
H         7.910732    1.115022    6.238771
H         6.580466    1.327284    7.396496
H         4.775201    3.424900    4.226657
H         9.207883    3.242379    5.872421
H         9.007830    0.746820    3.353955
H        11.324570   -0.680546    4.784047
H        10.997280   -0.727623    6.975735
H        10.982102   -2.471080    7.283321
H         8.044460   -2.639711    8.038006
H         7.088962   -4.438080    9.229528
H         6.368583   -3.179023   10.266905
H         7.343238   -4.478805   11.010583
H        10.275169    1.029373    7.600957
H         8.601521    2.372844    9.651803
H         8.364717    2.768966    7.939738
H         9.945339    3.090451    8.704666
H        10.430001   -2.620187    3.423694
H        11.389183   -1.474992    2.476216
H         8.456298   -3.321732    2.539186
H         9.425763   -3.332165    1.028858
H         7.826275   -2.538295    1.071944
H        10.285348   -0.985691    0.243399
H         9.993887    0.366479    1.381061
H         8.634158   -0.324124    0.457756
H         9.379832    3.072026    2.385849
H         4.291202    4.108773   -0.315302
H         9.190282    2.516524    0.538242
H        10.684756    1.647595   -0.864190
H        11.457222    1.191937   -3.136446
H        11.049929    0.809903   -6.760545
H        11.164087    0.140389   -5.121332
H        11.615736    3.784896   -5.716409
H        15.871816    3.688613   -5.135066
H        15.795713    1.181765   -5.019652
H        13.626544   -0.005210   -5.248797
H         7.905044    3.043302   -4.712669
H         7.128717    3.523580   -2.383695
