-1 1
 OpenBabel05232413483D

 94 96  0  0  1  0  0  0  0  0999 V2000
   -3.0717   -1.8977    1.0353 C   0  0  0  0  0  0  0  0  0  0  0  0
   -2.7009   -0.7843    1.7912 O   0  0  0  0  0  0  0  0  0  0  0  0
   -3.1934   -0.7908    3.1053 C   0  0  0  0  0  0  0  0  0  0  0  0
   -2.4194    0.1995    3.9381 C   0  0  0  0  0  0  0  0  0  0  0  0
   -2.6243    1.5800    3.5693 O   0  0  0  0  0  0  0  0  0  0  0  0
   -2.3776    1.8851    2.2770 C   0  0  0  0  0  0  0  0  0  0  0  0
   -3.4114    2.2607    1.4488 C   0  0  0  0  0  0  0  0  0  0  0  0
   -1.0463    1.8126    1.7644 C   0  0  0  0  0  0  0  0  0  0  0  0
    0.0278    1.6132    2.6487 N   0  0  0  0  0  0  0  0  0  0  0  0
    0.9783    0.6159    2.6020 C   0  0  0  0  0  0  0  0  0  0  0  0
    1.9438    0.6567    3.3526 O   0  0  0  0  0  0  0  0  0  0  0  0
    0.6925   -0.4973    1.6737 C   0  0  0  0  0  0  0  0  0  0  0  0
    1.5994   -1.4482    1.4353 C   0  0  0  0  0  0  0  0  0  0  0  0
   -0.8082   -3.4901    3.5794 S   0  0  0  0  0  1  0  0  0  0  0  0
    0.6805   -2.9934    4.5129 C   0  0  0  0  0  0  0  0  0  0  0  0
    0.4110   -2.6512    5.9937 C   0  0  2  0  0  0  0  0  0  0  0  0
    1.3698   -2.6116    6.5389 H   0  0  0  0  0  0  0  0  0  0  0  0
   -0.3880   -3.6823    6.5841 N   0  0  0  0  0  0  0  0  0  0  0  0
   -0.4082   -3.9331    7.9103 C   0  0  0  0  0  0  0  0  0  0  0  0
   -1.5145   -4.8747    8.3553 C   0  0  0  0  0  0  0  0  0  0  0  0
    0.3810   -3.4481    8.7059 O   0  0  0  0  0  0  0  0  0  0  0  0
   -0.2399   -1.2725    6.2273 C   0  0  0  0  0  0  0  0  0  0  0  0
    0.4919   -0.2124    5.7872 N   0  0  0  0  0  0  0  0  0  0  0  0
    0.1194    1.1421    6.1018 C   0  0  0  0  0  0  0  0  0  0  0  0
   -1.2872   -1.1205    6.8304 O   0  0  0  0  0  0  0  0  0  0  0  0
    1.2745   -2.7036    0.6902 C   0  0  0  0  0  0  0  0  0  0  0  0
    0.1723   -2.5667   -0.2358 N   0  0  0  0  0  0  0  0  0  0  0  0
   -0.4983   -3.8155   -0.5005 C   0  0  0  0  0  0  0  0  0  0  0  0
    0.5044   -1.8262   -1.4227 C   0  0  0  0  0  0  0  0  0  0  0  0
   -0.8384    1.9264    0.4093 C   0  0  0  0  0  0  0  0  0  0  0  0
   -1.9204    2.1372   -0.4730 C   0  0  0  0  0  0  0  0  0  0  0  0
   -3.2068    2.4006    0.0583 C   0  0  0  0  0  0  0  0  0  0  0  0
   -4.2562    2.7367   -0.7517 N   0  0  0  0  0  0  0  0  0  0  0  0
   -4.0067    2.7722   -2.0294 C   0  0  0  0  0  0  0  0  0  0  0  0
   -2.8563    2.4505   -2.6619 N   0  0  0  0  0  0  0  0  0  0  0  0
   -1.8323    2.1010   -1.9103 C   0  0  0  0  0  0  0  0  0  0  0  0
   -0.6670    1.6595   -2.4737 N   0  0  0  0  0  0  0  0  0  0  0  0
   -0.3045    1.4694   -3.8147 C   0  0  0  0  0  0  0  0  0  0  0  0
    0.9021    0.8043   -4.0631 C   0  0  0  0  0  0  0  0  0  0  0  0
    1.3573    0.5763   -5.3595 C   0  0  0  0  0  0  0  0  0  0  0  0
    0.5961    1.0126   -6.4456 C   0  0  0  0  0  0  0  0  0  0  0  0
    0.9376    0.8350   -7.7548 O   0  0  0  0  0  0  0  0  0  0  0  0
    2.0647    0.0686   -8.0686 C   0  0  0  0  0  0  0  0  0  0  0  0
    3.3827    0.7769   -7.8278 C   0  0  0  0  0  0  0  0  0  0  0  0
    3.4373    2.1714   -7.8323 C   0  0  0  0  0  0  0  0  0  0  0  0
    4.6608    2.7998   -7.6430 C   0  0  0  0  0  0  0  0  0  0  0  0
    4.7088    4.1330   -7.6459 F   0  0  0  0  0  0  0  0  0  0  0  0
    5.8372    2.0851   -7.4514 C   0  0  0  0  0  0  0  0  0  0  0  0
    5.7728    0.6932   -7.4478 C   0  0  0  0  0  0  0  0  0  0  0  0
    4.5548    0.0407   -7.6310 C   0  0  0  0  0  0  0  0  0  0  0  0
   -0.6063    1.6817   -6.2052 C   0  0  0  0  0  0  0  0  0  0  0  0
   -1.0593    1.9124   -4.9126 C   0  0  0  0  0  0  0  0  0  0  0  0
   -4.1732   -1.9664    0.9261 H   0  0  0  0  0  0  0  0  0  0  0  0
   -2.6861   -2.8286    1.4875 H   0  0  0  0  0  0  0  0  0  0  0  0
   -2.6219   -1.7809    0.0398 H   0  0  0  0  0  0  0  0  0  0  0  0
   -3.0246   -1.7775    3.5761 H   0  0  0  0  0  0  0  0  0  0  0  0
   -4.2787   -0.5546    3.1129 H   0  0  0  0  0  0  0  0  0  0  0  0
   -1.3540   -0.0650    3.8783 H   0  0  0  0  0  0  0  0  0  0  0  0
   -2.7182    0.1276    4.9909 H   0  0  0  0  0  0  0  0  0  0  0  0
   -4.4207    2.3548    1.8484 H   0  0  0  0  0  0  0  0  0  0  0  0
    0.0689    2.1957    3.4781 H   0  0  0  0  0  0  0  0  0  0  0  0
   -0.3230   -0.6127    1.2865 H   0  0  0  0  0  0  0  0  0  0  0  0
    2.5927   -1.3609    1.8890 H   0  0  0  0  0  0  0  0  0  0  0  0
    1.1691   -2.1292    4.0317 H   0  0  0  0  0  0  0  0  0  0  0  0
    1.4202   -3.8113    4.5066 H   0  0  0  0  0  0  0  0  0  0  0  0
   -1.0966   -4.0480    5.9441 H   0  0  0  0  0  0  0  0  0  0  0  0
   -1.7888   -5.6003    7.5763 H   0  0  0  0  0  0  0  0  0  0  0  0
   -2.4043   -4.2720    8.5937 H   0  0  0  0  0  0  0  0  0  0  0  0
   -1.1949   -5.3990    9.2648 H   0  0  0  0  0  0  0  0  0  0  0  0
    1.2860   -0.3509    5.1719 H   0  0  0  0  0  0  0  0  0  0  0  0
   -0.1491    1.2254    7.1656 H   0  0  0  0  0  0  0  0  0  0  0  0
   -0.7503    1.4968    5.5216 H   0  0  0  0  0  0  0  0  0  0  0  0
    0.9746    1.7991    5.8910 H   0  0  0  0  0  0  0  0  0  0  0  0
    0.9631   -3.4210    1.4772 H   0  0  0  0  0  0  0  0  0  0  0  0
    2.1892   -3.1133    0.2007 H   0  0  0  0  0  0  0  0  0  0  0  0
   -0.8116   -4.2661    0.4533 H   0  0  0  0  0  0  0  0  0  0  0  0
    0.1407   -4.5475   -1.0478 H   0  0  0  0  0  0  0  0  0  0  0  0
   -1.3974   -3.6376   -1.1122 H   0  0  0  0  0  0  0  0  0  0  0  0
    1.2313   -2.3520   -2.0873 H   0  0  0  0  0  0  0  0  0  0  0  0
    0.9549   -0.8603   -1.1407 H   0  0  0  0  0  0  0  0  0  0  0  0
   -0.4008   -1.6172   -2.0159 H   0  0  0  0  0  0  0  0  0  0  0  0
    0.1900    1.8566    0.0479 H   0  0  0  0  0  0  0  0  0  0  0  0
   -4.8278    3.0771   -2.6901 H   0  0  0  0  0  0  0  0  0  0  0  0
   -0.0110    1.2628   -1.8150 H   0  0  0  0  0  0  0  0  0  0  0  0
    1.5095    0.4540   -3.2243 H   0  0  0  0  0  0  0  0  0  0  0  0
    2.3129    0.0706   -5.4976 H   0  0  0  0  0  0  0  0  0  0  0  0
    1.9713   -0.1575   -9.1425 H   0  0  0  0  0  0  0  0  0  0  0  0
    2.0513   -0.8981   -7.5324 H   0  0  0  0  0  0  0  0  0  0  0  0
    2.5334    2.7670   -7.9678 H   0  0  0  0  0  0  0  0  0  0  0  0
    6.7752    2.6212   -7.3009 H   0  0  0  0  0  0  0  0  0  0  0  0
    6.6839    0.1123   -7.2897 H   0  0  0  0  0  0  0  0  0  0  0  0
    4.5142   -1.0515   -7.6123 H   0  0  0  0  0  0  0  0  0  0  0  0
   -1.1934    2.0166   -7.0623 H   0  0  0  0  0  0  0  0  0  0  0  0
   -2.0046    2.4181   -4.7318 H   0  0  0  0  0  0  0  0  0  0  0  0
  1 54  1  0  0  0  0
  1  2  1  0  0  0  0
  2  3  1  0  0  0  0
  3 57  1  0  0  0  0
  3 56  1  0  0  0  0
  3  4  1  0  0  0  0
  4 59  1  0  0  0  0
  5  4  1  0  0  0  0
  6  5  1  0  0  0  0
  7 60  1  0  0  0  0
  7  6  2  0  0  0  0
  8  6  1  0  0  0  0
  8  9  1  0  0  0  0
  9 61  1  0  0  0  0
 10  9  1  0  0  0  0
 10 11  2  0  0  0  0
 12 10  1  0  0  0  0
 13 12  2  0  0  0  0
 13 63  1  0  0  0  0
 14 15  1  0  0  0  0
 15 16  1  0  0  0  0
 16 22  1  0  0  0  0
 16 17  1  1  0  0  0
 16 18  1  0  0  0  0
 18 19  1  0  0  0  0
 19 20  1  0  0  0  0
 19 21  2  0  0  0  0
 20 68  1  0  0  0  0
 20 69  1  0  0  0  0
 22 25  2  0  0  0  0
 23 24  1  0  0  0  0
 23 22  1  0  0  0  0
 24 71  1  0  0  0  0
 26 13  1  0  0  0  0
 26 74  1  0  0  0  0
 27 26  1  0  0  0  0
 28 27  1  0  0  0  0
 28 76  1  0  0  0  0
 29 80  1  0  0  0  0
 29 27  1  0  0  0  0
 30  8  2  0  0  0  0
 31 32  2  0  0  0  0
 31 30  1  0  0  0  0
 32  7  1  0  0  0  0
 33 32  1  0  0  0  0
 34 33  2  0  0  0  0
 35 34  1  0  0  0  0
 35 36  2  0  0  0  0
 36 31  1  0  0  0  0
 37 36  1  0  0  0  0
 37 84  1  0  0  0  0
 38 37  1  0  0  0  0
 39 38  1  0  0  0  0
 39 85  1  0  0  0  0
 40 39  2  0  0  0  0
 41 51  2  0  0  0  0
 41 40  1  0  0  0  0
 42 41  1  0  0  0  0
 43 44  1  0  0  0  0
 43 42  1  0  0  0  0
 43 88  1  0  0  0  0
 44 50  1  0  0  0  0
 45 44  2  0  0  0  0
 45 46  1  0  0  0  0
 46 48  2  0  0  0  0
 47 46  1  0  0  0  0
 48 49  1  0  0  0  0
 48 90  1  0  0  0  0
 49 91  1  0  0  0  0
 50 92  1  0  0  0  0
 50 49  2  0  0  0  0
 51 52  1  0  0  0  0
 52 94  1  0  0  0  0
 52 38  2  0  0  0  0
 53  1  1  0  0  0  0
 55  1  1  0  0  0  0
 58  4  1  0  0  0  0
 62 12  1  0  0  0  0
 64 15  1  0  0  0  0
 65 15  1  0  0  0  0
 66 18  1  0  0  0  0
 67 20  1  0  0  0  0
 70 23  1  0  0  0  0
 72 24  1  0  0  0  0
 73 24  1  0  0  0  0
 75 26  1  0  0  0  0
 77 28  1  0  0  0  0
 78 28  1  0  0  0  0
 79 29  1  0  0  0  0
 81 29  1  0  0  0  0
 82 30  1  0  0  0  0
 83 34  1  0  0  0  0
 86 40  1  0  0  0  0
 87 43  1  0  0  0  0
 89 45  1  0  0  0  0
 93 51  1  0  0  0  0
M  END
