94
-1 1
C        -3.323151   -2.066633    1.487698
O        -2.921144   -0.852141    2.035326
C        -3.217513   -0.701385    3.391865
C        -2.310797    0.327830    4.026717
O        -2.537883    1.676564    3.608649
C        -2.275939    1.945906    2.300613
C        -3.323557    2.262760    1.463666
C        -0.933515    1.894640    1.807301
N         0.157423    1.697789    2.650497
C         0.929207    0.472262    2.672140
O         1.876667    0.461652    3.512475
C         0.509463   -0.539042    1.832938
C         1.113449   -1.881160    1.838601
S         0.330311   -3.036619    3.133338
C         1.378626   -2.611780    4.571480
C         0.607033   -2.476100    5.885337
H         1.337619   -2.555986    6.707273
N        -0.312860   -3.567492    6.085484
C        -0.449850   -4.178660    7.296110
C        -1.721568   -4.992308    7.442095
O         0.367817   -4.085623    8.191170
C        -0.116702   -1.138495    6.171126
N         0.546132   -0.013083    5.837932
C         0.065154    1.274973    6.273281
O        -1.171263   -1.139808    6.794387
C         1.053950   -2.606450    0.490182
N        -0.276282   -2.680841   -0.102160
C        -0.687547   -4.003706   -0.491755
C        -0.519944   -1.690938   -1.122391
C        -0.743839    1.999183    0.442096
C        -1.823615    2.176632   -0.444958
C        -3.125896    2.387418    0.072592
N        -4.188587    2.653965   -0.748609
C        -3.938030    2.667868   -2.025435
N        -2.765450    2.399547   -2.646369
C        -1.727502    2.131785   -1.882024
N        -0.528783    1.761924   -2.432847
C        -0.169819    1.498234   -3.759273
C         1.056932    0.858754   -3.977651
C         1.509551    0.565338   -5.261896
C         0.723693    0.902882   -6.365354
O         1.061110    0.651494   -7.665831
C         2.200724   -0.110115   -7.937900
C         3.505451    0.642685   -7.769309
C         3.526298    2.034609   -7.866550
C         4.737585    2.701926   -7.743629
F         4.753828    4.032973   -7.835839
C         5.934306    2.028654   -7.528970
C         5.903529    0.638989   -7.432096
C         4.698527   -0.051775   -7.547913
C        -0.499724    1.543088   -6.156081
C        -0.948645    1.842917   -4.876174
H        -4.418390   -2.219188    1.578233
H        -2.801164   -2.917902    1.965318
H        -3.053053   -2.057559    0.424023
H        -3.032985   -1.646105    3.942080
H        -4.285344   -0.430986    3.533992
H        -1.272061    0.025496    3.828798
H        -2.471007    0.317715    5.112355
H        -4.335755    2.328281    1.862781
H         0.049697    2.072276    3.586229
H        -0.473719   -0.463248    1.371859
H         2.169203   -1.834283    2.148153
H         1.904014   -1.677897    4.326064
H         2.128889   -3.405632    4.697296
H        -1.115210   -3.570910    5.466260
H        -1.976291   -5.530890    6.517639
H        -2.546761   -4.302919    7.678542
H        -1.601806   -5.702165    8.268926
H         1.218912    0.019307    5.045514
H        -0.329075    1.201873    7.296606
H        -0.744575    1.676019    5.638952
H         0.900904    1.988520    6.252202
H         1.452708   -3.626581    0.610532
H         1.746872   -2.077022   -0.195225
H        -0.583321   -4.697394    0.355885
H        -0.109991   -4.418545   -1.352315
H        -1.750539   -3.996125   -0.785133
H         0.071257   -1.866057   -2.052839
H        -0.270762   -0.692680   -0.738580
H        -1.585459   -1.678163   -1.403838
H         0.288544    1.914632    0.096855
H        -4.772520    2.905398   -2.697354
H         0.167506    1.482106   -1.755950
H         1.679417    0.579856   -3.122896
H         2.481112    0.084768   -5.378010
H         2.100908   -0.417554   -8.991060
H         2.217508   -1.034468   -7.331433
H         2.605146    2.598190   -8.021672
H         6.861544    2.595085   -7.432278
H         6.831069    0.090888   -7.253536
H         4.684300   -1.140953   -7.456002
H        -1.105726    1.800722   -7.026839
H        -1.909031    2.326803   -4.715444
