-1 1
 OpenBabel05232414493D

 93 95  0  0  1  0  0  0  0  0999 V2000
    4.9182    4.5925   11.4978 C   0  0  0  0  0  0  0  0  0  0  0  0
    3.5960    5.0460   11.3280 O   0  0  0  0  0  0  0  0  0  0  0  0
    3.4339    6.2031   10.5688 C   0  0  0  0  0  0  0  0  0  0  0  0
    3.7378    6.0387    9.0891 C   0  0  0  0  0  0  0  0  0  0  0  0
    5.1349    6.0118    8.9150 O   0  0  0  0  0  0  0  0  0  0  0  0
    5.6846    5.2856    7.9191 C   0  0  0  0  0  0  0  0  0  0  0  0
    5.0275    4.9520    6.7586 C   0  0  0  0  0  0  0  0  0  0  0  0
    7.0338    4.8579    8.1687 C   0  0  0  0  0  0  0  0  0  0  0  0
    7.6217    5.2877    9.3444 N   0  0  0  0  0  0  0  0  0  0  0  0
    8.7685    4.7782    9.9516 C   0  0  0  0  0  0  0  0  0  0  0  0
    9.3504    3.7937    9.4753 O   0  0  0  0  0  0  0  0  0  0  0  0
    9.1971    5.4261   11.1731 C   0  0  0  0  0  3  0  0  0  0  0  0
    9.3213    6.7943   11.3832 C   0  0  0  0  0  3  0  0  0  0  0  0
   11.4095    7.6418   10.5500 S   0  0  0  0  0  1  0  0  0  0  0  0
   12.3962    6.2363   11.1209 C   0  0  0  0  0  0  0  0  0  0  0  0
   13.1324    5.4792   10.0204 C   0  0  2  0  0  0  0  0  0  0  0  0
   13.6985    6.1941    9.4010 H   0  0  0  0  0  0  0  0  0  0  0  0
   12.2147    4.7890    9.1260 N   0  0  0  0  0  0  0  0  0  0  0  0
   12.5078    4.5629    7.8318 C   0  0  0  0  0  0  0  0  0  0  0  0
   11.3769    4.0017    6.9962 C   0  0  0  0  0  0  0  0  0  0  0  0
   13.6115    4.7945    7.3395 O   0  0  0  0  0  0  0  0  0  0  0  0
   14.1522    4.4784   10.6078 C   0  0  0  0  0  0  0  0  0  0  0  0
   15.0233    4.0018    9.6789 N   0  0  0  0  0  0  0  0  0  0  0  0
   15.9880    2.9808    9.9808 C   0  0  0  0  0  0  0  0  0  0  0  0
   14.1756    4.1566   11.7832 O   0  0  0  0  0  0  0  0  0  0  0  0
    8.5165    7.8420   10.6476 C   0  0  0  0  0  0  0  0  0  0  0  0
    7.0714    7.7616   10.8872 N   0  0  0  0  0  0  0  0  0  0  0  0
    6.7344    7.8956   12.2873 C   0  0  0  0  0  0  0  0  0  0  0  0
    6.3717    8.7240   10.0669 C   0  0  0  0  0  0  0  0  0  0  0  0
    7.6312    4.0346    7.2310 C   0  0  0  0  0  0  0  0  0  0  0  0
    6.9605    3.6646    6.0415 C   0  0  0  0  0  0  0  0  0  0  0  0
    5.6544    4.1370    5.7843 C   0  0  0  0  0  0  0  0  0  0  0  0
    4.9773    3.8278    4.6390 N   0  0  0  0  0  0  0  0  0  0  0  0
    5.6112    3.0620    3.7952 C   0  0  0  0  0  0  0  0  0  0  0  0
    6.8430    2.5289    3.9240 N   0  0  0  0  0  0  0  0  0  0  0  0
    7.5187    2.8043    5.0248 C   0  0  0  0  0  0  0  0  0  0  0  0
    8.7592    2.2736    5.2261 N   0  0  0  0  0  0  0  0  0  0  0  0
    9.5216    1.3913    4.4448 C   0  0  0  0  0  0  0  0  0  0  0  0
   10.6958    0.8754    5.0228 C   0  0  0  0  0  0  0  0  0  0  0  0
   11.5218    0.0134    4.3216 C   0  0  0  0  0  0  0  0  0  0  0  0
   11.1981   -0.3723    3.0161 C   0  0  0  0  0  0  0  0  0  0  0  0
   12.0557   -1.2432    2.4179 O   0  0  0  0  0  0  0  0  0  0  0  0
   11.8713   -1.5720    1.0756 C   0  0  0  0  0  0  0  0  0  0  0  0
   12.1082   -0.4200    0.1142 C   0  0  0  0  0  0  0  0  0  0  0  0
   13.1228    0.3945    0.3972 N   0  0  0  0  0  0  0  0  0  0  0  0
   13.3660    1.4119   -0.4223 C   0  0  0  0  0  0  0  0  0  0  0  0
   12.6249    1.6642   -1.5770 C   0  0  0  0  0  0  0  0  0  0  0  0
   11.5726    0.8053   -1.8809 C   0  0  0  0  0  0  0  0  0  0  0  0
   11.3047   -0.2532   -1.0179 C   0  0  0  0  0  0  0  0  0  0  0  0
   10.0343    0.1311    2.4360 C   0  0  0  0  0  0  0  0  0  0  0  0
    9.2021    1.0049    3.1405 C   0  0  0  0  0  0  0  0  0  0  0  0
    5.2940    4.0450   10.6166 H   0  0  0  0  0  0  0  0  0  0  0  0
    4.9194    3.9091   12.3580 H   0  0  0  0  0  0  0  0  0  0  0  0
    5.6186    5.4221   11.6967 H   0  0  0  0  0  0  0  0  0  0  0  0
    4.0553    7.0310   10.9630 H   0  0  0  0  0  0  0  0  0  0  0  0
    2.3772    6.4969   10.6712 H   0  0  0  0  0  0  0  0  0  0  0  0
    3.2976    6.8734    8.5128 H   0  0  0  0  0  0  0  0  0  0  0  0
    3.2883    5.0961    8.7314 H   0  0  0  0  0  0  0  0  0  0  0  0
    4.0133    5.2933    6.5527 H   0  0  0  0  0  0  0  0  0  0  0  0
    7.1099    5.9953    9.8850 H   0  0  0  0  0  0  0  0  0  0  0  0
    9.7756    4.7592   11.8183 H   0  0  0  0  0  0  0  0  0  0  0  0
    9.6394    7.0880   12.3864 H   0  0  0  0  0  0  0  0  0  0  0  0
   11.7450    5.5180   11.6504 H   0  0  0  0  0  0  0  0  0  0  0  0
   13.1442    6.5653   11.8548 H   0  0  0  0  0  0  0  0  0  0  0  0
   11.2884    4.5254    9.4715 H   0  0  0  0  0  0  0  0  0  0  0  0
   10.6851    4.8135    6.7256 H   0  0  0  0  0  0  0  0  0  0  0  0
   10.8096    3.2590    7.5756 H   0  0  0  0  0  0  0  0  0  0  0  0
   11.7930    3.5642    6.0807 H   0  0  0  0  0  0  0  0  0  0  0  0
   14.8531    4.2836    8.7106 H   0  0  0  0  0  0  0  0  0  0  0  0
   15.7604    2.0324    9.4642 H   0  0  0  0  0  0  0  0  0  0  0  0
   15.9639    2.8026   11.0641 H   0  0  0  0  0  0  0  0  0  0  0  0
   17.0067    3.2907    9.6945 H   0  0  0  0  0  0  0  0  0  0  0  0
    8.6820    7.7304    9.5660 H   0  0  0  0  0  0  0  0  0  0  0  0
    8.9024    8.8443   10.9280 H   0  0  0  0  0  0  0  0  0  0  0  0
    5.6450    7.8078   12.4250 H   0  0  0  0  0  0  0  0  0  0  0  0
    7.0555    8.8725   12.7133 H   0  0  0  0  0  0  0  0  0  0  0  0
    7.2135    7.0932   12.8658 H   0  0  0  0  0  0  0  0  0  0  0  0
    5.2851    8.6422   10.2213 H   0  0  0  0  0  0  0  0  0  0  0  0
    6.5745    8.5280    9.0037 H   0  0  0  0  0  0  0  0  0  0  0  0
    6.6715    9.7726   10.2888 H   0  0  0  0  0  0  0  0  0  0  0  0
    8.6238    3.6725    7.4812 H   0  0  0  0  0  0  0  0  0  0  0  0
    5.0902    2.8078    2.8634 H   0  0  0  0  0  0  0  0  0  0  0  0
    9.1890    2.5210    6.1070 H   0  0  0  0  0  0  0  0  0  0  0  0
   10.9675    1.1615    6.0420 H   0  0  0  0  0  0  0  0  0  0  0  0
   12.4353   -0.3773    4.7723 H   0  0  0  0  0  0  0  0  0  0  0  0
   10.8708   -2.0096    0.8970 H   0  0  0  0  0  0  0  0  0  0  0  0
   12.6138   -2.3576    0.8663 H   0  0  0  0  0  0  0  0  0  0  0  0
   14.1997    2.0677   -0.1481 H   0  0  0  0  0  0  0  0  0  0  0  0
   12.8663    2.5167   -2.2142 H   0  0  0  0  0  0  0  0  0  0  0  0
   10.9585    0.9658   -2.7700 H   0  0  0  0  0  0  0  0  0  0  0  0
   10.4724   -0.9351   -1.2083 H   0  0  0  0  0  0  0  0  0  0  0  0
    9.7499   -0.1355    1.4180 H   0  0  0  0  0  0  0  0  0  0  0  0
    8.2932    1.3900    2.6860 H   0  0  0  0  0  0  0  0  0  0  0  0
  1 54  1  0  0  0  0
  1 53  1  0  0  0  0
  2  1  1  0  0  0  0
  3 56  1  0  0  0  0
  3 55  1  0  0  0  0
  3  2  1  0  0  0  0
  4  3  1  0  0  0  0
  5  4  1  0  0  0  0
  6  8  1  0  0  0  0
  6  5  1  0  0  0  0
  7  6  2  0  0  0  0
  8  9  1  0  0  0  0
  9 60  1  0  0  0  0
  9 10  1  0  0  0  0
 10 12  1  0  0  0  0
 11 10  2  0  0  0  0
 12 13  1  0  0  0  0
 12 61  1  0  0  0  0
 13 62  1  0  0  0  0
 14 15  1  0  0  0  0
 15 63  1  0  0  0  0
 15 64  1  0  0  0  0
 16 17  1  6  0  0  0
 16 22  1  0  0  0  0
 16 15  1  0  0  0  0
 18 65  1  0  0  0  0
 18 16  1  0  0  0  0
 19 18  1  0  0  0  0
 20 67  1  0  0  0  0
 20 19  1  0  0  0  0
 21 19  2  0  0  0  0
 22 25  2  0  0  0  0
 23 24  1  0  0  0  0
 23 22  1  0  0  0  0
 24 71  1  0  0  0  0
 26 27  1  0  0  0  0
 26 74  1  0  0  0  0
 26 13  1  0  0  0  0
 27 28  1  0  0  0  0
 28 75  1  0  0  0  0
 28 76  1  0  0  0  0
 28 77  1  0  0  0  0
 29 78  1  0  0  0  0
 29 80  1  0  0  0  0
 29 27  1  0  0  0  0
 30 81  1  0  0  0  0
 30  8  2  0  0  0  0
 31 30  1  0  0  0  0
 32 31  2  0  0  0  0
 32  7  1  0  0  0  0
 33 32  1  0  0  0  0
 34 35  1  0  0  0  0
 34 33  2  0  0  0  0
 35 36  2  0  0  0  0
 36 37  1  0  0  0  0
 36 31  1  0  0  0  0
 37 83  1  0  0  0  0
 38 39  1  0  0  0  0
 38 37  1  0  0  0  0
 39 84  1  0  0  0  0
 40 85  1  0  0  0  0
 40 39  2  0  0  0  0
 41 40  1  0  0  0  0
 42 41  1  0  0  0  0
 43 42  1  0  0  0  0
 44 45  1  0  0  0  0
 44 43  1  0  0  0  0
 46 88  1  0  0  0  0
 46 45  2  0  0  0  0
 47 46  1  0  0  0  0
 48 47  2  0  0  0  0
 48 49  1  0  0  0  0
 49 44  2  0  0  0  0
 50 41  2  0  0  0  0
 50 51  1  0  0  0  0
 51 38  2  0  0  0  0
 52  1  1  0  0  0  0
 57  4  1  0  0  0  0
 58  4  1  0  0  0  0
 59  7  1  0  0  0  0
 66 20  1  0  0  0  0
 68 20  1  0  0  0  0
 69 23  1  0  0  0  0
 70 24  1  0  0  0  0
 72 24  1  0  0  0  0
 73 26  1  0  0  0  0
 79 29  1  0  0  0  0
 82 34  1  0  0  0  0
 86 43  1  0  0  0  0
 87 43  1  0  0  0  0
 89 47  1  0  0  0  0
 90 48  1  0  0  0  0
 91 49  1  0  0  0  0
 92 50  1  0  0  0  0
 93 51  1  0  0  0  0
M  END
