93
-1 1
C         4.918226    4.592499   11.497752
O         3.596012    5.046022   11.328000
C         3.433887    6.203142   10.568811
C         3.737795    6.038747    9.089071
O         5.134856    6.011813    8.915044
C         5.684624    5.285612    7.919069
C         5.027527    4.952046    6.758583
C         7.033760    4.857926    8.168747
N         7.621749    5.287651    9.344406
C         8.768453    4.778176    9.951643
O         9.350364    3.793739    9.475266
C         9.197136    5.426133   11.173061
C         9.321317    6.794328   11.383175
S        11.409485    7.641783   10.549957
C        12.396245    6.236347   11.120859
C        13.132355    5.479228   10.020362
H        13.698538    6.194132    9.401025
N        12.214659    4.789046    9.126031
C        12.507815    4.562884    7.831823
C        11.376944    4.001658    6.996250
O        13.611490    4.794466    7.339516
C        14.152167    4.478402   10.607843
N        15.023305    4.001763    9.678887
C        15.987981    2.980841    9.980841
O        14.175631    4.156647   11.783193
C         8.516491    7.842040   10.647648
N         7.071447    7.761566   10.887237
C         6.734405    7.895560   12.287336
C         6.371689    8.723992   10.066939
C         7.631172    4.034639    7.231005
C         6.960532    3.664559    6.041528
C         5.654421    4.137004    5.784255
N         4.977321    3.827769    4.638954
C         5.611233    3.061985    3.795226
N         6.842963    2.528944    3.923995
C         7.518697    2.804265    5.024805
N         8.759202    2.273610    5.226070
C         9.521552    1.391322    4.444838
C        10.695821    0.875421    5.022804
C        11.521792    0.013351    4.321566
C        11.198148   -0.372334    3.016080
O        12.055744   -1.243244    2.417905
C        11.871287   -1.572044    1.075571
C        12.108227   -0.419986    0.114227
N        13.122783    0.394536    0.397175
C        13.366011    1.411896   -0.422300
C        12.624853    1.664184   -1.577028
C        11.572612    0.805293   -1.880879
C        11.304666   -0.253184   -1.017900
C        10.034333    0.131099    2.436049
C         9.202119    1.004948    3.140511
H         5.293974    4.045032   10.616633
H         4.919370    3.909100   12.358039
H         5.618580    5.422110   11.696741
H         4.055321    7.031014   10.963031
H         2.377236    6.496871   10.671244
H         3.297558    6.873441    8.512834
H         3.288292    5.096093    8.731395
H         4.013251    5.293280    6.552695
H         7.109928    5.995272    9.884953
H         9.775631    4.759172   11.818257
H         9.639380    7.087965   12.386412
H        11.745049    5.518031   11.650390
H        13.144184    6.565316   11.854845
H        11.288445    4.525425    9.471544
H        10.685062    4.813510    6.725562
H        10.809586    3.259047    7.575604
H        11.792977    3.564196    6.080712
H        14.853123    4.283573    8.710636
H        15.760440    2.032405    9.464188
H        15.963902    2.802650   11.064057
H        17.006669    3.290723    9.694528
H         8.682046    7.730418    9.566049
H         8.902441    8.844298   10.927965
H         5.644972    7.807778   12.424966
H         7.055465    8.872530   12.713312
H         7.213461    7.093162   12.865805
H         5.285098    8.642227   10.221346
H         6.574517    8.527990    9.003661
H         6.671494    9.772552   10.288803
H         8.623777    3.672530    7.481191
H         5.090157    2.807819    2.863445
H         9.189028    2.520956    6.106959
H        10.967528    1.161538    6.041953
H        12.435260   -0.377253    4.772293
H        10.870837   -2.009563    0.897025
H        12.613780   -2.357634    0.866319
H        14.199683    2.067736   -0.148057
H        12.866260    2.516690   -2.214183
H        10.958480    0.965797   -2.769984
H        10.472408   -0.935148   -1.208259
H         9.749888   -0.135470    1.418011
H         8.293175    1.390001    2.685995
