80
-1 1
C         9.407339   -0.771660    7.003899
O         9.168478   -2.155189    6.894318
C         9.128895   -2.865792    8.104968
C         7.700191   -3.173132    8.513125
O         7.024706   -1.943917    8.685602
C         5.697298   -1.882084    8.360362
C         4.777341   -1.693617    9.365568
C         5.303117   -1.936613    6.980605
N         6.264239   -2.106095    6.003050
C         6.049480   -2.043992    4.609727
O         4.903966   -2.109809    4.156791
C         7.219839   -1.822547    3.814632
C         7.015151   -1.344983    2.532859
S         6.189072    0.993927    2.726396
C         4.813419    0.825617    1.548670
C         3.600392    0.018208    2.075282
H         3.972836   -0.931817    2.490998
N         2.633915   -0.252621    1.033194
C         2.770407   -1.244066    0.126456
C         1.598975   -1.406558   -0.828403
O         3.736832   -1.987699    0.075798
C         2.846903    0.772761    3.167511
N         3.424972    0.724237    4.390916
C         3.002373    1.606162    5.452329
O         1.789242    1.349617    2.938451
C         8.150354   -1.132700    1.565674
N         7.734597   -0.791201    0.221790
C         7.087379   -1.877477   -0.474834
C         8.794736   -0.194314   -0.543506
C         3.952760   -1.776487    6.700768
C         3.015592   -1.528328    7.718397
C         3.403582   -1.514627    9.075523
N         2.496420   -1.343441   10.084617
C         1.257078   -1.185594    9.713075
N         0.765314   -1.116743    8.453739
C         1.620987   -1.254793    7.460952
N         1.233099   -1.126489    6.157856
C        -0.026966   -0.939441    5.584820
C        -0.072538   -0.893593    4.182181
C        -1.276736   -0.704869    3.522407
Cl        -1.318840   -0.637826    1.785012
C        -2.458569   -0.570368    4.249786
F        -3.620672   -0.391496    3.618367
C        -2.423168   -0.623456    5.634330
C        -1.218716   -0.804764    6.311014
H         9.291834   -0.343897    5.998897
H        10.434188   -0.570833    7.362653
H         8.685098   -0.287692    7.681157
H         9.629728   -2.297501    8.909827
H         9.676098   -3.814499    7.973470
H         7.688164   -3.751989    9.455393
H         7.212573   -3.783202    7.734459
H         5.111583   -1.662202   10.402956
H         7.236802   -2.046723    6.292595
H         8.201305   -1.770115    4.295230
H         6.040586   -1.561096    2.090377
H         5.190301    0.293623    0.661453
H         4.461308    1.816985    1.218105
H         1.806641    0.336946    1.056515
H         0.962420   -0.512675   -0.887526
H         0.982309   -2.251489   -0.486860
H         1.988057   -1.653767   -1.824618
H         4.413728    0.449428    4.362690
H         1.910625    1.718291    5.415668
H         3.457417    2.607202    5.361014
H         3.289290    1.176306    6.423013
H         8.775030   -2.061885    1.561137
H         8.795362   -0.328382    1.948566
H         7.759870   -2.758042   -0.617921
H         6.760344   -1.537310   -1.469429
H         6.181073   -2.205569    0.052493
H         9.657803   -0.882977   -0.720502
H         9.175141    0.700997   -0.028214
H         8.418153    0.120767   -1.529491
H         3.679866   -1.841518    5.650707
H         0.507914   -1.076038   10.507155
H         1.999613   -1.078575    5.493092
H         0.838520   -0.988033    3.590869
H        -3.359861   -0.514699    6.183905
H        -1.179870   -0.838170    7.396983
