-1 1
 OpenBabel05232413483D

 80 81  0  0  1  0  0  0  0  0999 V2000
    5.3474    0.7581    1.6888 C   0  0  0  0  0  0  0  0  0  0  0  0
    5.2777   -0.6541    1.7846 O   0  0  0  0  0  0  0  0  0  0  0  0
    5.4900   -1.2018    3.0579 C   0  0  0  0  0  0  0  0  0  0  0  0
    4.1808   -1.6593    3.6788 C   0  0  0  0  0  0  0  0  0  0  0  0
    3.3435   -0.5278    3.8025 O   0  0  0  0  0  0  0  0  0  0  0  0
    2.0039   -0.6384    3.5700 C   0  0  0  0  0  0  0  0  0  0  0  0
    1.1398   -0.3830    4.6088 C   0  0  0  0  0  0  0  0  0  0  0  0
    1.5156   -0.9307    2.2531 C   0  0  0  0  0  0  0  0  0  0  0  0
    2.4368   -1.2148    1.2534 N   0  0  0  0  0  0  0  0  0  0  0  0
    2.1584   -1.5251   -0.0620 C   0  0  0  0  0  0  0  0  0  0  0  0
    1.0488   -1.8465   -0.4532 O   0  0  0  0  0  0  0  0  0  0  0  0
    3.3518   -1.4571   -0.9422 C   0  0  0  0  0  0  0  0  0  0  0  0
    3.2476   -1.5543   -2.2704 C   0  0  0  0  0  0  0  0  0  0  0  0
    2.4788    1.8342   -0.4149 S   0  0  0  0  0  1  0  0  0  0  0  0
    1.6239    1.6436   -2.0209 C   0  0  0  0  0  0  0  0  0  0  0  0
    0.2318    0.9518   -1.9889 C   0  0  2  0  0  0  0  0  0  0  0  0
    0.3669   -0.0733   -1.6084 H   0  0  0  0  0  0  0  0  0  0  0  0
   -0.3664    0.8879   -3.3078 N   0  0  0  0  0  0  0  0  0  0  0  0
   -0.2214   -0.1245   -4.1815 C   0  0  0  0  0  0  0  0  0  0  0  0
   -1.0035    0.0247   -5.4761 C   0  0  0  0  0  0  0  0  0  0  0  0
    0.5008   -1.0954   -4.0019 O   0  0  0  0  0  0  0  0  0  0  0  0
   -0.7936    1.6741   -1.1102 C   0  0  0  0  0  0  0  0  0  0  0  0
   -0.5143    1.6814    0.2131 N   0  0  0  0  0  0  0  0  0  0  0  0
   -1.2041    2.5939    1.0979 C   0  0  0  0  0  0  0  0  0  0  0  0
   -1.8064    2.1818   -1.5904 O   0  0  0  0  0  0  0  0  0  0  0  0
    4.4400   -1.4256   -3.1741 C   0  0  0  0  0  0  0  0  0  0  0  0
    4.2765   -0.4193   -4.2102 N   0  0  0  0  0  0  0  0  0  0  0  0
    3.4388   -0.8598   -5.3004 C   0  0  0  0  0  0  0  0  0  0  0  0
    5.5324    0.1167   -4.6658 C   0  0  0  0  0  0  0  0  0  0  0  0
    0.1491   -0.8825    2.0416 C   0  0  0  0  0  0  0  0  0  0  0  0
   -0.7354   -0.5429    3.0851 C   0  0  0  0  0  0  0  0  0  0  0  0
   -0.2583   -0.3476    4.4010 C   0  0  0  0  0  0  0  0  0  0  0  0
   -1.1053   -0.1394    5.4536 N   0  0  0  0  0  0  0  0  0  0  0  0
   -2.3766   -0.1232    5.1634 C   0  0  0  0  0  0  0  0  0  0  0  0
   -2.9505   -0.1930    3.9425 N   0  0  0  0  0  0  0  0  0  0  0  0
   -2.1518   -0.3440    2.9050 C   0  0  0  0  0  0  0  0  0  0  0  0
   -2.6353   -0.2715    1.6268 N   0  0  0  0  0  0  0  0  0  0  0  0
   -3.9550   -0.1001    1.1939 C   0  0  0  0  0  0  0  0  0  0  0  0
   -4.1528    0.4535   -0.0809 C   0  0  0  0  0  0  0  0  0  0  0  0
   -5.4387    0.5977   -0.5876 C   0  0  0  0  0  0  0  0  0  0  0  0
   -5.6847    1.2818   -2.1685 Cl  0  0  0  0  0  0  0  0  0  0  0  0
   -6.5410    0.2049    0.1682 C   0  0  0  0  0  0  0  0  0  0  0  0
   -7.7766    0.3467   -0.3158 F   0  0  0  0  0  0  0  0  0  0  0  0
   -6.3519   -0.3314    1.4330 C   0  0  0  0  0  0  0  0  0  0  0  0
   -5.0703   -0.4884    1.9512 C   0  0  0  0  0  0  0  0  0  0  0  0
    4.9161    1.0431    0.7171 H   0  0  0  0  0  0  0  0  0  0  0  0
    6.3954    1.1026    1.7567 H   0  0  0  0  0  0  0  0  0  0  0  0
    4.7484    1.2383    2.4786 H   0  0  0  0  0  0  0  0  0  0  0  0
    5.9745   -0.4664    3.7251 H   0  0  0  0  0  0  0  0  0  0  0  0
    6.1665   -2.0694    2.9677 H   0  0  0  0  0  0  0  0  0  0  0  0
    4.3666   -2.1007    4.6754 H   0  0  0  0  0  0  0  0  0  0  0  0
    3.7122   -2.4314    3.0474 H   0  0  0  0  0  0  0  0  0  0  0  0
    1.5360   -0.1867    5.6051 H   0  0  0  0  0  0  0  0  0  0  0  0
    3.3882   -0.8856    1.4149 H   0  0  0  0  0  0  0  0  0  0  0  0
    4.3163   -1.2666   -0.4613 H   0  0  0  0  0  0  0  0  0  0  0  0
    2.2539   -1.6832   -2.7174 H   0  0  0  0  0  0  0  0  0  0  0  0
    2.2457    1.0311   -2.6957 H   0  0  0  0  0  0  0  0  0  0  0  0
    1.4938    2.6265   -2.5053 H   0  0  0  0  0  0  0  0  0  0  0  0
   -1.1047    1.5721   -3.4470 H   0  0  0  0  0  0  0  0  0  0  0  0
   -1.7807    0.8003   -5.4330 H   0  0  0  0  0  0  0  0  0  0  0  0
   -1.4611   -0.9429   -5.7210 H   0  0  0  0  0  0  0  0  0  0  0  0
   -0.2978    0.2738   -6.2829 H   0  0  0  0  0  0  0  0  0  0  0  0
    0.5111    1.5590    0.3909 H   0  0  0  0  0  0  0  0  0  0  0  0
   -2.2842    2.5773    0.8986 H   0  0  0  0  0  0  0  0  0  0  0  0
   -0.8479    3.6302    0.9715 H   0  0  0  0  0  0  0  0  0  0  0  0
   -1.0264    2.2886    2.1389 H   0  0  0  0  0  0  0  0  0  0  0  0
    4.6748   -2.4219   -3.6252 H   0  0  0  0  0  0  0  0  0  0  0  0
    5.3126   -1.1510   -2.5619 H   0  0  0  0  0  0  0  0  0  0  0  0
    3.9022   -1.6945   -5.8805 H   0  0  0  0  0  0  0  0  0  0  0  0
    3.2645   -0.0240   -5.9966 H   0  0  0  0  0  0  0  0  0  0  0  0
    2.4577   -1.1888   -4.9318 H   0  0  0  0  0  0  0  0  0  0  0  0
    6.1820   -0.6418   -5.1671 H   0  0  0  0  0  0  0  0  0  0  0  0
    6.0956    0.5435   -3.8220 H   0  0  0  0  0  0  0  0  0  0  0  0
    5.3527    0.9269   -5.3895 H   0  0  0  0  0  0  0  0  0  0  0  0
   -0.2073   -1.1134    1.0414 H   0  0  0  0  0  0  0  0  0  0  0  0
   -3.0782   -0.0116    5.9997 H   0  0  0  0  0  0  0  0  0  0  0  0
   -1.9242   -0.0705    0.9261 H   0  0  0  0  0  0  0  0  0  0  0  0
   -3.3115    0.8071   -0.6842 H   0  0  0  0  0  0  0  0  0  0  0  0
   -7.2289   -0.6278    2.0111 H   0  0  0  0  0  0  0  0  0  0  0  0
   -4.9246   -0.8883    2.9510 H   0  0  0  0  0  0  0  0  0  0  0  0
  1 47  1  0  0  0  0
  1  2  1  0  0  0  0
  1 48  1  0  0  0  0
  2  3  1  0  0  0  0
  3  4  1  0  0  0  0
  3 49  1  0  0  0  0
  4  5  1  0  0  0  0
  4 51  1  0  0  0  0
  6  5  1  0  0  0  0
  6  7  1  0  0  0  0
  7 53  1  0  0  0  0
  8  6  2  0  0  0  0
  9 54  1  0  0  0  0
  9  8  1  0  0  0  0
 10  9  1  0  0  0  0
 11 10  2  0  0  0  0
 12 55  1  0  0  0  0
 12 10  1  0  0  0  0
 13 12  2  0  0  0  0
 15 16  1  0  0  0  0
 15 14  1  0  0  0  0
 16 17  1  1  0  0  0
 16 22  1  0  0  0  0
 18 16  1  0  0  0  0
 19 21  2  0  0  0  0
 19 18  1  0  0  0  0
 20 60  1  0  0  0  0
 20 19  1  0  0  0  0
 22 23  1  0  0  0  0
 23 63  1  0  0  0  0
 23 24  1  0  0  0  0
 24 66  1  0  0  0  0
 25 22  2  0  0  0  0
 26 68  1  0  0  0  0
 26 13  1  0  0  0  0
 27 26  1  0  0  0  0
 28 71  1  0  0  0  0
 28 27  1  0  0  0  0
 29 27  1  0  0  0  0
 29 73  1  0  0  0  0
 30  8  1  0  0  0  0
 30 31  2  0  0  0  0
 31 32  1  0  0  0  0
 32  7  2  0  0  0  0
 32 33  1  0  0  0  0
 34 33  2  0  0  0  0
 34 76  1  0  0  0  0
 35 34  1  0  0  0  0
 36 31  1  0  0  0  0
 36 35  2  0  0  0  0
 37 36  1  0  0  0  0
 38 37  1  0  0  0  0
 38 45  1  0  0  0  0
 39 38  2  0  0  0  0
 40 39  1  0  0  0  0
 40 42  2  0  0  0  0
 41 40  1  0  0  0  0
 42 44  1  0  0  0  0
 43 42  1  0  0  0  0
 44 45  2  0  0  0  0
 44 79  1  0  0  0  0
 45 80  1  0  0  0  0
 46  1  1  0  0  0  0
 50  3  1  0  0  0  0
 52  4  1  0  0  0  0
 56 13  1  0  0  0  0
 57 15  1  0  0  0  0
 58 15  1  0  0  0  0
 59 18  1  0  0  0  0
 61 20  1  0  0  0  0
 62 20  1  0  0  0  0
 64 24  1  0  0  0  0
 65 24  1  0  0  0  0
 67 26  1  0  0  0  0
 69 28  1  0  0  0  0
 70 28  1  0  0  0  0
 72 29  1  0  0  0  0
 74 29  1  0  0  0  0
 75 30  1  0  0  0  0
 77 37  1  0  0  0  0
 78 39  1  0  0  0  0
M  END
