94
-1 1
C         1.582861    4.961512    4.973227
N         2.523886    3.875849    5.040987
C         1.919095    2.561719    5.096881
C         1.068313    2.174306    3.915946
S         4.933777    0.147891    4.669950
C         4.194354   -0.588249    3.176408
C         2.759903   -1.130950    3.408938
H         2.085588   -0.269953    3.512785
N         2.735946   -1.896443    4.628557
C         1.625105   -2.099287    5.350445
C         1.812328   -2.798457    6.676363
O         0.492013   -1.792209    4.969362
C         2.310980   -1.953673    2.201756
N         1.989044   -1.205470    1.113988
C         1.672788   -1.806436   -0.157717
O         2.291156   -3.173134    2.169873
C         0.212117    1.146237    3.909609
C        -0.394496    0.671999    2.639302
N        -0.784629   -0.646166    2.677601
C        -1.226198   -1.395592    1.591524
C        -1.525515   -0.873422    0.351082
C        -1.351345   -2.817783    1.789569
O        -1.079454   -3.221118    3.032365
C        -1.107750   -4.595893    3.379399
H        -2.060884   -5.023844    3.026873
C         0.110074   -5.373126    2.863908
C         1.039602   -5.374200    4.073124
O         0.175173   -5.447116    5.192965
C        -0.971991   -4.677526    4.914022
C        -1.729468   -3.640728    0.750923
C        -2.017320   -3.106437   -0.528801
C        -1.913585   -1.711724   -0.722542
C        -2.186012   -1.248991   -2.056369
N        -2.066340    0.090390   -2.316745
C        -2.220321    0.817452   -3.499966
C        -2.604105    0.256932   -4.726707
C        -2.718732    1.069698   -5.846962
Cl        -3.184577    0.348682   -7.367448
C        -2.468569    2.447960   -5.803482
O        -2.611449    3.147325   -6.955835
C        -2.284030    4.509850   -6.972303
C        -0.798005    4.782080   -6.854761
N        -0.466218    5.993102   -6.408892
C         0.826448    6.294090   -6.305019
C         1.848797    5.403811   -6.627841
C         1.496348    4.137615   -7.090235
C         0.148323    3.817677   -7.212135
C        -2.086545    2.996763   -4.576448
C        -1.966490    2.194608   -3.447329
N        -2.533653   -2.086887   -3.013781
C        -2.615253   -3.395379   -2.693802
N        -2.380469   -3.951246   -1.538016
O        -0.482743    1.380437    1.643512
C         3.605752    3.981023    4.088427
H         2.104762    5.923082    5.111159
H         0.835198    4.866221    5.777393
H         1.027270    5.023984    4.008043
H         1.331281    2.462416    6.026829
H         2.739458    1.814440    5.164522
H         1.230774    2.700933    2.966858
H         4.816696   -1.421985    2.806451
H         4.133736    0.145668    2.356315
H         3.629309   -1.833200    5.131241
H         1.225187   -2.271041    7.439927
H         2.863677   -2.853989    6.987605
H         1.404993   -3.817458    6.577085
H         1.992888   -0.197328    1.194956
H         1.209935   -1.054153   -0.808973
H         0.961048   -2.634478   -0.024866
H         2.570690   -2.208997   -0.656239
H         0.057207    0.538066    4.805283
H        -0.468626   -1.183730    3.500015
H        -1.403277    0.201478    0.242732
H         0.573636   -4.890115    1.993950
H        -0.193205   -6.397570    2.597743
H         1.649934   -4.455356    4.073528
H         1.715116   -6.240564    4.106752
H        -0.871703   -3.647451    5.296093
H        -1.837703   -5.165332    5.387192
H        -1.803393   -4.720372    0.866666
H        -1.794765    0.650040   -1.520453
H        -2.801643   -0.810562   -4.787948
H        -2.814639    5.076776   -6.188629
H        -2.643601    4.883377   -7.942917
H         1.064149    7.297195   -5.934287
H         2.893710    5.695842   -6.510517
H         2.263759    3.404755   -7.349180
H        -0.177300    2.837546   -7.564273
H        -1.862001    4.060033   -4.489382
H        -1.658408    2.653565   -2.504333
H        -2.912164   -4.057132   -3.516611
H         4.279201    3.115760    4.196520
H         4.182653    4.902167    4.275188
H         3.264476    4.018461    3.027533
