-1 1
 OpenBabel05232413483D

 94 97  0  0  1  0  0  0  0  0999 V2000
    1.5829    4.9615    4.9732 C   0  0  0  0  0  0  0  0  0  0  0  0
    2.5239    3.8758    5.0410 N   0  0  0  0  0  0  0  0  0  0  0  0
    1.9191    2.5617    5.0969 C   0  0  0  0  0  0  0  0  0  0  0  0
    1.0683    2.1743    3.9159 C   0  0  0  0  0  0  0  0  0  0  0  0
    4.9338    0.1479    4.6700 S   0  0  0  0  0  1  0  0  0  0  0  0
    4.1944   -0.5882    3.1764 C   0  0  0  0  0  0  0  0  0  0  0  0
    2.7599   -1.1309    3.4089 C   0  0  2  0  0  0  0  0  0  0  0  0
    2.0856   -0.2700    3.5128 H   0  0  0  0  0  0  0  0  0  0  0  0
    2.7359   -1.8964    4.6286 N   0  0  0  0  0  0  0  0  0  0  0  0
    1.6251   -2.0993    5.3504 C   0  0  0  0  0  0  0  0  0  0  0  0
    1.8123   -2.7985    6.6764 C   0  0  0  0  0  0  0  0  0  0  0  0
    0.4920   -1.7922    4.9694 O   0  0  0  0  0  0  0  0  0  0  0  0
    2.3110   -1.9537    2.2018 C   0  0  0  0  0  0  0  0  0  0  0  0
    1.9890   -1.2055    1.1140 N   0  0  0  0  0  0  0  0  0  0  0  0
    1.6728   -1.8064   -0.1577 C   0  0  0  0  0  0  0  0  0  0  0  0
    2.2912   -3.1731    2.1699 O   0  0  0  0  0  0  0  0  0  0  0  0
    0.2121    1.1462    3.9096 C   0  0  0  0  0  0  0  0  0  0  0  0
   -0.3945    0.6720    2.6393 C   0  0  0  0  0  0  0  0  0  0  0  0
   -0.7846   -0.6462    2.6776 N   0  0  0  0  0  0  0  0  0  0  0  0
   -1.2262   -1.3956    1.5915 C   0  0  0  0  0  0  0  0  0  0  0  0
   -1.5255   -0.8734    0.3511 C   0  0  0  0  0  0  0  0  0  0  0  0
   -1.3513   -2.8178    1.7896 C   0  0  0  0  0  0  0  0  0  0  0  0
   -1.0795   -3.2211    3.0324 O   0  0  0  0  0  0  0  0  0  0  0  0
   -1.1078   -4.5959    3.3794 C   0  0  1  0  0  0  0  0  0  0  0  0
   -2.0609   -5.0238    3.0269 H   0  0  0  0  0  0  0  0  0  0  0  0
    0.1101   -5.3731    2.8639 C   0  0  0  0  0  0  0  0  0  0  0  0
    1.0396   -5.3742    4.0731 C   0  0  0  0  0  0  0  0  0  0  0  0
    0.1752   -5.4471    5.1930 O   0  0  0  0  0  0  0  0  0  0  0  0
   -0.9720   -4.6775    4.9140 C   0  0  0  0  0  0  0  0  0  0  0  0
   -1.7295   -3.6407    0.7509 C   0  0  0  0  0  0  0  0  0  0  0  0
   -2.0173   -3.1064   -0.5288 C   0  0  0  0  0  0  0  0  0  0  0  0
   -1.9136   -1.7117   -0.7225 C   0  0  0  0  0  0  0  0  0  0  0  0
   -2.1860   -1.2490   -2.0564 C   0  0  1  0  0  3  0  0  0  0  0  0
   -2.0663    0.0904   -2.3167 N   0  0  0  0  0  0  0  0  0  0  0  0
   -2.2203    0.8175   -3.5000 C   0  0  0  0  0  0  0  0  0  0  0  0
   -2.6041    0.2569   -4.7267 C   0  0  0  0  0  0  0  0  0  0  0  0
   -2.7187    1.0697   -5.8470 C   0  0  0  0  0  0  0  0  0  0  0  0
   -3.1846    0.3487   -7.3674 Cl  0  0  0  0  0  0  0  0  0  0  0  0
   -2.4686    2.4480   -5.8035 C   0  0  0  0  0  0  0  0  0  0  0  0
   -2.6114    3.1473   -6.9558 O   0  0  0  0  0  0  0  0  0  0  0  0
   -2.2840    4.5099   -6.9723 C   0  0  0  0  0  0  0  0  0  0  0  0
   -0.7980    4.7821   -6.8548 C   0  0  0  0  0  0  0  0  0  0  0  0
   -0.4662    5.9931   -6.4089 N   0  0  0  0  0  0  0  0  0  0  0  0
    0.8264    6.2941   -6.3050 C   0  0  0  0  0  0  0  0  0  0  0  0
    1.8488    5.4038   -6.6278 C   0  0  0  0  0  0  0  0  0  0  0  0
    1.4963    4.1376   -7.0902 C   0  0  0  0  0  0  0  0  0  0  0  0
    0.1483    3.8177   -7.2121 C   0  0  0  0  0  0  0  0  0  0  0  0
   -2.0865    2.9968   -4.5764 C   0  0  0  0  0  0  0  0  0  0  0  0
   -1.9665    2.1946   -3.4473 C   0  0  0  0  0  0  0  0  0  0  0  0
   -2.5337   -2.0869   -3.0138 N   0  0  0  0  0  0  0  0  0  0  0  0
   -2.6153   -3.3954   -2.6938 C   0  0  0  0  0  0  0  0  0  0  0  0
   -2.3805   -3.9512   -1.5380 N   0  0  0  0  0  2  0  0  0  0  0  0
   -0.4827    1.3804    1.6435 O   0  0  0  0  0  0  0  0  0  0  0  0
    3.6058    3.9810    4.0884 C   0  0  0  0  0  0  0  0  0  0  0  0
    2.1048    5.9231    5.1112 H   0  0  0  0  0  0  0  0  0  0  0  0
    0.8352    4.8662    5.7774 H   0  0  0  0  0  0  0  0  0  0  0  0
    1.0273    5.0240    4.0080 H   0  0  0  0  0  0  0  0  0  0  0  0
    1.3313    2.4624    6.0268 H   0  0  0  0  0  0  0  0  0  0  0  0
    2.7395    1.8144    5.1645 H   0  0  0  0  0  0  0  0  0  0  0  0
    1.2308    2.7009    2.9669 H   0  0  0  0  0  0  0  0  0  0  0  0
    4.8167   -1.4220    2.8065 H   0  0  0  0  0  0  0  0  0  0  0  0
    4.1337    0.1457    2.3563 H   0  0  0  0  0  0  0  0  0  0  0  0
    3.6293   -1.8332    5.1312 H   0  0  0  0  0  0  0  0  0  0  0  0
    1.2252   -2.2710    7.4399 H   0  0  0  0  0  0  0  0  0  0  0  0
    2.8637   -2.8540    6.9876 H   0  0  0  0  0  0  0  0  0  0  0  0
    1.4050   -3.8175    6.5771 H   0  0  0  0  0  0  0  0  0  0  0  0
    1.9929   -0.1973    1.1950 H   0  0  0  0  0  0  0  0  0  0  0  0
    1.2099   -1.0542   -0.8090 H   0  0  0  0  0  0  0  0  0  0  0  0
    0.9610   -2.6345   -0.0249 H   0  0  0  0  0  0  0  0  0  0  0  0
    2.5707   -2.2090   -0.6562 H   0  0  0  0  0  0  0  0  0  0  0  0
    0.0572    0.5381    4.8053 H   0  0  0  0  0  0  0  0  0  0  0  0
   -0.4686   -1.1837    3.5000 H   0  0  0  0  0  0  0  0  0  0  0  0
   -1.4033    0.2015    0.2427 H   0  0  0  0  0  0  0  0  0  0  0  0
    0.5736   -4.8901    1.9939 H   0  0  0  0  0  0  0  0  0  0  0  0
   -0.1932   -6.3976    2.5977 H   0  0  0  0  0  0  0  0  0  0  0  0
    1.6499   -4.4554    4.0735 H   0  0  0  0  0  0  0  0  0  0  0  0
    1.7151   -6.2406    4.1068 H   0  0  0  0  0  0  0  0  0  0  0  0
   -0.8717   -3.6475    5.2961 H   0  0  0  0  0  0  0  0  0  0  0  0
   -1.8377   -5.1653    5.3872 H   0  0  0  0  0  0  0  0  0  0  0  0
   -1.8034   -4.7204    0.8667 H   0  0  0  0  0  0  0  0  0  0  0  0
   -1.7948    0.6500   -1.5205 H   0  0  0  0  0  0  0  0  0  0  0  0
   -2.8016   -0.8106   -4.7879 H   0  0  0  0  0  0  0  0  0  0  0  0
   -2.8146    5.0768   -6.1886 H   0  0  0  0  0  0  0  0  0  0  0  0
   -2.6436    4.8834   -7.9429 H   0  0  0  0  0  0  0  0  0  0  0  0
    1.0641    7.2972   -5.9343 H   0  0  0  0  0  0  0  0  0  0  0  0
    2.8937    5.6958   -6.5105 H   0  0  0  0  0  0  0  0  0  0  0  0
    2.2638    3.4048   -7.3492 H   0  0  0  0  0  0  0  0  0  0  0  0
   -0.1773    2.8375   -7.5643 H   0  0  0  0  0  0  0  0  0  0  0  0
   -1.8620    4.0600   -4.4894 H   0  0  0  0  0  0  0  0  0  0  0  0
   -1.6584    2.6536   -2.5043 H   0  0  0  0  0  0  0  0  0  0  0  0
   -2.9122   -4.0571   -3.5166 H   0  0  0  0  0  0  0  0  0  0  0  0
    4.2792    3.1158    4.1965 H   0  0  0  0  0  0  0  0  0  0  0  0
    4.1827    4.9022    4.2752 H   0  0  0  0  0  0  0  0  0  0  0  0
    3.2645    4.0185    3.0275 H   0  0  0  0  0  0  0  0  0  0  0  0
  1  2  1  0  0  0  0
  1 55  1  0  0  0  0
  1 56  1  0  0  0  0
  2  3  1  0  0  0  0
  3 59  1  0  0  0  0
  3 58  1  0  0  0  0
  4  3  1  0  0  0  0
  6  7  1  0  0  0  0
  6  5  1  0  0  0  0
  7  8  1  1  0  0  0
  7  9  1  0  0  0  0
  9 63  1  0  0  0  0
  9 10  1  0  0  0  0
 10 11  1  0  0  0  0
 11 65  1  0  0  0  0
 11 64  1  0  0  0  0
 12 10  2  0  0  0  0
 13  7  1  0  0  0  0
 14 67  1  0  0  0  0
 14 13  1  0  0  0  0
 15 69  1  0  0  0  0
 15 14  1  0  0  0  0
 16 13  2  0  0  0  0
 17  4  2  0  0  0  0
 17 71  1  0  0  0  0
 18 19  1  0  0  0  0
 18 17  1  0  0  0  0
 19 72  1  0  0  0  0
 20 22  1  0  0  0  0
 20 19  1  0  0  0  0
 21 20  2  0  0  0  0
 22 23  1  0  0  0  0
 23 24  1  0  0  0  0
 24 25  1  6  0  0  0
 24 29  1  0  0  0  0
 26 24  1  0  0  0  0
 26 27  1  0  0  0  0
 27 76  1  0  0  0  0
 27 77  1  0  0  0  0
 27 28  1  0  0  0  0
 29 28  1  0  0  0  0
 29 78  1  0  0  0  0
 29 79  1  0  0  0  0
 30 80  1  0  0  0  0
 30 22  2  0  0  0  0
 31 30  1  0  0  0  0
 32 31  2  0  0  0  0
 32 21  1  0  0  0  0
 33 34  1  6  0  0  0
 33 32  1  0  0  0  0
 34 81  1  0  0  0  0
 35 49  1  0  0  0  0
 35 34  1  0  0  0  0
 36 35  2  0  0  0  0
 37 39  2  0  0  0  0
 37 36  1  0  0  0  0
 38 37  1  0  0  0  0
 39 48  1  0  0  0  0
 40 39  1  0  0  0  0
 41 40  1  0  0  0  0
 41 42  1  0  0  0  0
 41 83  1  0  0  0  0
 42 43  1  0  0  0  0
 43 44  2  0  0  0  0
 44 85  1  0  0  0  0
 45 86  1  0  0  0  0
 45 44  1  0  0  0  0
 46 45  2  0  0  0  0
 47 46  1  0  0  0  0
 47 42  2  0  0  0  0
 48 89  1  0  0  0  0
 48 49  2  0  0  0  0
 49 90  1  0  0  0  0
 50 51  2  0  0  0  0
 50 33  1  0  0  0  0
 51 52  1  0  0  0  0
 52 31  1  0  0  0  0
 53 18  2  0  0  0  0
 54 92  1  0  0  0  0
 54 93  1  0  0  0  0
 54  2  1  0  0  0  0
 57  1  1  0  0  0  0
 60  4  1  0  0  0  0
 61  6  1  0  0  0  0
 62  6  1  0  0  0  0
 66 11  1  0  0  0  0
 68 15  1  0  0  0  0
 70 15  1  0  0  0  0
 73 21  1  0  0  0  0
 74 26  1  0  0  0  0
 75 26  1  0  0  0  0
 82 36  1  0  0  0  0
 84 41  1  0  0  0  0
 87 46  1  0  0  0  0
 88 47  1  0  0  0  0
 91 51  1  0  0  0  0
 94 54  1  0  0  0  0
M  END
