94
-1 1
C         0.063094    3.934517    5.163351
N         1.369183    4.176606    4.595224
C         2.364846    3.137986    4.790818
C         2.283164    1.937417    3.834616
S         3.826864    0.900283    4.197555
C         3.689603   -0.327539    2.864812
C         2.737125   -1.504281    3.139819
H         1.784788   -1.089370    3.479865
N         3.183765   -2.367106    4.199634
C         2.440332   -2.567026    5.319892
C         2.946898   -3.641947    6.258741
O         1.412147   -1.954729    5.561713
C         2.463071   -2.326123    1.870914
N         1.836339   -1.657330    0.888583
C         1.417558   -2.325315   -0.317361
O         2.799578   -3.505141    1.786570
C         1.029703    1.156890    3.891841
C         0.476354    0.638974    2.742717
N        -0.510178   -0.394428    2.948802
C        -1.131606   -1.084349    1.942178
C        -1.461721   -0.529385    0.716760
C        -1.426499   -2.479443    2.150290
O        -0.989139   -2.957530    3.331923
C        -1.078731   -4.341912    3.610198
H        -2.124411   -4.663352    3.472284
C        -0.101789   -5.195645    2.782906
C         1.031237   -5.462920    3.767594
O         0.400934   -5.541583    5.030407
C        -0.603293   -4.550464    5.063284
C        -2.077220   -3.222701    1.191287
C        -2.422670   -2.647181   -0.057427
C        -2.075481   -1.298368   -0.297530
C        -2.367164   -0.818284   -1.621198
N        -1.965445    0.453530   -1.946111
C        -2.087759    1.182170   -3.128170
C        -2.758009    0.722992   -4.272189
C        -2.821880    1.529103   -5.401127
Cl        -3.649973    0.930514   -6.818730
C        -2.240847    2.803121   -5.448862
O        -2.363989    3.506487   -6.603332
C        -1.734350    4.752064   -6.713477
C        -0.224488    4.669026   -6.811700
N         0.435317    5.785465   -6.504869
C         1.763497    5.776870   -6.592509
C         2.498895    4.657863   -6.978617
C         1.804299    3.492573   -7.296107
C         0.415736    3.494780   -7.217336
C        -1.573127    3.250798   -4.305987
C        -1.500190    2.454643   -3.168635
N        -2.984646   -1.572707   -2.508000
C        -3.304708   -2.831375   -2.136264
N        -3.053330   -3.411815   -0.996394
O         0.814733    0.886174    1.542850
C         1.304495    4.690475    3.248985
H        -0.496533    4.886042    5.216524
H         0.168336    3.552145    6.190533
H        -0.543993    3.202340    4.595275
H         2.283867    2.779138    5.831106
H         3.365820    3.599403    4.692188
H         2.438297    2.280915    2.801287
H         4.706480   -0.707643    2.678418
H         3.357679    0.199610    1.960068
H         3.893168   -3.049363    3.962210
H         2.936776   -3.243738    7.281916
H         3.957634   -3.996528    6.013190
H         2.241158   -4.486470    6.214263
H         1.483785   -0.693846    1.058818
H         1.156827   -1.571573   -1.072233
H         0.529036   -2.959589   -0.149302
H         2.222335   -2.967261   -0.704084
H         0.688675    0.793827    4.865110
H        -0.406540   -0.908933    3.818293
H        -1.166364    0.507896    0.571978
H         0.248297   -4.676894    1.880664
H        -0.589852   -6.134623    2.480949
H         1.766276   -4.640878    3.722515
H         1.561792   -6.407835    3.585699
H        -0.208557   -3.589218    5.435976
H        -1.405807   -4.898548    5.729467
H        -2.306860   -4.278059    1.328461
H        -1.442495    0.922184   -1.218678
H        -3.211844   -0.265336   -4.262460
H        -2.001763    5.430815   -5.885631
H        -2.129281    5.198616   -7.638592
H         2.274373    6.710278   -6.331518
H         3.588629    4.699683   -7.019917
H         2.338826    2.588863   -7.597234
H        -0.171900    2.605400   -7.450052
H        -1.086332    4.226242   -4.292988
H        -0.964400    2.830996   -2.293490
H        -3.825785   -3.423695   -2.898429
H         2.319159    4.926026    2.888014
H         0.718749    5.625912    3.233952
H         0.841622    3.988590    2.522618
