83
-1 1
C        -6.334599    3.009846    3.431624
C        -6.153684    2.778555    2.257175
C        -5.930380    2.502319    0.863622
C        -4.707144    1.966486    0.451275
C        -4.468825    1.688202   -0.904870
N        -3.203143    1.172898   -1.214052
C        -2.714691    0.693778   -2.387037
N        -3.484161    0.541675   -3.452436
C        -2.962593   -0.102901   -4.514653
N        -1.786475   -0.659744   -4.622505
C        -1.323624    0.297133   -2.435183
C        -0.945100   -0.466954   -3.563005
C         0.348003   -1.043156   -3.581655
C         1.218893   -0.816834   -2.541867
O         2.450706   -1.396254   -2.454359
C         3.349370   -1.282782   -3.545206
H         2.976586   -1.848408   -4.414847
C         3.673656    0.176182   -3.856725
C         4.657574    0.521645   -2.738164
O         5.302278   -0.695529   -2.391211
C         4.697344   -1.783959   -3.051167
C         0.874440    0.045825   -1.460949
N         1.844083    0.224137   -0.475737
C         1.835318    1.170816    0.526906
O         1.088082    2.127928    0.493445
C         2.721131    0.943853    1.707108
C         3.709695    0.066617    1.926538
S         0.666783    1.767543    4.815013
C        -0.498011    1.384882    3.456296
C        -0.697785   -0.137925    3.209279
H        -1.453504   -0.518156    3.924991
N         0.569109   -0.799161    3.479452
C         0.793093   -2.098406    3.729267
C         2.105414   -2.387785    4.425244
O         0.045880   -3.017659    3.373882
C        -1.296555   -0.397420    1.818403
N        -1.099459   -1.626583    1.310889
C        -1.718507   -2.094552    0.095943
O        -1.963946    0.468518    1.246805
C         4.355625   -0.973639    1.045097
N         3.928717   -2.320195    1.396915
C         2.567428   -2.620988    0.998509
C         4.854939   -3.332029    0.953630
C        -0.389603    0.598704   -1.423286
C        -5.473317    1.955219   -1.846733
C        -6.688135    2.493564   -1.423249
C        -6.932451    2.769840   -0.084048
H        -6.473396    3.211801    4.476675
H        -3.925183    1.757520    1.185298
H        -2.624218    0.991912   -0.381639
H        -3.633057   -0.189401   -5.379237
H         0.619816   -1.670302   -4.431257
H         2.781533    0.817118   -3.872271
H         4.154318    0.233656   -4.845425
H         4.130326    0.922713   -1.855770
H         5.412780    1.259935   -3.049638
H         4.577986   -2.623968   -2.350001
H         5.314843   -2.120582   -3.905610
H         2.562358   -0.485584   -0.467361
H         2.420131    1.591194    2.542558
H         4.117758    0.077625    2.943858
H        -0.143376    1.840688    2.521042
H        -1.489476    1.814243    3.653681
H         1.151665   -0.110732    4.012584
H         2.919817   -2.373116    3.681626
H         2.053815   -3.386658    4.875702
H         2.325760   -1.632250    5.193369
H        -0.685614   -2.316298    1.957559
H        -0.996720   -2.170229   -0.734156
H        -2.514478   -1.401271   -0.206312
H        -2.162237   -3.087970    0.260106
H         5.441129   -0.915794    1.224940
H         4.253971   -0.770457   -0.043373
H         2.225714   -3.550260    1.478513
H         2.462674   -2.736607   -0.103480
H         1.887839   -1.823215    1.327506
H         4.526976   -4.319618    1.312490
H         5.860073   -3.139961    1.359363
H         4.942100   -3.388789   -0.155973
H        -0.643721    1.254986   -0.594413
H        -5.292639    1.723650   -2.893059
H        -7.462456    2.697235   -2.166914
H        -7.886339    3.188948    0.240342
