83
-1 1
C         5.682503    6.924775    8.286171
C         5.858617    6.560421    7.144904
C         6.067432    6.123730    5.790518
C         7.353079    5.784578    5.360878
C         7.582278    5.343385    4.045260
N         8.901085    5.032469    3.719346
C         9.433390    4.531073    2.563568
N         8.661915    4.116715    1.574717
C         9.261929    3.524693    0.520508
N        10.530204    3.262645    0.363556
C        10.869282    4.436681    2.466042
C        11.357512    3.718569    1.351026
C        12.751122    3.478730    1.259365
C        13.604997    3.971496    2.221223
O        14.942388    3.738746    2.268899
C        15.555652    2.926415    1.291332
H        14.958626    2.012041    1.142498
C        15.811601    3.706405   -0.000823
C        17.124363    4.402318    0.338116
O        17.865759    3.431448    1.043346
C        16.979569    2.615069    1.777390
C        13.125409    4.786476    3.298723
N        14.038974    5.244582    4.216950
C        13.771629    6.196016    5.240684
O        12.951313    7.081077    5.013529
C        14.553515    6.098029    6.437315
C        15.143247    5.036163    7.153830
S        13.883053    4.575154    9.011336
C        12.264004    4.801117    8.247332
C        11.357974    3.552001    8.205277
H        10.736282    3.513353    9.117535
N        12.147956    2.334139    8.180896
C        11.729969    1.154566    8.657476
C        12.797153    0.087343    8.780204
O        10.557905    0.911140    8.956029
C        10.363207    3.605492    7.020932
N         9.522425    2.560219    6.963624
C         8.560992    2.396339    5.901561
O        10.341058    4.530889    6.212100
C        15.587352    3.661916    6.623609
N        14.675170    2.523354    6.567666
C        13.642239    2.584154    5.556776
C        15.418409    1.289804    6.460861
C        11.762293    4.993988    3.404596
C         6.495535    5.256969    3.160341
C         5.218695    5.607120    3.597861
C         4.985359    6.035933    4.898578
H         5.540350    7.247360    9.299869
H         8.194547    5.852096    6.053700
H         9.530515    5.022915    4.528562
H         8.584076    3.209271   -0.282973
H        13.097352    2.898766    0.405015
H        14.988152    4.390205   -0.246041
H        15.951703    3.006028   -0.839032
H        16.935561    5.295219    0.964260
H        17.705122    4.711057   -0.542898
H        17.041529    2.819433    2.860228
H        17.245040    1.559279    1.606540
H        14.950355    4.811061    4.196110
H        14.502085    7.033957    7.001768
H        15.903994    5.400072    7.848295
H        12.440464    5.181207    7.223192
H        11.711199    5.602529    8.755871
H        13.156679    2.486557    8.034694
H        12.678919   -0.633560    7.956786
H        12.637229   -0.454654    9.721422
H        13.813071    0.502275    8.755239
H         9.612744    1.855692    7.704736
H         9.033992    2.529579    4.916595
H         7.734039    3.121115    5.974587
H         8.141923    1.383319    5.954370
H        16.400221    3.341575    7.291238
H        16.069423    3.808809    5.626901
H        12.965315    1.724284    5.674074
H        14.053440    2.562135    4.526408
H        13.043431    3.495216    5.668838
H        14.726925    0.433260    6.460898
H        16.103246    1.174973    7.315436
H        16.024434    1.226787    5.526377
H        11.412557    5.610671    4.229339
H         6.671430    4.901625    2.148213
H         4.383972    5.534311    2.896277
H         3.982097    6.302536    5.234660
