84
-1 1
C        -3.580246    1.833114   -4.588705
N        -3.010101    2.294773   -3.345752
C        -2.189097    1.293867   -2.682206
C        -0.806219    1.124360   -3.313634
S         0.153415    2.762775   -3.109842
C        -0.190907    3.613265   -4.685409
C         0.732097    3.230132   -5.860416
H         0.303784    3.646819   -6.780750
N         0.829081    1.794781   -6.059210
C        -0.093417    1.103115   -6.787385
C         0.019876   -0.404504   -6.677499
O        -0.955863    1.648571   -7.451812
C         2.143104    3.826915   -5.762356
N         2.854309    3.419722   -4.676240
C         4.181279    3.907937   -4.401518
O         2.580672    4.582397   -6.610927
C        -0.026017   -0.041640   -2.854097
C         0.077973   -0.396507   -1.510446
N         0.952801   -1.520530   -1.279904
C         1.282785   -2.111088   -0.096940
C         0.689227   -1.822118    1.128630
C         2.323170   -3.105581   -0.114749
O         2.946274   -3.360323   -1.306734
C         3.937578   -2.405066   -1.693766
H         3.524627   -1.386897   -1.607916
C         5.235351   -2.596886   -0.914606
C         5.849748   -3.774364   -1.660639
O         5.531829   -3.551535   -3.018378
C         4.372646   -2.747937   -3.117376
C         2.672721   -3.805691    1.011981
C         2.052568   -3.532287    2.255574
C         1.071124   -2.512069    2.296123
C         0.507123   -2.264625    3.600373
N        -0.434557   -1.268678    3.708524
C        -1.157676   -0.812784    4.802614
C        -2.056451    0.244964    4.580567
C        -2.831295    0.774226    5.606883
C        -3.780225    1.912020    5.298329
F        -3.728395    2.261966    4.010968
F        -5.050282    1.585665    5.562885
F        -3.493874    3.006390    6.012005
C        -2.711607    0.237831    6.895479
Cl        -3.651568    0.850065    8.236361
C        -1.825905   -0.807671    7.126687
C        -1.051259   -1.336264    6.099894
N         0.875542   -2.958955    4.654144
C         1.817558   -3.915084    4.475581
N         2.420219   -4.235522    3.367058
O        -0.478214    0.126707   -0.523177
C        -4.002688    2.869370   -2.473173
H        -4.125788    2.652109   -5.083665
H        -4.290392    0.984020   -4.450721
H        -2.796981    1.505103   -5.288743
H        -2.682902    0.296508   -2.691394
H        -2.057103    1.557411   -1.625644
H        -0.935178    1.067898   -4.399978
H        -0.120789    4.696850   -4.505619
H        -1.234757    3.400088   -4.950855
H         1.380635    1.277988   -5.382948
H         1.066971   -0.738946   -6.650340
H        -0.497876   -0.862585   -7.528101
H        -0.465256   -0.737020   -5.744931
H         2.335133    2.940104   -3.935840
H         4.846666    3.083589   -4.102290
H         4.184556    4.664815   -3.599192
H         4.571790    4.372672   -5.315750
H         0.645019   -0.514988   -3.579836
H         1.321767   -1.975764   -2.103513
H        -0.076158   -1.045792    1.090921
H         5.064958   -2.771420    0.156175
H         5.861281   -1.697480   -1.024147
H         5.413030   -4.727199   -1.305668
H         6.943775   -3.837368   -1.561207
H         3.563047   -3.287609   -3.635460
H         4.607605   -1.834134   -3.689694
H         3.443785   -4.575285    0.962617
H        -0.622960   -0.782886    2.840782
H        -2.153513    0.666531    3.578371
H        -1.739879   -1.217728    8.133935
H        -0.356441   -2.153039    6.279933
H         2.094145   -4.470592    5.379822
H        -4.537420    3.683398   -2.989236
H        -3.518789    3.294163   -1.581559
H        -4.766477    2.132850   -2.128792
