84
-1 1
C        -2.820752    3.449904   -3.973846
N        -2.299444    3.037229   -2.688463
C        -2.594342    1.653804   -2.346349
C        -1.810979    0.707157   -3.207846
S         2.425575    0.638258   -3.686850
C         1.368853    2.114686   -3.959617
C         0.869067    2.269867   -5.414596
H        -0.002457    2.936693   -5.449388
N         0.460848    0.981472   -5.937107
C        -0.757632    0.698479   -6.438798
C        -0.990974   -0.772013   -6.742418
O        -1.647313    1.521807   -6.607566
C         1.911402    2.921128   -6.340533
N         3.126502    2.316477   -6.328394
C         4.237481    2.807552   -7.095608
O         1.644397    3.893625   -7.027146
C        -0.907741   -0.200814   -2.818016
C        -0.569787   -0.510985   -1.402432
N         0.722861   -0.950407   -1.225962
C         1.253375   -1.488653   -0.058516
C         0.592595   -1.462779    1.160051
C         2.521980   -2.164564   -0.128867
O         3.162085   -2.239960   -1.317219
C         4.208441   -1.292880   -1.607962
H         3.786629   -0.276896   -1.608015
C         5.438214   -1.465482   -0.722643
C         6.096666   -2.686157   -1.355209
O         5.847917   -2.569150   -2.736572
C         4.770690   -1.671499   -2.969740
C         3.031692   -2.804892    0.978782
C         2.362043   -2.781795    2.222646
C         1.130223   -2.094559    2.302504
C         0.497470   -2.114569    3.596768
N        -0.706870   -1.470299    3.739653
C        -1.543212   -1.330736    4.842618
C        -2.735032   -0.612292    4.651344
C        -3.643214   -0.412248    5.685375
C        -4.908124    0.372062    5.409642
F        -4.963264    0.784916    4.140097
F        -6.004761   -0.359955    5.629684
F        -4.994441    1.462375    6.178172
C        -3.360434   -0.943263    6.950226
Cl        -4.453084   -0.736522    8.297124
C        -2.183907   -1.655428    7.150627
C        -1.276103   -1.853857    6.115998
N         1.049863   -2.731828    4.618753
C         2.233093   -3.353288    4.408997
N         2.910396   -3.419277    3.299333
O        -1.383669   -0.418401   -0.492134
C        -2.679491    3.943852   -1.634414
H        -2.497591    4.479725   -4.189070
H        -3.935835    3.429230   -4.005370
H        -2.444129    2.819080   -4.791961
H        -3.683228    1.428435   -2.456520
H        -2.348226    1.484631   -1.291597
H        -1.953904    0.838001   -4.284688
H         1.922366    3.026329   -3.686090
H         0.485525    2.071412   -3.307915
H         1.080183    0.224242   -5.636169
H        -0.059888   -1.344906   -6.852232
H        -1.589789   -0.851720   -7.658801
H        -1.577757   -1.208982   -5.919208
H         3.273982    1.588868   -5.618133
H         4.690358    2.006949   -7.703343
H         5.024958    3.235855   -6.451746
H         3.867000    3.596492   -7.763488
H        -0.318744   -0.717132   -3.580124
H         1.358984   -0.788003   -2.024728
H        -0.368271   -0.954480    1.170164
H         5.215505   -1.563973    0.347241
H         6.072250   -0.574435   -0.852759
H         5.653942   -3.620061   -0.955673
H         7.184433   -2.729511   -1.184700
H         3.996323   -2.146295   -3.589494
H         5.127859   -0.771017   -3.495679
H         3.962428   -3.365784    0.902431
H        -1.050605   -1.034718    2.894375
H        -2.962458   -0.197548    3.667657
H        -1.973040   -2.064720    8.139528
H        -0.356100   -2.411474    6.272849
H         2.655831   -3.855836    5.287276
H        -2.358200    4.966821   -1.884790
H        -2.192020    3.658782   -0.689697
H        -3.780559    3.972076   -1.454382
