84
-1 1
C        -1.322123    5.858561   -2.420752
N        -0.457047    6.523412   -1.478301
C         0.331359    5.603359   -0.677340
C         1.459480    4.971224   -1.455856
S         2.944071    6.891280   -1.661756
C         2.232451    7.624278   -3.179742
C         2.809992    7.083084   -4.503814
H         2.146108    7.353348   -5.334881
N         2.884087    5.634059   -4.489376
C         2.036335    4.831184   -5.187682
C         2.139691    3.357869   -4.827849
O         1.243893    5.237350   -6.017718
C         4.179281    7.677014   -4.870728
N         5.130920    7.529293   -3.912549
C         6.459299    8.059076   -4.058859
O         4.380002    8.217384   -5.945390
C         2.164216    3.860823   -1.004401
C         2.238561    3.469988    0.368121
N         3.117573    2.382058    0.592128
C         3.447249    1.783630    1.783979
C         2.804495    2.014446    2.991209
C         4.538786    0.850306    1.763958
O         5.196517    0.662252    0.581769
C         6.178549    1.654162    0.254519
H         5.740852    2.659532    0.365758
C         7.460076    1.462752    1.058575
C         8.114723    0.319409    0.293025
O         7.816201    0.569540   -1.063852
C         6.656641    1.371418   -1.167477
C         4.893848    0.141688    2.883503
C         4.225876    0.352926    4.114518
C         3.191716    1.318023    4.156704
C         2.583947    1.504883    5.451733
N         1.593676    2.448242    5.568258
C         0.822784    2.832350    6.661243
C        -0.118537    3.853456    6.449857
C        -0.943578    4.310573    7.471769
C        -1.937435    5.413598    7.175849
F        -1.870297    5.806999    5.901616
F        -3.195877    5.019694    7.397295
F        -1.718545    6.494631    7.930992
C        -0.830969    3.736167    8.744389
Cl        -1.833065    4.255689   10.077437
C         0.097763    2.726130    8.964569
C         0.922430    2.270045    7.941874
N         2.962878    0.799067    6.494767
C         3.955361   -0.102408    6.315582
N         4.602409   -0.360981    5.215834
O         1.632840    3.971154    1.317022
C        -1.154461    7.498585   -0.680448
H        -1.830635    6.599268   -3.057320
H        -2.103743    5.232737   -1.928145
H        -0.741866    5.205371   -3.089871
H        -0.300968    4.789751   -0.252933
H         0.744991    6.128861    0.191578
H         1.350653    5.056868   -2.537446
H         2.349565    8.719415   -3.158843
H         1.152186    7.415632   -3.152934
H         3.362529    5.250678   -3.677286
H         3.173704    3.057159   -4.604851
H         1.748740    2.761475   -5.660752
H         1.527855    3.155345   -3.934016
H         4.815395    7.189868   -2.997139
H         7.221288    7.291993   -3.844626
H         6.636441    8.916314   -3.387112
H         6.577639    8.399519   -5.095855
H         2.825765    3.355353   -1.715139
H         3.558416    1.976323   -0.222483
H         2.001789    2.750208    2.962958
H         7.272217    1.255062    2.120437
H         8.068507    2.377723    0.988253
H         7.695045   -0.652813    0.614617
H         9.207716    0.279751    0.413077
H         5.868674    0.848648   -1.733763
H         6.901206    2.310308   -1.692896
H         5.703509   -0.587153    2.839990
H         1.400206    2.958084    4.716328
H        -0.210726    4.304830    5.460304
H         0.177980    2.286247    9.959567
H         1.650509    1.481492    8.114906
H         4.237002   -0.668895    7.211238
H        -1.667891    8.222745   -1.333008
H        -0.437257    8.054290   -0.058569
H        -1.922184    7.050838   -0.005878
