-1 1
 OpenBabel05232414493D

 84 86  0  0  1  0  0  0  0  0999 V2000
   -1.3221    5.8586   -2.4208 C   0  0  0  0  0  0  0  0  0  0  0  0
   -0.4570    6.5234   -1.4783 N   0  0  0  0  0  0  0  0  0  0  0  0
    0.3314    5.6034   -0.6773 C   0  0  0  0  0  0  0  0  0  0  0  0
    1.4595    4.9712   -1.4559 C   0  0  0  0  0  3  0  0  0  0  0  0
    2.9441    6.8913   -1.6618 S   0  0  0  0  0  1  0  0  0  0  0  0
    2.2325    7.6243   -3.1797 C   0  0  0  0  0  0  0  0  0  0  0  0
    2.8100    7.0831   -4.5038 C   0  0  2  0  0  0  0  0  0  0  0  0
    2.1461    7.3533   -5.3349 H   0  0  0  0  0  0  0  0  0  0  0  0
    2.8841    5.6341   -4.4894 N   0  0  0  0  0  0  0  0  0  0  0  0
    2.0363    4.8312   -5.1877 C   0  0  0  0  0  0  0  0  0  0  0  0
    2.1397    3.3579   -4.8278 C   0  0  0  0  0  0  0  0  0  0  0  0
    1.2439    5.2374   -6.0177 O   0  0  0  0  0  0  0  0  0  0  0  0
    4.1793    7.6770   -4.8707 C   0  0  0  0  0  0  0  0  0  0  0  0
    5.1309    7.5293   -3.9125 N   0  0  0  0  0  0  0  0  0  0  0  0
    6.4593    8.0591   -4.0589 C   0  0  0  0  0  0  0  0  0  0  0  0
    4.3800    8.2174   -5.9454 O   0  0  0  0  0  0  0  0  0  0  0  0
    2.1642    3.8608   -1.0044 C   0  0  0  0  0  3  0  0  0  0  0  0
    2.2386    3.4700    0.3681 C   0  0  0  0  0  0  0  0  0  0  0  0
    3.1176    2.3821    0.5921 N   0  0  0  0  0  0  0  0  0  0  0  0
    3.4472    1.7836    1.7840 C   0  0  0  0  0  0  0  0  0  0  0  0
    2.8045    2.0144    2.9912 C   0  0  0  0  0  0  0  0  0  0  0  0
    4.5388    0.8503    1.7640 C   0  0  0  0  0  0  0  0  0  0  0  0
    5.1965    0.6623    0.5818 O   0  0  0  0  0  0  0  0  0  0  0  0
    6.1785    1.6542    0.2545 C   0  0  1  0  0  0  0  0  0  0  0  0
    5.7409    2.6595    0.3658 H   0  0  0  0  0  0  0  0  0  0  0  0
    7.4601    1.4628    1.0586 C   0  0  0  0  0  0  0  0  0  0  0  0
    8.1147    0.3194    0.2930 C   0  0  0  0  0  0  0  0  0  0  0  0
    7.8162    0.5695   -1.0639 O   0  0  0  0  0  0  0  0  0  0  0  0
    6.6566    1.3714   -1.1675 C   0  0  0  0  0  0  0  0  0  0  0  0
    4.8938    0.1417    2.8835 C   0  0  0  0  0  0  0  0  0  0  0  0
    4.2259    0.3529    4.1145 C   0  0  0  0  0  0  0  0  0  0  0  0
    3.1917    1.3180    4.1567 C   0  0  0  0  0  0  0  0  0  0  0  0
    2.5839    1.5049    5.4517 C   0  0  2  0  0  3  0  0  0  0  0  0
    1.5937    2.4482    5.5683 N   0  0  0  0  0  0  0  0  0  0  0  0
    0.8228    2.8323    6.6612 C   0  0  0  0  0  0  0  0  0  0  0  0
   -0.1185    3.8535    6.4499 C   0  0  0  0  0  0  0  0  0  0  0  0
   -0.9436    4.3106    7.4718 C   0  0  0  0  0  0  0  0  0  0  0  0
   -1.9374    5.4136    7.1758 C   0  0  0  0  0  0  0  0  0  0  0  0
   -1.8703    5.8070    5.9016 F   0  0  0  0  0  0  0  0  0  0  0  0
   -3.1959    5.0197    7.3973 F   0  0  0  0  0  0  0  0  0  0  0  0
   -1.7185    6.4946    7.9310 F   0  0  0  0  0  0  0  0  0  0  0  0
   -0.8310    3.7362    8.7444 C   0  0  0  0  0  0  0  0  0  0  0  0
   -1.8331    4.2557   10.0774 Cl  0  0  0  0  0  0  0  0  0  0  0  0
    0.0978    2.7261    8.9646 C   0  0  0  0  0  0  0  0  0  0  0  0
    0.9224    2.2700    7.9419 C   0  0  0  0  0  0  0  0  0  0  0  0
    2.9629    0.7991    6.4948 N   0  0  0  0  0  0  0  0  0  0  0  0
    3.9554   -0.1024    6.3156 C   0  0  0  0  0  0  0  0  0  0  0  0
    4.6024   -0.3610    5.2158 N   0  0  0  0  0  2  0  0  0  0  0  0
    1.6328    3.9712    1.3170 O   0  0  0  0  0  0  0  0  0  0  0  0
   -1.1545    7.4986   -0.6804 C   0  0  0  0  0  0  0  0  0  0  0  0
   -1.8306    6.5993   -3.0573 H   0  0  0  0  0  0  0  0  0  0  0  0
   -2.1037    5.2327   -1.9281 H   0  0  0  0  0  0  0  0  0  0  0  0
   -0.7419    5.2054   -3.0899 H   0  0  0  0  0  0  0  0  0  0  0  0
   -0.3010    4.7898   -0.2529 H   0  0  0  0  0  0  0  0  0  0  0  0
    0.7450    6.1289    0.1916 H   0  0  0  0  0  0  0  0  0  0  0  0
    1.3507    5.0569   -2.5374 H   0  0  0  0  0  0  0  0  0  0  0  0
    2.3496    8.7194   -3.1588 H   0  0  0  0  0  0  0  0  0  0  0  0
    1.1522    7.4156   -3.1529 H   0  0  0  0  0  0  0  0  0  0  0  0
    3.3625    5.2507   -3.6773 H   0  0  0  0  0  0  0  0  0  0  0  0
    3.1737    3.0572   -4.6049 H   0  0  0  0  0  0  0  0  0  0  0  0
    1.7487    2.7615   -5.6608 H   0  0  0  0  0  0  0  0  0  0  0  0
    1.5279    3.1553   -3.9340 H   0  0  0  0  0  0  0  0  0  0  0  0
    4.8154    7.1899   -2.9971 H   0  0  0  0  0  0  0  0  0  0  0  0
    7.2213    7.2920   -3.8446 H   0  0  0  0  0  0  0  0  0  0  0  0
    6.6364    8.9163   -3.3871 H   0  0  0  0  0  0  0  0  0  0  0  0
    6.5776    8.3995   -5.0959 H   0  0  0  0  0  0  0  0  0  0  0  0
    2.8258    3.3554   -1.7151 H   0  0  0  0  0  0  0  0  0  0  0  0
    3.5584    1.9763   -0.2225 H   0  0  0  0  0  0  0  0  0  0  0  0
    2.0018    2.7502    2.9630 H   0  0  0  0  0  0  0  0  0  0  0  0
    7.2722    1.2551    2.1204 H   0  0  0  0  0  0  0  0  0  0  0  0
    8.0685    2.3777    0.9883 H   0  0  0  0  0  0  0  0  0  0  0  0
    7.6950   -0.6528    0.6146 H   0  0  0  0  0  0  0  0  0  0  0  0
    9.2077    0.2798    0.4131 H   0  0  0  0  0  0  0  0  0  0  0  0
    5.8687    0.8486   -1.7338 H   0  0  0  0  0  0  0  0  0  0  0  0
    6.9012    2.3103   -1.6929 H   0  0  0  0  0  0  0  0  0  0  0  0
    5.7035   -0.5872    2.8400 H   0  0  0  0  0  0  0  0  0  0  0  0
    1.4002    2.9581    4.7163 H   0  0  0  0  0  0  0  0  0  0  0  0
   -0.2107    4.3048    5.4603 H   0  0  0  0  0  0  0  0  0  0  0  0
    0.1780    2.2862    9.9596 H   0  0  0  0  0  0  0  0  0  0  0  0
    1.6505    1.4815    8.1149 H   0  0  0  0  0  0  0  0  0  0  0  0
    4.2370   -0.6689    7.2112 H   0  0  0  0  0  0  0  0  0  0  0  0
   -1.6679    8.2227   -1.3330 H   0  0  0  0  0  0  0  0  0  0  0  0
   -0.4373    8.0543   -0.0586 H   0  0  0  0  0  0  0  0  0  0  0  0
   -1.9222    7.0508   -0.0059 H   0  0  0  0  0  0  0  0  0  0  0  0
  1 52  1  0  0  0  0
  1  2  1  0  0  0  0
  2 50  1  0  0  0  0
  2  3  1  0  0  0  0
  3 54  1  0  0  0  0
  3 55  1  0  0  0  0
  4 17  1  0  0  0  0
  4  3  1  0  0  0  0
  6 57  1  0  0  0  0
  6 58  1  0  0  0  0
  6  5  1  0  0  0  0
  7  8  1  6  0  0  0
  7  9  1  0  0  0  0
  7  6  1  0  0  0  0
  9 59  1  0  0  0  0
 10 11  1  0  0  0  0
 10  9  1  0  0  0  0
 11 60  1  0  0  0  0
 11 62  1  0  0  0  0
 12 10  2  0  0  0  0
 13  7  1  0  0  0  0
 13 14  1  0  0  0  0
 14 63  1  0  0  0  0
 15 14  1  0  0  0  0
 15 64  1  0  0  0  0
 15 65  1  0  0  0  0
 16 13  2  0  0  0  0
 17 18  1  0  0  0  0
 18 19  1  0  0  0  0
 18 49  2  0  0  0  0
 19 20  1  0  0  0  0
 20 21  1  0  0  0  0
 21 32  2  0  0  0  0
 22 20  2  0  0  0  0
 22 30  1  0  0  0  0
 23 22  1  0  0  0  0
 24 25  1  1  0  0  0
 24 23  1  0  0  0  0
 24 26  1  0  0  0  0
 26 70  1  0  0  0  0
 27 73  1  0  0  0  0
 27 72  1  0  0  0  0
 27 26  1  0  0  0  0
 28 27  1  0  0  0  0
 29 28  1  0  0  0  0
 29 24  1  0  0  0  0
 30 31  2  0  0  0  0
 31 32  1  0  0  0  0
 31 48  1  0  0  0  0
 32 33  1  0  0  0  0
 33 34  1  1  0  0  0
 33 46  1  0  0  0  0
 34 35  1  0  0  0  0
 35 45  1  0  0  0  0
 36 35  2  0  0  0  0
 36 37  1  0  0  0  0
 37 42  2  0  0  0  0
 38 40  1  0  0  0  0
 38 37  1  0  0  0  0
 38 41  1  0  0  0  0
 39 38  1  0  0  0  0
 42 44  1  0  0  0  0
 42 43  1  0  0  0  0
 44 79  1  0  0  0  0
 45 80  1  0  0  0  0
 45 44  2  0  0  0  0
 47 46  2  0  0  0  0
 47 81  1  0  0  0  0
 48 47  1  0  0  0  0
 50 83  1  0  0  0  0
 50 84  1  0  0  0  0
 51  1  1  0  0  0  0
 53  1  1  0  0  0  0
 56  4  1  0  0  0  0
 61 11  1  0  0  0  0
 66 15  1  0  0  0  0
 67 17  1  0  0  0  0
 68 19  1  0  0  0  0
 69 21  1  0  0  0  0
 71 26  1  0  0  0  0
 74 29  1  0  0  0  0
 75 29  1  0  0  0  0
 76 30  1  0  0  0  0
 77 34  1  0  0  0  0
 78 36  1  0  0  0  0
 82 50  1  0  0  0  0
M  END
