-1 1
 OpenBabel05192410563D

 84 87  0  0  1  0  0  0  0  0999 V2000
   -3.5802    1.8331   -4.5887 C   0  0  0  0  0  0  0  0  0  0  0  0
   -3.0101    2.2948   -3.3458 N   0  0  0  0  0  0  0  0  0  0  0  0
   -2.1891    1.2939   -2.6822 C   0  0  0  0  0  0  0  0  0  0  0  0
   -0.8062    1.1244   -3.3136 C   0  0  1  0  0  0  0  0  0  0  0  0
    0.1534    2.7628   -3.1098 S   0  0  0  0  0  0  0  0  0  0  0  0
   -0.1909    3.6133   -4.6854 C   0  0  0  0  0  0  0  0  0  0  0  0
    0.7321    3.2301   -5.8604 C   0  0  2  0  0  0  0  0  0  0  0  0
    0.3038    3.6468   -6.7808 H   0  0  0  0  0  0  0  0  0  0  0  0
    0.8291    1.7948   -6.0592 N   0  0  0  0  0  0  0  0  0  0  0  0
   -0.0934    1.1031   -6.7874 C   0  0  0  0  0  0  0  0  0  0  0  0
    0.0199   -0.4045   -6.6775 C   0  0  0  0  0  0  0  0  0  0  0  0
   -0.9559    1.6486   -7.4518 O   0  0  0  0  0  0  0  0  0  0  0  0
    2.1431    3.8269   -5.7624 C   0  0  0  0  0  0  0  0  0  0  0  0
    2.8543    3.4197   -4.6762 N   0  0  0  0  0  0  0  0  0  0  0  0
    4.1813    3.9079   -4.4015 C   0  0  0  0  0  0  0  0  0  0  0  0
    2.5807    4.5824   -6.6109 O   0  0  0  0  0  0  0  0  0  0  0  0
   -0.0260   -0.0416   -2.8541 C   0  0  0  0  0  3  0  0  0  0  0  0
    0.0780   -0.3965   -1.5104 C   0  0  0  0  0  0  0  0  0  0  0  0
    0.9528   -1.5205   -1.2799 N   0  0  0  0  0  0  0  0  0  0  0  0
    1.2828   -2.1111   -0.0969 C   0  0  0  0  0  0  0  0  0  0  0  0
    0.6892   -1.8221    1.1286 C   0  0  0  0  0  0  0  0  0  0  0  0
    2.3232   -3.1056   -0.1147 C   0  0  0  0  0  0  0  0  0  0  0  0
    2.9463   -3.3603   -1.3067 O   0  0  0  0  0  0  0  0  0  0  0  0
    3.9376   -2.4051   -1.6938 C   0  0  1  0  0  0  0  0  0  0  0  0
    3.5246   -1.3869   -1.6079 H   0  0  0  0  0  0  0  0  0  0  0  0
    5.2354   -2.5969   -0.9146 C   0  0  0  0  0  0  0  0  0  0  0  0
    5.8497   -3.7744   -1.6606 C   0  0  0  0  0  0  0  0  0  0  0  0
    5.5318   -3.5515   -3.0184 O   0  0  0  0  0  0  0  0  0  0  0  0
    4.3726   -2.7479   -3.1174 C   0  0  0  0  0  0  0  0  0  0  0  0
    2.6727   -3.8057    1.0120 C   0  0  0  0  0  0  0  0  0  0  0  0
    2.0526   -3.5323    2.2556 C   0  0  0  0  0  0  0  0  0  0  0  0
    1.0711   -2.5121    2.2961 C   0  0  0  0  0  0  0  0  0  0  0  0
    0.5071   -2.2646    3.6004 C   0  0  2  0  0  3  0  0  0  0  0  0
   -0.4346   -1.2687    3.7085 N   0  0  0  0  0  0  0  0  0  0  0  0
   -1.1577   -0.8128    4.8026 C   0  0  0  0  0  0  0  0  0  0  0  0
   -2.0565    0.2450    4.5806 C   0  0  0  0  0  0  0  0  0  0  0  0
   -2.8313    0.7742    5.6069 C   0  0  0  0  0  0  0  0  0  0  0  0
   -3.7802    1.9120    5.2983 C   0  0  0  0  0  0  0  0  0  0  0  0
   -3.7284    2.2620    4.0110 F   0  0  0  0  0  0  0  0  0  0  0  0
   -5.0503    1.5857    5.5629 F   0  0  0  0  0  0  0  0  0  0  0  0
   -3.4939    3.0064    6.0120 F   0  0  0  0  0  0  0  0  0  0  0  0
   -2.7116    0.2378    6.8955 C   0  0  0  0  0  0  0  0  0  0  0  0
   -3.6516    0.8501    8.2364 Cl  0  0  0  0  0  0  0  0  0  0  0  0
   -1.8259   -0.8077    7.1267 C   0  0  0  0  0  0  0  0  0  0  0  0
   -1.0513   -1.3363    6.0999 C   0  0  0  0  0  0  0  0  0  0  0  0
    0.8755   -2.9590    4.6541 N   0  0  0  0  0  0  0  0  0  0  0  0
    1.8176   -3.9151    4.4756 C   0  0  0  0  0  0  0  0  0  0  0  0
    2.4202   -4.2355    3.3671 N   0  0  0  0  0  2  0  0  0  0  0  0
   -0.4782    0.1267   -0.5232 O   0  0  0  0  0  0  0  0  0  0  0  0
   -4.0027    2.8694   -2.4732 C   0  0  0  0  0  0  0  0  0  0  0  0
   -4.1258    2.6521   -5.0837 H   0  0  0  0  0  0  0  0  0  0  0  0
   -4.2904    0.9840   -4.4507 H   0  0  0  0  0  0  0  0  0  0  0  0
   -2.7970    1.5051   -5.2887 H   0  0  0  0  0  0  0  0  0  0  0  0
   -2.6829    0.2965   -2.6914 H   0  0  0  0  0  0  0  0  0  0  0  0
   -2.0571    1.5574   -1.6256 H   0  0  0  0  0  0  0  0  0  0  0  0
   -0.9352    1.0679   -4.4000 H   0  0  0  0  0  0  0  0  0  0  0  0
   -0.1208    4.6969   -4.5056 H   0  0  0  0  0  0  0  0  0  0  0  0
   -1.2348    3.4001   -4.9509 H   0  0  0  0  0  0  0  0  0  0  0  0
    1.3806    1.2780   -5.3829 H   0  0  0  0  0  0  0  0  0  0  0  0
    1.0670   -0.7389   -6.6503 H   0  0  0  0  0  0  0  0  0  0  0  0
   -0.4979   -0.8626   -7.5281 H   0  0  0  0  0  0  0  0  0  0  0  0
   -0.4653   -0.7370   -5.7449 H   0  0  0  0  0  0  0  0  0  0  0  0
    2.3351    2.9401   -3.9358 H   0  0  0  0  0  0  0  0  0  0  0  0
    4.8467    3.0836   -4.1023 H   0  0  0  0  0  0  0  0  0  0  0  0
    4.1846    4.6648   -3.5992 H   0  0  0  0  0  0  0  0  0  0  0  0
    4.5718    4.3727   -5.3158 H   0  0  0  0  0  0  0  0  0  0  0  0
    0.6450   -0.5150   -3.5798 H   0  0  0  0  0  0  0  0  0  0  0  0
    1.3218   -1.9758   -2.1035 H   0  0  0  0  0  0  0  0  0  0  0  0
   -0.0762   -1.0458    1.0909 H   0  0  0  0  0  0  0  0  0  0  0  0
    5.0650   -2.7714    0.1562 H   0  0  0  0  0  0  0  0  0  0  0  0
    5.8613   -1.6975   -1.0241 H   0  0  0  0  0  0  0  0  0  0  0  0
    5.4130   -4.7272   -1.3057 H   0  0  0  0  0  0  0  0  0  0  0  0
    6.9438   -3.8374   -1.5612 H   0  0  0  0  0  0  0  0  0  0  0  0
    3.5630   -3.2876   -3.6355 H   0  0  0  0  0  0  0  0  0  0  0  0
    4.6076   -1.8341   -3.6897 H   0  0  0  0  0  0  0  0  0  0  0  0
    3.4438   -4.5753    0.9626 H   0  0  0  0  0  0  0  0  0  0  0  0
   -0.6230   -0.7829    2.8408 H   0  0  0  0  0  0  0  0  0  0  0  0
   -2.1535    0.6665    3.5784 H   0  0  0  0  0  0  0  0  0  0  0  0
   -1.7399   -1.2177    8.1339 H   0  0  0  0  0  0  0  0  0  0  0  0
   -0.3564   -2.1530    6.2799 H   0  0  0  0  0  0  0  0  0  0  0  0
    2.0941   -4.4706    5.3798 H   0  0  0  0  0  0  0  0  0  0  0  0
   -4.5374    3.6834   -2.9892 H   0  0  0  0  0  0  0  0  0  0  0  0
   -3.5188    3.2942   -1.5816 H   0  0  0  0  0  0  0  0  0  0  0  0
   -4.7665    2.1328   -2.1288 H   0  0  0  0  0  0  0  0  0  0  0  0
  1 52  1  0  0  0  0
  1  2  1  0  0  0  0
  2  3  1  0  0  0  0
  2 50  1  0  0  0  0
  3 55  1  0  0  0  0
  4 56  1  6  0  0  0
  4  5  1  0  0  0  0
  4 17  1  0  0  0  0
  4  3  1  0  0  0  0
  6 57  1  0  0  0  0
  6  5  1  0  0  0  0
  7  8  1  6  0  0  0
  7 13  1  0  0  0  0
  7  6  1  0  0  0  0
  9  7  1  0  0  0  0
  9 59  1  0  0  0  0
 10 11  1  0  0  0  0
 10  9  1  0  0  0  0
 11 60  1  0  0  0  0
 11 62  1  0  0  0  0
 12 10  2  0  0  0  0
 13 14  1  0  0  0  0
 14 15  1  0  0  0  0
 14 63  1  0  0  0  0
 15 64  1  0  0  0  0
 15 65  1  0  0  0  0
 16 13  2  0  0  0  0
 17 18  1  0  0  0  0
 18 19  1  0  0  0  0
 18 49  2  0  0  0  0
 19 20  1  0  0  0  0
 20 21  1  0  0  0  0
 21 32  2  0  0  0  0
 22 20  2  0  0  0  0
 22 30  1  0  0  0  0
 23 22  1  0  0  0  0
 24 25  1  1  0  0  0
 24 23  1  0  0  0  0
 24 26  1  0  0  0  0
 26 70  1  0  0  0  0
 27 73  1  0  0  0  0
 27 72  1  0  0  0  0
 27 26  1  0  0  0  0
 28 27  1  0  0  0  0
 29 28  1  0  0  0  0
 29 24  1  0  0  0  0
 30 31  2  0  0  0  0
 31 32  1  0  0  0  0
 31 48  1  0  0  0  0
 32 33  1  0  0  0  0
 33 34  1  1  0  0  0
 33 46  1  0  0  0  0
 34 35  1  0  0  0  0
 35 45  1  0  0  0  0
 36 35  2  0  0  0  0
 36 37  1  0  0  0  0
 37 42  2  0  0  0  0
 38 40  1  0  0  0  0
 38 37  1  0  0  0  0
 38 41  1  0  0  0  0
 39 38  1  0  0  0  0
 42 44  1  0  0  0  0
 42 43  1  0  0  0  0
 44 79  1  0  0  0  0
 45 80  1  0  0  0  0
 45 44  2  0  0  0  0
 47 46  2  0  0  0  0
 47 81  1  0  0  0  0
 48 47  1  0  0  0  0
 50 84  1  0  0  0  0
 50 83  1  0  0  0  0
 51  1  1  0  0  0  0
 53  1  1  0  0  0  0
 54  3  1  0  0  0  0
 58  6  1  0  0  0  0
 61 11  1  0  0  0  0
 66 15  1  0  0  0  0
 67 17  1  0  0  0  0
 68 19  1  0  0  0  0
 69 21  1  0  0  0  0
 71 26  1  0  0  0  0
 74 29  1  0  0  0  0
 75 29  1  0  0  0  0
 76 30  1  0  0  0  0
 77 34  1  0  0  0  0
 78 36  1  0  0  0  0
 82 50  1  0  0  0  0
M  END
