-1 1
 OpenBabel05232413483D

 82 84  0  0  1  0  0  0  0  0999 V2000
    1.0711    0.5197   -4.0643 C   0  0  0  0  0  0  0  0  0  0  0  0
    1.7848   -0.1679   -2.9978 N   0  0  0  0  0  0  0  0  0  0  0  0
    2.7459    0.7144   -2.3291 C   0  0  0  0  0  0  0  0  0  0  0  0
    2.0678    1.6918   -1.4109 C   0  0  0  0  0  0  0  0  0  0  0  0
   -1.4025    2.6201   -2.0999 S   0  0  0  0  0  1  0  0  0  0  0  0
   -1.3313    1.5913   -0.5947 C   0  0  0  0  0  0  0  0  0  0  0  0
   -1.4233    2.4059    0.7158 C   0  0  2  0  0  0  0  0  0  0  0  0
   -2.4635    2.7623    0.8416 H   0  0  0  0  0  0  0  0  0  0  0  0
   -0.5331    3.5293    0.6465 N   0  0  0  0  0  0  0  0  0  0  0  0
   -0.4163    4.4134    1.6665 C   0  0  0  0  0  0  0  0  0  0  0  0
    0.5282    5.5701    1.4005 C   0  0  0  0  0  0  0  0  0  0  0  0
   -0.9783    4.2680    2.7399 O   0  0  0  0  0  0  0  0  0  0  0  0
   -1.0693    1.5069    1.9015 C   0  0  0  0  0  0  0  0  0  0  0  0
   -2.1287    0.8142    2.3922 N   0  0  0  0  0  0  0  0  0  0  0  0
   -2.0442   -0.0823    3.5155 C   0  0  0  0  0  0  0  0  0  0  0  0
    0.0678    1.3713    2.3215 O   0  0  0  0  0  0  0  0  0  0  0  0
    2.3776    1.8779   -0.1270 C   0  0  0  0  0  0  0  0  0  0  0  0
    3.5201    1.2454    0.6032 C   0  0  0  0  0  0  0  0  0  0  0  0
    3.3597   -0.0395    1.0861 N   0  0  0  0  0  0  0  0  0  0  0  0
    2.1766   -0.7835    1.2604 C   0  0  0  0  0  0  0  0  0  0  0  0
    1.3288   -1.1093    0.2307 C   0  0  0  0  0  0  0  0  0  0  0  0
    1.8686   -1.2238    2.5824 C   0  0  0  0  0  0  0  0  0  0  0  0
    2.6888   -0.8377    3.5979 O   0  0  0  0  0  0  0  0  0  0  0  0
    2.5592    0.5352    3.9645 C   0  0  1  0  0  0  0  0  0  0  0  0
    2.1493    1.1033    3.1178 H   0  0  0  0  0  0  0  0  0  0  0  0
    1.6656    0.7819    5.1716 C   0  0  0  0  0  0  0  0  0  0  0  0
    2.2035    2.1305    5.6257 C   0  0  0  0  0  0  0  0  0  0  0  0
    3.6032    2.0825    5.3954 O   0  0  0  0  0  0  0  0  0  0  0  0
    3.9021    1.1056    4.4225 C   0  0  0  0  0  0  0  0  0  0  0  0
    0.7801   -2.0267    2.8197 C   0  0  0  0  0  0  0  0  0  0  0  0
   -0.1106   -2.3552    1.7693 C   0  0  0  0  0  0  0  0  0  0  0  0
    0.1565   -1.8536    0.4744 C   0  0  0  0  0  0  0  0  0  0  0  0
   -0.8276   -2.1518   -0.5347 C   0  0  2  0  0  3  0  0  0  0  0  0
   -0.6938   -1.6434   -1.7905 N   0  0  0  0  0  0  0  0  0  0  0  0
   -1.6641   -1.7730   -2.8076 C   0  0  0  0  0  0  0  0  0  0  0  0
   -2.1416   -3.0250   -3.1957 C   0  0  0  0  0  0  0  0  0  0  0  0
   -3.0836   -3.1313   -4.2276 C   0  0  0  0  0  0  0  0  0  0  0  0
   -3.5790   -4.4137   -4.6400 C   0  0  0  0  0  0  0  0  0  0  0  0
   -3.9662   -5.4543   -4.9677 N   0  0  0  0  0  0  0  0  0  0  0  0
   -3.5288   -1.9670   -4.8667 C   0  0  0  0  0  0  0  0  0  0  0  0
   -4.4196   -2.0718   -5.8513 F   0  0  0  0  0  0  0  0  0  0  0  0
   -3.0615   -0.7209   -4.4849 C   0  0  0  0  0  0  0  0  0  0  0  0
   -2.1381   -0.6214   -3.4476 C   0  0  0  0  0  0  0  0  0  0  0  0
   -1.8754   -2.9046   -0.2500 N   0  0  0  0  0  0  0  0  0  0  0  0
   -2.0032   -3.3428    1.0160 C   0  0  0  0  0  0  0  0  0  0  0  0
   -1.2153   -3.1151    2.0335 N   0  0  0  0  0  2  0  0  0  0  0  0
    4.5590    1.8407    0.8127 O   0  0  0  0  0  0  0  0  0  0  0  0
    2.4144   -1.3837   -3.4716 C   0  0  0  0  0  0  0  0  0  0  0  0
    1.7671    0.9070   -4.8403 H   0  0  0  0  0  0  0  0  0  0  0  0
    0.4734    1.3514   -3.6573 H   0  0  0  0  0  0  0  0  0  0  0  0
    0.3745   -0.1792   -4.5504 H   0  0  0  0  0  0  0  0  0  0  0  0
    3.3558    1.2597   -3.0840 H   0  0  0  0  0  0  0  0  0  0  0  0
    3.4514    0.0890   -1.7585 H   0  0  0  0  0  0  0  0  0  0  0  0
    1.2203    2.2576   -1.8253 H   0  0  0  0  0  0  0  0  0  0  0  0
   -0.3847    1.0263   -0.5585 H   0  0  0  0  0  0  0  0  0  0  0  0
   -2.1454    0.8476   -0.5802 H   0  0  0  0  0  0  0  0  0  0  0  0
   -0.3164    3.7957   -0.3191 H   0  0  0  0  0  0  0  0  0  0  0  0
    0.1941    6.4443    1.9731 H   0  0  0  0  0  0  0  0  0  0  0  0
    0.5992    5.8224    0.3330 H   0  0  0  0  0  0  0  0  0  0  0  0
    1.5325    5.2909    1.7549 H   0  0  0  0  0  0  0  0  0  0  0  0
   -3.0395    1.0293    2.0110 H   0  0  0  0  0  0  0  0  0  0  0  0
   -0.9853   -0.1836    3.7785 H   0  0  0  0  0  0  0  0  0  0  0  0
   -2.4247   -1.0846    3.2679 H   0  0  0  0  0  0  0  0  0  0  0  0
   -2.5894    0.3116    4.3894 H   0  0  0  0  0  0  0  0  0  0  0  0
    1.7829    2.5731    0.4755 H   0  0  0  0  0  0  0  0  0  0  0  0
    4.1132   -0.2924    1.7197 H   0  0  0  0  0  0  0  0  0  0  0  0
    1.5598   -0.7806   -0.7783 H   0  0  0  0  0  0  0  0  0  0  0  0
    1.8438    0.0009    5.9285 H   0  0  0  0  0  0  0  0  0  0  0  0
    0.6027    0.8116    4.9025 H   0  0  0  0  0  0  0  0  0  0  0  0
    2.0291    2.3366    6.6926 H   0  0  0  0  0  0  0  0  0  0  0  0
    1.7396    2.9455    5.0383 H   0  0  0  0  0  0  0  0  0  0  0  0
    4.5093    0.2925    4.8634 H   0  0  0  0  0  0  0  0  0  0  0  0
    4.4683    1.5537    3.5884 H   0  0  0  0  0  0  0  0  0  0  0  0
    0.5629   -2.3727    3.8303 H   0  0  0  0  0  0  0  0  0  0  0  0
    0.0527   -0.9651   -1.9746 H   0  0  0  0  0  0  0  0  0  0  0  0
   -1.7945   -3.9239   -2.6892 H   0  0  0  0  0  0  0  0  0  0  0  0
   -3.4372    0.1744   -4.9824 H   0  0  0  0  0  0  0  0  0  0  0  0
   -1.8036    0.3773   -3.1224 H   0  0  0  0  0  0  0  0  0  0  0  0
   -2.8898   -3.9612    1.2055 H   0  0  0  0  0  0  0  0  0  0  0  0
    1.6567   -2.0412   -3.9243 H   0  0  0  0  0  0  0  0  0  0  0  0
    2.8736   -1.9267   -2.6307 H   0  0  0  0  0  0  0  0  0  0  0  0
    3.2029   -1.1934   -4.2322 H   0  0  0  0  0  0  0  0  0  0  0  0
  1 50  1  0  0  0  0
  1  2  1  0  0  0  0
  2  3  1  0  0  0  0
  3 53  1  0  0  0  0
  3  4  1  0  0  0  0
  4 17  2  0  0  0  0
  5  6  1  0  0  0  0
  6 56  1  0  0  0  0
  6 55  1  0  0  0  0
  6  7  1  0  0  0  0
  7  8  1  1  0  0  0
  7 13  1  0  0  0  0
  9  7  1  0  0  0  0
  9 10  1  0  0  0  0
 10 12  2  0  0  0  0
 11 10  1  0  0  0  0
 11 60  1  0  0  0  0
 11 58  1  0  0  0  0
 13 16  2  0  0  0  0
 13 14  1  0  0  0  0
 14 15  1  0  0  0  0
 15 62  1  0  0  0  0
 15 64  1  0  0  0  0
 17 65  1  0  0  0  0
 17 18  1  0  0  0  0
 18 47  2  0  0  0  0
 18 19  1  0  0  0  0
 19 20  1  0  0  0  0
 19 66  1  0  0  0  0
 20 22  1  0  0  0  0
 21 32  1  0  0  0  0
 21 20  2  0  0  0  0
 22 30  2  0  0  0  0
 22 23  1  0  0  0  0
 23 24  1  0  0  0  0
 24 25  1  6  0  0  0
 24 29  1  0  0  0  0
 24 26  1  0  0  0  0
 26 27  1  0  0  0  0
 26 68  1  0  0  0  0
 27 70  1  0  0  0  0
 28 27  1  0  0  0  0
 29 72  1  0  0  0  0
 29 28  1  0  0  0  0
 30 74  1  0  0  0  0
 31 46  1  0  0  0  0
 31 30  1  0  0  0  0
 32 31  2  0  0  0  0
 33 34  1  1  0  0  0
 33 44  1  0  0  0  0
 33 32  1  0  0  0  0
 35 34  1  0  0  0  0
 36 35  1  0  0  0  0
 36 76  1  0  0  0  0
 37 36  2  0  0  0  0
 38 37  1  0  0  0  0
 39 38  3  0  0  0  0
 40 42  2  0  0  0  0
 40 37  1  0  0  0  0
 41 40  1  0  0  0  0
 42 43  1  0  0  0  0
 43 78  1  0  0  0  0
 43 35  2  0  0  0  0
 44 45  2  0  0  0  0
 45 79  1  0  0  0  0
 45 46  1  0  0  0  0
 48  2  1  0  0  0  0
 48 81  1  0  0  0  0
 49  1  1  0  0  0  0
 51  1  1  0  0  0  0
 52  3  1  0  0  0  0
 54  4  1  0  0  0  0
 57  9  1  0  0  0  0
 59 11  1  0  0  0  0
 61 14  1  0  0  0  0
 63 15  1  0  0  0  0
 67 21  1  0  0  0  0
 69 26  1  0  0  0  0
 71 27  1  0  0  0  0
 73 29  1  0  0  0  0
 75 34  1  0  0  0  0
 77 42  1  0  0  0  0
 80 48  1  0  0  0  0
 82 48  1  0  0  0  0
M  END
