82
-1 1
C         1.193685    1.052586   -4.596666
N         1.592246    0.119892   -3.566095
C         2.362161    0.754687   -2.503128
C         1.637480    1.796150   -1.636069
S        -0.266902    1.306933   -1.491537
C        -0.572784    1.225582    0.277814
C        -1.125639    2.457305    1.001046
H        -2.076807    2.796657    0.557181
N        -0.166344    3.515394    0.955726
C        -0.470080    4.760535    1.393703
C         0.707405    5.712651    1.458510
O        -1.597485    5.084734    1.728086
C        -1.384338    1.994829    2.449886
N        -2.501641    1.236629    2.600221
C        -2.768993    0.461479    3.787956
O        -0.601156    2.212601    3.356154
C         2.350046    2.176289   -0.404442
C         3.258857    1.469697    0.420783
N         3.287801    0.001223    0.459013
C         2.131336   -0.706256    0.862663
C         1.298534   -1.330238   -0.033037
C         1.767701   -0.730188    2.253487
O         2.627970   -0.107719    3.065328
C         2.138592    0.672000    4.152731
H         1.107512    0.979399    3.927383
C         2.271324   -0.056644    5.501078
C         3.013863    0.968240    6.364783
O         3.829161    1.671066    5.470032
C         3.042165    1.903659    4.318918
C         0.611967   -1.352913    2.684953
C        -0.261865   -1.953238    1.749584
C         0.074312   -1.905147    0.376595
C        -0.940033   -2.354210   -0.531275
N        -0.789692   -2.046717   -1.858253
C        -1.631774   -2.337680   -2.928292
C        -2.587866   -3.358502   -2.930705
C        -3.353617   -3.597909   -4.082791
C        -4.333759   -4.647898   -4.095728
N        -5.118899   -5.498216   -4.099963
C        -3.163773   -2.812764   -5.222368
F        -3.895531   -3.046023   -6.311752
C        -2.224195   -1.791793   -5.226512
C        -1.468116   -1.556752   -4.087187
N        -2.011851   -2.989823   -0.094434
C        -2.169517   -3.074397    1.243175
N        -1.413132   -2.558343    2.174769
O         4.097265    2.015188    1.148926
C         2.282305   -1.023084   -4.118088
H         2.064896    1.528417   -5.101571
H         0.565155    1.850487   -4.175012
H         0.601706    0.537361   -5.370552
H         3.246155    1.282932   -2.927278
H         2.779942   -0.026623   -1.857987
H         1.510857    2.709018   -2.232177
H         0.384698    0.982625    0.758576
H        -1.250105    0.377911    0.437626
H         0.797374    3.239059    0.746200
H         0.344856    6.740115    1.331005
H         1.474659    5.482678    0.706033
H         1.171229    5.626704    2.452952
H        -3.075900    1.076453    1.783662
H        -2.109470    0.833975    4.581705
H        -2.560506   -0.609695    3.624174
H        -3.814159    0.584540    4.110577
H         2.505727    3.253226   -0.282328
H         4.041295   -0.176325    1.120282
H         1.572768   -1.328658   -1.084468
H         2.893677   -0.950322    5.347552
H         1.305702   -0.367603    5.925172
H         3.646376    0.514894    7.142221
H         2.289672    1.647995    6.863442
H         3.679385    2.046282    3.433613
H         2.405299    2.797933    4.460635
H         0.342382   -1.379673    3.740731
H        -0.191453   -1.232584   -2.028631
H        -2.750610   -3.947898   -2.031743
H        -2.099542   -1.184159   -6.123785
H        -0.727046   -0.754150   -4.064913
H        -3.065378   -3.615446    1.572186
H         1.641053   -1.535415   -4.853816
H         2.521550   -1.743644   -3.321105
H         3.236218   -0.754281   -4.626172
