86
-1 1
C        21.738784    4.657391    3.519901
C        21.122267    4.004807    2.706618
C        20.309230    3.289716    1.766508
C        19.493914    4.016162    0.891383
C        18.638691    3.361032    0.005673
N        17.796050    4.099219   -0.864196
C        17.269470    5.338739   -0.568080
N        17.275292    6.223555   -1.546695
C        16.782119    7.450572   -1.276957
N        16.303890    7.886887   -0.144536
C        16.687014    5.639415    0.710136
C        16.228825    6.974132    0.868619
C        15.650680    7.351990    2.101289
C        15.462956    6.433555    3.112561
O        14.849397    6.867000    4.237914
C        15.296454    6.505861    5.558558
C        16.811319    6.545701    5.717707
C        17.370227    7.960499    5.747890
O        16.696126    8.772386    6.687991
C        15.321923    8.872392    6.413923
C        14.638849    7.513059    6.496180
C        15.824942    5.056219    2.914801
N        15.488051    4.114688    3.883357
C        16.311879    3.297268    4.717141
O        15.719917    2.792252    5.667096
C        17.706383    3.228849    4.399089
C        18.650057    2.356715    4.963528
S        19.343554    2.941786    7.115846
C        20.367451    4.317406    6.526393
C        20.506106    5.482699    7.522147
H        21.136568    5.164186    8.374952
N        19.171064    5.797865    8.006300
C        18.829251    6.612181    9.024942
C        17.368502    6.576395    9.413252
O        19.605064    7.402490    9.560730
C        21.274378    6.631285    6.836991
N        20.995714    7.885213    7.247728
C        21.710264    9.013006    6.707023
O        22.116396    6.399628    5.977160
C        18.521296    0.846437    5.075478
N        17.277332    0.257548    5.508333
C        17.009565    0.438377    6.915549
C        17.172825   -1.118757    5.110226
C        16.449445    4.696792    1.737466
C        18.620326    1.964559   -0.030816
C        19.450745    1.237851    0.820959
C        20.286673    1.887438    1.723396
H        22.189977    5.251612    4.307039
H        19.516854    5.106380    0.924868
H        18.023183    4.025516   -1.851179
H        16.809654    8.159651   -2.113976
H        15.335919    8.386120    2.242351
H        14.944194    5.496218    5.810170
H        17.314013    5.948170    4.944300
H        17.042852    6.044352    6.665078
H        17.303812    8.421836    4.741520
H        18.427847    7.942505    6.047953
H        15.162876    9.303510    5.404933
H        14.898618    9.571121    7.150683
H        13.569633    7.598392    6.248382
H        14.715689    7.127254    7.525303
H        14.585672    4.245389    4.322688
H        18.110052    4.029327    3.771863
H        19.661357    2.565061    4.596784
H        19.903657    4.714836    5.605335
H        21.376465    3.979515    6.262870
H        18.537438    5.016174    7.794684
H        16.865422    7.363249    8.828246
H        17.276433    6.818926   10.478937
H        16.889516    5.610728    9.198565
H        20.499593    7.975284    8.141799
H        22.726169    9.109601    7.129226
H        21.150177    9.933227    6.921168
H        21.814852    8.899806    5.619398
H        19.383104    0.469387    5.673735
H        18.689988    0.502629    4.037774
H        17.751054   -0.091099    7.559635
H        16.005401    0.053259    7.152223
H        17.014139    1.507139    7.156972
H        17.268236   -1.214268    4.016065
H        16.187451   -1.520224    5.396868
H        17.947808   -1.779824    5.573708
H        16.709724    3.646653    1.611702
H        17.934641    1.457844   -0.712940
H        19.424993    0.146323    0.797161
H        20.913567    1.319236    2.412229
