86
-1 1
C         3.286682    0.308904   -0.995529
C         2.891522   -0.528060   -1.777036
C         2.256078   -1.486913   -2.635763
C         1.173423   -1.057467   -3.412954
C         0.403182   -1.970721   -4.135956
N        -0.731040   -1.566470   -4.872021
C        -1.351436   -0.333400   -4.754839
N        -1.648672    0.282117   -5.882693
C        -2.160884    1.526025   -5.791047
N        -2.333603    2.231110   -4.704262
C        -1.672300    0.236662   -3.480263
C        -2.085525    1.593780   -3.526841
C        -2.232973    2.290394   -2.299048
C        -2.054395    1.638262   -1.106338
O        -2.132784    2.319200    0.067187
C        -0.893446    2.432764    0.803250
C         0.023456    3.471166    0.163811
C        -0.526076    4.879020    0.351130
O        -0.792871    5.165759    1.706065
C        -1.746620    4.288301    2.260404
C        -1.264977    2.843981    2.219622
C        -1.827276    0.212659   -1.052468
N        -1.874316   -0.374632    0.185823
C        -1.018463   -1.330155    0.833815
O        -1.292250   -1.437663    2.069533
C         0.019277   -1.909473    0.142057
C         0.998013   -2.890818    0.688735
S         1.832005   -2.455774    2.326760
C         2.247907   -0.722122    2.005532
C         1.867119    0.241127    3.126455
H         2.446974    0.019672    4.042000
N         0.456476    0.119224    3.452548
C        -0.059762    0.501730    4.632212
C        -1.487496    0.071092    4.880899
O         0.560673    1.167911    5.468691
C         2.252094    1.682641    2.704583
N         2.026842    2.617725    3.647226
C         2.238235    4.023183    3.399251
O         2.731920    1.946901    1.606534
C         0.559870   -4.369012    0.729516
N        -0.736801   -4.692263    1.278724
C        -0.869636   -4.452461    2.697447
C        -1.145835   -6.019744    0.909488
C        -1.604753   -0.452664   -2.245158
C         0.769758   -3.322123   -4.131350
C         1.881890   -3.742138   -3.405506
C         2.622103   -2.840430   -2.645190
H         3.525423    1.028316   -0.224911
H         0.914469    0.000166   -3.403874
H        -0.758591   -1.901492   -5.829576
H        -2.420271    2.001740   -6.744894
H        -2.462776    3.356115   -2.315700
H        -0.386225    1.455162    0.820244
H         0.153799    3.248662   -0.907040
H         1.016269    3.376736    0.630329
H        -1.453078    5.002527   -0.244827
H         0.197364    5.632228    0.006871
H        -2.706149    4.379631    1.713541
H        -1.913045    4.616597    3.296676
H        -2.033104    2.161218    2.613744
H        -0.374603    2.735407    2.854530
H        -2.340069    0.180964    0.893765
H         0.201892   -1.601623   -0.885207
H         1.849369   -2.897292   -0.008345
H         1.699965   -0.442469    1.091207
H         3.319532   -0.616286    1.795115
H        -0.133774   -0.527276    2.874766
H        -2.070313    0.951864    5.186175
H        -1.490193   -0.634781    5.724650
H        -1.930194   -0.412304    3.999702
H         1.579015    2.291575    4.514212
H         3.076237    4.146553    2.699544
H         2.479824    4.531774    4.343175
H         1.349612    4.506381    2.955643
H         1.369127   -4.968711    1.219696
H         0.542241   -4.685384   -0.327197
H        -0.158014   -5.064612    3.302632
H        -1.892579   -4.709759    3.015307
H        -0.717015   -3.386545    2.907674
H        -1.141260   -6.135217   -0.186641
H        -2.171670   -6.212331    1.262690
H        -0.492330   -6.823111    1.333328
H        -1.414292   -1.524389   -2.223027
H         0.163277   -4.043087   -4.684323
H         2.155329   -4.799590   -3.407364
H         3.464023   -3.177589   -2.038997
