86
-1 1
C         3.376211   -0.402082   -0.775572
C         2.920932   -0.885854   -1.789611
C         2.318018   -1.355107   -3.003640
C         1.566514   -0.452478   -3.766658
C         0.908713   -0.866619   -4.924964
N         0.077647    0.042340   -5.636979
C        -0.675073    1.013500   -5.019736
N        -0.754191    2.184427   -5.621296
C        -1.421562    3.164745   -4.976118
N        -1.963808    3.118469   -3.789510
C        -1.362595    0.767092   -3.783757
C        -1.946433    1.902952   -3.167816
C        -2.523594    1.759075   -1.885956
C        -2.597569    0.527837   -1.262544
O        -3.146583    0.462600   -0.039766
C        -2.377384   -0.088780    1.063337
C        -0.973980    0.503018    1.142648
C        -0.995527    1.981422    1.510779
O        -1.750696    2.225862    2.678641
C        -3.079975    1.783676    2.578577
C        -3.154278    0.284006    2.317953
C        -2.158464   -0.642147   -1.965683
N        -2.459935   -1.940870   -1.481590
C        -1.579558   -2.919452   -1.057431
O        -1.913425   -4.088518   -1.102373
C        -0.277538   -2.433613   -0.521454
C         0.251397   -2.909741    0.612519
S         1.227069   -1.197484    3.745786
C         2.422338   -0.243389    2.755634
C         2.816870    1.096315    3.398663
H         3.431050    0.893290    4.297655
N         1.588368    1.764520    3.812825
C         1.495652    2.726963    4.756442
C         0.118626    2.883003    5.359904
O         2.439528    3.432848    5.113723
C         3.705788    1.921511    2.448583
N         3.949316    3.187725    2.838407
C         4.785162    4.083044    2.086010
O         4.200543    1.433554    1.436398
C        -0.372572   -3.992996    1.464092
N        -1.748088   -3.708229    1.863875
C        -1.825621   -2.990749    3.117175
C        -2.602115   -4.870093    1.843738
C        -1.535315   -0.501112   -3.184490
C         1.047414   -2.184203   -5.365615
C         1.821044   -3.079698   -4.626798
C         2.439720   -2.682254   -3.445125
H         3.756290    0.087873    0.121675
H         1.472602    0.578756   -3.422841
H         0.421907    0.349459   -6.541729
H        -1.480561    4.119706   -5.512926
H        -2.913396    2.642932   -1.381071
H        -2.327252   -1.182205    0.954318
H        -0.425801    0.361008    0.199113
H        -0.423510   -0.067684    1.914946
H        -1.402129    2.586157    0.674749
H         0.022747    2.333855    1.724449
H        -3.603379    2.328630    1.767193
H        -3.570149    2.039425    3.529578
H        -4.201692   -0.042249    2.222635
H        -2.701807   -0.251902    3.164866
H        -3.360541   -2.320795   -1.756609
H         0.220587   -1.612319   -1.043606
H         1.187617   -2.473817    0.975393
H         2.001026   -0.022565    1.758043
H         3.346086   -0.812620    2.582163
H         0.825871    1.066891    3.822842
H        -0.660365    2.795133    4.588474
H         0.058642    3.850003    5.873450
H        -0.037355    2.074828    6.091928
H         3.544877    3.477809    3.738587
H         5.736043    4.291388    2.606295
H         4.274436    5.043030    1.909179
H         5.015655    3.615937    1.119924
H         0.272444   -4.162237    2.347044
H        -0.374852   -4.918322    0.867906
H        -1.543023   -3.623987    3.988869
H        -2.855245   -2.631465    3.279282
H        -1.134603   -2.133302    3.114005
H        -2.604969   -5.309473    0.836351
H        -3.634821   -4.571645    2.087425
H        -2.302145   -5.651273    2.581437
H        -1.209254   -1.405605   -3.698280
H         0.521658   -2.506644   -6.266673
H         1.917281   -4.113648   -4.964747
H         3.012389   -3.393770   -2.848927
