87
-1 1
O        -1.649153    7.988515    3.432889
C        -1.083583    6.970224    3.762105
C        -0.176739    6.189335    2.836591
C         1.160015    5.860102    3.542863
N         0.980821    5.197521    4.812953
C         0.201064    6.009842    5.714325
C        -1.195599    6.385621    5.156082
C         0.562797    3.808641    4.770087
C         1.352153    2.854099    3.901502
S         3.556049    3.507369    4.500709
C         4.287773    2.638827    3.082657
C         4.318463    3.507708    1.803674
H         3.368519    4.060472    1.748598
N         4.437194    2.747047    0.580776
C         3.408412    2.553127   -0.270654
C         3.794538    1.906210   -1.586206
O         2.246308    2.846504   -0.004731
C         5.479899    4.513996    1.820513
N         5.420693    5.416765    2.819206
C         6.489130    6.345037    3.080048
O         6.374141    4.462337    0.984509
C         1.142100    1.495889    4.111342
C         1.367481    0.414923    3.193623
N         1.638902    0.740646    1.852987
C         2.133351   -0.182311    0.947538
C         1.615958   -0.273871   -0.328173
C         3.260261   -1.006466    1.289143
O         3.875241   -0.742566    2.452400
C         4.023099   -1.769605    3.418684
H         3.194620   -2.479581    3.285695
C         5.396248   -2.454251    3.373091
C         5.701539   -2.640864    4.855955
O         5.202274   -1.484496    5.467176
C         3.980323   -1.152981    4.832529
C         3.716876   -1.961600    0.406630
C         3.167140   -2.075527   -0.891956
C         2.139350   -1.180476   -1.277985
C         1.720159   -1.277841   -2.649711
N         0.803442   -0.364741   -3.113433
C         0.205702   -0.220188   -4.366003
C        -0.666064    0.869164   -4.531332
C        -1.311011    1.083431   -5.742740
Cl        -2.389288    2.434857   -5.935621
C        -1.096619    0.215949   -6.811694
F        -1.713423    0.418962   -7.975515
C        -0.236130   -0.860247   -6.657764
C         0.416426   -1.087705   -5.449730
N         2.210392   -2.197393   -3.454055
C         3.151580   -3.026467   -2.949408
N         3.664556   -3.013045   -1.752949
O         1.302295   -0.775881    3.504978
H        -0.025662    6.762930    1.911501
H        -0.682727    5.243913    2.572700
H         1.712584    6.798827    3.720321
H         1.802910    5.251816    2.894797
H         0.758158    6.940543    5.920736
H         0.089075    5.486766    6.676320
H        -1.721208    7.103202    5.802330
H        -1.813126    5.473022    5.086786
H        -0.492675    3.702483    4.424983
H         0.580196    3.423249    5.802135
H         1.502014    3.186881    2.868196
H         3.699657    1.735257    2.870688
H         5.306348    2.293859    3.324034
H         5.386353    2.686979    0.222914
H         2.910488    1.840629   -2.230563
H         4.180834    0.891713   -1.405678
H         4.578501    2.487638   -2.094613
H         4.724818    5.214931    3.553755
H         7.100227    6.033803    3.944166
H         6.089693    7.350446    3.284357
H         7.137156    6.389882    2.195313
H         0.863807    1.153416    5.111552
H         1.499274    1.681117    1.491678
H         0.779468    0.388482   -0.558523
H         6.116565   -1.752729    2.925763
H         5.404712   -3.390863    2.797061
H         6.775402   -2.725636    5.079077
H         5.199843   -3.554136    5.244638
H         3.876457   -0.059883    4.781118
H         3.118225   -1.551706    5.392742
H         4.559172   -2.604014    0.663250
H         0.536873    0.338112   -2.438418
H        -0.848517    1.564808   -3.709510
H        -0.079836   -1.527571   -7.507130
H         1.097315   -1.925527   -5.324392
H         3.525438   -3.784895   -3.648054
