87
-1 1
O         3.060469    4.328227    5.940642
C         2.012034    3.859734    5.559078
C         1.889388    2.475181    4.963719
C         0.684188    1.725379    5.569694
N        -0.556237    2.472317    5.491246
C        -0.443191    3.732698    6.188914
C         0.703693    4.624406    5.658676
C        -1.174583    2.606576    4.174027
C        -1.004835    1.399045    3.305055
S         2.027304    0.981631    1.042503
C         1.446760    1.502475   -0.616105
C         0.109562    2.275276   -0.634117
H        -0.637875    1.684663   -0.074318
N        -0.371431    2.520939   -1.981891
C        -0.819726    1.624620   -2.865755
C        -1.273909    2.195503   -4.194512
O        -0.870604    0.410135   -2.658761
C         0.194653    3.685035   -0.006742
N         0.765358    3.756903    1.204391
C         1.040816    5.031483    1.815379
O        -0.226721    4.667235   -0.613038
C        -1.974718    0.531853    3.007870
C        -1.803806   -0.697259    2.172401
N        -0.713017   -0.717011    1.353136
C        -0.275850   -1.896121    0.716057
C        -0.294933   -1.999480   -0.650377
C         0.332189   -2.922007    1.499073
O         0.338944   -2.699771    2.826172
C         1.419403   -3.153719    3.620736
H         1.499545   -4.252287    3.576584
C         2.711548   -2.421577    3.257926
C         2.506786   -1.096164    3.978992
O         1.843806   -1.430874    5.189793
C         1.157062   -2.655023    5.042730
C         0.874612   -4.032139    0.886505
C         0.842470   -4.157648   -0.522333
C         0.269556   -3.122159   -1.301247
C         0.314053   -3.308250   -2.729272
N        -0.180321   -2.327821   -3.543112
C        -0.370330   -2.326754   -4.926756
C        -1.137738   -1.268589   -5.444975
C        -1.368922   -1.164324   -6.808503
Cl        -2.315033    0.157513   -7.440517
C        -0.854234   -2.118974   -7.683561
F        -1.078999   -2.021566   -8.995692
C        -0.107798   -3.172940   -7.180756
C         0.141556   -3.286442   -5.815011
N         0.819540   -4.413554   -3.248387
C         1.311234   -5.336413   -2.397049
N         1.370399   -5.280986   -1.096562
O        -2.618161   -1.601055    2.228178
H         2.831907    1.933067    5.119606
H         1.747940    2.571186    3.871401
H         0.887333    1.525899    6.635455
H         0.573630    0.738125    5.103316
H        -0.268702    3.526690    7.259310
H        -1.399145    4.276267    6.122428
H         0.861198    5.514377    6.284630
H         0.452183    4.970602    4.641832
H        -0.757688    3.462571    3.599011
H        -2.247349    2.819399    4.320506
H        -0.004673    1.259056    2.875464
H         1.298841    0.608275   -1.238647
H         2.211588    2.123999   -1.111314
H        -0.471418    3.518990   -2.168478
H        -2.302575    1.863808   -4.393866
H        -0.638217    1.786091   -4.993069
H        -1.233449    3.291903   -4.234191
H         1.271124    2.897320    1.509068
H         1.441334    5.748896    1.081996
H         1.782356    4.891612    2.614049
H         0.131958    5.482254    2.249726
H        -2.978090    0.633722    3.433144
H         0.035834   -0.000241    1.403576
H        -0.723308   -1.161239   -1.201766
H         2.850335   -2.303970    2.174594
H         3.573371   -2.969581    3.670500
H         1.887470   -0.420410    3.363156
H         3.445289   -0.577617    4.221147
H         0.073983   -2.521784    5.194808
H         1.532530   -3.379612    5.787194
H         1.352777   -4.833875    1.448357
H        -0.458756   -1.452822   -3.096578
H        -1.547538   -0.526235   -4.759678
H         0.285908   -3.912354   -7.880562
H         0.722939   -4.113077   -5.416163
H         1.715927   -6.237752   -2.875157
