-1 1
 OpenBabel05232414493D

 87 90  0  0  1  0  0  0  0  0999 V2000
   -1.6492    7.9885    3.4329 O   0  0  0  0  0  0  0  0  0  0  0  0
   -1.0836    6.9702    3.7621 C   0  0  0  0  0  0  0  0  0  0  0  0
   -0.1767    6.1893    2.8366 C   0  0  0  0  0  0  0  0  0  0  0  0
    1.1600    5.8601    3.5429 C   0  0  0  0  0  0  0  0  0  0  0  0
    0.9808    5.1975    4.8130 N   0  0  0  0  0  0  0  0  0  0  0  0
    0.2011    6.0098    5.7143 C   0  0  0  0  0  0  0  0  0  0  0  0
   -1.1956    6.3856    5.1561 C   0  0  0  0  0  0  0  0  0  0  0  0
    0.5628    3.8086    4.7701 C   0  0  0  0  0  0  0  0  0  0  0  0
    1.3522    2.8541    3.9015 C   0  0  0  0  0  3  0  0  0  0  0  0
    3.5560    3.5074    4.5007 S   0  0  0  0  0  1  0  0  0  0  0  0
    4.2878    2.6388    3.0827 C   0  0  0  0  0  0  0  0  0  0  0  0
    4.3185    3.5077    1.8037 C   0  0  2  0  0  0  0  0  0  0  0  0
    3.3685    4.0605    1.7486 H   0  0  0  0  0  0  0  0  0  0  0  0
    4.4372    2.7470    0.5808 N   0  0  0  0  0  0  0  0  0  0  0  0
    3.4084    2.5531   -0.2707 C   0  0  0  0  0  0  0  0  0  0  0  0
    3.7945    1.9062   -1.5862 C   0  0  0  0  0  0  0  0  0  0  0  0
    2.2463    2.8465   -0.0047 O   0  0  0  0  0  0  0  0  0  0  0  0
    5.4799    4.5140    1.8205 C   0  0  0  0  0  0  0  0  0  0  0  0
    5.4207    5.4168    2.8192 N   0  0  0  0  0  0  0  0  0  0  0  0
    6.4891    6.3450    3.0800 C   0  0  0  0  0  0  0  0  0  0  0  0
    6.3741    4.4623    0.9845 O   0  0  0  0  0  0  0  0  0  0  0  0
    1.1421    1.4959    4.1113 C   0  0  0  0  0  3  0  0  0  0  0  0
    1.3675    0.4149    3.1936 C   0  0  0  0  0  0  0  0  0  0  0  0
    1.6389    0.7406    1.8530 N   0  0  0  0  0  0  0  0  0  0  0  0
    2.1334   -0.1823    0.9475 C   0  0  0  0  0  0  0  0  0  0  0  0
    1.6160   -0.2739   -0.3282 C   0  0  0  0  0  0  0  0  0  0  0  0
    3.2603   -1.0065    1.2891 C   0  0  0  0  0  0  0  0  0  0  0  0
    3.8752   -0.7426    2.4524 O   0  0  0  0  0  0  0  0  0  0  0  0
    4.0231   -1.7696    3.4187 C   0  0  1  0  0  0  0  0  0  0  0  0
    3.1946   -2.4796    3.2857 H   0  0  0  0  0  0  0  0  0  0  0  0
    5.3962   -2.4543    3.3731 C   0  0  0  0  0  0  0  0  0  0  0  0
    5.7015   -2.6409    4.8560 C   0  0  0  0  0  0  0  0  0  0  0  0
    5.2023   -1.4845    5.4672 O   0  0  0  0  0  0  0  0  0  0  0  0
    3.9803   -1.1530    4.8325 C   0  0  0  0  0  0  0  0  0  0  0  0
    3.7169   -1.9616    0.4066 C   0  0  0  0  0  0  0  0  0  0  0  0
    3.1671   -2.0755   -0.8920 C   0  0  0  0  0  0  0  0  0  0  0  0
    2.1393   -1.1805   -1.2780 C   0  0  0  0  0  0  0  0  0  0  0  0
    1.7202   -1.2778   -2.6497 C   0  0  1  0  0  3  0  0  0  0  0  0
    0.8034   -0.3647   -3.1134 N   0  0  0  0  0  0  0  0  0  0  0  0
    0.2057   -0.2202   -4.3660 C   0  0  0  0  0  0  0  0  0  0  0  0
   -0.6661    0.8692   -4.5313 C   0  0  0  0  0  0  0  0  0  0  0  0
   -1.3110    1.0834   -5.7427 C   0  0  0  0  0  0  0  0  0  0  0  0
   -2.3893    2.4349   -5.9356 Cl  0  0  0  0  0  0  0  0  0  0  0  0
   -1.0966    0.2159   -6.8117 C   0  0  0  0  0  0  0  0  0  0  0  0
   -1.7134    0.4190   -7.9755 F   0  0  0  0  0  0  0  0  0  0  0  0
   -0.2361   -0.8602   -6.6578 C   0  0  0  0  0  0  0  0  0  0  0  0
    0.4164   -1.0877   -5.4497 C   0  0  0  0  0  0  0  0  0  0  0  0
    2.2104   -2.1974   -3.4541 N   0  0  0  0  0  0  0  0  0  0  0  0
    3.1516   -3.0265   -2.9494 C   0  0  0  0  0  0  0  0  0  0  0  0
    3.6646   -3.0130   -1.7529 N   0  0  0  0  0  2  0  0  0  0  0  0
    1.3023   -0.7759    3.5050 O   0  0  0  0  0  0  0  0  0  0  0  0
   -0.0257    6.7629    1.9115 H   0  0  0  0  0  0  0  0  0  0  0  0
   -0.6827    5.2439    2.5727 H   0  0  0  0  0  0  0  0  0  0  0  0
    1.7126    6.7988    3.7203 H   0  0  0  0  0  0  0  0  0  0  0  0
    1.8029    5.2518    2.8948 H   0  0  0  0  0  0  0  0  0  0  0  0
    0.7582    6.9405    5.9207 H   0  0  0  0  0  0  0  0  0  0  0  0
    0.0891    5.4868    6.6763 H   0  0  0  0  0  0  0  0  0  0  0  0
   -1.7212    7.1032    5.8023 H   0  0  0  0  0  0  0  0  0  0  0  0
   -1.8131    5.4730    5.0868 H   0  0  0  0  0  0  0  0  0  0  0  0
   -0.4927    3.7025    4.4250 H   0  0  0  0  0  0  0  0  0  0  0  0
    0.5802    3.4232    5.8021 H   0  0  0  0  0  0  0  0  0  0  0  0
    1.5020    3.1869    2.8682 H   0  0  0  0  0  0  0  0  0  0  0  0
    3.6997    1.7353    2.8707 H   0  0  0  0  0  0  0  0  0  0  0  0
    5.3063    2.2939    3.3240 H   0  0  0  0  0  0  0  0  0  0  0  0
    5.3864    2.6870    0.2229 H   0  0  0  0  0  0  0  0  0  0  0  0
    2.9105    1.8406   -2.2306 H   0  0  0  0  0  0  0  0  0  0  0  0
    4.1808    0.8917   -1.4057 H   0  0  0  0  0  0  0  0  0  0  0  0
    4.5785    2.4876   -2.0946 H   0  0  0  0  0  0  0  0  0  0  0  0
    4.7248    5.2149    3.5538 H   0  0  0  0  0  0  0  0  0  0  0  0
    7.1002    6.0338    3.9442 H   0  0  0  0  0  0  0  0  0  0  0  0
    6.0897    7.3504    3.2844 H   0  0  0  0  0  0  0  0  0  0  0  0
    7.1372    6.3899    2.1953 H   0  0  0  0  0  0  0  0  0  0  0  0
    0.8638    1.1534    5.1116 H   0  0  0  0  0  0  0  0  0  0  0  0
    1.4993    1.6811    1.4917 H   0  0  0  0  0  0  0  0  0  0  0  0
    0.7795    0.3885   -0.5585 H   0  0  0  0  0  0  0  0  0  0  0  0
    6.1166   -1.7527    2.9258 H   0  0  0  0  0  0  0  0  0  0  0  0
    5.4047   -3.3909    2.7971 H   0  0  0  0  0  0  0  0  0  0  0  0
    6.7754   -2.7256    5.0791 H   0  0  0  0  0  0  0  0  0  0  0  0
    5.1998   -3.5541    5.2446 H   0  0  0  0  0  0  0  0  0  0  0  0
    3.8765   -0.0599    4.7811 H   0  0  0  0  0  0  0  0  0  0  0  0
    3.1182   -1.5517    5.3927 H   0  0  0  0  0  0  0  0  0  0  0  0
    4.5592   -2.6040    0.6633 H   0  0  0  0  0  0  0  0  0  0  0  0
    0.5369    0.3381   -2.4384 H   0  0  0  0  0  0  0  0  0  0  0  0
   -0.8485    1.5648   -3.7095 H   0  0  0  0  0  0  0  0  0  0  0  0
   -0.0798   -1.5276   -7.5071 H   0  0  0  0  0  0  0  0  0  0  0  0
    1.0973   -1.9255   -5.3244 H   0  0  0  0  0  0  0  0  0  0  0  0
    3.5254   -3.7849   -3.6481 H   0  0  0  0  0  0  0  0  0  0  0  0
  1  2  2  0  0  0  0
  2  7  1  0  0  0  0
  3  4  1  0  0  0  0
  3  2  1  0  0  0  0
  4 54  1  0  0  0  0
  4  5  1  0  0  0  0
  5  6  1  0  0  0  0
  6 56  1  0  0  0  0
  6 57  1  0  0  0  0
  7  6  1  0  0  0  0
  7 58  1  0  0  0  0
  8  5  1  0  0  0  0
  8 61  1  0  0  0  0
  9 22  1  0  0  0  0
  9  8  1  0  0  0  0
 11 64  1  0  0  0  0
 11 10  1  0  0  0  0
 12 13  1  6  0  0  0
 12 18  1  0  0  0  0
 12 11  1  0  0  0  0
 14 12  1  0  0  0  0
 15 17  2  0  0  0  0
 15 14  1  0  0  0  0
 16 67  1  0  0  0  0
 16 15  1  0  0  0  0
 18 19  1  0  0  0  0
 19 20  1  0  0  0  0
 19 69  1  0  0  0  0
 20 71  1  0  0  0  0
 20 70  1  0  0  0  0
 21 18  2  0  0  0  0
 22 73  1  0  0  0  0
 23 51  2  0  0  0  0
 23 22  1  0  0  0  0
 24 23  1  0  0  0  0
 25 27  1  0  0  0  0
 25 24  1  0  0  0  0
 26 25  2  0  0  0  0
 27 28  1  0  0  0  0
 28 29  1  0  0  0  0
 29 30  1  6  0  0  0
 29 34  1  0  0  0  0
 31 29  1  0  0  0  0
 31 32  1  0  0  0  0
 32 78  1  0  0  0  0
 32 79  1  0  0  0  0
 32 33  1  0  0  0  0
 34 81  1  0  0  0  0
 34 33  1  0  0  0  0
 35 82  1  0  0  0  0
 35 27  2  0  0  0  0
 36 35  1  0  0  0  0
 37 36  2  0  0  0  0
 37 26  1  0  0  0  0
 38 39  1  6  0  0  0
 38 37  1  0  0  0  0
 39 83  1  0  0  0  0
 40 39  1  0  0  0  0
 41 40  1  0  0  0  0
 41 84  1  0  0  0  0
 42 41  2  0  0  0  0
 43 42  1  0  0  0  0
 44 46  2  0  0  0  0
 44 42  1  0  0  0  0
 45 44  1  0  0  0  0
 46 47  1  0  0  0  0
 47 86  1  0  0  0  0
 47 40  2  0  0  0  0
 48 49  2  0  0  0  0
 48 38  1  0  0  0  0
 49 50  1  0  0  0  0
 50 36  1  0  0  0  0
 52  3  1  0  0  0  0
 53  3  1  0  0  0  0
 55  4  1  0  0  0  0
 59  7  1  0  0  0  0
 60  8  1  0  0  0  0
 62  9  1  0  0  0  0
 63 11  1  0  0  0  0
 65 14  1  0  0  0  0
 66 16  1  0  0  0  0
 68 16  1  0  0  0  0
 72 20  1  0  0  0  0
 74 24  1  0  0  0  0
 75 26  1  0  0  0  0
 76 31  1  0  0  0  0
 77 31  1  0  0  0  0
 80 34  1  0  0  0  0
 85 46  1  0  0  0  0
 87 49  1  0  0  0  0
M  END
