77
-1 1
C        -5.328985   -2.008081    0.680791
O        -4.229300   -1.335048    1.234166
C        -3.034449   -1.956963    1.257262
C        -2.866796   -3.319790    1.223492
C        -1.902537   -1.060563    1.303601
N        -2.177268    0.273485    1.265882
C        -1.260914    1.339380    0.995603
O        -0.031896    1.117184    1.096527
C        -1.873197    2.533013    0.610733
C        -1.062895    3.681114    0.197737
S        -0.696252    3.777736   -1.693539
C        -0.440624    2.007300   -2.029991
C        -1.697370    1.189483   -2.386144
H        -2.484935    1.431905   -1.660389
N        -1.412809   -0.215804   -2.246897
C        -2.378144   -1.134426   -1.978039
C        -1.910437   -2.572042   -2.078358
O        -3.514803   -0.828202   -1.659061
C        -2.215452    1.480266   -3.805848
N        -2.714499    2.732743   -3.967904
C        -3.153497    3.228520   -5.244839
O        -2.171941    0.649259   -4.696603
C        -1.693087    5.024298    0.548594
N        -0.999692    6.183960    0.013941
C        -1.805307    7.357366   -0.039544
C        -1.555530    8.334758   -1.152779
C        -2.794994    7.479240   -1.159685
C         0.300463    6.412747    0.597316
C        -0.633073   -1.617978    1.346744
C        -0.454182   -3.020119    1.321860
C        -1.568300   -3.889666    1.257132
N        -1.427962   -5.246415    1.215507
C        -0.206046   -5.700601    1.237057
N         0.937923   -4.983775    1.291995
C         0.827187   -3.671252    1.332612
N         1.946784   -2.873345    1.381240
C         3.300098   -3.193007    1.395042
C         4.208290   -2.119911    1.437878
C         5.577372   -2.351978    1.456721
Cl         6.693836   -1.016765    1.511711
C         6.068343   -3.655578    1.431818
F         7.383899   -3.880515    1.449833
C         5.180474   -4.719488    1.388145
C         3.805634   -4.504005    1.369767
H        -6.145275   -1.277524    0.622162
H        -5.652977   -2.853711    1.312524
H        -5.087092   -2.356217   -0.335572
H        -3.712584   -4.003522    1.162794
H        -3.154989    0.480825    1.106430
H        -2.959072    2.577626    0.475548
H        -0.060324    3.576601    0.636564
H         0.011069    1.563723   -1.130852
H         0.292365    1.946087   -2.851286
H        -0.554610   -0.551425   -2.663694
H        -1.086664   -2.753809   -1.371905
H        -1.552188   -2.785360   -3.097133
H        -2.740399   -3.243433   -1.833355
H        -2.556320    3.388014   -3.202654
H        -3.179127    2.382218   -5.943490
H        -2.469227    3.995148   -5.646292
H        -4.162603    3.665921   -5.177445
H        -1.777705    5.068673    1.657686
H        -2.720050    5.037890    0.149992
H        -2.110109    7.793676    0.930370
H        -0.765189    8.070271   -1.859568
H        -1.655549    9.402753   -0.942228
H        -2.823013    6.646414   -1.866796
H        -3.759305    7.950289   -0.953189
H         0.935878    5.525195    0.469220
H         0.251287    6.646701    1.685206
H         0.793656    7.254640    0.088669
H         0.180064   -0.891344    1.363367
H        -0.073300   -6.789145    1.205210
H         1.742295   -1.882859    1.407243
H         3.846587   -1.089527    1.455884
H         5.583791   -5.733619    1.368546
H         3.102125   -5.332205    1.335463
