-1 1
 OpenBabel05232413483D

 77 79  0  0  1  0  0  0  0  0999 V2000
   -4.1895   -2.7070   -0.1607 C   0  0  0  0  0  0  0  0  0  0  0  0
   -2.9967   -1.9842   -0.0483 O   0  0  0  0  0  0  0  0  0  0  0  0
   -1.9182   -2.5469    0.5128 C   0  0  0  0  0  0  0  0  0  0  0  0
   -1.8560   -3.8447    0.9652 C   0  0  0  0  0  0  0  0  0  0  0  0
   -0.7847   -1.6642    0.6209 C   0  0  0  0  0  0  0  0  0  0  0  0
   -0.9415   -0.3776    0.1240 N   0  0  0  0  0  0  0  0  0  0  0  0
   -0.0355    0.6575    0.2417 C   0  0  0  0  0  0  0  0  0  0  0  0
    1.0516    0.5378    0.7882 O   0  0  0  0  0  0  0  0  0  0  0  0
   -0.5125    1.9300   -0.3578 C   0  0  0  0  0  0  0  0  0  0  0  0
    0.2132    3.0507   -0.2798 C   0  0  0  0  0  0  0  0  0  0  0  0
   -3.6327    5.0527   -2.5182 S   0  0  0  0  0  1  0  0  0  0  0  0
   -3.1569    3.4658   -3.2888 C   0  0  0  0  0  0  0  0  0  0  0  0
   -4.2841    2.4086   -3.3241 C   0  0  2  0  0  0  0  0  0  0  0  0
   -4.7520    2.3956   -2.3257 H   0  0  0  0  0  0  0  0  0  0  0  0
   -3.7911    1.0814   -3.6375 N   0  0  0  0  0  0  0  0  0  0  0  0
   -3.2281    0.2609   -2.7447 C   0  0  0  0  0  0  0  0  0  0  0  0
   -2.8251   -1.1089   -3.2551 C   0  0  0  0  0  0  0  0  0  0  0  0
   -3.0497    0.5739   -1.5672 O   0  0  0  0  0  0  0  0  0  0  0  0
   -5.3492    2.7124   -4.3896 C   0  0  0  0  0  0  0  0  0  0  0  0
   -5.9277    3.9159   -4.2722 N   0  0  0  0  0  0  0  0  0  0  0  0
   -6.8511    4.4217   -5.2512 C   0  0  0  0  0  0  0  0  0  0  0  0
   -5.6120    1.8917   -5.2686 O   0  0  0  0  0  0  0  0  0  0  0  0
   -0.1953    4.3463   -0.9092 C   0  0  0  0  0  0  0  0  0  0  0  0
   -0.2127    5.4485    0.0461 N   0  0  0  0  0  0  0  0  0  0  0  0
   -0.3010    6.7077   -0.6349 C   0  0  0  0  0  0  0  0  0  0  0  0
    0.2621    7.9150    0.0537 C   0  0  0  0  0  0  0  0  0  0  0  0
    0.9725    7.3211   -1.1363 C   0  0  0  0  0  0  0  0  0  0  0  0
   -1.2870    5.2955    1.0147 C   0  0  0  0  0  0  0  0  0  0  0  0
    0.3661   -2.1486    1.2106 C   0  0  0  0  0  0  0  0  0  0  0  0
    0.4401   -3.4812    1.6874 C   0  0  0  0  0  0  0  0  0  0  0  0
   -0.6711   -4.3440    1.5612 C   0  0  0  0  0  0  0  0  0  0  0  0
   -0.6392   -5.6369    1.9964 N   0  0  0  0  0  0  0  0  0  0  0  0
    0.4796   -6.0308    2.5376 C   0  0  0  0  0  0  0  0  0  0  0  0
    1.6053   -5.3105    2.7234 N   0  0  0  0  0  0  0  0  0  0  0  0
    1.6000   -4.0567    2.3148 C   0  0  0  0  0  0  0  0  0  0  0  0
    2.7082   -3.2670    2.4806 N   0  0  0  0  0  0  0  0  0  0  0  0
    3.9596   -3.5435    3.0339 C   0  0  0  0  0  0  0  0  0  0  0  0
    4.8874   -2.4886    3.0568 C   0  0  0  0  0  0  0  0  0  0  0  0
    6.1580   -2.6746    3.5859 C   0  0  0  0  0  0  0  0  0  0  0  0
    7.3002   -1.3631    3.6091 Cl  0  0  0  0  0  0  0  0  0  0  0  0
    6.5255   -3.9158    4.1017 C   0  0  0  0  0  0  0  0  0  0  0  0
    7.7440   -4.0977    4.6097 F   0  0  0  0  0  0  0  0  0  0  0  0
    5.6157   -4.9617    4.0836 C   0  0  0  0  0  0  0  0  0  0  0  0
    4.3389   -4.7900    3.5566 C   0  0  0  0  0  0  0  0  0  0  0  0
   -4.9199   -2.0227   -0.6087 H   0  0  0  0  0  0  0  0  0  0  0  0
   -4.5558   -3.0362    0.8268 H   0  0  0  0  0  0  0  0  0  0  0  0
   -4.0677   -3.5924   -0.8090 H   0  0  0  0  0  0  0  0  0  0  0  0
   -2.7015   -4.5267    0.8893 H   0  0  0  0  0  0  0  0  0  0  0  0
   -1.8218   -0.1706   -0.3749 H   0  0  0  0  0  0  0  0  0  0  0  0
   -1.4866    1.9260   -0.8557 H   0  0  0  0  0  0  0  0  0  0  0  0
    1.1665    3.0289    0.2614 H   0  0  0  0  0  0  0  0  0  0  0  0
   -2.3280    3.0070   -2.7259 H   0  0  0  0  0  0  0  0  0  0  0  0
   -2.7904    3.6127   -4.3205 H   0  0  0  0  0  0  0  0  0  0  0  0
   -4.0837    0.7478   -4.5541 H   0  0  0  0  0  0  0  0  0  0  0  0
   -1.8443   -1.3650   -2.8330 H   0  0  0  0  0  0  0  0  0  0  0  0
   -2.7805   -1.1600   -4.3513 H   0  0  0  0  0  0  0  0  0  0  0  0
   -3.5464   -1.8563   -2.8939 H   0  0  0  0  0  0  0  0  0  0  0  0
   -5.4529    4.5696   -3.6126 H   0  0  0  0  0  0  0  0  0  0  0  0
   -7.1930    3.5895   -5.8804 H   0  0  0  0  0  0  0  0  0  0  0  0
   -6.3802    5.1798   -5.9002 H   0  0  0  0  0  0  0  0  0  0  0  0
   -7.7221    4.8851   -4.7618 H   0  0  0  0  0  0  0  0  0  0  0  0
   -1.1729    4.2458   -1.4206 H   0  0  0  0  0  0  0  0  0  0  0  0
    0.5516    4.5939   -1.6838 H   0  0  0  0  0  0  0  0  0  0  0  0
   -1.2003    6.8524   -1.2562 H   0  0  0  0  0  0  0  0  0  0  0  0
    0.7155    7.7497    1.0346 H   0  0  0  0  0  0  0  0  0  0  0  0
   -0.2565    8.8697   -0.0641 H   0  0  0  0  0  0  0  0  0  0  0  0
    1.8926    6.7655   -0.9375 H   0  0  0  0  0  0  0  0  0  0  0  0
    0.9483    7.8584   -2.0875 H   0  0  0  0  0  0  0  0  0  0  0  0
   -1.1546    4.3595    1.5785 H   0  0  0  0  0  0  0  0  0  0  0  0
   -2.2863    5.2701    0.5342 H   0  0  0  0  0  0  0  0  0  0  0  0
   -1.2565    6.1312    1.7304 H   0  0  0  0  0  0  0  0  0  0  0  0
    1.1923   -1.4450    1.2885 H   0  0  0  0  0  0  0  0  0  0  0  0
    0.5270   -7.0682    2.8908 H   0  0  0  0  0  0  0  0  0  0  0  0
    2.5978   -2.3179    2.1507 H   0  0  0  0  0  0  0  0  0  0  0  0
    4.6220   -1.5068    2.6586 H   0  0  0  0  0  0  0  0  0  0  0  0
    5.9225   -5.9258    4.4928 H   0  0  0  0  0  0  0  0  0  0  0  0
    3.6206   -5.6055    3.5407 H   0  0  0  0  0  0  0  0  0  0  0  0
  1  2  1  0  0  0  0
  1 46  1  0  0  0  0
  2  3  1  0  0  0  0
  3  5  2  0  0  0  0
  3  4  1  0  0  0  0
  4 31  2  0  0  0  0
  5 29  1  0  0  0  0
  6  7  1  0  0  0  0
  6  5  1  0  0  0  0
  7  8  2  0  0  0  0
  9 10  2  0  0  0  0
  9  7  1  0  0  0  0
 10 51  1  0  0  0  0
 12 52  1  0  0  0  0
 12 11  1  0  0  0  0
 13 12  1  0  0  0  0
 13 14  1  1  0  0  0
 15 13  1  0  0  0  0
 15 16  1  0  0  0  0
 16 18  2  0  0  0  0
 17 57  1  0  0  0  0
 17 55  1  0  0  0  0
 17 16  1  0  0  0  0
 19 20  1  0  0  0  0
 19 13  1  0  0  0  0
 20 58  1  0  0  0  0
 21 61  1  0  0  0  0
 21 20  1  0  0  0  0
 22 19  2  0  0  0  0
 23 10  1  0  0  0  0
 23 24  1  0  0  0  0
 24 28  1  0  0  0  0
 25 24  1  0  0  0  0
 25 26  1  0  0  0  0
 26 65  1  0  0  0  0
 27 67  1  0  0  0  0
 27 25  1  0  0  0  0
 27 26  1  0  0  0  0
 28 69  1  0  0  0  0
 28 71  1  0  0  0  0
 29 72  1  0  0  0  0
 29 30  2  0  0  0  0
 30 35  1  0  0  0  0
 31 30  1  0  0  0  0
 31 32  1  0  0  0  0
 32 33  2  0  0  0  0
 33 34  1  0  0  0  0
 33 73  1  0  0  0  0
 35 36  1  0  0  0  0
 35 34  2  0  0  0  0
 36 37  1  0  0  0  0
 37 38  2  0  0  0  0
 37 44  1  0  0  0  0
 38 39  1  0  0  0  0
 39 40  1  0  0  0  0
 39 41  2  0  0  0  0
 41 42  1  0  0  0  0
 43 41  1  0  0  0  0
 43 76  1  0  0  0  0
 44 43  2  0  0  0  0
 45  1  1  0  0  0  0
 47  1  1  0  0  0  0
 48  4  1  0  0  0  0
 49  6  1  0  0  0  0
 50  9  1  0  0  0  0
 53 12  1  0  0  0  0
 54 15  1  0  0  0  0
 56 17  1  0  0  0  0
 59 21  1  0  0  0  0
 60 21  1  0  0  0  0
 62 23  1  0  0  0  0
 63 23  1  0  0  0  0
 64 25  1  0  0  0  0
 66 26  1  0  0  0  0
 68 27  1  0  0  0  0
 70 28  1  0  0  0  0
 74 36  1  0  0  0  0
 75 38  1  0  0  0  0
 77 44  1  0  0  0  0
M  END
