87
-1 1
O         2.449149   -0.839725    1.840884
C         1.574165   -0.495100    1.032634
N         2.105214    0.039393   -0.227149
C         1.389521    0.383939   -1.349447
C         1.606406   -0.226861   -2.572973
C         0.387351    1.430924   -1.290639
O         0.293138    2.104237   -0.137498
C        -0.988784    2.451397    0.355630
H        -1.712084    1.686706    0.030727
C        -0.935422    2.549291    1.884752
C        -0.977995    4.052632    2.136702
O        -1.788591    4.560628    1.094577
C        -1.413306    3.877139   -0.075140
C        -0.414103    1.695636   -2.377532
C        -0.219240    1.031062   -3.614061
C         0.851124    0.106165   -3.726297
C         0.999092   -0.485510   -5.017253
N         2.017816   -1.378793   -5.322816
C         3.382030   -1.244272   -5.029442
C         3.953025   -0.022362   -4.649649
C         5.314722    0.056344   -4.377937
Cl         6.021871    1.566501   -3.890862
C         6.127017   -1.068581   -4.509447
F         7.431225   -0.988007   -4.256647
C         5.573951   -2.278285   -4.905668
C         4.209066   -2.369121   -5.153428
N         0.128057   -0.274251   -5.986296
C        -0.878472    0.584439   -5.737359
N        -1.079255    1.268014   -4.640577
C         0.187594   -0.558666    1.135424
C        -0.564250   -0.940216    2.336859
S        -1.420268   -2.668616    2.178325
C        -3.177308   -2.216394    2.312817
C        -3.718817   -1.237688    1.240588
H        -4.742864   -1.548371    0.963830
N        -2.910819   -1.289400    0.038850
C        -3.330724   -0.976596   -1.203652
C        -2.360821   -1.299580   -2.316074
O        -4.430882   -0.471813   -1.424965
C        -3.897725    0.199082    1.802940
N        -4.326713    1.098727    0.895851
C        -4.651505    2.457660    1.264300
O        -3.721240    0.477354    2.981376
C         0.177333   -0.910573    3.671828
N        -0.751799   -1.004137    4.786767
C        -1.285920    0.269386    5.212089
C        -2.595359    0.112746    5.966798
S        -2.447262   -0.897187    7.475761
C        -1.573551   -2.294929    6.689229
C        -0.360624   -1.859862    5.878766
O        -1.446573   -0.208182    8.382405
H         2.996026   -0.409613   -0.409775
H         2.338463   -1.033995   -2.616389
H        -0.039966    2.034878    2.255341
H        -1.819702    2.065812    2.323138
H         0.036992    4.494143    2.085029
H        -1.433621    4.335754    3.095325
H        -0.543252    4.360744   -0.560367
H        -2.263595    3.894891   -0.773407
H        -1.205951    2.442981   -2.332934
H         1.815028   -1.874749   -6.184571
H         3.340726    0.874189   -4.556665
H         6.225747   -3.148510   -4.996191
H         3.768397   -3.327273   -5.435163
H        -1.591437    0.730626   -6.557568
H        -0.416018   -0.284291    0.271131
H        -1.454626   -0.307073    2.455274
H        -3.365516   -1.776901    3.300491
H        -3.722728   -3.168101    2.246308
H        -1.994956   -1.727922    0.171913
H        -2.491421   -0.566890   -3.121744
H        -2.594858   -2.299058   -2.713582
H        -1.315148   -1.295288   -1.974879
H        -4.533772    0.751013   -0.045681
H        -3.774088    3.124722    1.250209
H        -5.067374    2.477298    2.281883
H        -5.397817    2.853083    0.562025
H         0.782003    0.015716    3.714043
H         0.912613   -1.724182    3.712225
H        -1.509497    0.873408    4.321317
H        -0.561805    0.840895    5.834060
H        -3.355669   -0.358272    5.325514
H        -2.981458    1.080187    6.317869
H        -2.311448   -2.801538    6.047049
H        -1.298650   -2.954878    7.524705
H         0.105313   -2.765410    5.462705
H         0.380318   -1.387470    6.561178
