-1 1
 OpenBabel05192410563D

 87 91  0  0  1  0  0  0  0  0999 V2000
    2.4491   -0.8397    1.8409 O   0  0  0  0  0  0  0  0  0  0  0  0
    1.5742   -0.4951    1.0326 C   0  0  0  0  0  0  0  0  0  0  0  0
    2.1052    0.0394   -0.2271 N   0  0  0  0  0  0  0  0  0  0  0  0
    1.3895    0.3839   -1.3494 C   0  0  0  0  0  0  0  0  0  0  0  0
    1.6064   -0.2269   -2.5730 C   0  0  0  0  0  0  0  0  0  0  0  0
    0.3874    1.4309   -1.2906 C   0  0  0  0  0  0  0  0  0  0  0  0
    0.2931    2.1042   -0.1375 O   0  0  0  0  0  0  0  0  0  0  0  0
   -0.9888    2.4514    0.3556 C   0  0  1  0  0  0  0  0  0  0  0  0
   -1.7121    1.6867    0.0307 H   0  0  0  0  0  0  0  0  0  0  0  0
   -0.9354    2.5493    1.8848 C   0  0  0  0  0  0  0  0  0  0  0  0
   -0.9780    4.0526    2.1367 C   0  0  0  0  0  0  0  0  0  0  0  0
   -1.7886    4.5606    1.0946 O   0  0  0  0  0  0  0  0  0  0  0  0
   -1.4133    3.8771   -0.0751 C   0  0  0  0  0  0  0  0  0  0  0  0
   -0.4141    1.6956   -2.3775 C   0  0  0  0  0  0  0  0  0  0  0  0
   -0.2192    1.0311   -3.6141 C   0  0  0  0  0  0  0  0  0  0  0  0
    0.8511    0.1062   -3.7263 C   0  0  0  0  0  0  0  0  0  0  0  0
    0.9991   -0.4855   -5.0173 C   0  0  1  0  0  3  0  0  0  0  0  0
    2.0178   -1.3788   -5.3228 N   0  0  0  0  0  0  0  0  0  0  0  0
    3.3820   -1.2443   -5.0294 C   0  0  0  0  0  0  0  0  0  0  0  0
    3.9530   -0.0224   -4.6496 C   0  0  0  0  0  0  0  0  0  0  0  0
    5.3147    0.0563   -4.3779 C   0  0  0  0  0  0  0  0  0  0  0  0
    6.0219    1.5665   -3.8909 Cl  0  0  0  0  0  0  0  0  0  0  0  0
    6.1270   -1.0686   -4.5094 C   0  0  0  0  0  0  0  0  0  0  0  0
    7.4312   -0.9880   -4.2566 F   0  0  0  0  0  0  0  0  0  0  0  0
    5.5740   -2.2783   -4.9057 C   0  0  0  0  0  0  0  0  0  0  0  0
    4.2091   -2.3691   -5.1534 C   0  0  0  0  0  0  0  0  0  0  0  0
    0.1281   -0.2743   -5.9863 N   0  0  0  0  0  0  0  0  0  0  0  0
   -0.8785    0.5844   -5.7374 C   0  0  0  0  0  0  0  0  0  0  0  0
   -1.0793    1.2680   -4.6406 N   0  0  0  0  0  2  0  0  0  0  0  0
    0.1876   -0.5587    1.1354 C   0  0  0  0  0  3  0  0  0  0  0  0
   -0.5643   -0.9402    2.3369 C   0  0  1  0  0  0  0  0  0  0  0  0
   -1.4203   -2.6686    2.1783 S   0  0  0  0  0  0  0  0  0  0  0  0
   -3.1773   -2.2164    2.3128 C   0  0  0  0  0  0  0  0  0  0  0  0
   -3.7188   -1.2377    1.2406 C   0  0  2  0  0  0  0  0  0  0  0  0
   -4.7429   -1.5484    0.9638 H   0  0  0  0  0  0  0  0  0  0  0  0
   -2.9108   -1.2894    0.0389 N   0  0  0  0  0  0  0  0  0  0  0  0
   -3.3307   -0.9766   -1.2037 C   0  0  0  0  0  0  0  0  0  0  0  0
   -2.3608   -1.2996   -2.3161 C   0  0  0  0  0  0  0  0  0  0  0  0
   -4.4309   -0.4718   -1.4250 O   0  0  0  0  0  0  0  0  0  0  0  0
   -3.8977    0.1991    1.8029 C   0  0  0  0  0  0  0  0  0  0  0  0
   -4.3267    1.0987    0.8959 N   0  0  0  0  0  0  0  0  0  0  0  0
   -4.6515    2.4577    1.2643 C   0  0  0  0  0  0  0  0  0  0  0  0
   -3.7212    0.4774    2.9814 O   0  0  0  0  0  0  0  0  0  0  0  0
    0.1773   -0.9106    3.6718 C   0  0  0  0  0  0  0  0  0  0  0  0
   -0.7518   -1.0041    4.7868 N   0  0  0  0  0  0  0  0  0  0  0  0
   -1.2859    0.2694    5.2121 C   0  0  0  0  0  0  0  0  0  0  0  0
   -2.5954    0.1127    5.9668 C   0  0  0  0  0  0  0  0  0  0  0  0
   -2.4473   -0.8972    7.4758 S   0  0  1  0  0  0  0  0  0  0  0  0
   -1.5736   -2.2949    6.6892 C   0  0  0  0  0  0  0  0  0  0  0  0
   -0.3606   -1.8599    5.8788 C   0  0  0  0  0  0  0  0  0  0  0  0
   -1.4466   -0.2082    8.3824 O   0  0  0  0  0  0  0  0  0  0  0  0
    2.9960   -0.4096   -0.4098 H   0  0  0  0  0  0  0  0  0  0  0  0
    2.3385   -1.0340   -2.6164 H   0  0  0  0  0  0  0  0  0  0  0  0
   -0.0400    2.0349    2.2553 H   0  0  0  0  0  0  0  0  0  0  0  0
   -1.8197    2.0658    2.3231 H   0  0  0  0  0  0  0  0  0  0  0  0
    0.0370    4.4941    2.0850 H   0  0  0  0  0  0  0  0  0  0  0  0
   -1.4336    4.3358    3.0953 H   0  0  0  0  0  0  0  0  0  0  0  0
   -0.5433    4.3607   -0.5604 H   0  0  0  0  0  0  0  0  0  0  0  0
   -2.2636    3.8949   -0.7734 H   0  0  0  0  0  0  0  0  0  0  0  0
   -1.2060    2.4430   -2.3329 H   0  0  0  0  0  0  0  0  0  0  0  0
    1.8150   -1.8747   -6.1846 H   0  0  0  0  0  0  0  0  0  0  0  0
    3.3407    0.8742   -4.5567 H   0  0  0  0  0  0  0  0  0  0  0  0
    6.2257   -3.1485   -4.9962 H   0  0  0  0  0  0  0  0  0  0  0  0
    3.7684   -3.3273   -5.4352 H   0  0  0  0  0  0  0  0  0  0  0  0
   -1.5914    0.7306   -6.5576 H   0  0  0  0  0  0  0  0  0  0  0  0
   -0.4160   -0.2843    0.2711 H   0  0  0  0  0  0  0  0  0  0  0  0
   -1.4546   -0.3071    2.4553 H   0  0  0  0  0  0  0  0  0  0  0  0
   -3.3655   -1.7769    3.3005 H   0  0  0  0  0  0  0  0  0  0  0  0
   -3.7227   -3.1681    2.2463 H   0  0  0  0  0  0  0  0  0  0  0  0
   -1.9950   -1.7279    0.1719 H   0  0  0  0  0  0  0  0  0  0  0  0
   -2.4914   -0.5669   -3.1217 H   0  0  0  0  0  0  0  0  0  0  0  0
   -2.5949   -2.2991   -2.7136 H   0  0  0  0  0  0  0  0  0  0  0  0
   -1.3151   -1.2953   -1.9749 H   0  0  0  0  0  0  0  0  0  0  0  0
   -4.5338    0.7510   -0.0457 H   0  0  0  0  0  0  0  0  0  0  0  0
   -3.7741    3.1247    1.2502 H   0  0  0  0  0  0  0  0  0  0  0  0
   -5.0674    2.4773    2.2819 H   0  0  0  0  0  0  0  0  0  0  0  0
   -5.3978    2.8531    0.5620 H   0  0  0  0  0  0  0  0  0  0  0  0
    0.7820    0.0157    3.7140 H   0  0  0  0  0  0  0  0  0  0  0  0
    0.9126   -1.7242    3.7122 H   0  0  0  0  0  0  0  0  0  0  0  0
   -1.5095    0.8734    4.3213 H   0  0  0  0  0  0  0  0  0  0  0  0
   -0.5618    0.8409    5.8341 H   0  0  0  0  0  0  0  0  0  0  0  0
   -3.3557   -0.3583    5.3255 H   0  0  0  0  0  0  0  0  0  0  0  0
   -2.9815    1.0802    6.3179 H   0  0  0  0  0  0  0  0  0  0  0  0
   -2.3114   -2.8015    6.0470 H   0  0  0  0  0  0  0  0  0  0  0  0
   -1.2987   -2.9549    7.5247 H   0  0  0  0  0  0  0  0  0  0  0  0
    0.1053   -2.7654    5.4627 H   0  0  0  0  0  0  0  0  0  0  0  0
    0.3803   -1.3875    6.5612 H   0  0  0  0  0  0  0  0  0  0  0  0
  2 30  1  0  0  0  0
  2  1  2  0  0  0  0
  3  2  1  0  0  0  0
  4  6  1  0  0  0  0
  4  3  1  0  0  0  0
  5  4  2  0  0  0  0
  6  7  1  0  0  0  0
  7  8  1  0  0  0  0
  8  9  1  6  0  0  0
  8 10  1  0  0  0  0
 10 11  1  0  0  0  0
 10 54  1  0  0  0  0
 10 55  1  0  0  0  0
 11 57  1  0  0  0  0
 12 11  1  0  0  0  0
 13  8  1  0  0  0  0
 13 12  1  0  0  0  0
 14 60  1  0  0  0  0
 14  6  2  0  0  0  0
 15 14  1  0  0  0  0
 16 15  2  0  0  0  0
 16  5  1  0  0  0  0
 17 18  1  1  0  0  0
 17 16  1  0  0  0  0
 18 19  1  0  0  0  0
 19 20  1  0  0  0  0
 20 62  1  0  0  0  0
 20 21  2  0  0  0  0
 21 22  1  0  0  0  0
 23 21  1  0  0  0  0
 23 24  1  0  0  0  0
 25 23  2  0  0  0  0
 26 19  2  0  0  0  0
 26 25  1  0  0  0  0
 27 28  2  0  0  0  0
 27 17  1  0  0  0  0
 28 29  1  0  0  0  0
 29 15  1  0  0  0  0
 30 31  1  0  0  0  0
 31 67  1  1  0  0  0
 31 44  1  0  0  0  0
 32 33  1  0  0  0  0
 32 31  1  0  0  0  0
 33 68  1  0  0  0  0
 34 35  1  6  0  0  0
 34 40  1  0  0  0  0
 34 33  1  0  0  0  0
 36 70  1  0  0  0  0
 36 34  1  0  0  0  0
 37 36  1  0  0  0  0
 38 73  1  0  0  0  0
 38 37  1  0  0  0  0
 39 37  2  0  0  0  0
 40 43  2  0  0  0  0
 41 42  1  0  0  0  0
 41 40  1  0  0  0  0
 42 76  1  0  0  0  0
 44 79  1  0  0  0  0
 44 78  1  0  0  0  0
 44 45  1  0  0  0  0
 45 46  1  0  0  0  0
 45 50  1  0  0  0  0
 46 81  1  0  0  0  0
 46 47  1  0  0  0  0
 47 83  1  0  0  0  0
 47 48  1  0  0  0  0
 48 51  2  1  0  0  0
 49 48  1  0  0  0  0
 49 85  1  0  0  0  0
 50 87  1  0  0  0  0
 50 49  1  0  0  0  0
 52  3  1  0  0  0  0
 53  5  1  0  0  0  0
 56 11  1  0  0  0  0
 58 13  1  0  0  0  0
 59 13  1  0  0  0  0
 61 18  1  0  0  0  0
 63 25  1  0  0  0  0
 64 26  1  0  0  0  0
 65 28  1  0  0  0  0
 66 30  1  0  0  0  0
 69 33  1  0  0  0  0
 71 38  1  0  0  0  0
 72 38  1  0  0  0  0
 74 41  1  0  0  0  0
 75 42  1  0  0  0  0
 77 42  1  0  0  0  0
 80 46  1  0  0  0  0
 82 47  1  0  0  0  0
 84 49  1  0  0  0  0
 86 50  1  0  0  0  0
M  END
