-1 1
 OpenBabel05232413483D

 81 84  0  0  1  0  0  0  0  0999 V2000
   -3.0992    2.4407    3.0158 C   0  0  0  0  0  0  0  0  0  0  0  0
   -2.7736    2.0370    1.6957 O   0  0  0  0  0  0  0  0  0  0  0  0
   -1.8333    2.6896    1.0127 C   0  0  0  0  0  0  0  0  0  0  0  0
   -1.2299    3.8628    1.4182 C   0  0  0  0  0  0  0  0  0  0  0  0
   -1.4375    2.0744   -0.2205 C   0  0  0  0  0  0  0  0  0  0  0  0
   -2.0003    0.8377   -0.5974 N   0  0  0  0  0  0  0  0  0  0  0  0
   -1.3720   -0.3977   -0.4862 C   0  0  0  0  0  0  0  0  0  0  0  0
   -1.9036   -1.3832   -0.9636 O   0  0  0  0  0  0  0  0  0  0  0  0
   -0.0956   -0.3739    0.2686 C   0  0  0  0  0  0  0  0  0  0  0  0
    0.7882   -1.3773    0.3799 C   0  0  0  0  0  0  0  0  0  0  0  0
    0.2495   -2.6504    3.5020 S   0  0  0  0  0  1  0  0  0  0  0  0
   -1.4202   -2.5767    2.7712 C   0  0  0  0  0  0  0  0  0  0  0  0
   -2.2821   -1.4193    3.3170 C   0  0  2  0  0  0  0  0  0  0  0  0
   -1.8404   -0.4627    2.9774 H   0  0  0  0  0  0  0  0  0  0  0  0
   -2.2734   -1.4795    4.7542 N   0  0  0  0  0  0  0  0  0  0  0  0
   -2.9701   -0.6433    5.5377 C   0  0  0  0  0  0  0  0  0  0  0  0
   -2.7786   -0.8402    7.0307 C   0  0  0  0  0  0  0  0  0  0  0  0
   -3.7444    0.2082    5.1104 O   0  0  0  0  0  0  0  0  0  0  0  0
   -3.6941   -1.5640    2.7463 C   0  0  0  0  0  0  0  0  0  0  0  0
   -3.9399   -0.7229    1.7048 N   0  0  0  0  0  0  0  0  0  0  0  0
   -5.0967   -0.8371    0.8637 C   0  0  0  0  0  0  0  0  0  0  0  0
   -4.4774   -2.4154    3.1213 O   0  0  0  0  0  0  0  0  0  0  0  0
    0.7107   -2.7438   -0.2240 C   0  0  0  0  0  0  0  0  0  0  0  0
    1.9217   -3.0894   -0.9705 N   0  0  0  0  0  0  0  0  0  0  0  0
    3.1220   -3.3844   -0.2210 C   0  0  0  0  0  0  0  0  0  0  0  0
    3.2285   -3.3113    1.2743 C   0  0  0  0  0  0  0  0  0  0  0  0
    3.2837   -4.6494    0.5923 C   0  0  0  0  0  0  0  0  0  0  0  0
    1.6696   -4.0899   -1.9641 C   0  0  0  0  0  0  0  0  0  0  0  0
    1.0349   -3.6851   -3.2589 C   0  0  0  0  0  0  0  0  0  0  0  0
    2.4866   -4.0843   -3.2217 C   0  0  0  0  0  0  0  0  0  0  0  0
   -0.4250    2.6266   -0.9628 C   0  0  0  0  0  0  0  0  0  0  0  0
    0.2854    3.7664   -0.5113 C   0  0  0  0  0  0  0  0  0  0  0  0
   -0.1667    4.4225    0.6682 C   0  0  0  0  0  0  0  0  0  0  0  0
    0.3891    5.5872    1.1020 N   0  0  0  0  0  0  0  0  0  0  0  0
    1.3690    6.0589    0.3772 C   0  0  0  0  0  0  0  0  0  0  0  0
    1.9365    5.4961   -0.7017 N   0  0  0  0  0  0  0  0  0  0  0  0
    1.4395    4.3462   -1.1341 C   0  0  0  0  0  0  0  0  0  0  0  0
    2.1049    3.8324   -2.2189 N   0  0  0  0  0  0  0  0  0  0  0  0
    2.2224    2.5312   -2.7482 C   0  0  0  0  0  0  0  0  0  0  0  0
    2.4118    2.4276   -4.1305 C   0  0  0  0  0  0  0  0  0  0  0  0
    2.6064    1.1844   -4.7195 C   0  0  0  0  0  0  0  0  0  0  0  0
    2.8627    1.0549   -6.4352 Cl  0  0  0  0  0  0  0  0  0  0  0  0
    2.5779    0.0325   -3.9363 C   0  0  0  0  0  0  0  0  0  0  0  0
    2.7526   -1.1507   -4.5155 F   0  0  0  0  0  0  0  0  0  0  0  0
    2.3710    0.1157   -2.5650 C   0  0  0  0  0  0  0  0  0  0  0  0
    2.2205    1.3655   -1.9685 C   0  0  0  0  0  0  0  0  0  0  0  0
   -3.6831    1.6270    3.4649 H   0  0  0  0  0  0  0  0  0  0  0  0
   -3.6694    3.3840    3.0008 H   0  0  0  0  0  0  0  0  0  0  0  0
   -2.1841    2.5705    3.6144 H   0  0  0  0  0  0  0  0  0  0  0  0
   -1.5187    4.3801    2.3313 H   0  0  0  0  0  0  0  0  0  0  0  0
   -2.9564    0.7962   -0.9329 H   0  0  0  0  0  0  0  0  0  0  0  0
    0.1205    0.5368    0.8293 H   0  0  0  0  0  0  0  0  0  0  0  0
    1.6597   -1.1883    1.0116 H   0  0  0  0  0  0  0  0  0  0  0  0
   -1.9706   -3.5096    2.9738 H   0  0  0  0  0  0  0  0  0  0  0  0
   -1.3864   -2.4557    1.6768 H   0  0  0  0  0  0  0  0  0  0  0  0
   -1.4808   -2.0183    5.1155 H   0  0  0  0  0  0  0  0  0  0  0  0
   -3.6656   -1.3544    7.4301 H   0  0  0  0  0  0  0  0  0  0  0  0
   -2.7168    0.1448    7.5123 H   0  0  0  0  0  0  0  0  0  0  0  0
   -1.8867   -1.4328    7.2759 H   0  0  0  0  0  0  0  0  0  0  0  0
   -3.2675    0.0069    1.5035 H   0  0  0  0  0  0  0  0  0  0  0  0
   -5.6765    0.1011    0.8386 H   0  0  0  0  0  0  0  0  0  0  0  0
   -5.7329   -1.6306    1.2778 H   0  0  0  0  0  0  0  0  0  0  0  0
   -4.8139   -1.1126   -0.1672 H   0  0  0  0  0  0  0  0  0  0  0  0
   -0.1401   -2.7984   -0.9117 H   0  0  0  0  0  0  0  0  0  0  0  0
    0.5000   -3.4463    0.6100 H   0  0  0  0  0  0  0  0  0  0  0  0
    4.0238   -3.0801   -0.7665 H   0  0  0  0  0  0  0  0  0  0  0  0
    2.3351   -3.1100    1.8819 H   0  0  0  0  0  0  0  0  0  0  0  0
    4.1518   -2.8919    1.6831 H   0  0  0  0  0  0  0  0  0  0  0  0
    2.4016   -5.2837    0.7205 H   0  0  0  0  0  0  0  0  0  0  0  0
    4.2298   -5.1934    0.5261 H   0  0  0  0  0  0  0  0  0  0  0  0
    1.3897   -5.0840   -1.5780 H   0  0  0  0  0  0  0  0  0  0  0  0
    0.8079   -2.6246   -3.3879 H   0  0  0  0  0  0  0  0  0  0  0  0
    0.3102   -4.3656   -3.7120 H   0  0  0  0  0  0  0  0  0  0  0  0
    3.2220   -3.2856   -3.3344 H   0  0  0  0  0  0  0  0  0  0  0  0
    2.7802   -5.0457   -3.6505 H   0  0  0  0  0  0  0  0  0  0  0  0
   -0.1598    2.1252   -1.8911 H   0  0  0  0  0  0  0  0  0  0  0  0
    1.8012    7.0181    0.6882 H   0  0  0  0  0  0  0  0  0  0  0  0
    2.7913    4.5008   -2.5542 H   0  0  0  0  0  0  0  0  0  0  0  0
    2.4034    3.3231   -4.7534 H   0  0  0  0  0  0  0  0  0  0  0  0
    2.3293   -0.8110   -1.9777 H   0  0  0  0  0  0  0  0  0  0  0  0
    2.0804    1.4211   -0.8883 H   0  0  0  0  0  0  0  0  0  0  0  0
  1 47  1  0  0  0  0
  1 49  1  0  0  0  0
  2  1  1  0  0  0  0
  3  4  1  0  0  0  0
  3  2  1  0  0  0  0
  4 50  1  0  0  0  0
  5  3  2  0  0  0  0
  6  7  1  0  0  0  0
  6  5  1  0  0  0  0
  7  9  1  0  0  0  0
  8  7  2  0  0  0  0
  9 10  2  0  0  0  0
  9 52  1  0  0  0  0
 10 53  1  0  0  0  0
 12 54  1  0  0  0  0
 12 13  1  0  0  0  0
 12 11  1  0  0  0  0
 13 14  1  6  0  0  0
 13 15  1  0  0  0  0
 15 56  1  0  0  0  0
 15 16  1  0  0  0  0
 16 17  1  0  0  0  0
 17 59  1  0  0  0  0
 17 57  1  0  0  0  0
 17 58  1  0  0  0  0
 18 16  2  0  0  0  0
 19 22  2  0  0  0  0
 19 13  1  0  0  0  0
 20 19  1  0  0  0  0
 21 62  1  0  0  0  0
 21 20  1  0  0  0  0
 23 10  1  0  0  0  0
 23 65  1  0  0  0  0
 24 23  1  0  0  0  0
 24 25  1  0  0  0  0
 25 27  1  0  0  0  0
 25 26  1  0  0  0  0
 26 68  1  0  0  0  0
 26 67  1  0  0  0  0
 27 69  1  0  0  0  0
 27 26  1  0  0  0  0
 28 71  1  0  0  0  0
 28 24  1  0  0  0  0
 29 30  1  0  0  0  0
 29 28  1  0  0  0  0
 30 28  1  0  0  0  0
 31 32  2  0  0  0  0
 31  5  1  0  0  0  0
 32 33  1  0  0  0  0
 33 34  1  0  0  0  0
 33  4  2  0  0  0  0
 35 77  1  0  0  0  0
 35 34  2  0  0  0  0
 36 35  1  0  0  0  0
 37 36  2  0  0  0  0
 37 32  1  0  0  0  0
 38 37  1  0  0  0  0
 39 38  1  0  0  0  0
 39 46  1  0  0  0  0
 40 39  2  0  0  0  0
 41 40  1  0  0  0  0
 41 43  2  0  0  0  0
 42 41  1  0  0  0  0
 43 45  1  0  0  0  0
 44 43  1  0  0  0  0
 45 80  1  0  0  0  0
 45 46  2  0  0  0  0
 46 81  1  0  0  0  0
 48  1  1  0  0  0  0
 51  6  1  0  0  0  0
 55 12  1  0  0  0  0
 60 20  1  0  0  0  0
 61 21  1  0  0  0  0
 63 21  1  0  0  0  0
 64 23  1  0  0  0  0
 66 25  1  0  0  0  0
 70 27  1  0  0  0  0
 72 29  1  0  0  0  0
 73 29  1  0  0  0  0
 74 30  1  0  0  0  0
 75 30  1  0  0  0  0
 76 31  1  0  0  0  0
 78 38  1  0  0  0  0
 79 40  1  0  0  0  0
M  END
