-1 1
 OpenBabel05192410563D

 89 94  0  0  1  0  0  0  0  0999 V2000
    2.8604   -1.2892    1.9072 O   0  0  0  0  0  0  0  0  0  0  0  0
    1.7202   -0.9010    1.5563 C   0  0  0  0  0  0  0  0  0  0  0  0
    0.8830   -0.4985    2.6747 N   0  0  0  0  0  0  0  0  0  0  0  0
    0.0608    0.6217    2.6706 C   0  0  0  0  0  0  0  0  0  0  0  0
   -1.1535    0.6416    2.0110 C   0  0  0  0  0  0  0  0  0  0  0  0
    0.4780    1.8010    3.3763 C   0  0  0  0  0  0  0  0  0  0  0  0
    1.6506    1.8320    4.0519 O   0  0  0  0  0  0  0  0  0  0  0  0
    2.9111    1.6158    3.3809 C   0  0  1  0  0  0  0  0  0  0  0  0
    3.1764    0.5489    3.3852 H   0  0  0  0  0  0  0  0  0  0  0  0
    2.9572    2.1902    1.9745 C   0  0  0  0  0  0  0  0  0  0  0  0
    3.1446    3.6781    2.2450 C   0  0  0  0  0  0  0  0  0  0  0  0
    3.8849    3.7613    3.4505 O   0  0  0  0  0  0  0  0  0  0  0  0
    3.9292    2.4988    4.0850 C   0  0  0  0  0  0  0  0  0  0  0  0
   -0.3341    2.9106    3.4224 C   0  0  0  0  0  0  0  0  0  0  0  0
   -1.5740    2.9393    2.7432 C   0  0  0  0  0  0  0  0  0  0  0  0
   -1.9770    1.7950    1.9989 C   0  0  0  0  0  0  0  0  0  0  0  0
   -3.2421    1.9264    1.3285 C   0  0  1  0  0  3  0  0  0  0  0  0
   -3.8517    0.9415    0.5921 N   0  0  0  0  0  0  0  0  0  0  0  0
   -3.3317   -0.1871   -0.0821 C   0  0  0  0  0  0  0  0  0  0  0  0
   -3.9558   -1.4191    0.1299 C   0  0  0  0  0  0  0  0  0  0  0  0
   -3.5497   -2.5417   -0.5827 C   0  0  0  0  0  0  0  0  0  0  0  0
   -4.3324   -4.0747   -0.3371 Cl  0  0  0  0  0  0  0  0  0  0  0  0
   -2.5047   -2.4402   -1.4986 C   0  0  0  0  0  0  0  0  0  0  0  0
   -2.1353   -3.5101   -2.1891 F   0  0  0  0  0  0  0  0  0  0  0  0
   -1.8569   -1.2274   -1.6957 C   0  0  0  0  0  0  0  0  0  0  0  0
   -2.2788   -0.0979   -1.0006 C   0  0  0  0  0  0  0  0  0  0  0  0
   -3.9616    3.0329    1.4329 N   0  0  0  0  0  0  0  0  0  0  0  0
   -3.4645    4.0424    2.1694 C   0  0  0  0  0  0  0  0  0  0  0  0
   -2.3304    4.0724    2.8132 N   0  0  0  0  0  2  0  0  0  0  0  0
    1.2254   -0.8206    0.2627 C   0  0  0  0  0  3  0  0  0  0  0  0
    2.0681   -1.2208   -0.8973 C   0  0  1  0  0  0  0  0  0  0  0  0
    3.4371    0.0391   -1.2625 S   0  0  0  0  0  0  0  0  0  0  0  0
    2.8990    0.6676   -2.8797 C   0  0  0  0  0  0  0  0  0  0  0  0
    1.5610    1.4397   -2.9410 C   0  0  2  0  0  0  0  0  0  0  0  0
    1.7038    2.3433   -3.5568 H   0  0  0  0  0  0  0  0  0  0  0  0
    1.1052    1.9097   -1.6465 N   0  0  0  0  0  0  0  0  0  0  0  0
    0.4153    3.0613   -1.5019 C   0  0  0  0  0  0  0  0  0  0  0  0
    0.1494    3.5009   -0.0865 C   0  0  0  0  0  0  0  0  0  0  0  0
    0.0336    3.7247   -2.4666 O   0  0  0  0  0  0  0  0  0  0  0  0
    0.4418    0.6412   -3.6524 C   0  0  0  0  0  0  0  0  0  0  0  0
   -0.6567    1.3871   -3.9112 N   0  0  0  0  0  0  0  0  0  0  0  0
   -1.8353    0.8558   -4.5466 C   0  0  0  0  0  0  0  0  0  0  0  0
    0.5397   -0.5406   -3.9480 O   0  0  0  0  0  0  0  0  0  0  0  0
    2.7235   -2.6268   -0.8569 C   0  0  0  0  0  0  0  0  0  0  0  0
    1.8383   -3.7261   -1.1845 N   0  0  0  0  0  0  0  0  0  0  0  0
    1.1158   -4.4805   -0.2074 C   0  0  0  0  0  0  0  0  0  0  0  0
    1.1965   -4.2441    1.2663 C   0  0  0  0  0  0  0  0  0  0  0  0
   -0.0990   -3.9705    0.5409 C   0  0  0  0  0  0  0  0  0  0  0  0
    1.1710   -3.6338   -2.4369 C   0  0  0  0  0  0  0  0  0  0  0  0
    1.9783   -3.6327   -3.6988 C   0  0  0  0  0  0  0  0  0  0  0  0
    1.1382   -4.8324   -3.3453 C   0  0  0  0  0  0  0  0  0  0  0  0
    1.4654   -0.5518    3.5023 H   0  0  0  0  0  0  0  0  0  0  0  0
   -1.4658   -0.2809    1.5281 H   0  0  0  0  0  0  0  0  0  0  0  0
    2.0799    1.9343    1.3699 H   0  0  0  0  0  0  0  0  0  0  0  0
    3.8206    1.7529    1.4534 H   0  0  0  0  0  0  0  0  0  0  0  0
    2.1694    4.1867    2.3674 H   0  0  0  0  0  0  0  0  0  0  0  0
    3.6966    4.1916    1.4411 H   0  0  0  0  0  0  0  0  0  0  0  0
    3.6885    2.6069    5.1538 H   0  0  0  0  0  0  0  0  0  0  0  0
    4.9380    2.0547    3.9923 H   0  0  0  0  0  0  0  0  0  0  0  0
   -0.0109    3.7984    3.9662 H   0  0  0  0  0  0  0  0  0  0  0  0
   -4.7889    1.2245    0.3251 H   0  0  0  0  0  0  0  0  0  0  0  0
   -4.7614   -1.4999    0.8601 H   0  0  0  0  0  0  0  0  0  0  0  0
   -1.0363   -1.1816   -2.4158 H   0  0  0  0  0  0  0  0  0  0  0  0
   -1.7760    0.8565   -1.1688 H   0  0  0  0  0  0  0  0  0  0  0  0
   -4.0940    4.9399    2.2208 H   0  0  0  0  0  0  0  0  0  0  0  0
    0.1938   -0.5282    0.0773 H   0  0  0  0  0  0  0  0  0  0  0  0
    1.4686   -1.1794   -1.8166 H   0  0  0  0  0  0  0  0  0  0  0  0
    2.8442   -0.1641   -3.5954 H   0  0  0  0  0  0  0  0  0  0  0  0
    3.7118    1.3346   -3.1996 H   0  0  0  0  0  0  0  0  0  0  0  0
    1.3551    1.3393   -0.8310 H   0  0  0  0  0  0  0  0  0  0  0  0
    0.8790    4.2774    0.1878 H   0  0  0  0  0  0  0  0  0  0  0  0
    0.2314    2.6767    0.6313 H   0  0  0  0  0  0  0  0  0  0  0  0
   -0.8513    3.9470   -0.0262 H   0  0  0  0  0  0  0  0  0  0  0  0
   -0.6268    2.3673   -3.6167 H   0  0  0  0  0  0  0  0  0  0  0  0
   -2.1092    1.4542   -5.4296 H   0  0  0  0  0  0  0  0  0  0  0  0
   -1.6231   -0.1722   -4.8668 H   0  0  0  0  0  0  0  0  0  0  0  0
   -2.6953    0.8355   -3.8573 H   0  0  0  0  0  0  0  0  0  0  0  0
    3.1656   -2.7841    0.1342 H   0  0  0  0  0  0  0  0  0  0  0  0
    3.5515   -2.6298   -1.5859 H   0  0  0  0  0  0  0  0  0  0  0  0
    1.0391   -5.5386   -0.4945 H   0  0  0  0  0  0  0  0  0  0  0  0
    1.2608   -5.1272    1.9085 H   0  0  0  0  0  0  0  0  0  0  0  0
    1.7588   -3.3812    1.6314 H   0  0  0  0  0  0  0  0  0  0  0  0
   -0.3445   -2.9135    0.4137 H   0  0  0  0  0  0  0  0  0  0  0  0
   -0.9481   -4.6470    0.6801 H   0  0  0  0  0  0  0  0  0  0  0  0
    0.2646   -3.0146   -2.4732 H   0  0  0  0  0  0  0  0  0  0  0  0
    3.0611   -3.7353   -3.5942 H   0  0  0  0  0  0  0  0  0  0  0  0
    1.6492   -2.9630   -4.4959 H   0  0  0  0  0  0  0  0  0  0  0  0
    1.6657   -5.7253   -3.0000 H   0  0  0  0  0  0  0  0  0  0  0  0
    0.2221   -5.0242   -3.9099 H   0  0  0  0  0  0  0  0  0  0  0  0
  2  1  2  0  0  0  0
  2  3  1  0  0  0  0
  3 52  1  0  0  0  0
  4  3  1  0  0  0  0
  4  6  1  0  0  0  0
  5  4  2  0  0  0  0
  6 14  2  0  0  0  0
  6  7  1  0  0  0  0
  8  9  1  1  0  0  0
  8  7  1  0  0  0  0
  8 13  1  0  0  0  0
 10 11  1  0  0  0  0
 10  8  1  0  0  0  0
 11 56  1  0  0  0  0
 11 12  1  0  0  0  0
 12 13  1  0  0  0  0
 13 58  1  0  0  0  0
 14 60  1  0  0  0  0
 15 29  1  0  0  0  0
 15 14  1  0  0  0  0
 16  5  1  0  0  0  0
 16 15  2  0  0  0  0
 17 18  1  1  0  0  0
 17 27  1  0  0  0  0
 17 16  1  0  0  0  0
 19 20  1  0  0  0  0
 19 18  1  0  0  0  0
 20 62  1  0  0  0  0
 21 22  1  0  0  0  0
 21 20  2  0  0  0  0
 23 21  1  0  0  0  0
 24 23  1  0  0  0  0
 25 23  2  0  0  0  0
 25 26  1  0  0  0  0
 26 19  2  0  0  0  0
 27 28  2  0  0  0  0
 28 65  1  0  0  0  0
 28 29  1  0  0  0  0
 30  2  1  0  0  0  0
 31 67  1  6  0  0  0
 31 44  1  0  0  0  0
 31 30  1  0  0  0  0
 32 31  1  0  0  0  0
 33 32  1  0  0  0  0
 34 35  1  6  0  0  0
 34 33  1  0  0  0  0
 34 36  1  0  0  0  0
 36 37  1  0  0  0  0
 36 70  1  0  0  0  0
 37 38  1  0  0  0  0
 38 73  1  0  0  0  0
 38 71  1  0  0  0  0
 38 72  1  0  0  0  0
 39 37  2  0  0  0  0
 40 34  1  0  0  0  0
 41 40  1  0  0  0  0
 41 74  1  0  0  0  0
 42 41  1  0  0  0  0
 42 77  1  0  0  0  0
 43 40  2  0  0  0  0
 44 78  1  0  0  0  0
 45 44  1  0  0  0  0
 45 46  1  0  0  0  0
 46 48  1  0  0  0  0
 46 47  1  0  0  0  0
 47 82  1  0  0  0  0
 47 81  1  0  0  0  0
 48 84  1  0  0  0  0
 48 47  1  0  0  0  0
 49 45  1  0  0  0  0
 50 86  1  0  0  0  0
 50 51  1  0  0  0  0
 50 49  1  0  0  0  0
 51 88  1  0  0  0  0
 51 49  1  0  0  0  0
 53  5  1  0  0  0  0
 54 10  1  0  0  0  0
 55 10  1  0  0  0  0
 57 11  1  0  0  0  0
 59 13  1  0  0  0  0
 61 18  1  0  0  0  0
 63 25  1  0  0  0  0
 64 26  1  0  0  0  0
 66 30  1  0  0  0  0
 68 33  1  0  0  0  0
 69 33  1  0  0  0  0
 75 42  1  0  0  0  0
 76 42  1  0  0  0  0
 79 44  1  0  0  0  0
 80 46  1  0  0  0  0
 83 48  1  0  0  0  0
 85 49  1  0  0  0  0
 87 50  1  0  0  0  0
 89 51  1  0  0  0  0
M  END
