89
-1 1
O         1.538146   -2.241808    2.612701
C         0.842365   -1.340019    2.172572
N         0.260219   -0.468809    3.084715
C        -0.259065    0.824985    2.873163
C        -1.463072    1.034598    2.240976
C         0.479149    1.941028    3.377852
O         1.672658    1.770411    3.982070
C         2.774218    1.150510    3.282664
H         2.803521    0.077274    3.522647
C         2.794454    1.430924    1.787192
C         3.364285    2.846054    1.720962
O         4.152557    3.007823    2.893901
C         4.035723    1.878698    3.721493
C        -0.060900    3.204723    3.306774
C        -1.300534    3.434205    2.665821
C        -1.986018    2.339926    2.067531
C        -3.175839    2.691012    1.334353
N        -3.949688    1.812320    0.629889
C        -3.640170    0.504257    0.171204
C        -4.339690   -0.575648    0.713967
C        -4.072159   -1.868010    0.275501
Cl        -4.937059   -3.224029    0.935419
C        -3.098570   -2.077633   -0.701403
F        -2.850472   -3.310582   -1.120105
C        -2.395625   -1.010686   -1.245101
C        -2.677470    0.285944   -0.820410
N        -3.617158    3.939213    1.317449
C        -2.900325    4.871578    1.966244
N        -1.776429    4.709688    2.611317
C         0.552639   -1.106403    0.741986
C         1.254727   -1.603118   -0.290525
S         3.587385    1.115157   -1.795800
C         2.404131    0.423883   -3.002758
C         1.036650    1.146688   -3.047378
H         1.091732    1.991949   -3.756734
N         0.730448    1.688890   -1.732252
C        -0.052411    2.773421   -1.568130
C         0.175155    3.543548   -0.291907
O        -0.885993    3.147528   -2.397274
C        -0.097239    0.220885   -3.532964
N        -1.183616    0.886196   -3.988765
C        -2.364965    0.225471   -4.477493
O        -0.030461   -1.003811   -3.502122
C         2.522703   -2.418250   -0.284566
N         2.529400   -3.576778   -1.160526
C         1.707311   -4.705385   -0.833123
C         1.029351   -4.881489    0.488882
C         0.196648   -4.659997   -0.751864
C         2.556260   -3.296587   -2.564030
C         3.846745   -2.812770   -3.153300
C         3.372668   -4.211770   -3.437056
H         0.614571   -0.641818    4.020676
H        -2.007240    0.159098    1.896373
H         1.823961    1.323091    1.287482
H         3.462557    0.715050    1.286889
H         2.561995    3.606183    1.719864
H         3.977341    2.991811    0.819025
H         3.972779    2.191934    4.775059
H         4.906066    1.203088    3.606274
H         0.489709    4.053818    3.710902
H        -4.736476    2.282561    0.193407
H        -5.084004   -0.404771    1.492068
H        -1.637655   -1.215946   -2.007624
H        -2.149222    1.134049   -1.262496
H        -3.311518    5.888053    1.929127
H        -0.280277   -0.444573    0.505306
H         0.891321   -1.335937   -1.289964
H         2.220498   -0.634031   -2.782343
H         2.818360    0.455960   -4.022435
H         1.595236    1.617258   -1.149351
H         1.036331    4.213380   -0.441496
H         0.413271    2.879972    0.548539
H        -0.707800    4.149950   -0.058720
H        -1.217239    1.880771   -3.740378
H        -2.683449    0.657184   -5.439349
H        -2.134977   -0.837875   -4.623936
H        -3.206788    0.303770   -3.768718
H         2.789277   -2.720159    0.733698
H         3.301241   -1.719101   -0.645767
H         2.106109   -5.626219   -1.276128
H         1.048769   -5.880965    0.931978
H         1.080467   -4.072567    1.222249
H        -0.287425   -3.687001   -0.854746
H        -0.376793   -5.493239   -1.166962
H         1.636240   -2.891322   -3.014101
H         4.684364   -2.689028   -2.463526
H         3.796350   -2.061276   -3.943312
H         3.898735   -5.029051   -2.936740
H         2.991101   -4.448914   -4.433457
