-1 1
 OpenBabel05232414493D

 89 93  0  0  1  0  0  0  0  0999 V2000
    5.3308   -3.4581   11.6695 O   0  0  0  0  0  0  0  0  0  0  0  0
    4.3486   -2.8202   11.2737 C   0  0  0  0  0  0  0  0  0  0  0  0
    3.5592   -2.2357   12.3083 N   0  0  0  0  0  0  0  0  0  0  0  0
    2.8028   -1.0644   12.2094 C   0  0  0  0  0  0  0  0  0  0  0  0
    1.6014   -1.0273   11.5330 C   0  0  0  0  0  0  0  0  0  0  0  0
    3.2887    0.1328   12.8283 C   0  0  0  0  0  0  0  0  0  0  0  0
    4.4541    0.1409   13.5148 O   0  0  0  0  0  0  0  0  0  0  0  0
    5.6991   -0.2176   12.8816 C   0  0  1  0  0  0  0  0  0  0  0  0
    5.9046   -1.2884   13.0248 H   0  0  0  0  0  0  0  0  0  0  0  0
    5.7838    0.1933   11.4204 C   0  0  0  0  0  0  0  0  0  0  0  0
    6.0590    1.6890   11.5240 C   0  0  0  0  0  0  0  0  0  0  0  0
    6.7790    1.8681   12.7331 O   0  0  0  0  0  0  0  0  0  0  0  0
    6.7678    0.6779   13.4904 C   0  0  0  0  0  0  0  0  0  0  0  0
    2.5419    1.2883   12.7843 C   0  0  0  0  0  0  0  0  0  0  0  0
    1.3145    1.3378   12.0846 C   0  0  0  0  0  0  0  0  0  0  0  0
    0.8560    0.1704   11.4133 C   0  0  0  0  0  0  0  0  0  0  0  0
   -0.3798    0.3265   10.6939 C   0  0  1  0  0  3  0  0  0  0  0  0
   -1.0070   -0.6680    9.9900 N   0  0  0  0  0  0  0  0  0  0  0  0
   -0.4894   -1.8334    9.3722 C   0  0  0  0  0  0  0  0  0  0  0  0
   -1.1367   -3.0471    9.6168 C   0  0  0  0  0  0  0  0  0  0  0  0
   -0.7275   -4.2025    8.9592 C   0  0  0  0  0  0  0  0  0  0  0  0
   -1.5407   -5.7138    9.2407 Cl  0  0  0  0  0  0  0  0  0  0  0  0
    0.3419   -4.1496    8.0673 C   0  0  0  0  0  0  0  0  0  0  0  0
    0.7131   -5.2465    7.4223 F   0  0  0  0  0  0  0  0  0  0  0  0
    1.0109   -2.9544    7.8408 C   0  0  0  0  0  0  0  0  0  0  0  0
    0.5882   -1.7930    8.4798 C   0  0  0  0  0  0  0  0  0  0  0  0
   -1.0409    1.4731   10.7156 N   0  0  0  0  0  0  0  0  0  0  0  0
   -0.5044    2.4976   11.4018 C   0  0  0  0  0  0  0  0  0  0  0  0
    0.6202    2.5117   12.0638 N   0  0  0  0  0  2  0  0  0  0  0  0
    3.9377   -2.6037    9.9255 C   0  0  0  0  0  3  0  0  0  0  0  0
    4.6402   -3.0274    8.7928 C   0  0  0  0  0  3  0  0  0  0  0  0
    6.2250   -1.3803    8.1004 S   0  0  0  0  0  1  0  0  0  0  0  0
    5.5456   -1.1483    6.4256 C   0  0  0  0  0  0  0  0  0  0  0  0
    4.2087   -0.3539    6.3232 C   0  0  2  0  0  0  0  0  0  0  0  0
    4.3463    0.5185    5.6603 H   0  0  0  0  0  0  0  0  0  0  0  0
    3.7950    0.1486    7.6202 N   0  0  0  0  0  0  0  0  0  0  0  0
    3.0760    1.2750    7.7949 C   0  0  0  0  0  0  0  0  0  0  0  0
    3.0343    1.8081    9.2062 C   0  0  0  0  0  0  0  0  0  0  0  0
    2.4909    1.8483    6.8751 O   0  0  0  0  0  0  0  0  0  0  0  0
    3.0774   -1.1923    5.6814 C   0  0  0  0  0  0  0  0  0  0  0  0
    1.9577   -0.4793    5.4284 N   0  0  0  0  0  0  0  0  0  0  0  0
    0.7656   -1.0659    4.8735 C   0  0  0  0  0  0  0  0  0  0  0  0
    3.1826   -2.3860    5.4346 O   0  0  0  0  0  0  0  0  0  0  0  0
    5.4973   -4.2916    8.7234 C   0  0  0  0  0  0  0  0  0  0  0  0
    4.7791   -5.4495    8.2100 N   0  0  0  0  0  0  0  0  0  0  0  0
    4.0004   -6.3087    9.0510 C   0  0  0  0  0  0  0  0  0  0  0  0
    4.0122   -6.2716   10.5447 C   0  0  0  0  0  0  0  0  0  0  0  0
    2.7503   -5.8964    9.8010 C   0  0  0  0  0  0  0  0  0  0  0  0
    4.2170   -5.3011    6.9075 C   0  0  0  0  0  0  0  0  0  0  0  0
    5.1320   -5.0947    5.7408 C   0  0  0  0  0  0  0  0  0  0  0  0
    4.4114   -6.4072    5.9050 C   0  0  0  0  0  0  0  0  0  0  0  0
    4.0490   -2.3427   13.1895 H   0  0  0  0  0  0  0  0  0  0  0  0
    1.2438   -1.9611   11.1052 H   0  0  0  0  0  0  0  0  0  0  0  0
    4.8999   -0.0696   10.8273 H   0  0  0  0  0  0  0  0  0  0  0  0
    6.6243   -0.3396   10.9542 H   0  0  0  0  0  0  0  0  0  0  0  0
    5.1172    2.2677   11.5630 H   0  0  0  0  0  0  0  0  0  0  0  0
    6.6559    2.0644   10.6780 H   0  0  0  0  0  0  0  0  0  0  0  0
    6.5432    0.9052   14.5439 H   0  0  0  0  0  0  0  0  0  0  0  0
    7.7507    0.1719   13.4396 H   0  0  0  0  0  0  0  0  0  0  0  0
    2.9107    2.1925   13.2684 H   0  0  0  0  0  0  0  0  0  0  0  0
   -1.9110   -0.3524    9.6529 H   0  0  0  0  0  0  0  0  0  0  0  0
   -1.9637   -3.0878   10.3261 H   0  0  0  0  0  0  0  0  0  0  0  0
    1.8409   -2.9488    7.1306 H   0  0  0  0  0  0  0  0  0  0  0  0
    1.1049   -0.8523    8.2796 H   0  0  0  0  0  0  0  0  0  0  0  0
   -1.0869    3.4274   11.3868 H   0  0  0  0  0  0  0  0  0  0  0  0
    3.1005   -1.9278    9.7544 H   0  0  0  0  0  0  0  0  0  0  0  0
    4.1170   -2.8466    7.8490 H   0  0  0  0  0  0  0  0  0  0  0  0
    5.3792   -2.1349    5.9711 H   0  0  0  0  0  0  0  0  0  0  0  0
    6.3034   -0.6337    5.8193 H   0  0  0  0  0  0  0  0  0  0  0  0
    4.4057   -0.2079    8.3744 H   0  0  0  0  0  0  0  0  0  0  0  0
    3.8096    2.5815    9.3172 H   0  0  0  0  0  0  0  0  0  0  0  0
    3.2177    1.0261    9.9540 H   0  0  0  0  0  0  0  0  0  0  0  0
    2.0603    2.2778    9.3910 H   0  0  0  0  0  0  0  0  0  0  0  0
    1.9623    0.5022    5.7266 H   0  0  0  0  0  0  0  0  0  0  0  0
    0.4446   -0.5274    3.9677 H   0  0  0  0  0  0  0  0  0  0  0  0
    0.9839   -2.1084    4.6089 H   0  0  0  0  0  0  0  0  0  0  0  0
   -0.0659   -1.0564    5.5975 H   0  0  0  0  0  0  0  0  0  0  0  0
    5.9124   -4.5170    9.7110 H   0  0  0  0  0  0  0  0  0  0  0  0
    6.3401   -4.0947    8.0479 H   0  0  0  0  0  0  0  0  0  0  0  0
    3.9409   -7.3168    8.6202 H   0  0  0  0  0  0  0  0  0  0  0  0
    4.0456   -7.2320   11.0673 H   0  0  0  0  0  0  0  0  0  0  0  0
    4.5488   -5.4654   11.0510 H   0  0  0  0  0  0  0  0  0  0  0  0
    2.5002   -4.8326    9.8029 H   0  0  0  0  0  0  0  0  0  0  0  0
    1.8974   -6.5814    9.8073 H   0  0  0  0  0  0  0  0  0  0  0  0
    3.2501   -4.7829    6.8347 H   0  0  0  0  0  0  0  0  0  0  0  0
    6.2052   -5.0840    5.9462 H   0  0  0  0  0  0  0  0  0  0  0  0
    4.7951   -4.3955    4.9731 H   0  0  0  0  0  0  0  0  0  0  0  0
    5.0062   -7.2639    6.2323 H   0  0  0  0  0  0  0  0  0  0  0  0
    3.5849   -6.6451    5.2303 H   0  0  0  0  0  0  0  0  0  0  0  0
  2  1  2  0  0  0  0
  2  3  1  0  0  0  0
  3 52  1  0  0  0  0
  4  3  1  0  0  0  0
  4  6  1  0  0  0  0
  5  4  2  0  0  0  0
  6  7  1  0  0  0  0
  8  9  1  1  0  0  0
  8 13  1  0  0  0  0
  8  7  1  0  0  0  0
 10 11  1  0  0  0  0
 10  8  1  0  0  0  0
 11 56  1  0  0  0  0
 11 12  1  0  0  0  0
 12 13  1  0  0  0  0
 13 58  1  0  0  0  0
 14  6  2  0  0  0  0
 14 60  1  0  0  0  0
 15 14  1  0  0  0  0
 16  5  1  0  0  0  0
 16 15  2  0  0  0  0
 17 18  1  1  0  0  0
 17 27  1  0  0  0  0
 17 16  1  0  0  0  0
 19 20  1  0  0  0  0
 19 18  1  0  0  0  0
 20 62  1  0  0  0  0
 21 22  1  0  0  0  0
 21 20  2  0  0  0  0
 23 21  1  0  0  0  0
 24 23  1  0  0  0  0
 25 23  2  0  0  0  0
 25 26  1  0  0  0  0
 26 19  2  0  0  0  0
 27 28  2  0  0  0  0
 28 29  1  0  0  0  0
 29 15  1  0  0  0  0
 30  2  1  0  0  0  0
 31 30  1  0  0  0  0
 33 32  1  0  0  0  0
 34 35  1  6  0  0  0
 34 33  1  0  0  0  0
 34 36  1  0  0  0  0
 36 37  1  0  0  0  0
 36 70  1  0  0  0  0
 37 38  1  0  0  0  0
 38 71  1  0  0  0  0
 38 73  1  0  0  0  0
 38 72  1  0  0  0  0
 39 37  2  0  0  0  0
 40 34  1  0  0  0  0
 41 40  1  0  0  0  0
 41 74  1  0  0  0  0
 42 41  1  0  0  0  0
 42 77  1  0  0  0  0
 43 40  2  0  0  0  0
 44 31  1  0  0  0  0
 44 78  1  0  0  0  0
 45 44  1  0  0  0  0
 45 46  1  0  0  0  0
 46 48  1  0  0  0  0
 46 47  1  0  0  0  0
 47 82  1  0  0  0  0
 47 81  1  0  0  0  0
 48 83  1  0  0  0  0
 48 84  1  0  0  0  0
 48 47  1  0  0  0  0
 49 45  1  0  0  0  0
 50 51  1  0  0  0  0
 50 86  1  0  0  0  0
 50 49  1  0  0  0  0
 51 88  1  0  0  0  0
 51 49  1  0  0  0  0
 53  5  1  0  0  0  0
 54 10  1  0  0  0  0
 55 10  1  0  0  0  0
 57 11  1  0  0  0  0
 59 13  1  0  0  0  0
 61 18  1  0  0  0  0
 63 25  1  0  0  0  0
 64 26  1  0  0  0  0
 65 28  1  0  0  0  0
 66 30  1  0  0  0  0
 67 31  1  0  0  0  0
 68 33  1  0  0  0  0
 69 33  1  0  0  0  0
 75 42  1  0  0  0  0
 76 42  1  0  0  0  0
 79 44  1  0  0  0  0
 80 46  1  0  0  0  0
 85 49  1  0  0  0  0
 87 50  1  0  0  0  0
 89 51  1  0  0  0  0
M  END
