-1 1
 OpenBabel05232413483D

 88 91  0  0  1  0  0  0  0  0999 V2000
   -1.7980   -4.2481   -1.2092 C   0  0  0  0  0  0  0  0  0  0  0  0
   -2.4237   -3.4444   -2.1721 O   0  0  0  0  0  0  0  0  0  0  0  0
   -1.5557   -2.6330   -2.9268 C   0  0  0  0  0  0  0  0  0  0  0  0
   -1.7624   -1.1564   -2.6726 C   0  0  0  0  0  0  0  0  0  0  0  0
   -1.3046   -0.7582   -1.3834 O   0  0  0  0  0  0  0  0  0  0  0  0
   -2.0043   -0.9221   -0.2699 C   0  0  0  0  0  0  0  0  0  0  0  0
   -3.3254   -1.3149   -0.1796 C   0  0  0  0  0  0  0  0  0  0  0  0
   -1.2654   -0.6342    0.9359 C   0  0  0  0  0  0  0  0  0  0  0  0
    0.1004   -0.3147    0.8142 N   0  0  0  0  0  0  0  0  0  0  0  0
    0.9716   -1.0986    0.0838 C   0  0  0  0  0  0  0  0  0  0  0  0
    0.7503   -2.2831   -0.0914 O   0  0  0  0  0  0  0  0  0  0  0  0
    2.1786   -0.4401   -0.4717 C   0  0  0  0  0  0  0  0  0  0  0  0
    2.3005    0.8181   -0.9224 C   0  0  0  0  0  0  0  0  0  0  0  0
    0.9704   -0.9468   -5.0977 S   0  0  0  0  0  1  0  0  0  0  0  0
    2.5978   -0.2776   -4.6106 C   0  0  0  0  0  0  0  0  0  0  0  0
    3.5689   -1.3149   -4.0192 C   0  0  2  0  0  0  0  0  0  0  0  0
    4.0327   -1.9010   -4.8346 H   0  0  0  0  0  0  0  0  0  0  0  0
    2.8241   -2.2300   -3.1681 N   0  0  0  0  0  0  0  0  0  0  0  0
    3.2005   -3.4952   -2.8951 C   0  0  0  0  0  0  0  0  0  0  0  0
    2.0936   -4.3776   -2.3648 C   0  0  0  0  0  0  0  0  0  0  0  0
    4.3503   -3.9131   -3.0462 O   0  0  0  0  0  0  0  0  0  0  0  0
    4.7192   -0.6287   -3.2476 C   0  0  0  0  0  0  0  0  0  0  0  0
    5.6544   -1.4879   -2.7834 N   0  0  0  0  0  0  0  0  0  0  0  0
    6.7686   -1.0599   -1.9830 C   0  0  0  0  0  0  0  0  0  0  0  0
    4.7888    0.5843   -3.0844 O   0  0  0  0  0  0  0  0  0  0  0  0
    1.3236    1.9715   -0.8869 C   0  0  0  0  0  0  0  0  0  0  0  0
    1.2439    2.7635   -2.1036 N   0  0  0  0  0  0  0  0  0  0  0  0
    2.5097    3.2017   -2.6187 C   0  0  0  0  0  0  0  0  0  0  0  0
    2.6366    4.6065   -3.1311 C   0  0  0  0  0  0  0  0  0  0  0  0
    3.2721    4.2222   -1.8218 C   0  0  0  0  0  0  0  0  0  0  0  0
    0.3620    2.1871   -3.0850 C   0  0  0  0  0  0  0  0  0  0  0  0
   -1.1096    2.4530   -2.9353 C   0  0  0  0  0  0  0  0  0  0  0  0
   -0.3308    3.0979   -4.0506 C   0  0  0  0  0  0  0  0  0  0  0  0
   -1.8963   -0.6385    2.1505 C   0  0  0  0  0  0  0  0  0  0  0  0
   -3.2819   -0.9317    2.2453 C   0  0  0  0  0  0  0  0  0  0  0  0
   -3.9794   -1.3384    1.0736 C   0  0  0  0  0  0  0  0  0  0  0  0
   -5.2687   -1.7783    1.1383 N   0  0  0  0  0  0  0  0  0  0  0  0
   -5.8151   -1.8147    2.3230 C   0  0  0  0  0  0  0  0  0  0  0  0
   -5.2818   -1.3919    3.4872 N   0  0  0  0  0  0  0  0  0  0  0  0
   -4.0499   -0.9226    3.4468 C   0  0  0  0  0  0  0  0  0  0  0  0
   -3.5442   -0.4782    4.6600 N   0  0  0  0  0  0  0  0  0  0  0  0
   -2.7992    0.6893    4.8904 C   0  0  0  0  0  0  0  0  0  0  0  0
   -2.0981    0.7979    6.0974 C   0  0  0  0  0  0  0  0  0  0  0  0
   -1.3757    1.9495    6.3924 C   0  0  0  0  0  0  0  0  0  0  0  0
   -0.5176    2.0870    7.8980 Cl  0  0  0  0  0  0  0  0  0  0  0  0
   -1.3214    2.9946    5.4726 C   0  0  0  0  0  0  0  0  0  0  0  0
   -0.6198    4.0904    5.7464 F   0  0  0  0  0  0  0  0  0  0  0  0
   -2.0068    2.8928    4.2692 C   0  0  0  0  0  0  0  0  0  0  0  0
   -2.7552    1.7570    3.9820 C   0  0  0  0  0  0  0  0  0  0  0  0
   -1.1840   -5.0427   -1.6768 H   0  0  0  0  0  0  0  0  0  0  0  0
   -2.5905   -4.7266   -0.6158 H   0  0  0  0  0  0  0  0  0  0  0  0
   -1.1455   -3.6654   -0.5357 H   0  0  0  0  0  0  0  0  0  0  0  0
   -1.7260   -2.8089   -4.0030 H   0  0  0  0  0  0  0  0  0  0  0  0
   -0.4982   -2.8719   -2.7289 H   0  0  0  0  0  0  0  0  0  0  0  0
   -2.8166   -0.8627   -2.8101 H   0  0  0  0  0  0  0  0  0  0  0  0
   -1.1198   -0.6107   -3.3814 H   0  0  0  0  0  0  0  0  0  0  0  0
   -3.8805   -1.6526   -1.0515 H   0  0  0  0  0  0  0  0  0  0  0  0
    0.3973    0.6134    1.0813 H   0  0  0  0  0  0  0  0  0  0  0  0
    2.9966   -1.1404   -0.6572 H   0  0  0  0  0  0  0  0  0  0  0  0
    3.2559    1.0520   -1.4068 H   0  0  0  0  0  0  0  0  0  0  0  0
    2.4706    0.5109   -3.8552 H   0  0  0  0  0  0  0  0  0  0  0  0
    3.1038    0.2004   -5.4622 H   0  0  0  0  0  0  0  0  0  0  0  0
    1.8127   -2.0560   -3.2811 H   0  0  0  0  0  0  0  0  0  0  0  0
    2.5201   -5.3290   -2.0261 H   0  0  0  0  0  0  0  0  0  0  0  0
    1.3639   -4.5685   -3.1675 H   0  0  0  0  0  0  0  0  0  0  0  0
    1.5720   -3.8702   -1.5391 H   0  0  0  0  0  0  0  0  0  0  0  0
    5.4533   -2.4882   -2.9091 H   0  0  0  0  0  0  0  0  0  0  0  0
    6.6910   -1.4251   -0.9446 H   0  0  0  0  0  0  0  0  0  0  0  0
    6.7793    0.0378   -1.9679 H   0  0  0  0  0  0  0  0  0  0  0  0
    7.7229   -1.4199   -2.4011 H   0  0  0  0  0  0  0  0  0  0  0  0
    1.6355    2.6339   -0.0548 H   0  0  0  0  0  0  0  0  0  0  0  0
    0.3039    1.6267   -0.6707 H   0  0  0  0  0  0  0  0  0  0  0  0
    3.1296    2.4511   -3.1304 H   0  0  0  0  0  0  0  0  0  0  0  0
    1.7450    5.2344   -3.0788 H   0  0  0  0  0  0  0  0  0  0  0  0
    3.2764    4.7786   -3.9998 H   0  0  0  0  0  0  0  0  0  0  0  0
    2.7976    4.6028   -0.9133 H   0  0  0  0  0  0  0  0  0  0  0  0
    4.3580    4.1167   -1.7664 H   0  0  0  0  0  0  0  0  0  0  0  0
    0.6182    1.1963   -3.4921 H   0  0  0  0  0  0  0  0  0  0  0  0
   -1.4083    3.0956   -2.1024 H   0  0  0  0  0  0  0  0  0  0  0  0
   -1.8069    1.6483   -3.1760 H   0  0  0  0  0  0  0  0  0  0  0  0
   -0.1351    4.1688   -3.9705 H   0  0  0  0  0  0  0  0  0  0  0  0
   -0.4654    2.7211   -5.0669 H   0  0  0  0  0  0  0  0  0  0  0  0
   -1.3050   -0.4374    3.0440 H   0  0  0  0  0  0  0  0  0  0  0  0
   -6.8352   -2.2122    2.3907 H   0  0  0  0  0  0  0  0  0  0  0  0
   -4.1471   -0.7601    5.4264 H   0  0  0  0  0  0  0  0  0  0  0  0
   -2.1071   -0.0278    6.8102 H   0  0  0  0  0  0  0  0  0  0  0  0
   -1.9585    3.7266    3.5669 H   0  0  0  0  0  0  0  0  0  0  0  0
   -3.3051    1.6980    3.0425 H   0  0  0  0  0  0  0  0  0  0  0  0
  1 51  1  0  0  0  0
  1 52  1  0  0  0  0
  2  1  1  0  0  0  0
  3 54  1  0  0  0  0
  3  4  1  0  0  0  0
  3  2  1  0  0  0  0
  4  5  1  0  0  0  0
  5  6  1  0  0  0  0
  6  7  2  0  0  0  0
  6  8  1  0  0  0  0
  7 36  1  0  0  0  0
  8 34  2  0  0  0  0
  9  8  1  0  0  0  0
  9 58  1  0  0  0  0
 10  9  1  0  0  0  0
 11 10  2  0  0  0  0
 12 10  1  0  0  0  0
 13 26  1  0  0  0  0
 13 12  2  0  0  0  0
 14 15  1  0  0  0  0
 15 16  1  0  0  0  0
 15 61  1  0  0  0  0
 16 17  1  6  0  0  0
 16 22  1  0  0  0  0
 16 18  1  0  0  0  0
 18 19  1  0  0  0  0
 19 20  1  0  0  0  0
 20 64  1  0  0  0  0
 20 66  1  0  0  0  0
 21 19  2  0  0  0  0
 22 25  2  0  0  0  0
 22 23  1  0  0  0  0
 23 24  1  0  0  0  0
 24 69  1  0  0  0  0
 24 68  1  0  0  0  0
 26 72  1  0  0  0  0
 26 71  1  0  0  0  0
 27 26  1  0  0  0  0
 28 27  1  0  0  0  0
 28 30  1  0  0  0  0
 29 74  1  0  0  0  0
 29 28  1  0  0  0  0
 29 30  1  0  0  0  0
 30 77  1  0  0  0  0
 30 76  1  0  0  0  0
 31 32  1  0  0  0  0
 31 27  1  0  0  0  0
 32 79  1  0  0  0  0
 33 81  1  0  0  0  0
 33 31  1  0  0  0  0
 33 32  1  0  0  0  0
 34 35  1  0  0  0  0
 34 83  1  0  0  0  0
 35 40  1  0  0  0  0
 36 37  1  0  0  0  0
 36 35  2  0  0  0  0
 37 38  2  0  0  0  0
 38 84  1  0  0  0  0
 38 39  1  0  0  0  0
 40 39  2  0  0  0  0
 40 41  1  0  0  0  0
 41 42  1  0  0  0  0
 41 85  1  0  0  0  0
 42 43  1  0  0  0  0
 43 44  2  0  0  0  0
 43 86  1  0  0  0  0
 44 45  1  0  0  0  0
 46 47  1  0  0  0  0
 46 44  1  0  0  0  0
 48 46  2  0  0  0  0
 49 48  1  0  0  0  0
 49 42  2  0  0  0  0
 50  1  1  0  0  0  0
 53  3  1  0  0  0  0
 55  4  1  0  0  0  0
 56  4  1  0  0  0  0
 57  7  1  0  0  0  0
 59 12  1  0  0  0  0
 60 13  1  0  0  0  0
 62 15  1  0  0  0  0
 63 18  1  0  0  0  0
 65 20  1  0  0  0  0
 67 23  1  0  0  0  0
 70 24  1  0  0  0  0
 73 28  1  0  0  0  0
 75 29  1  0  0  0  0
 78 31  1  0  0  0  0
 80 32  1  0  0  0  0
 82 33  1  0  0  0  0
 87 48  1  0  0  0  0
 88 49  1  0  0  0  0
M  END
