74
-1 1
C        -1.636466    8.081161    8.029284
O        -1.225416    6.744080    8.057077
C        -0.043387    6.439688    8.642743
C         0.790212    7.354120    9.246024
C         0.303795    5.048899    8.571687
N        -0.609748    4.182434    7.998380
C        -0.362843    2.791453    7.783502
O        -0.518212    2.369201    6.623396
C         0.070221    2.084028    8.924608
C         0.785758    0.871458    8.862217
S         2.886996    1.168705    8.095438
C         2.473829    1.059936    6.319390
C         3.325665    1.969441    5.438513
H         3.081989    1.757686    4.384374
N         4.728720    1.683016    5.588765
C         5.596039    1.791788    4.543384
C         7.053879    1.884543    4.950329
O         5.242755    1.814847    3.379641
C         3.095516    3.487177    5.615905
N         1.811384    3.912064    5.608482
C         1.532546    5.327590    5.604151
O         4.038616    4.259742    5.663353
C         1.130957    0.187739   10.169563
N         1.801199    1.105741   11.073869
C         2.508669    0.506365   12.154802
C         2.907835    1.397347   13.289857
C         1.815416    0.377831   13.484780
C         1.549074    4.670114    9.034257
C         2.409237    5.589055    9.669586
C         2.025019    6.940945    9.809683
N         2.791188    7.845373   10.485559
C         3.881684    7.374333   11.025610
N         4.357506    6.112748   10.964862
C         3.663299    5.227462   10.276441
N         4.117029    3.937240   10.150184
C         5.048591    3.244851   10.929011
C         5.647719    3.773958   12.081449
C         6.492988    2.976552   12.847109
Cl         7.224528    3.626372   14.291864
C         6.767547    1.662888   12.482496
F         7.580517    0.908227   13.226154
C         6.195089    1.140573   11.330802
C         5.348312    1.921927   10.557799
H        -2.594464    8.107197    7.495126
H        -0.908397    8.719079    7.498348
H        -1.781291    8.483107    9.047181
H         0.534996    8.409238    9.333480
H        -1.227092    4.603456    7.313379
H         0.090652    2.624110    9.871734
H         0.543792    0.188543    8.041544
H         1.407065    1.285426    6.194152
H         2.635260    0.023702    5.987690
H         5.093892    1.833328    6.522861
H         7.288493    1.232815    5.804560
H         7.262315    2.924673    5.244658
H         7.685116    1.622397    4.093110
H         1.027625    3.266423    5.727394
H         1.835086    5.792255    4.650794
H         2.073903    5.842701    6.411942
H         0.455429    5.479035    5.747408
H         1.743706   -0.710325    9.957908
H         0.191176   -0.158854   10.639578
H         2.426380    1.708690   10.544091
H         3.218291   -0.299836   11.900556
H         2.611548    2.445877   13.208752
H         3.881164    1.230617   13.758349
H         0.788261    0.747730   13.529730
H         2.023804   -0.501383   14.100046
H         1.848341    3.632724    8.899206
H         4.500061    8.076798   11.598046
H         3.687487    3.378225    9.412103
H         5.457824    4.806261   12.363860
H         6.416990    0.110205   11.048629
H         4.892365    1.495269    9.660392
