-1 1
 OpenBabel05192410563D

 74 77  0  0  1  0  0  0  0  0999 V2000
   -4.8263    4.7855   -1.1812 C   0  0  0  0  0  0  0  0  0  0  0  0
   -4.4699    3.4395   -1.0611 O   0  0  0  0  0  0  0  0  0  0  0  0
   -3.2530    3.1324   -0.5476 C   0  0  0  0  0  0  0  0  0  0  0  0
   -2.3371    4.0592   -0.1076 C   0  0  0  0  0  0  0  0  0  0  0  0
   -2.9599    1.7250   -0.5400 C   0  0  0  0  0  0  0  0  0  0  0  0
   -3.9093    0.8558   -1.0340 N   0  0  0  0  0  0  0  0  0  0  0  0
   -3.5273   -0.4897   -1.4323 C   0  0  0  0  0  0  0  0  0  0  0  0
   -3.4313   -0.7018   -2.6771 O   0  0  0  0  0  0  0  0  0  0  0  0
   -3.2486   -1.3340   -0.3853 C   0  0  0  0  0  3  0  0  0  0  0  0
   -2.4888   -2.5933   -0.5444 C   0  0  1  0  0  0  0  0  0  0  0  0
   -0.6186   -2.3080   -0.7194 S   0  0  0  0  0  0  0  0  0  0  0  0
   -0.4844   -2.0961   -2.5264 C   0  0  0  0  0  0  0  0  0  0  0  0
    0.5240   -1.0243   -2.9463 C   0  0  2  0  0  0  0  0  0  0  0  0
    0.7026   -1.1990   -4.0259 H   0  0  0  0  0  0  0  0  0  0  0  0
    1.7870   -1.1070   -2.2513 N   0  0  0  0  0  0  0  0  0  0  0  0
    2.6793   -2.1055   -2.4600 C   0  0  0  0  0  0  0  0  0  0  0  0
    4.0310   -1.9102   -1.7998 C   0  0  0  0  0  0  0  0  0  0  0  0
    2.4287   -3.0921   -3.1328 O   0  0  0  0  0  0  0  0  0  0  0  0
    0.0900    0.4547   -2.8700 C   0  0  0  0  0  0  0  0  0  0  0  0
   -1.1562    0.7534   -3.2670 N   0  0  0  0  0  0  0  0  0  0  0  0
   -1.5614    2.1352   -3.3714 C   0  0  0  0  0  0  0  0  0  0  0  0
    0.9237    1.3038   -2.5697 O   0  0  0  0  0  0  0  0  0  0  0  0
   -2.7359   -3.6170    0.5819 C   0  0  0  0  0  0  0  0  0  0  0  0
   -2.7381   -3.1374    1.9519 N   0  0  0  0  0  0  0  0  0  0  0  0
   -1.5213   -2.5660    2.4392 C   0  0  0  0  0  0  0  0  0  0  0  0
   -1.2470   -2.6835    3.9114 C   0  0  0  0  0  0  0  0  0  0  0  0
   -0.4655   -3.5146    2.9299 C   0  0  0  0  0  0  0  0  0  0  0  0
   -1.7118    1.3357   -0.0828 C   0  0  0  0  0  0  0  0  0  0  0  0
   -0.7436    2.2750    0.3274 C   0  0  0  0  0  0  0  0  0  0  0  0
   -1.0519    3.6526    0.3372 C   0  0  0  0  0  0  0  0  0  0  0  0
   -0.1550    4.5988    0.7424 N   0  0  0  0  0  0  0  0  0  0  0  0
    1.0159    4.1521    1.1017 C   0  0  0  0  0  0  0  0  0  0  0  0
    1.4456    2.8727    1.1069 N   0  0  0  0  0  0  0  0  0  0  0  0
    0.6000    1.9366    0.7241 C   0  0  0  0  0  0  0  0  0  0  0  0
    0.9859    0.6201    0.7114 N   0  0  0  0  0  0  0  0  0  0  0  0
    2.1928    0.0371    1.1023 C   0  0  0  0  0  0  0  0  0  0  0  0
    3.3666    0.7567    1.3709 C   0  0  0  0  0  0  0  0  0  0  0  0
    4.5220    0.0758    1.7485 C   0  0  0  0  0  0  0  0  0  0  0  0
    5.9842    0.9689    2.0795 Cl  0  0  0  0  0  0  0  0  0  0  0  0
    4.5354   -1.3092    1.8669 C   0  0  0  0  0  0  0  0  0  0  0  0
    5.6490   -1.9495    2.2304 F   0  0  0  0  0  0  0  0  0  0  0  0
    3.3785   -2.0284    1.5969 C   0  0  0  0  0  0  0  0  0  0  0  0
    2.2213   -1.3655    1.2173 C   0  0  0  0  0  0  0  0  0  0  0  0
   -5.8249    4.8108   -1.6355 H   0  0  0  0  0  0  0  0  0  0  0  0
   -4.1209    5.3378   -1.8271 H   0  0  0  0  0  0  0  0  0  0  0  0
   -4.8666    5.2863   -0.1978 H   0  0  0  0  0  0  0  0  0  0  0  0
   -2.5415    5.1290   -0.1081 H   0  0  0  0  0  0  0  0  0  0  0  0
   -4.5657    1.2976   -1.6681 H   0  0  0  0  0  0  0  0  0  0  0  0
   -3.3835   -0.9373    0.6235 H   0  0  0  0  0  0  0  0  0  0  0  0
   -2.7407   -3.0833   -1.4971 H   0  0  0  0  0  0  0  0  0  0  0  0
   -1.4870   -1.8647   -2.9120 H   0  0  0  0  0  0  0  0  0  0  0  0
   -0.1462   -3.0498   -2.9512 H   0  0  0  0  0  0  0  0  0  0  0  0
    2.0946   -0.2100   -1.8798 H   0  0  0  0  0  0  0  0  0  0  0  0
    4.2480   -2.7878   -1.1761 H   0  0  0  0  0  0  0  0  0  0  0  0
    4.0897   -1.0069   -1.1773 H   0  0  0  0  0  0  0  0  0  0  0  0
    4.7982   -1.8646   -2.5864 H   0  0  0  0  0  0  0  0  0  0  0  0
   -1.9314    0.0656   -3.2180 H   0  0  0  0  0  0  0  0  0  0  0  0
   -1.2487    2.5745   -4.3343 H   0  0  0  0  0  0  0  0  0  0  0  0
   -1.1188    2.7377   -2.5652 H   0  0  0  0  0  0  0  0  0  0  0  0
   -2.6558    2.1809   -3.3004 H   0  0  0  0  0  0  0  0  0  0  0  0
   -2.0030   -4.4366    0.5014 H   0  0  0  0  0  0  0  0  0  0  0  0
   -3.7315   -4.0530    0.3957 H   0  0  0  0  0  0  0  0  0  0  0  0
   -3.5086   -2.4896    2.0929 H   0  0  0  0  0  0  0  0  0  0  0  0
   -1.1547   -1.6451    1.9583 H   0  0  0  0  0  0  0  0  0  0  0  0
   -2.0090   -3.1928    4.5062 H   0  0  0  0  0  0  0  0  0  0  0  0
   -0.7405   -1.8533    4.4097 H   0  0  0  0  0  0  0  0  0  0  0  0
   -0.7064   -4.5783    2.8666 H   0  0  0  0  0  0  0  0  0  0  0  0
    0.5828   -3.2648    2.7533 H   0  0  0  0  0  0  0  0  0  0  0  0
   -1.4847    0.2721   -0.1150 H   0  0  0  0  0  0  0  0  0  0  0  0
    1.7540    4.8916    1.4364 H   0  0  0  0  0  0  0  0  0  0  0  0
    0.3105   -0.0463    0.3400 H   0  0  0  0  0  0  0  0  0  0  0  0
    3.3574    1.8411    1.2953 H   0  0  0  0  0  0  0  0  0  0  0  0
    3.3980   -3.1162    1.6802 H   0  0  0  0  0  0  0  0  0  0  0  0
    1.3245   -1.9407    0.9834 H   0  0  0  0  0  0  0  0  0  0  0  0
  1  2  1  0  0  0  0
  1 46  1  0  0  0  0
  2  3  1  0  0  0  0
  3  5  2  0  0  0  0
  3  4  1  0  0  0  0
  4 30  2  0  0  0  0
  5 28  1  0  0  0  0
  6  5  1  0  0  0  0
  7  6  1  0  0  0  0
  7  9  1  0  0  0  0
  8  7  2  0  0  0  0
  9 49  1  0  0  0  0
 10 50  1  6  0  0  0
 10  9  1  0  0  0  0
 10 23  1  0  0  0  0
 11 10  1  0  0  0  0
 12 11  1  0  0  0  0
 13 14  1  6  0  0  0
 13 19  1  0  0  0  0
 13 12  1  0  0  0  0
 13 15  1  0  0  0  0
 15 53  1  0  0  0  0
 16 15  1  0  0  0  0
 16 17  1  0  0  0  0
 17 55  1  0  0  0  0
 17 54  1  0  0  0  0
 18 16  2  0  0  0  0
 19 22  2  0  0  0  0
 20 57  1  0  0  0  0
 20 19  1  0  0  0  0
 21 60  1  0  0  0  0
 21 20  1  0  0  0  0
 21 59  1  0  0  0  0
 23 24  1  0  0  0  0
 24 63  1  0  0  0  0
 24 25  1  0  0  0  0
 25 27  1  0  0  0  0
 25 26  1  0  0  0  0
 26 66  1  0  0  0  0
 26 65  1  0  0  0  0
 27 26  1  0  0  0  0
 28 29  2  0  0  0  0
 29 30  1  0  0  0  0
 29 34  1  0  0  0  0
 30 31  1  0  0  0  0
 31 32  2  0  0  0  0
 32 33  1  0  0  0  0
 32 70  1  0  0  0  0
 34 33  2  0  0  0  0
 35 34  1  0  0  0  0
 35 36  1  0  0  0  0
 36 43  2  0  0  0  0
 36 37  1  0  0  0  0
 37 38  2  0  0  0  0
 38 40  1  0  0  0  0
 38 39  1  0  0  0  0
 40 41  1  0  0  0  0
 42 73  1  0  0  0  0
 42 40  2  0  0  0  0
 43 42  1  0  0  0  0
 44  1  1  0  0  0  0
 45  1  1  0  0  0  0
 47  4  1  0  0  0  0
 48  6  1  0  0  0  0
 51 12  1  0  0  0  0
 52 12  1  0  0  0  0
 56 17  1  0  0  0  0
 58 21  1  0  0  0  0
 61 23  1  0  0  0  0
 62 23  1  0  0  0  0
 64 25  1  0  0  0  0
 67 27  1  0  0  0  0
 68 27  1  0  0  0  0
 69 28  1  0  0  0  0
 71 35  1  0  0  0  0
 72 37  1  0  0  0  0
 74 43  1  0  0  0  0
M  END
