74
-1 1
C        -4.617843    4.722767   -1.108376
O        -4.115075    3.417696   -1.188779
C        -2.984216    3.116560   -0.512539
C        -2.287368    3.993340    0.285419
C        -2.522105    1.774933   -0.693603
N        -3.323648    0.941259   -1.482718
C        -3.479949   -0.426917   -1.473973
O        -3.985866   -0.973296   -2.445605
C        -3.011481   -1.149413   -0.273478
C        -2.898807   -2.480811   -0.258059
S         0.677035   -1.594211   -1.071367
C        -0.295546   -2.073249   -2.538400
C         0.218802   -1.467053   -3.853418
H        -0.292782   -1.955483   -4.699954
N         1.624276   -1.712446   -3.995935
C         2.239138   -1.715050   -5.203688
C         3.753233   -1.633278   -5.136594
O         1.639924   -1.772850   -6.263889
C        -0.066445    0.041367   -3.995656
N        -1.383371    0.387252   -3.965721
C        -1.784464    1.755523   -4.163405
O         0.810719    0.861593   -4.183788
C        -2.231309   -3.228593    0.860405
N        -1.353731   -2.362170    1.613337
C        -0.701327   -2.973505    2.723478
C        -0.214793   -2.067331    3.812226
C        -1.403888   -2.959178    4.055232
C        -1.323789    1.390026   -0.133417
C        -0.623127    2.262109    0.735838
C        -1.114085    3.569901    0.959145
N        -0.509708    4.443194    1.815868
C         0.527667    3.974792    2.454918
N         1.076925    2.752223    2.357474
C         0.547916    1.892002    1.500959
N         1.084726    0.648497    1.365164
C         2.016552   -0.004197    2.186183
C         2.431195    0.477921    3.436183
C         3.290531   -0.283911    4.222501
Cl         3.792970    0.311888    5.785195
C         3.758905   -1.517200    3.784882
F         4.585521   -2.238376    4.546606
C         3.365873   -1.992733    2.541233
C         2.506824   -1.246875    1.746983
H        -5.516738    4.753798   -1.736274
H        -3.888561    5.461905   -1.482317
H        -4.892116    4.987874   -0.072837
H        -2.612986    5.017348    0.461062
H        -3.819036    1.397122   -2.241094
H        -2.662667   -0.586110    0.591150
H        -3.239346   -3.047529   -1.131140
H        -1.354916   -1.810722   -2.412209
H        -0.257978   -3.168608   -2.644046
H         2.152772   -1.537697   -3.142668
H         4.161946   -2.172822   -4.270059
H         4.036373   -0.573448   -5.044957
H         4.176957   -2.034232   -6.065400
H        -2.093843   -0.303960   -3.751452
H        -1.161291    2.211872   -4.945650
H        -1.664713    2.366699   -3.251498
H        -2.836846    1.788231   -4.480298
H        -1.705176   -4.101362    0.415228
H        -2.998684   -3.655608    1.535060
H        -0.653897   -1.996923    0.952717
H        -0.077471   -3.859553    2.516913
H        -0.406417   -1.001770    3.667658
H         0.735856   -2.300041    4.298857
H        -2.388563   -2.485113    4.078753
H        -1.286379   -3.820474    4.718075
H        -0.916089    0.401777   -0.375627
H         1.021491    4.651253    3.164187
H         0.785880    0.099117    0.547010
H         2.090033    1.448378    3.784331
H         3.739103   -2.959799    2.200776
H         2.198499   -1.645196    0.776742
