82
-1 1
O         5.612816    4.946024    2.558648
C         4.889356    4.503796    3.456337
N         3.762276    3.703390    3.134874
C         3.264175    3.426685    1.887902
C         3.734508    3.958255    0.700187
C         2.151892    2.508089    1.826424
O         1.794187    2.028757    3.030274
C         0.776373    1.056863    3.163417
H         0.931530    0.256817    2.420983
C         0.828343    0.561532    4.602578
C         0.005425    1.628216    5.310319
O        -1.036461    1.949227    4.405438
C        -0.623493    1.688640    3.082893
C         1.557815    2.179350    0.630718
C         2.034811    2.734299   -0.584974
C         3.131672    3.624242   -0.536369
C         3.562726    4.132835   -1.809491
N         4.633538    4.993405   -1.827281
C         5.275862    5.638990   -2.878933
C         4.894586    5.519235   -4.224073
C         5.602900    6.208992   -5.203519
Cl         5.133315    6.063958   -6.875958
C         6.685921    7.017833   -4.873723
F         7.356805    7.673573   -5.822192
C         7.069113    7.140952   -3.544686
C         6.372648    6.459352   -2.556536
N         2.959299    3.791875   -2.930484
C         1.917306    2.937712   -2.838542
N         1.426768    2.395636   -1.758846
C         5.080501    4.700395    4.858174
C         4.104902    4.406336    5.837571
S         3.876927    2.215682    6.242906
C         5.486462    1.719523    5.589242
C         6.642402    2.075373    6.528840
H         6.522510    3.122217    6.796996
N         7.935223    1.993538    5.889598
C         8.751632    3.072356    5.806594
C        10.070168    2.837544    5.096471
O         8.456595    4.179348    6.233661
C         6.636137    1.249253    7.809145
N         6.123474    1.916658    8.865144
C         5.875488    1.291447   10.133910
O         7.069868    0.105723    7.841766
C         4.243612    5.029545    7.215279
N         5.540131    4.817945    7.837295
C         5.814838    5.649503    8.967971
C         7.234979    6.016123    9.252238
C         6.261970    7.083730    8.804304
H         3.364263    3.151001    3.894923
H         4.596696    4.617103    0.799213
H         1.860190    0.497704    4.975470
H         0.337621   -0.421451    4.671899
H         0.634237    2.511995    5.525525
H        -0.443916    1.285201    6.253459
H        -0.595482    2.617856    2.488431
H        -1.339898    0.998863    2.601300
H         0.710705    1.497523    0.566659
H         5.026235    5.182686   -0.914749
H         4.048531    4.886068   -4.482302
H         7.920055    7.777566   -3.297642
H         6.682613    6.562236   -1.513697
H         1.440720    2.679593   -3.792129
H         6.074610    5.061791    5.131733
H         3.065077    4.481180    5.500580
H         5.662842    2.272575    4.650082
H         5.471607    0.641972    5.362681
H         8.282325    1.074188    5.648838
H        10.007626    3.295523    4.098225
H        10.323125    1.774125    4.983056
H        10.866259    3.351239    5.650802
H         5.752852    2.851305    8.665191
H         6.367194    0.309597   10.132786
H         4.796597    1.142373   10.309524
H         6.283771    1.893919   10.961375
H         3.465105    4.623936    7.882313
H         4.034228    6.114653    7.093761
H         6.290655    4.923040    7.153260
H         5.169933    5.435363    9.829107
H         7.979723    5.670291    8.528245
H         7.576415    6.021125   10.290425
H         6.360712    7.455182    7.779986
H         5.931903    7.830316    9.532160
