-1 1
 OpenBabel05232413483D

 82 85  0  0  1  0  0  0  0  0999 V2000
   -0.0812    2.3559    0.0553 O   0  0  0  0  0  0  0  0  0  0  0  0
   -0.3879    1.5909    0.9629 C   0  0  0  0  0  0  0  0  0  0  0  0
   -1.0297    0.4006    0.7682 N   0  0  0  0  0  0  0  0  0  0  0  0
   -1.4542   -0.0843   -0.4678 C   0  0  0  0  0  0  0  0  0  0  0  0
   -0.9216    0.2907   -1.6815 C   0  0  0  0  0  0  0  0  0  0  0  0
   -2.5254   -1.0483   -0.4487 C   0  0  0  0  0  0  0  0  0  0  0  0
   -3.0817   -1.2437    0.7487 O   0  0  0  0  0  0  0  0  0  0  0  0
   -3.8736   -2.3930    0.9934 C   0  0  1  0  0  0  0  0  0  0  0  0
   -3.4006   -3.2638    0.5147 H   0  0  0  0  0  0  0  0  0  0  0  0
   -3.9964   -2.5473    2.5026 C   0  0  0  0  0  0  0  0  0  0  0  0
   -5.1493   -1.6027    2.8055 C   0  0  0  0  0  0  0  0  0  0  0  0
   -6.0465   -1.7638    1.7221 O   0  0  0  0  0  0  0  0  0  0  0  0
   -5.3367   -2.1681    0.5705 C   0  0  0  0  0  0  0  0  0  0  0  0
   -2.9217   -1.6732   -1.6131 C   0  0  0  0  0  0  0  0  0  0  0  0
   -2.3498   -1.3149   -2.8568 C   0  0  0  0  0  0  0  0  0  0  0  0
   -1.3672   -0.2986   -2.8905 C   0  0  0  0  0  0  0  0  0  0  0  0
   -0.8824    0.0500   -4.1958 C   0  0  2  0  0  3  0  0  0  0  0  0
    0.0378    1.0653   -4.2969 N   0  0  0  0  0  0  0  0  0  0  0  0
    0.6920    1.6059   -5.4010 C   0  0  0  0  0  0  0  0  0  0  0  0
    0.5200    1.1503   -6.7168 C   0  0  0  0  0  0  0  0  0  0  0  0
    1.2253    1.7566   -7.7521 C   0  0  0  0  0  0  0  0  0  0  0  0
    1.0146    1.1954   -9.3882 Cl  0  0  0  0  0  0  0  0  0  0  0  0
    2.1005    2.8102   -7.5065 C   0  0  0  0  0  0  0  0  0  0  0  0
    2.7702    3.3830   -8.5073 F   0  0  0  0  0  0  0  0  0  0  0  0
    2.2752    3.2670   -6.2070 C   0  0  0  0  0  0  0  0  0  0  0  0
    1.5788    2.6718   -5.1642 C   0  0  0  0  0  0  0  0  0  0  0  0
   -1.3045   -0.5750   -5.2768 N   0  0  0  0  0  0  0  0  0  0  0  0
   -2.2295   -1.5444   -5.1085 C   0  0  0  0  0  0  0  0  0  0  0  0
   -2.7766   -1.9399   -3.9938 N   0  0  0  0  0  2  0  0  0  0  0  0
   -0.0943    1.9924    2.3701 C   0  0  0  0  0  0  0  0  0  0  0  0
   -0.3766    1.3321    3.4977 C   0  0  0  0  0  0  0  0  0  0  0  0
   -0.5035   -2.2440    2.5071 S   0  0  0  0  0  1  0  0  0  0  0  0
    1.2805   -2.0461    2.1998 C   0  0  0  0  0  0  0  0  0  0  0  0
    2.0254   -1.4425    3.3906 C   0  0  2  0  0  0  0  0  0  0  0  0
    1.5416   -0.4975    3.6507 H   0  0  0  0  0  0  0  0  0  0  0  0
    3.4079   -1.1325    3.0527 N   0  0  0  0  0  0  0  0  0  0  0  0
    4.0689   -0.0618    3.5298 C   0  0  0  0  0  0  0  0  0  0  0  0
    5.5428    0.0136    3.1829 C   0  0  0  0  0  0  0  0  0  0  0  0
    3.5474    0.8201    4.2068 O   0  0  0  0  0  0  0  0  0  0  0  0
    2.0384   -2.3912    4.5936 C   0  0  0  0  0  0  0  0  0  0  0  0
    1.3612   -1.9487    5.6723 N   0  0  0  0  0  0  0  0  0  0  0  0
    1.2105   -2.7335    6.8655 C   0  0  0  0  0  0  0  0  0  0  0  0
    2.6740   -3.4350    4.5502 O   0  0  0  0  0  0  0  0  0  0  0  0
   -0.0502    1.8749    4.8595 C   0  0  0  0  0  0  0  0  0  0  0  0
    0.8920    1.0111    5.5489 N   0  0  0  0  0  0  0  0  0  0  0  0
    1.1789    1.3959    6.8971 C   0  0  0  0  0  0  0  0  0  0  0  0
    2.4995    1.0192    7.4859 C   0  0  0  0  0  0  0  0  0  0  0  0
    2.1894    2.4743    7.2177 C   0  0  0  0  0  0  0  0  0  0  0  0
   -1.0490   -0.3284    1.5257 H   0  0  0  0  0  0  0  0  0  0  0  0
   -0.1450    1.0519   -1.6518 H   0  0  0  0  0  0  0  0  0  0  0  0
   -3.0486   -2.3158    3.0067 H   0  0  0  0  0  0  0  0  0  0  0  0
   -4.2777   -3.5854    2.7354 H   0  0  0  0  0  0  0  0  0  0  0  0
   -4.7900   -0.5578    2.8665 H   0  0  0  0  0  0  0  0  0  0  0  0
   -5.6840   -1.8404    3.7371 H   0  0  0  0  0  0  0  0  0  0  0  0
   -5.4016   -1.3971   -0.2160 H   0  0  0  0  0  0  0  0  0  0  0  0
   -5.7807   -3.0987    0.1741 H   0  0  0  0  0  0  0  0  0  0  0  0
   -3.7056   -2.4287   -1.6298 H   0  0  0  0  0  0  0  0  0  0  0  0
    0.2602    1.5144   -3.4193 H   0  0  0  0  0  0  0  0  0  0  0  0
   -0.1670    0.3292   -6.9096 H   0  0  0  0  0  0  0  0  0  0  0  0
    2.9638    4.0937   -6.0264 H   0  0  0  0  0  0  0  0  0  0  0  0
    1.7240    3.0389   -4.1453 H   0  0  0  0  0  0  0  0  0  0  0  0
   -2.5523   -2.0436   -6.0303 H   0  0  0  0  0  0  0  0  0  0  0  0
    0.3962    2.9705    2.4109 H   0  0  0  0  0  0  0  0  0  0  0  0
   -0.8167    0.3246    3.4691 H   0  0  0  0  0  0  0  0  0  0  0  0
    1.4535   -1.3790    1.3368 H   0  0  0  0  0  0  0  0  0  0  0  0
    1.7376   -3.0216    1.9604 H   0  0  0  0  0  0  0  0  0  0  0  0
    3.9394   -1.8895    2.6409 H   0  0  0  0  0  0  0  0  0  0  0  0
    5.7639    1.0270    2.8223 H   0  0  0  0  0  0  0  0  0  0  0  0
    5.8529   -0.7208    2.4274 H   0  0  0  0  0  0  0  0  0  0  0  0
    6.1265   -0.1470    4.1012 H   0  0  0  0  0  0  0  0  0  0  0  0
    0.8875   -1.0442    5.6005 H   0  0  0  0  0  0  0  0  0  0  0  0
    1.8966   -3.5884    6.8031 H   0  0  0  0  0  0  0  0  0  0  0  0
    0.1827   -3.1198    6.9716 H   0  0  0  0  0  0  0  0  0  0  0  0
    1.4551   -2.1383    7.7603 H   0  0  0  0  0  0  0  0  0  0  0  0
   -0.9811    1.9094    5.4548 H   0  0  0  0  0  0  0  0  0  0  0  0
    0.3121    2.9211    4.7771 H   0  0  0  0  0  0  0  0  0  0  0  0
    1.7691    0.9649    5.0171 H   0  0  0  0  0  0  0  0  0  0  0  0
    0.3057    1.3343    7.5581 H   0  0  0  0  0  0  0  0  0  0  0  0
    3.2101    0.5332    6.8118 H   0  0  0  0  0  0  0  0  0  0  0  0
    2.5286    0.6672    8.5202 H   0  0  0  0  0  0  0  0  0  0  0  0
    2.7033    2.9331    6.3681 H   0  0  0  0  0  0  0  0  0  0  0  0
    2.0078    3.1406    8.0658 H   0  0  0  0  0  0  0  0  0  0  0  0
  1  2  2  0  0  0  0
  2 30  1  0  0  0  0
  3  2  1  0  0  0  0
  3 49  1  0  0  0  0
  4  6  1  0  0  0  0
  4  3  1  0  0  0  0
  5 50  1  0  0  0  0
  5  4  2  0  0  0  0
  6  7  1  0  0  0  0
  7  8  1  0  0  0  0
  8  9  1  6  0  0  0
  8 10  1  0  0  0  0
 10 52  1  0  0  0  0
 10 11  1  0  0  0  0
 10 51  1  0  0  0  0
 11 53  1  0  0  0  0
 11 54  1  0  0  0  0
 12 11  1  0  0  0  0
 13  8  1  0  0  0  0
 13 12  1  0  0  0  0
 14  6  2  0  0  0  0
 15 14  1  0  0  0  0
 16 15  2  0  0  0  0
 16  5  1  0  0  0  0
 17 18  1  6  0  0  0
 17 16  1  0  0  0  0
 18 58  1  0  0  0  0
 19 26  1  0  0  0  0
 19 18  1  0  0  0  0
 20 19  2  0  0  0  0
 21 23  2  0  0  0  0
 21 20  1  0  0  0  0
 22 21  1  0  0  0  0
 23 25  1  0  0  0  0
 24 23  1  0  0  0  0
 25 60  1  0  0  0  0
 25 26  2  0  0  0  0
 26 61  1  0  0  0  0
 27 28  2  0  0  0  0
 27 17  1  0  0  0  0
 28 29  1  0  0  0  0
 29 15  1  0  0  0  0
 30 63  1  0  0  0  0
 30 31  2  0  0  0  0
 31 44  1  0  0  0  0
 33 32  1  0  0  0  0
 33 34  1  0  0  0  0
 34 35  1  1  0  0  0
 34 40  1  0  0  0  0
 36 34  1  0  0  0  0
 36 37  1  0  0  0  0
 37 39  2  0  0  0  0
 38 37  1  0  0  0  0
 38 70  1  0  0  0  0
 40 41  1  0  0  0  0
 41 42  1  0  0  0  0
 42 73  1  0  0  0  0
 42 74  1  0  0  0  0
 43 40  2  0  0  0  0
 44 75  1  0  0  0  0
 44 45  1  0  0  0  0
 45 46  1  0  0  0  0
 46 48  1  0  0  0  0
 46 47  1  0  0  0  0
 46 78  1  0  0  0  0
 47 80  1  0  0  0  0
 48 47  1  0  0  0  0
 48 82  1  0  0  0  0
 55 13  1  0  0  0  0
 56 13  1  0  0  0  0
 57 14  1  0  0  0  0
 59 20  1  0  0  0  0
 62 28  1  0  0  0  0
 64 31  1  0  0  0  0
 65 33  1  0  0  0  0
 66 33  1  0  0  0  0
 67 36  1  0  0  0  0
 68 38  1  0  0  0  0
 69 38  1  0  0  0  0
 71 41  1  0  0  0  0
 72 42  1  0  0  0  0
 76 44  1  0  0  0  0
 77 45  1  0  0  0  0
 79 47  1  0  0  0  0
 81 48  1  0  0  0  0
M  END
