-1 1
 OpenBabel05192410563D

 82 86  0  0  1  0  0  0  0  0999 V2000
    0.9770    1.2365    0.0773 O   0  0  0  0  0  0  0  0  0  0  0  0
    0.2692    0.7781    0.9865 C   0  0  0  0  0  0  0  0  0  0  0  0
   -0.8566   -0.0422    0.6478 N   0  0  0  0  0  0  0  0  0  0  0  0
   -1.3488   -0.3134   -0.5968 C   0  0  0  0  0  0  0  0  0  0  0  0
   -0.8962    0.2452   -1.7812 C   0  0  0  0  0  0  0  0  0  0  0  0
   -2.4371   -1.2605   -0.6705 C   0  0  0  0  0  0  0  0  0  0  0  0
   -2.7740   -1.7711    0.5303 O   0  0  0  0  0  0  0  0  0  0  0  0
   -3.7811   -2.7523    0.6562 C   0  0  1  0  0  0  0  0  0  0  0  0
   -3.6259   -3.5420   -0.0975 H   0  0  0  0  0  0  0  0  0  0  0  0
   -3.7133   -3.2652    2.0892 C   0  0  0  0  0  0  0  0  0  0  0  0
   -4.5394   -2.2133    2.8162 C   0  0  0  0  0  0  0  0  0  0  0  0
   -5.5955   -1.9022    1.9268 O   0  0  0  0  0  0  0  0  0  0  0  0
   -5.1879   -2.1329    0.5961 C   0  0  0  0  0  0  0  0  0  0  0  0
   -3.0311   -1.5855   -1.8664 C   0  0  0  0  0  0  0  0  0  0  0  0
   -2.5728   -1.0023   -3.0767 C   0  0  0  0  0  0  0  0  0  0  0  0
   -1.4952   -0.0891   -3.0182 C   0  0  0  0  0  0  0  0  0  0  0  0
   -1.0786    0.4433   -4.2867 C   0  0  1  0  0  3  0  0  0  0  0  0
   -0.0229    1.3232   -4.2940 N   0  0  0  0  0  0  0  0  0  0  0  0
    0.6074    1.9924   -5.3370 C   0  0  0  0  0  0  0  0  0  0  0  0
    0.2235    1.8875   -6.6828 C   0  0  0  0  0  0  0  0  0  0  0  0
    0.9194    2.6011   -7.6540 C   0  0  0  0  0  0  0  0  0  0  0  0
    0.4462    2.4747   -9.3273 Cl  0  0  0  0  0  0  0  0  0  0  0  0
    1.9925    3.4194   -7.3157 C   0  0  0  0  0  0  0  0  0  0  0  0
    2.6518    4.0980   -8.2567 F   0  0  0  0  0  0  0  0  0  0  0  0
    2.3783    3.5281   -5.9861 C   0  0  0  0  0  0  0  0  0  0  0  0
    1.6943    2.8228   -5.0059 C   0  0  0  0  0  0  0  0  0  0  0  0
   -1.6785    0.1060   -5.4104 N   0  0  0  0  0  0  0  0  0  0  0  0
   -2.7033   -0.7703   -5.3270 C   0  0  0  0  0  0  0  0  0  0  0  0
   -3.1779   -1.3374   -4.2530 N   0  0  0  0  0  2  0  0  0  0  0  0
    0.4492    0.9526    2.3749 C   0  0  0  0  0  3  0  0  0  0  0  0
   -0.5210    0.5770    3.3889 C   0  0  1  0  0  0  0  0  0  0  0  0
   -0.6721   -1.4022    3.7691 S   0  0  0  0  0  0  0  0  0  0  0  0
    0.9323   -1.9684    3.1631 C   0  0  0  0  0  0  0  0  0  0  0  0
    2.0919   -1.6651    4.1167 C   0  0  2  0  0  0  0  0  0  0  0  0
    2.0707   -0.5970    4.3284 H   0  0  0  0  0  0  0  0  0  0  0  0
    3.3796   -1.9055    3.5111 N   0  0  0  0  0  0  0  0  0  0  0  0
    4.3140   -0.9225    3.4294 C   0  0  0  0  0  0  0  0  0  0  0  0
    5.6255   -1.3288    2.7859 C   0  0  0  0  0  0  0  0  0  0  0  0
    4.1219    0.2224    3.8044 O   0  0  0  0  0  0  0  0  0  0  0  0
    1.9802   -2.4348    5.4293 C   0  0  0  0  0  0  0  0  0  0  0  0
    1.4789   -1.6971    6.4412 N   0  0  0  0  0  0  0  0  0  0  0  0
    1.1489   -2.2596    7.7210 C   0  0  0  0  0  0  0  0  0  0  0  0
    2.3275   -3.6053    5.5138 O   0  0  0  0  0  0  0  0  0  0  0  0
   -0.3708    1.2962    4.7274 C   0  0  0  0  0  0  0  0  0  0  0  0
    0.9362    1.1123    5.3398 N   0  0  0  0  0  0  0  0  0  0  0  0
    1.2333    2.0018    6.4219 C   0  0  0  0  0  0  0  0  0  0  0  0
    2.6611    2.3677    6.6671 C   0  0  0  0  0  0  0  0  0  0  0  0
    1.6922    3.4185    6.1725 C   0  0  0  0  0  0  0  0  0  0  0  0
   -1.2582   -0.6020    1.3960 H   0  0  0  0  0  0  0  0  0  0  0  0
   -0.0498    0.9236   -1.6702 H   0  0  0  0  0  0  0  0  0  0  0  0
   -2.6778   -3.3303    2.4495 H   0  0  0  0  0  0  0  0  0  0  0  0
   -4.1959   -4.2525    2.1524 H   0  0  0  0  0  0  0  0  0  0  0  0
   -3.9192   -1.3228    3.0291 H   0  0  0  0  0  0  0  0  0  0  0  0
   -4.9724   -2.5682    3.7627 H   0  0  0  0  0  0  0  0  0  0  0  0
   -5.1707   -1.1923    0.0198 H   0  0  0  0  0  0  0  0  0  0  0  0
   -5.9022   -2.8189    0.1068 H   0  0  0  0  0  0  0  0  0  0  0  0
   -3.8618   -2.2869   -1.9364 H   0  0  0  0  0  0  0  0  0  0  0  0
    0.3684    1.5032   -3.3787 H   0  0  0  0  0  0  0  0  0  0  0  0
   -0.6147    1.2464   -6.9474 H   0  0  0  0  0  0  0  0  0  0  0  0
    3.2215    4.1722   -5.7322 H   0  0  0  0  0  0  0  0  0  0  0  0
    2.0060    2.9141   -3.9625 H   0  0  0  0  0  0  0  0  0  0  0  0
   -3.1783   -1.0245   -6.2825 H   0  0  0  0  0  0  0  0  0  0  0  0
    1.3994    1.4130    2.6557 H   0  0  0  0  0  0  0  0  0  0  0  0
   -1.5609    0.7228    3.0579 H   0  0  0  0  0  0  0  0  0  0  0  0
    1.1359   -1.4362    2.2188 H   0  0  0  0  0  0  0  0  0  0  0  0
    0.8526   -3.0478    2.9620 H   0  0  0  0  0  0  0  0  0  0  0  0
    3.6430   -2.8692    3.3496 H   0  0  0  0  0  0  0  0  0  0  0  0
    5.6489   -0.9198    1.7650 H   0  0  0  0  0  0  0  0  0  0  0  0
    5.7685   -2.4172    2.7335 H   0  0  0  0  0  0  0  0  0  0  0  0
    6.4507   -0.8727    3.3480 H   0  0  0  0  0  0  0  0  0  0  0  0
    1.1728   -0.7473    6.1954 H   0  0  0  0  0  0  0  0  0  0  0  0
    1.5775   -3.2692    7.7730 H   0  0  0  0  0  0  0  0  0  0  0  0
    0.0573   -2.3354    7.8623 H   0  0  0  0  0  0  0  0  0  0  0  0
    1.5649   -1.6524    8.5409 H   0  0  0  0  0  0  0  0  0  0  0  0
   -1.1385    0.9368    5.4339 H   0  0  0  0  0  0  0  0  0  0  0  0
   -0.5742    2.3707    4.5380 H   0  0  0  0  0  0  0  0  0  0  0  0
    1.6615    1.2041    4.6282 H   0  0  0  0  0  0  0  0  0  0  0  0
    0.5971    1.8385    7.3001 H   0  0  0  0  0  0  0  0  0  0  0  0
    3.3946    1.9729    5.9565 H   0  0  0  0  0  0  0  0  0  0  0  0
    3.0157    2.4277    7.6990 H   0  0  0  0  0  0  0  0  0  0  0  0
    1.7788    3.7315    5.1277 H   0  0  0  0  0  0  0  0  0  0  0  0
    1.3795    4.2079    6.8617 H   0  0  0  0  0  0  0  0  0  0  0  0
  1  2  2  0  0  0  0
  2 30  1  0  0  0  0
  3  2  1  0  0  0  0
  3 49  1  0  0  0  0
  4  3  1  0  0  0  0
  5 50  1  0  0  0  0
  5  4  2  0  0  0  0
  6  4  1  0  0  0  0
  6  7  1  0  0  0  0
  7  8  1  0  0  0  0
  8  9  1  6  0  0  0
  8 10  1  0  0  0  0
 10 52  1  0  0  0  0
 10 51  1  0  0  0  0
 10 11  1  0  0  0  0
 11 53  1  0  0  0  0
 11 54  1  0  0  0  0
 12 11  1  0  0  0  0
 13  8  1  0  0  0  0
 13 12  1  0  0  0  0
 14  6  2  0  0  0  0
 15 16  2  0  0  0  0
 15 14  1  0  0  0  0
 16  5  1  0  0  0  0
 17 18  1  6  0  0  0
 17 16  1  0  0  0  0
 18 58  1  0  0  0  0
 19 26  1  0  0  0  0
 19 18  1  0  0  0  0
 20 19  2  0  0  0  0
 21 23  2  0  0  0  0
 21 20  1  0  0  0  0
 22 21  1  0  0  0  0
 23 25  1  0  0  0  0
 24 23  1  0  0  0  0
 25 60  1  0  0  0  0
 25 26  2  0  0  0  0
 26 61  1  0  0  0  0
 27 28  2  0  0  0  0
 27 17  1  0  0  0  0
 28 29  1  0  0  0  0
 29 15  1  0  0  0  0
 30 63  1  0  0  0  0
 30 31  1  0  0  0  0
 31 64  1  6  0  0  0
 31 32  1  0  0  0  0
 31 44  1  0  0  0  0
 33 32  1  0  0  0  0
 33 34  1  0  0  0  0
 34 35  1  1  0  0  0
 34 40  1  0  0  0  0
 36 34  1  0  0  0  0
 37 36  1  0  0  0  0
 37 39  2  0  0  0  0
 38 70  1  0  0  0  0
 38 37  1  0  0  0  0
 40 43  2  0  0  0  0
 40 41  1  0  0  0  0
 41 42  1  0  0  0  0
 42 72  1  0  0  0  0
 42 73  1  0  0  0  0
 42 74  1  0  0  0  0
 44 45  1  0  0  0  0
 44 75  1  0  0  0  0
 45 46  1  0  0  0  0
 46 47  1  0  0  0  0
 46 78  1  0  0  0  0
 47 80  1  0  0  0  0
 48 46  1  0  0  0  0
 48 47  1  0  0  0  0
 48 82  1  0  0  0  0
 55 13  1  0  0  0  0
 56 13  1  0  0  0  0
 57 14  1  0  0  0  0
 59 20  1  0  0  0  0
 62 28  1  0  0  0  0
 65 33  1  0  0  0  0
 66 33  1  0  0  0  0
 67 36  1  0  0  0  0
 68 38  1  0  0  0  0
 69 38  1  0  0  0  0
 71 41  1  0  0  0  0
 76 44  1  0  0  0  0
 77 45  1  0  0  0  0
 79 47  1  0  0  0  0
 81 48  1  0  0  0  0
M  END
