82
-1 1
O         0.977043    1.236519    0.077321
C         0.269204    0.778110    0.986540
N        -0.856622   -0.042241    0.647818
C        -1.348803   -0.313427   -0.596766
C        -0.896236    0.245204   -1.781151
C        -2.437064   -1.260469   -0.670458
O        -2.773966   -1.771065    0.530312
C        -3.781051   -2.752318    0.656151
H        -3.625924   -3.542002   -0.097479
C        -3.713318   -3.265156    2.089207
C        -4.539404   -2.213332    2.816204
O        -5.595540   -1.902184    1.926820
C        -5.187946   -2.132931    0.596110
C        -3.031072   -1.585466   -1.866399
C        -2.572800   -1.002283   -3.076712
C        -1.495228   -0.089060   -3.018166
C        -1.078587    0.443348   -4.286715
N        -0.022945    1.323159   -4.294002
C         0.607389    1.992443   -5.336960
C         0.223462    1.887475   -6.682789
C         0.919386    2.601100   -7.653950
Cl         0.446231    2.474664   -9.327321
C         1.992549    3.419422   -7.315699
F         2.651816    4.098048   -8.256688
C         2.378257    3.528075   -5.986080
C         1.694274    2.822829   -5.005887
N        -1.678519    0.105985   -5.410396
C        -2.703251   -0.770268   -5.327014
N        -3.177873   -1.337419   -4.253033
C         0.449185    0.952601    2.374917
C        -0.520983    0.577041    3.388877
S        -0.672147   -1.402233    3.769074
C         0.932323   -1.968361    3.163145
C         2.091860   -1.665118    4.116680
H         2.070666   -0.597030    4.328364
N         3.379613   -1.905525    3.511138
C         4.314034   -0.922526    3.429421
C         5.625546   -1.328824    2.785932
O         4.121907    0.222421    3.804366
C         1.980193   -2.434783    5.429334
N         1.478854   -1.697072    6.441181
C         1.148873   -2.259649    7.721038
O         2.327526   -3.605287    5.513824
C        -0.370805    1.296192    4.727387
N         0.936189    1.112259    5.339768
C         1.233282    2.001757    6.421854
C         2.661085    2.367726    6.667057
C         1.692210    3.418511    6.172487
H        -1.258186   -0.601966    1.396030
H        -0.049811    0.923572   -1.670167
H        -2.677828   -3.330286    2.449506
H        -4.195856   -4.252532    2.152420
H        -3.919182   -1.322777    3.029096
H        -4.972358   -2.568214    3.762654
H        -5.170710   -1.192270    0.019811
H        -5.902229   -2.818914    0.106796
H        -3.861790   -2.286898   -1.936392
H         0.368385    1.503187   -3.378700
H        -0.614692    1.246382   -6.947425
H         3.221514    4.172229   -5.732230
H         2.006033    2.914079   -3.962508
H        -3.178266   -1.024467   -6.282459
H         1.399388    1.413002    2.655672
H        -1.560907    0.722822    3.057873
H         1.135886   -1.436229    2.218780
H         0.852634   -3.047797    2.961979
H         3.643012   -2.869203    3.349628
H         5.648902   -0.919769    1.764994
H         5.768530   -2.417224    2.733503
H         6.450666   -0.872664    3.347965
H         1.172790   -0.747340    6.195444
H         1.577539   -3.269244    7.773032
H         0.057305   -2.335380    7.862325
H         1.564882   -1.652372    8.540892
H        -1.138502    0.936764    5.433863
H        -0.574157    2.370721    4.537985
H         1.661475    1.204076    4.628223
H         0.597096    1.838543    7.300130
H         3.394647    1.972853    5.956481
H         3.015718    2.427667    7.699024
H         1.778761    3.731534    5.127690
H         1.379544    4.207929    6.861657
