-1 1
 OpenBabel05192410563D

 82 85  0  0  1  0  0  0  0  0999 V2000
    1.8979    0.7573   -7.3731 C   0  0  0  0  0  0  0  0  0  0  0  0
    2.4033    0.0775   -6.5081 C   0  0  0  0  0  0  0  0  0  0  0  0
    3.0102   -0.7317   -5.4859 C   0  0  0  0  0  0  0  0  0  0  0  0
    2.6730   -0.5286   -4.1446 C   0  0  0  0  0  0  0  0  0  0  0  0
    3.2548   -1.3105   -3.1326 C   0  0  0  0  0  0  0  0  0  0  0  0
    2.8656   -1.0201   -1.8197 N   0  0  0  0  0  0  0  0  0  0  0  0
    2.9933   -1.7818   -0.6957 C   0  0  2  0  0  3  0  0  0  0  0  0
    3.4797   -3.0123   -0.7665 N   0  0  0  0  0  0  0  0  0  0  0  0
    3.4756   -3.7563    0.3558 C   0  0  0  0  0  0  0  0  0  0  0  0
    3.0198   -3.4318    1.5346 N   0  0  0  0  0  2  0  0  0  0  0  0
    2.5500   -1.2484    0.5697 C   0  0  0  0  0  0  0  0  0  0  0  0
    2.5481   -2.1549    1.6565 C   0  0  0  0  0  0  0  0  0  0  0  0
    2.0648   -1.7204    2.9139 C   0  0  0  0  0  0  0  0  0  0  0  0
    1.6364   -0.4201    3.0991 C   0  0  0  0  0  0  0  0  0  0  0  0
    1.2005    0.0658    4.2695 O   0  0  0  0  0  0  0  0  0  0  0  0
    1.0260   -0.8081    5.3453 C   0  0  0  0  0  0  0  0  0  0  0  0
    1.6591    0.5169    2.0108 C   0  0  0  0  0  0  0  0  0  0  0  0
    1.2523    1.8433    2.2182 N   0  0  0  0  0  0  0  0  0  0  0  0
   -0.1276    2.2449    2.1081 C   0  0  0  0  0  0  0  0  0  0  0  0
   -0.3017    3.3989    1.6762 O   0  0  0  0  0  0  0  0  0  0  0  0
   -1.1302    1.3223    2.4536 C   0  0  0  0  0  3  0  0  0  0  0  0
   -2.5045    1.6164    2.1213 C   0  0  1  0  0  0  0  0  0  0  0  0
   -3.1422    0.8122    0.3824 S   0  0  0  0  0  0  0  0  0  0  0  0
   -1.7805   -0.3124   -0.0056 C   0  0  0  0  0  0  0  0  0  0  0  0
   -1.1209   -0.1636   -1.3916 C   0  0  2  0  0  0  0  0  0  0  0  0
   -1.8951   -0.1137   -2.1734 H   0  0  0  0  0  0  0  0  0  0  0  0
   -0.3532   -1.3513   -1.6736 N   0  0  0  0  0  0  0  0  0  0  0  0
   -0.3376   -1.9349   -2.9055 C   0  0  0  0  0  0  0  0  0  0  0  0
    0.5058   -3.1884   -3.0285 C   0  0  0  0  0  0  0  0  0  0  0  0
   -0.9897   -1.5096   -3.8404 O   0  0  0  0  0  0  0  0  0  0  0  0
   -0.2505    1.0968   -1.5647 C   0  0  0  0  0  0  0  0  0  0  0  0
   -0.8585    2.2561   -1.3130 N   0  0  0  0  0  0  0  0  0  0  0  0
   -0.1902    3.5364   -1.3853 C   0  0  0  0  0  0  0  0  0  0  0  0
    0.9221    1.0253   -1.9537 O   0  0  0  0  0  0  0  0  0  0  0  0
   -3.5554    1.1689    3.1302 C   0  0  0  0  0  0  0  0  0  0  0  0
   -4.9046    1.5850    2.7837 N   0  0  0  0  0  0  0  0  0  0  0  0
   -5.9662    0.6456    3.0698 C   0  0  0  0  0  0  0  0  0  0  0  0
   -6.3859    0.6333    4.5465 C   0  0  0  0  0  0  0  0  0  0  0  0
   -6.7664    2.0465    4.9956 C   0  0  0  0  0  0  0  0  0  0  0  0
   -5.6472    3.0386    4.6693 C   0  0  0  0  0  0  0  0  0  0  0  0
   -5.2462    2.9341    3.1898 C   0  0  0  0  0  0  0  0  0  0  0  0
    2.1174    0.0839    0.7853 C   0  0  0  0  0  0  0  0  0  0  0  0
    4.1855   -2.2997   -3.4857 C   0  0  0  0  0  0  0  0  0  0  0  0
    4.5129   -2.4940   -4.8265 C   0  0  0  0  0  0  0  0  0  0  0  0
    3.9387   -1.7268   -5.8325 C   0  0  0  0  0  0  0  0  0  0  0  0
    1.4332    1.3613   -8.1286 H   0  0  0  0  0  0  0  0  0  0  0  0
    1.9399    0.2337   -3.8730 H   0  0  0  0  0  0  0  0  0  0  0  0
    2.1941   -0.2396   -1.7655 H   0  0  0  0  0  0  0  0  0  0  0  0
    3.8941   -4.7650    0.2451 H   0  0  0  0  0  0  0  0  0  0  0  0
    2.0824   -2.4499    3.7222 H   0  0  0  0  0  0  0  0  0  0  0  0
    0.6005   -0.2150    6.1641 H   0  0  0  0  0  0  0  0  0  0  0  0
    1.9830   -1.2484    5.6787 H   0  0  0  0  0  0  0  0  0  0  0  0
    0.3291   -1.6270    5.0942 H   0  0  0  0  0  0  0  0  0  0  0  0
    1.7937    2.5140    1.6834 H   0  0  0  0  0  0  0  0  0  0  0  0
   -0.8783    0.3748    2.9318 H   0  0  0  0  0  0  0  0  0  0  0  0
   -2.6092    2.6845    1.8881 H   0  0  0  0  0  0  0  0  0  0  0  0
   -2.1438   -1.3478    0.0593 H   0  0  0  0  0  0  0  0  0  0  0  0
   -1.0227   -0.1541    0.7880 H   0  0  0  0  0  0  0  0  0  0  0  0
    0.2510   -1.7083   -0.9441 H   0  0  0  0  0  0  0  0  0  0  0  0
    1.1007   -3.1142   -3.9482 H   0  0  0  0  0  0  0  0  0  0  0  0
   -0.1713   -4.0491   -3.1351 H   0  0  0  0  0  0  0  0  0  0  0  0
    1.1827   -3.3649   -2.1815 H   0  0  0  0  0  0  0  0  0  0  0  0
   -1.7682    2.2006   -0.8434 H   0  0  0  0  0  0  0  0  0  0  0  0
   -0.8234    4.2569   -1.9254 H   0  0  0  0  0  0  0  0  0  0  0  0
    0.7514    3.4075   -1.9327 H   0  0  0  0  0  0  0  0  0  0  0  0
    0.0050    3.9015   -0.3647 H   0  0  0  0  0  0  0  0  0  0  0  0
   -3.2378    1.5561    4.1209 H   0  0  0  0  0  0  0  0  0  0  0  0
   -3.5297    0.0701    3.2072 H   0  0  0  0  0  0  0  0  0  0  0  0
   -5.6534   -0.3548    2.7347 H   0  0  0  0  0  0  0  0  0  0  0  0
   -6.8459    0.9190    2.4557 H   0  0  0  0  0  0  0  0  0  0  0  0
   -5.5448    0.2639    5.1598 H   0  0  0  0  0  0  0  0  0  0  0  0
   -7.2254   -0.0653    4.7012 H   0  0  0  0  0  0  0  0  0  0  0  0
   -7.0068    2.0669    6.0715 H   0  0  0  0  0  0  0  0  0  0  0  0
   -7.6861    2.3537    4.4630 H   0  0  0  0  0  0  0  0  0  0  0  0
   -4.7688    2.8208    5.3011 H   0  0  0  0  0  0  0  0  0  0  0  0
   -5.9570    4.0700    4.9057 H   0  0  0  0  0  0  0  0  0  0  0  0
   -4.3976    3.5994    2.9702 H   0  0  0  0  0  0  0  0  0  0  0  0
   -6.0900    3.2849    2.5656 H   0  0  0  0  0  0  0  0  0  0  0  0
    2.1150    0.8019   -0.0355 H   0  0  0  0  0  0  0  0  0  0  0  0
    4.6201   -2.9222   -2.7089 H   0  0  0  0  0  0  0  0  0  0  0  0
    5.2357   -3.2715   -5.0857 H   0  0  0  0  0  0  0  0  0  0  0  0
    4.1961   -1.8867   -6.8808 H   0  0  0  0  0  0  0  0  0  0  0  0
  1  2  3  0  0  0  0
  2  3  1  0  0  0  0
  3  4  1  0  0  0  0
  4 47  1  0  0  0  0
  4  5  2  0  0  0  0
  5  6  1  0  0  0  0
  6 48  1  0  0  0  0
  7  6  1  6  0  0  0
  7 11  1  0  0  0  0
  8  7  1  0  0  0  0
  8  9  2  0  0  0  0
  9 10  1  0  0  0  0
 10 12  1  0  0  0  0
 11 42  2  0  0  0  0
 11 12  1  0  0  0  0
 12 13  2  0  0  0  0
 13 14  1  0  0  0  0
 13 50  1  0  0  0  0
 14 15  1  0  0  0  0
 15 16  1  0  0  0  0
 16 52  1  0  0  0  0
 16 51  1  0  0  0  0
 17 18  1  0  0  0  0
 17 14  2  0  0  0  0
 19 18  1  0  0  0  0
 19 21  1  0  0  0  0
 20 19  2  0  0  0  0
 21 55  1  0  0  0  0
 22 56  1  6  0  0  0
 22 21  1  0  0  0  0
 22 35  1  0  0  0  0
 23 22  1  0  0  0  0
 24 57  1  0  0  0  0
 24 23  1  0  0  0  0
 24 58  1  0  0  0  0
 25 26  1  6  0  0  0
 25 24  1  0  0  0  0
 27 25  1  0  0  0  0
 27 59  1  0  0  0  0
 28 27  1  0  0  0  0
 29 28  1  0  0  0  0
 29 62  1  0  0  0  0
 30 28  2  0  0  0  0
 31 25  1  0  0  0  0
 31 32  1  0  0  0  0
 32 63  1  0  0  0  0
 33 32  1  0  0  0  0
 33 66  1  0  0  0  0
 34 31  2  0  0  0  0
 35 68  1  0  0  0  0
 35 67  1  0  0  0  0
 36 37  1  0  0  0  0
 36 35  1  0  0  0  0
 36 41  1  0  0  0  0
 37 38  1  0  0  0  0
 38 72  1  0  0  0  0
 38 39  1  0  0  0  0
 38 71  1  0  0  0  0
 39 73  1  0  0  0  0
 40 76  1  0  0  0  0
 40 39  1  0  0  0  0
 40 75  1  0  0  0  0
 41 40  1  0  0  0  0
 42 17  1  0  0  0  0
 43  5  1  0  0  0  0
 43 80  1  0  0  0  0
 44 43  2  0  0  0  0
 45  3  2  0  0  0  0
 45 44  1  0  0  0  0
 46  1  1  0  0  0  0
 49  9  1  0  0  0  0
 53 16  1  0  0  0  0
 54 18  1  0  0  0  0
 60 29  1  0  0  0  0
 61 29  1  0  0  0  0
 64 33  1  0  0  0  0
 65 33  1  0  0  0  0
 69 37  1  0  0  0  0
 70 37  1  0  0  0  0
 74 39  1  0  0  0  0
 77 41  1  0  0  0  0
 78 41  1  0  0  0  0
 79 42  1  0  0  0  0
 81 44  1  0  0  0  0
 82 45  1  0  0  0  0
M  END
