82
-1 1
C         1.897887    0.757285   -7.373141
C         2.403266    0.077531   -6.508128
C         3.010175   -0.731657   -5.485869
C         2.673033   -0.528625   -4.144555
C         3.254829   -1.310504   -3.132577
N         2.865573   -1.020143   -1.819694
C         2.993294   -1.781835   -0.695694
N         3.479705   -3.012306   -0.766532
C         3.475631   -3.756271    0.355823
N         3.019826   -3.431778    1.534587
C         2.550038   -1.248403    0.569716
C         2.548089   -2.154894    1.656527
C         2.064845   -1.720368    2.913913
C         1.636403   -0.420125    3.099068
O         1.200549    0.065818    4.269539
C         1.026013   -0.808099    5.345257
C         1.659120    0.516899    2.010788
N         1.252283    1.843275    2.218169
C        -0.127630    2.244861    2.108108
O        -0.301735    3.398902    1.676230
C        -1.130172    1.322340    2.453634
C        -2.504523    1.616412    2.121253
S        -3.142166    0.812234    0.382370
C        -1.780549   -0.312370   -0.005625
C        -1.120868   -0.163623   -1.391631
H        -1.895081   -0.113690   -2.173367
N        -0.353235   -1.351335   -1.673630
C        -0.337597   -1.934882   -2.905485
C         0.505780   -3.188385   -3.028462
O        -0.989651   -1.509628   -3.840443
C        -0.250542    1.096821   -1.564735
N        -0.858532    2.256080   -1.312951
C        -0.190167    3.536429   -1.385296
O         0.922108    1.025266   -1.953726
C        -3.555440    1.168906    3.130160
N        -4.904631    1.585009    2.783681
C        -5.966211    0.645569    3.069786
C        -6.385899    0.633311    4.546520
C        -6.766445    2.046506    4.995562
C        -5.647195    3.038590    4.669283
C        -5.246228    2.934114    3.189825
C         2.117379    0.083915    0.785308
C         4.185456   -2.299651   -3.485668
C         4.512858   -2.494034   -4.826521
C         3.938683   -1.726810   -5.832537
H         1.433179    1.361281   -8.128623
H         1.939907    0.233715   -3.872989
H         2.194100   -0.239598   -1.765459
H         3.894134   -4.765002    0.245090
H         2.082423   -2.449900    3.722175
H         0.600547   -0.215034    6.164074
H         1.982967   -1.248387    5.678661
H         0.329110   -1.626995    5.094165
H         1.793697    2.513983    1.683403
H        -0.878285    0.374808    2.931806
H        -2.609154    2.684465    1.888133
H        -2.143806   -1.347758    0.059326
H        -1.022707   -0.154108    0.788007
H         0.251007   -1.708344   -0.944093
H         1.100659   -3.114217   -3.948231
H        -0.171321   -4.049126   -3.135119
H         1.182695   -3.364888   -2.181485
H        -1.768167    2.200590   -0.843425
H        -0.823416    4.256893   -1.925391
H         0.751444    3.407522   -1.932668
H         0.004977    3.901499   -0.364659
H        -3.237817    1.556091    4.120932
H        -3.529695    0.070122    3.207223
H        -5.653366   -0.354783    2.734720
H        -6.845925    0.919036    2.455732
H        -5.544771    0.263934    5.159799
H        -7.225376   -0.065331    4.701155
H        -7.006755    2.066946    6.071483
H        -7.686140    2.353666    4.463009
H        -4.768758    2.820820    5.301109
H        -5.956989    4.070031    4.905733
H        -4.397644    3.599402    2.970160
H        -6.089951    3.284871    2.565645
H         2.114980    0.801887   -0.035491
H         4.620108   -2.922186   -2.708883
H         5.235729   -3.271477   -5.085704
H         4.196072   -1.886692   -6.880832
