82
-1 1
C         1.414784    0.118867   -7.347933
C         1.967050   -0.470895   -6.446532
C         2.627687   -1.170300   -5.378198
C         2.339899   -0.844934   -4.050260
C         2.977921   -1.515452   -2.995965
N         2.645906   -1.091407   -1.699539
C         2.819491   -1.734261   -0.520668
N         3.309154   -2.966682   -0.474930
C         3.299217   -3.601473    0.708759
N         2.854651   -3.168042    1.860101
C         2.435245   -1.071608    0.706035
C         2.432226   -1.869969    1.874396
C         2.003876   -1.302645    3.100699
C         1.663753    0.033979    3.176504
O         1.257045    0.656853    4.293423
C         1.046120   -0.099315    5.453690
C         1.740554    0.858913    2.009212
N         1.489157    2.246405    2.109290
C         0.281161    2.881143    2.286058
O         0.239638    4.097090    2.370801
C        -0.919171    2.011601    2.312963
C        -2.146646    2.542089    2.332721
S        -3.768875    1.454344   -1.311437
C        -2.575491    0.140066   -0.875959
C        -1.286467    0.060699   -1.719939
H        -1.566003   -0.008777   -2.784140
N        -0.575938   -1.164242   -1.414116
C        -0.402608   -2.171868   -2.314014
C         0.215152   -3.440149   -1.758343
O        -0.709138   -2.076317   -3.487091
C        -0.318486    1.249391   -1.607595
N        -0.860072    2.421773   -1.294999
C        -0.112401    3.648459   -1.190137
O         0.898316    1.101225   -1.820833
C        -3.412044    1.762584    2.218542
N        -4.494428    2.335242    2.993594
C        -5.821685    1.993679    2.509320
C        -6.260205    0.573906    2.891101
C        -6.148209    0.365642    4.403478
C        -4.750019    0.740951    4.901281
C        -4.373699    2.152896    4.428358
C         2.105100    0.299552    0.808562
C         3.908703   -2.523290   -3.286590
C         4.186660   -2.842019   -4.615183
C         3.560450   -2.180519   -5.663789
H         0.905591    0.642661   -8.134076
H         1.608400   -0.067842   -3.821559
H         1.995962   -0.284713   -1.691163
H         3.701706   -4.622553    0.690009
H         1.993727   -1.960527    3.968438
H         0.660850    0.592858    6.211902
H         1.982808   -0.553427    5.821090
H         0.305234   -0.899465    5.284680
H         2.273217    2.883047    2.022235
H        -0.788881    0.927036    2.261790
H        -2.242508    3.633174    2.368699
H        -3.057913   -0.843173   -0.985448
H        -2.274014    0.223219    0.187376
H        -0.329084   -1.329871   -0.446667
H         1.210488   -3.577034   -2.204921
H        -0.409139   -4.289571   -2.067221
H         0.320560   -3.441833   -0.664041
H        -1.903139    2.439393   -1.216667
H        -0.472559    4.383463   -1.927617
H         0.947187    3.441934   -1.386213
H        -0.215510    4.084517   -0.184456
H        -3.211725    0.691694    2.442240
H        -3.699661    1.796536    1.143333
H        -5.839458    2.121159    1.416711
H        -6.540547    2.717268    2.939764
H        -5.622305   -0.155002    2.362421
H        -7.291478    0.393170    2.546855
H        -6.394185   -0.673513    4.677608
H        -6.892609    1.008040    4.910825
H        -4.015050    0.015017    4.512099
H        -4.695705    0.684254    6.001397
H        -3.344421    2.402366    4.733469
H        -5.038366    2.882880    4.928469
H         2.116217    0.944739   -0.070374
H         4.388441   -3.058732   -2.472062
H         4.911536   -3.631137   -4.829091
H         3.779240   -2.436737   -6.701687
