-1 1
 OpenBabel05232414493D

 82 84  0  0  1  0  0  0  0  0999 V2000
   13.0123    5.4619   -4.1262 C   0  0  0  0  0  0  0  0  0  0  0  0
   13.5064    4.7949   -3.2450 C   0  0  0  0  0  0  0  0  0  0  0  0
   14.1015    4.0004   -2.2045 C   0  0  0  0  0  0  0  0  0  0  0  0
   13.7859    4.2539   -0.8667 C   0  0  0  0  0  0  0  0  0  0  0  0
   14.3579    3.4867    0.1617 C   0  0  0  0  0  0  0  0  0  0  0  0
   13.9918    3.8297    1.4700 N   0  0  0  0  0  0  0  0  0  0  0  0
   14.1179    3.1063    2.6162 C   0  0  2  0  0  3  0  0  0  0  0  0
   14.5902    1.8681    2.5872 N   0  0  0  0  0  0  0  0  0  0  0  0
   14.5877    1.1653    3.7351 C   0  0  0  0  0  0  0  0  0  0  0  0
   14.1509    1.5367    4.9077 N   0  0  0  0  0  2  0  0  0  0  0  0
   13.6946    3.6880    3.8687 C   0  0  0  0  0  0  0  0  0  0  0  0
   13.6981    2.8233    4.9886 C   0  0  0  0  0  0  0  0  0  0  0  0
   13.2432    3.3114    6.2373 C   0  0  0  0  0  0  0  0  0  0  0  0
   12.8374    4.6240    6.3816 C   0  0  0  0  0  0  0  0  0  0  0  0
   12.4334    5.1635    7.5406 O   0  0  0  0  0  0  0  0  0  0  0  0
   12.2776    4.3374    8.6575 C   0  0  0  0  0  0  0  0  0  0  0  0
   12.8504    5.5138    5.2563 C   0  0  0  0  0  0  0  0  0  0  0  0
   12.4840    6.8610    5.4127 N   0  0  0  0  0  0  0  0  0  0  0  0
   11.1464    7.3409    5.4138 C   0  0  0  0  0  0  0  0  0  0  0  0
   10.9912    8.5085    5.0449 O   0  0  0  0  0  0  0  0  0  0  0  0
   10.0994    6.4531    5.8147 C   0  0  0  0  0  3  0  0  0  0  0  0
    8.7683    6.8130    5.5880 C   0  0  0  0  0  3  0  0  0  0  0  0
    8.0264    6.0932    3.5229 S   0  0  0  0  0  1  0  0  0  0  0  0
    9.3271    4.8744    3.2351 C   0  0  0  0  0  0  0  0  0  0  0  0
   10.0684    4.9320    1.8827 C   0  0  2  0  0  0  0  0  0  0  0  0
    9.3369    5.0031    1.0624 H   0  0  0  0  0  0  0  0  0  0  0  0
   10.7787    3.6926    1.6755 N   0  0  0  0  0  0  0  0  0  0  0  0
   10.7999    3.0495    0.4747 C   0  0  0  0  0  0  0  0  0  0  0  0
   11.5368    1.7243    0.4524 C   0  0  0  0  0  0  0  0  0  0  0  0
   10.2344    3.4800   -0.5126 O   0  0  0  0  0  0  0  0  0  0  0  0
   11.0173    6.1328    1.7162 C   0  0  0  0  0  0  0  0  0  0  0  0
   10.4974    7.3222    2.0155 N   0  0  0  0  0  0  0  0  0  0  0  0
   11.2350    8.5608    1.9296 C   0  0  0  0  0  0  0  0  0  0  0  0
   12.1770    5.9911    1.3012 O   0  0  0  0  0  0  0  0  0  0  0  0
    7.6704    6.2003    6.4338 C   0  0  0  0  0  0  0  0  0  0  0  0
    6.3472    6.7215    6.1443 N   0  0  0  0  0  0  0  0  0  0  0  0
    5.2810    5.7552    6.0028 C   0  0  0  0  0  0  0  0  0  0  0  0
    4.7313    5.2645    7.3496 C   0  0  0  0  0  0  0  0  0  0  0  0
    4.2933    6.4564    8.2054 C   0  0  0  0  0  0  0  0  0  0  0  0
    5.4224    7.4832    8.3275 C   0  0  0  0  0  0  0  0  0  0  0  0
    5.9536    7.8665    6.9373 C   0  0  0  0  0  0  0  0  0  0  0  0
   13.2819    5.0315    4.0407 C   0  0  0  0  0  0  0  0  0  0  0  0
   15.2552    2.4605   -0.1700 C   0  0  0  0  0  0  0  0  0  0  0  0
   15.5613    2.2160   -1.5079 C   0  0  0  0  0  0  0  0  0  0  0  0
   14.9976    2.9691   -2.5302 C   0  0  0  0  0  0  0  0  0  0  0  0
   12.5561    6.0554   -4.8951 H   0  0  0  0  0  0  0  0  0  0  0  0
   13.0774    5.0444   -0.6105 H   0  0  0  0  0  0  0  0  0  0  0  0
   13.3497    4.6371    1.5046 H   0  0  0  0  0  0  0  0  0  0  0  0
   14.9914    0.1476    3.6559 H   0  0  0  0  0  0  0  0  0  0  0  0
   13.2661    2.6125    7.0720 H   0  0  0  0  0  0  0  0  0  0  0  0
   11.8815    4.9701    9.4611 H   0  0  0  0  0  0  0  0  0  0  0  0
   13.2383    3.8999    8.9828 H   0  0  0  0  0  0  0  0  0  0  0  0
   11.5647    3.5180    8.4595 H   0  0  0  0  0  0  0  0  0  0  0  0
   13.0605    7.5131    4.8924 H   0  0  0  0  0  0  0  0  0  0  0  0
   10.3402    5.4809    6.2470 H   0  0  0  0  0  0  0  0  0  0  0  0
    8.6153    7.8682    5.3426 H   0  0  0  0  0  0  0  0  0  0  0  0
    8.9042    3.8617    3.3090 H   0  0  0  0  0  0  0  0  0  0  0  0
   10.0680    4.9927    4.0557 H   0  0  0  0  0  0  0  0  0  0  0  0
   11.2939    3.3072    2.4569 H   0  0  0  0  0  0  0  0  0  0  0  0
   12.1675    1.6951   -0.4456 H   0  0  0  0  0  0  0  0  0  0  0  0
   10.7926    0.9183    0.3666 H   0  0  0  0  0  0  0  0  0  0  0  0
   12.1658    1.5405    1.3341 H   0  0  0  0  0  0  0  0  0  0  0  0
    9.5734    7.3164    2.4739 H   0  0  0  0  0  0  0  0  0  0  0  0
   10.6812    9.2902    1.3178 H   0  0  0  0  0  0  0  0  0  0  0  0
   12.2026    8.3602    1.4534 H   0  0  0  0  0  0  0  0  0  0  0  0
   11.3841    8.9695    2.9408 H   0  0  0  0  0  0  0  0  0  0  0  0
    7.9456    6.3727    7.4965 H   0  0  0  0  0  0  0  0  0  0  0  0
    7.6781    5.1076    6.2990 H   0  0  0  0  0  0  0  0  0  0  0  0
    5.6426    4.9241    5.3800 H   0  0  0  0  0  0  0  0  0  0  0  0
    4.4566    6.2292    5.4361 H   0  0  0  0  0  0  0  0  0  0  0  0
    5.5193    4.6992    7.8789 H   0  0  0  0  0  0  0  0  0  0  0  0
    3.8907    4.5682    7.1914 H   0  0  0  0  0  0  0  0  0  0  0  0
    3.9573    6.1245    9.2019 H   0  0  0  0  0  0  0  0  0  0  0  0
    3.4210    6.9379    7.7249 H   0  0  0  0  0  0  0  0  0  0  0  0
    6.2453    7.0527    8.9250 H   0  0  0  0  0  0  0  0  0  0  0  0
    5.0781    8.3820    8.8661 H   0  0  0  0  0  0  0  0  0  0  0  0
    6.8084    8.5554    7.0218 H   0  0  0  0  0  0  0  0  0  0  0  0
    5.1619    8.4164    6.3935 H   0  0  0  0  0  0  0  0  0  0  0  0
   13.2816    5.7201    3.1955 H   0  0  0  0  0  0  0  0  0  0  0  0
   15.6809    1.8502    0.6212 H   0  0  0  0  0  0  0  0  0  0  0  0
   16.2584    1.4104   -1.7510 H   0  0  0  0  0  0  0  0  0  0  0  0
   15.2381    2.7702   -3.5758 H   0  0  0  0  0  0  0  0  0  0  0  0
  1  2  3  0  0  0  0
  2  3  1  0  0  0  0
  3  4  1  0  0  0  0
  4 47  1  0  0  0  0
  4  5  2  0  0  0  0
  5  6  1  0  0  0  0
  6 48  1  0  0  0  0
  7  6  1  6  0  0  0
  7 11  1  0  0  0  0
  8  7  1  0  0  0  0
  8  9  2  0  0  0  0
  9 10  1  0  0  0  0
 10 12  1  0  0  0  0
 11 42  2  0  0  0  0
 11 12  1  0  0  0  0
 12 13  2  0  0  0  0
 13 14  1  0  0  0  0
 13 50  1  0  0  0  0
 14 15  1  0  0  0  0
 15 16  1  0  0  0  0
 16 52  1  0  0  0  0
 16 51  1  0  0  0  0
 17 18  1  0  0  0  0
 17 14  2  0  0  0  0
 18 19  1  0  0  0  0
 19 21  1  0  0  0  0
 20 19  2  0  0  0  0
 21 55  1  0  0  0  0
 22 21  1  0  0  0  0
 22 35  1  0  0  0  0
 24 57  1  0  0  0  0
 24 23  1  0  0  0  0
 24 58  1  0  0  0  0
 25 26  1  6  0  0  0
 25 24  1  0  0  0  0
 27 25  1  0  0  0  0
 27 59  1  0  0  0  0
 28 27  1  0  0  0  0
 29 28  1  0  0  0  0
 29 62  1  0  0  0  0
 30 28  2  0  0  0  0
 31 25  1  0  0  0  0
 31 32  1  0  0  0  0
 32 63  1  0  0  0  0
 33 32  1  0  0  0  0
 33 66  1  0  0  0  0
 34 31  2  0  0  0  0
 35 67  1  0  0  0  0
 36 35  1  0  0  0  0
 36 41  1  0  0  0  0
 37 36  1  0  0  0  0
 37 38  1  0  0  0  0
 38 71  1  0  0  0  0
 38 39  1  0  0  0  0
 39 40  1  0  0  0  0
 39 73  1  0  0  0  0
 40 76  1  0  0  0  0
 40 75  1  0  0  0  0
 41 77  1  0  0  0  0
 41 40  1  0  0  0  0
 42 17  1  0  0  0  0
 43  5  1  0  0  0  0
 43 80  1  0  0  0  0
 44 43  2  0  0  0  0
 45  3  2  0  0  0  0
 45 44  1  0  0  0  0
 46  1  1  0  0  0  0
 49  9  1  0  0  0  0
 53 16  1  0  0  0  0
 54 18  1  0  0  0  0
 56 22  1  0  0  0  0
 60 29  1  0  0  0  0
 61 29  1  0  0  0  0
 64 33  1  0  0  0  0
 65 33  1  0  0  0  0
 68 35  1  0  0  0  0
 69 37  1  0  0  0  0
 70 37  1  0  0  0  0
 72 38  1  0  0  0  0
 74 39  1  0  0  0  0
 78 41  1  0  0  0  0
 79 42  1  0  0  0  0
 81 44  1  0  0  0  0
 82 45  1  0  0  0  0
M  END
