-1 1
 OpenBabel05232414493D

 79 81  0  0  1  0  0  0  0  0999 V2000
    5.2812    1.5713    2.8884 C   0  0  0  0  0  0  0  0  0  0  0  0
    6.3665    1.2452    3.3156 C   0  0  0  0  0  0  0  0  0  0  0  0
    7.6594    0.8836    3.8319 C   0  0  0  0  0  0  0  0  0  0  0  0
    8.4737    1.8741    4.3872 C   0  0  0  0  0  0  0  0  0  0  0  0
    9.7432    1.5630    4.9055 C   0  0  0  0  0  0  0  0  0  0  0  0
   10.4577    2.6230    5.4664 N   0  0  0  0  0  0  0  0  0  0  0  0
   11.7667    2.6934    5.8566 C   0  0  1  0  0  3  0  0  0  0  0  0
   12.5907    1.6815    5.6458 N   0  0  0  0  0  0  0  0  0  0  0  0
   13.8907    1.8562    5.9521 C   0  0  0  0  0  0  0  0  0  0  0  0
   14.4628    2.9318    6.4208 N   0  0  0  0  0  2  0  0  0  0  0  0
   12.2343    3.9091    6.4784 C   0  0  0  0  0  0  0  0  0  0  0  0
   13.6273    3.9746    6.6971 C   0  0  0  0  0  0  0  0  0  0  0  0
   14.1664    5.1640    7.2518 C   0  0  0  0  0  0  0  0  0  0  0  0
   13.3471    6.2126    7.5902 C   0  0  0  0  0  0  0  0  0  0  0  0
   13.7862    7.3719    8.1310 O   0  0  0  0  0  0  0  0  0  0  0  0
   15.1542    7.5388    8.3666 C   0  0  0  0  0  0  0  0  0  0  0  0
   11.9107    6.1459    7.4229 C   0  0  0  0  0  0  0  0  0  0  0  0
   11.2155    7.2446    7.8616 N   0  0  0  0  0  0  0  0  0  0  0  0
    9.8585    7.6935    7.8324 C   0  0  0  0  0  0  0  0  0  0  0  0
    9.6444    8.6999    8.5042 O   0  0  0  0  0  0  0  0  0  0  0  0
    8.9020    6.9921    7.0391 C   0  0  0  0  0  3  0  0  0  0  0  0
    7.5814    7.4376    6.9323 C   0  0  0  0  0  3  0  0  0  0  0  0
    7.4639    9.0982    5.2857 S   0  0  0  0  0  1  0  0  0  0  0  0
    8.8268    8.4186    4.3205 C   0  0  0  0  0  0  0  0  0  0  0  0
    8.4029    7.3736    3.2617 C   0  0  2  0  0  0  0  0  0  0  0  0
    7.6392    6.7267    3.7184 H   0  0  0  0  0  0  0  0  0  0  0  0
    9.5053    6.5425    2.8315 N   0  0  0  0  0  0  0  0  0  0  0  0
    9.8437    5.3988    3.4398 C   0  0  0  0  0  0  0  0  0  0  0  0
   11.0242    4.6490    2.8680 C   0  0  0  0  0  0  0  0  0  0  0  0
    9.2481    4.9777    4.4351 O   0  0  0  0  0  0  0  0  0  0  0  0
    7.8234    8.0197    1.9993 C   0  0  0  0  0  0  0  0  0  0  0  0
    6.7001    8.7346    2.2099 N   0  0  0  0  0  0  0  0  0  0  0  0
    6.0827    9.5229    1.1765 C   0  0  0  0  0  0  0  0  0  0  0  0
    8.3626    7.8838    0.9073 O   0  0  0  0  0  0  0  0  0  0  0  0
    6.5691    6.3817    6.5064 C   0  0  0  0  0  0  0  0  0  0  0  0
    5.1977    6.7318    6.1969 N   0  0  0  0  0  0  0  0  0  0  0  0
    4.8328    6.9798    4.8428 C   0  0  0  0  0  0  0  0  0  0  0  0
    4.9659    5.8727    3.8424 C   0  0  0  0  0  0  0  0  0  0  0  0
    3.5976    6.3014    4.3066 C   0  0  0  0  0  0  0  0  0  0  0  0
    4.5461    7.5952    7.1461 C   0  0  0  0  0  0  0  0  0  0  0  0
   11.3946    4.9807    6.8777 C   0  0  0  0  0  0  0  0  0  0  0  0
   10.1873    0.2318    4.8513 C   0  0  0  0  0  0  0  0  0  0  0  0
    9.3653   -0.7488    4.2969 C   0  0  0  0  0  0  0  0  0  0  0  0
    8.1086   -0.4461    3.7860 C   0  0  0  0  0  0  0  0  0  0  0  0
    4.3219    1.8761    2.5156 H   0  0  0  0  0  0  0  0  0  0  0  0
    8.1251    2.9080    4.4156 H   0  0  0  0  0  0  0  0  0  0  0  0
    9.9916    3.5296    5.3376 H   0  0  0  0  0  0  0  0  0  0  0  0
   14.5362    0.9892    5.7622 H   0  0  0  0  0  0  0  0  0  0  0  0
   15.2445    5.1936    7.4018 H   0  0  0  0  0  0  0  0  0  0  0  0
   15.2800    8.5390    8.7992 H   0  0  0  0  0  0  0  0  0  0  0  0
   15.7380    7.4737    7.4318 H   0  0  0  0  0  0  0  0  0  0  0  0
   15.5398    6.7863    9.0766 H   0  0  0  0  0  0  0  0  0  0  0  0
   11.7817    7.9241    8.3561 H   0  0  0  0  0  0  0  0  0  0  0  0
    9.2047    6.1740    6.3941 H   0  0  0  0  0  0  0  0  0  0  0  0
    7.2575    8.1484    7.6974 H   0  0  0  0  0  0  0  0  0  0  0  0
    9.4979    7.9082    5.0367 H   0  0  0  0  0  0  0  0  0  0  0  0
    9.4076    9.2240    3.8433 H   0  0  0  0  0  0  0  0  0  0  0  0
    9.8811    6.7788    1.9174 H   0  0  0  0  0  0  0  0  0  0  0  0
   10.7533    3.5917    2.7407 H   0  0  0  0  0  0  0  0  0  0  0  0
   11.8464    4.6938    3.5988 H   0  0  0  0  0  0  0  0  0  0  0  0
   11.3743    5.0598    1.9118 H   0  0  0  0  0  0  0  0  0  0  0  0
    6.4891    8.9323    3.1982 H   0  0  0  0  0  0  0  0  0  0  0  0
    6.4322    9.1584    0.2019 H   0  0  0  0  0  0  0  0  0  0  0  0
    6.3444   10.5914    1.2616 H   0  0  0  0  0  0  0  0  0  0  0  0
    4.9871    9.4300    1.2243 H   0  0  0  0  0  0  0  0  0  0  0  0
    6.5411    5.6742    7.3598 H   0  0  0  0  0  0  0  0  0  0  0  0
    6.9872    5.8106    5.6645 H   0  0  0  0  0  0  0  0  0  0  0  0
    5.0241    7.9905    4.4565 H   0  0  0  0  0  0  0  0  0  0  0  0
    5.3397    4.9099    4.2002 H   0  0  0  0  0  0  0  0  0  0  0  0
    5.2870    6.1431    2.8332 H   0  0  0  0  0  0  0  0  0  0  0  0
    3.0763    5.6297    4.9935 H   0  0  0  0  0  0  0  0  0  0  0  0
    2.9555    6.8532    3.6144 H   0  0  0  0  0  0  0  0  0  0  0  0
    4.8757    8.6543    7.0858 H   0  0  0  0  0  0  0  0  0  0  0  0
    4.7440    7.2434    8.1720 H   0  0  0  0  0  0  0  0  0  0  0  0
    3.4554    7.5729    6.9848 H   0  0  0  0  0  0  0  0  0  0  0  0
   10.3185    4.8723    6.7986 H   0  0  0  0  0  0  0  0  0  0  0  0
   11.1772   -0.0091    5.2295 H   0  0  0  0  0  0  0  0  0  0  0  0
    9.7261   -1.7799    4.2640 H   0  0  0  0  0  0  0  0  0  0  0  0
    7.4732   -1.2204    3.3531 H   0  0  0  0  0  0  0  0  0  0  0  0
  1  2  3  0  0  0  0
  2  3  1  0  0  0  0
  3  4  1  0  0  0  0
  4 46  1  0  0  0  0
  4  5  2  0  0  0  0
  5  6  1  0  0  0  0
  7  6  1  6  0  0  0
  7 11  1  0  0  0  0
  8  7  1  0  0  0  0
  8  9  2  0  0  0  0
  9 10  1  0  0  0  0
 10 12  1  0  0  0  0
 11 12  2  0  0  0  0
 11 41  1  0  0  0  0
 12 13  1  0  0  0  0
 13 49  1  0  0  0  0
 13 14  2  0  0  0  0
 14 15  1  0  0  0  0
 15 16  1  0  0  0  0
 16 50  1  0  0  0  0
 16 52  1  0  0  0  0
 17 14  1  0  0  0  0
 17 18  1  0  0  0  0
 18 53  1  0  0  0  0
 19 18  1  0  0  0  0
 19 20  2  0  0  0  0
 21 19  1  0  0  0  0
 22 21  1  0  0  0  0
 22 55  1  0  0  0  0
 24 56  1  0  0  0  0
 24 23  1  0  0  0  0
 25 26  1  1  0  0  0
 25 24  1  0  0  0  0
 27 25  1  0  0  0  0
 27 28  1  0  0  0  0
 28 30  2  0  0  0  0
 29 28  1  0  0  0  0
 29 60  1  0  0  0  0
 31 32  1  0  0  0  0
 31 25  1  0  0  0  0
 32 62  1  0  0  0  0
 33 65  1  0  0  0  0
 33 64  1  0  0  0  0
 33 32  1  0  0  0  0
 34 31  2  0  0  0  0
 35 22  1  0  0  0  0
 35 66  1  0  0  0  0
 36 35  1  0  0  0  0
 36 40  1  0  0  0  0
 37 36  1  0  0  0  0
 38 69  1  0  0  0  0
 38 39  1  0  0  0  0
 38 37  1  0  0  0  0
 39 37  1  0  0  0  0
 39 71  1  0  0  0  0
 40 74  1  0  0  0  0
 41 17  2  0  0  0  0
 42  5  1  0  0  0  0
 42 77  1  0  0  0  0
 43 42  2  0  0  0  0
 44  3  2  0  0  0  0
 44 43  1  0  0  0  0
 45  1  1  0  0  0  0
 47  6  1  0  0  0  0
 48  9  1  0  0  0  0
 51 16  1  0  0  0  0
 54 21  1  0  0  0  0
 57 24  1  0  0  0  0
 58 27  1  0  0  0  0
 59 29  1  0  0  0  0
 61 29  1  0  0  0  0
 63 33  1  0  0  0  0
 67 35  1  0  0  0  0
 68 37  1  0  0  0  0
 70 38  1  0  0  0  0
 72 39  1  0  0  0  0
 73 40  1  0  0  0  0
 75 40  1  0  0  0  0
 76 41  1  0  0  0  0
 78 43  1  0  0  0  0
 79 44  1  0  0  0  0
M  END
