-1 1
 OpenBabel05232413483D

 79 81  0  0  1  0  0  0  0  0999 V2000
   -3.9538   -5.8373   -0.6855 C   0  0  0  0  0  0  0  0  0  0  0  0
   -2.7537   -5.7131   -0.5807 C   0  0  0  0  0  0  0  0  0  0  0  0
   -1.3285   -5.5616   -0.4604 C   0  0  0  0  0  0  0  0  0  0  0  0
   -0.7890   -4.3161   -0.1270 C   0  0  0  0  0  0  0  0  0  0  0  0
    0.5999   -4.1344   -0.0139 C   0  0  0  0  0  0  0  0  0  0  0  0
    1.0342   -2.8666    0.3575 N   0  0  0  0  0  0  0  0  0  0  0  0
    2.2901   -2.3124    0.2691 C   0  0  1  0  0  3  0  0  0  0  0  0
    3.2550   -2.9213   -0.3947 N   0  0  0  0  0  0  0  0  0  0  0  0
    4.4211   -2.2574   -0.5334 C   0  0  0  0  0  0  0  0  0  0  0  0
    4.7156   -1.0595   -0.1083 N   0  0  0  0  0  2  0  0  0  0  0  0
    2.5069   -1.0398    0.8953 C   0  0  0  0  0  0  0  0  0  0  0  0
    3.7550   -0.4297    0.6296 C   0  0  0  0  0  0  0  0  0  0  0  0
    4.0269    0.8464    1.1793 C   0  0  0  0  0  0  0  0  0  0  0  0
    3.1109    1.4627    2.0006 C   0  0  0  0  0  0  0  0  0  0  0  0
    3.3113    2.6319    2.6250 O   0  0  0  0  0  0  0  0  0  0  0  0
    4.2234    3.5454    2.0630 C   0  0  0  0  0  0  0  0  0  0  0  0
    1.8539    0.8341    2.2980 C   0  0  0  0  0  0  0  0  0  0  0  0
    1.0080    1.5175    3.1662 N   0  0  0  0  0  0  0  0  0  0  0  0
   -0.3685    1.6352    3.1795 C   0  0  0  0  0  0  0  0  0  0  0  0
   -0.9067    2.2323    4.0937 O   0  0  0  0  0  0  0  0  0  0  0  0
   -1.1296    1.0378    2.0479 C   0  0  0  0  0  0  0  0  0  0  0  0
   -2.4423    0.8202    2.1660 C   0  0  0  0  0  0  0  0  0  0  0  0
    1.2113    3.4798   -0.0555 S   0  0  0  0  0  1  0  0  0  0  0  0
    1.2111    1.9985   -1.1243 C   0  0  0  0  0  0  0  0  0  0  0  0
   -0.1384    1.7164   -1.8232 C   0  0  2  0  0  0  0  0  0  0  0  0
   -0.9295    1.7676   -1.0575 H   0  0  0  0  0  0  0  0  0  0  0  0
   -0.1669    0.4151   -2.4593 N   0  0  0  0  0  0  0  0  0  0  0  0
   -0.3762   -0.7447   -1.8348 C   0  0  0  0  0  0  0  0  0  0  0  0
   -0.2863   -1.9857   -2.6956 C   0  0  0  0  0  0  0  0  0  0  0  0
   -0.5985   -0.8276   -0.6204 O   0  0  0  0  0  0  0  0  0  0  0  0
   -0.4523    2.7189   -2.9437 C   0  0  0  0  0  0  0  0  0  0  0  0
   -0.5401    3.9985   -2.5455 N   0  0  0  0  0  0  0  0  0  0  0  0
   -0.6916    5.0640   -3.5004 C   0  0  0  0  0  0  0  0  0  0  0  0
   -0.6079    2.3441   -4.1040 O   0  0  0  0  0  0  0  0  0  0  0  0
   -3.3129    0.2834    1.0604 C   0  0  0  0  0  0  0  0  0  0  0  0
   -4.4399    1.1369    0.7018 N   0  0  0  0  0  0  0  0  0  0  0  0
   -4.0512    2.4060    0.1658 C   0  0  0  0  0  0  0  0  0  0  0  0
   -3.6040    2.4682   -1.2634 C   0  0  0  0  0  0  0  0  0  0  0  0
   -4.9477    3.0217   -0.8717 C   0  0  0  0  0  0  0  0  0  0  0  0
   -5.4624    1.2418    1.7166 C   0  0  0  0  0  0  0  0  0  0  0  0
    1.5833   -0.4048    1.7643 C   0  0  0  0  0  0  0  0  0  0  0  0
    1.4453   -5.2322   -0.2428 C   0  0  0  0  0  0  0  0  0  0  0  0
    0.8977   -6.4716   -0.5679 C   0  0  0  0  0  0  0  0  0  0  0  0
   -0.4757   -6.6552   -0.6818 C   0  0  0  0  0  0  0  0  0  0  0  0
   -5.0184   -5.9387   -0.7767 H   0  0  0  0  0  0  0  0  0  0  0  0
   -1.4523   -3.4637    0.0367 H   0  0  0  0  0  0  0  0  0  0  0  0
    0.2922   -2.1574    0.3439 H   0  0  0  0  0  0  0  0  0  0  0  0
    5.1995   -2.7941   -1.0904 H   0  0  0  0  0  0  0  0  0  0  0  0
    4.9848    1.3039    0.9382 H   0  0  0  0  0  0  0  0  0  0  0  0
    4.1112    4.4805    2.6251 H   0  0  0  0  0  0  0  0  0  0  0  0
    3.9625    3.7233    1.0068 H   0  0  0  0  0  0  0  0  0  0  0  0
    5.2646    3.1906    2.1612 H   0  0  0  0  0  0  0  0  0  0  0  0
    1.4640    2.2187    3.7401 H   0  0  0  0  0  0  0  0  0  0  0  0
   -0.6122    0.8113    1.1124 H   0  0  0  0  0  0  0  0  0  0  0  0
   -2.9150    1.0761    3.1223 H   0  0  0  0  0  0  0  0  0  0  0  0
    1.4320    1.1055   -0.5197 H   0  0  0  0  0  0  0  0  0  0  0  0
    1.9944    2.0582   -1.9002 H   0  0  0  0  0  0  0  0  0  0  0  0
   -0.1395    0.4669   -3.4759 H   0  0  0  0  0  0  0  0  0  0  0  0
   -1.1215   -2.6579   -2.4591 H   0  0  0  0  0  0  0  0  0  0  0  0
    0.6444   -2.5178   -2.4443 H   0  0  0  0  0  0  0  0  0  0  0  0
   -0.2838   -1.7609   -3.7704 H   0  0  0  0  0  0  0  0  0  0  0  0
   -0.1111    4.1881   -1.6118 H   0  0  0  0  0  0  0  0  0  0  0  0
   -1.3987    4.7613   -4.2853 H   0  0  0  0  0  0  0  0  0  0  0  0
    0.2623    5.3277   -3.9904 H   0  0  0  0  0  0  0  0  0  0  0  0
   -1.0784    5.9581   -2.9918 H   0  0  0  0  0  0  0  0  0  0  0  0
   -3.7217   -0.6978    1.3631 H   0  0  0  0  0  0  0  0  0  0  0  0
   -2.6941    0.1068    0.1685 H   0  0  0  0  0  0  0  0  0  0  0  0
   -3.5458    3.1020    0.8558 H   0  0  0  0  0  0  0  0  0  0  0  0
   -3.5869    1.5272   -1.8191 H   0  0  0  0  0  0  0  0  0  0  0  0
   -2.8059    3.1690   -1.5177 H   0  0  0  0  0  0  0  0  0  0  0  0
   -5.8299    2.4420   -1.1561 H   0  0  0  0  0  0  0  0  0  0  0  0
   -5.0859    4.1058   -0.8656 H   0  0  0  0  0  0  0  0  0  0  0  0
   -5.1499    1.7994    2.6257 H   0  0  0  0  0  0  0  0  0  0  0  0
   -5.7806    0.2355    2.0338 H   0  0  0  0  0  0  0  0  0  0  0  0
   -6.3416    1.7597    1.3022 H   0  0  0  0  0  0  0  0  0  0  0  0
    0.6509   -0.9036    2.0251 H   0  0  0  0  0  0  0  0  0  0  0  0
    2.5219   -5.0911   -0.1884 H   0  0  0  0  0  0  0  0  0  0  0  0
    1.5702   -7.3149   -0.7428 H   0  0  0  0  0  0  0  0  0  0  0  0
   -0.8961   -7.6276   -0.9425 H   0  0  0  0  0  0  0  0  0  0  0  0
  1  2  3  0  0  0  0
  2  3  1  0  0  0  0
  3  4  1  0  0  0  0
  4  5  2  0  0  0  0
  4 46  1  0  0  0  0
  5  6  1  0  0  0  0
  7  6  1  6  0  0  0
  7 11  1  0  0  0  0
  8  7  1  0  0  0  0
  9  8  2  0  0  0  0
  9 10  1  0  0  0  0
 10 12  1  0  0  0  0
 11 41  1  0  0  0  0
 12 11  2  0  0  0  0
 12 13  1  0  0  0  0
 13 14  2  0  0  0  0
 14 17  1  0  0  0  0
 14 15  1  0  0  0  0
 16 52  1  0  0  0  0
 16 15  1  0  0  0  0
 16 50  1  0  0  0  0
 17 18  1  0  0  0  0
 18 19  1  0  0  0  0
 18 53  1  0  0  0  0
 19 20  2  0  0  0  0
 21 22  2  0  0  0  0
 21 19  1  0  0  0  0
 22 55  1  0  0  0  0
 24 56  1  0  0  0  0
 24 23  1  0  0  0  0
 25 24  1  0  0  0  0
 25 26  1  1  0  0  0
 27 28  1  0  0  0  0
 27 25  1  0  0  0  0
 28 30  2  0  0  0  0
 29 59  1  0  0  0  0
 29 60  1  0  0  0  0
 29 28  1  0  0  0  0
 31 32  1  0  0  0  0
 31 25  1  0  0  0  0
 32 62  1  0  0  0  0
 33 65  1  0  0  0  0
 33 32  1  0  0  0  0
 34 31  2  0  0  0  0
 35 66  1  0  0  0  0
 35 22  1  0  0  0  0
 36 35  1  0  0  0  0
 36 40  1  0  0  0  0
 37 36  1  0  0  0  0
 37 68  1  0  0  0  0
 38 39  1  0  0  0  0
 38 37  1  0  0  0  0
 39 72  1  0  0  0  0
 39 37  1  0  0  0  0
 40 74  1  0  0  0  0
 40 73  1  0  0  0  0
 41 76  1  0  0  0  0
 41 17  2  0  0  0  0
 42 77  1  0  0  0  0
 42  5  1  0  0  0  0
 43 42  2  0  0  0  0
 44 43  1  0  0  0  0
 44  3  2  0  0  0  0
 45  1  1  0  0  0  0
 47  6  1  0  0  0  0
 48  9  1  0  0  0  0
 49 13  1  0  0  0  0
 51 16  1  0  0  0  0
 54 21  1  0  0  0  0
 57 24  1  0  0  0  0
 58 27  1  0  0  0  0
 61 29  1  0  0  0  0
 63 33  1  0  0  0  0
 64 33  1  0  0  0  0
 67 35  1  0  0  0  0
 69 38  1  0  0  0  0
 70 38  1  0  0  0  0
 71 39  1  0  0  0  0
 75 40  1  0  0  0  0
 78 43  1  0  0  0  0
 79 44  1  0  0  0  0
M  END
