-1 1
 OpenBabel05192410563D

 79 82  0  0  1  0  0  0  0  0999 V2000
   -4.0863   -3.7468   -2.2394 C   0  0  0  0  0  0  0  0  0  0  0  0
   -2.9936   -4.0795   -1.8366 C   0  0  0  0  0  0  0  0  0  0  0  0
   -1.6917   -4.4490   -1.3489 C   0  0  0  0  0  0  0  0  0  0  0  0
   -0.8635   -3.4645   -0.8043 C   0  0  0  0  0  0  0  0  0  0  0  0
    0.4160   -3.7811   -0.3132 C   0  0  0  0  0  0  0  0  0  0  0  0
    1.1455   -2.7271    0.2359 N   0  0  0  0  0  0  0  0  0  0  0  0
    2.4496   -2.6740    0.6520 C   0  0  1  0  0  3  0  0  0  0  0  0
    3.2577   -3.7027    0.4626 N   0  0  0  0  0  0  0  0  0  0  0  0
    4.5516   -3.5571    0.8079 C   0  0  0  0  0  0  0  0  0  0  0  0
    5.1294   -2.4955    1.3001 N   0  0  0  0  0  2  0  0  0  0  0  0
    2.9228   -1.4637    1.2794 C   0  0  0  0  0  0  0  0  0  0  0  0
    4.3092   -1.4343    1.5487 C   0  0  0  0  0  0  0  0  0  0  0  0
    4.8569   -0.2594    2.1274 C   0  0  0  0  0  0  0  0  0  0  0  0
    4.0540    0.8093    2.4369 C   0  0  0  0  0  0  0  0  0  0  0  0
    4.5045    1.9552    2.9989 O   0  0  0  0  0  0  0  0  0  0  0  0
    5.8637    2.0777    3.2970 C   0  0  0  0  0  0  0  0  0  0  0  0
    2.6219    0.7871    2.2095 C   0  0  0  0  0  0  0  0  0  0  0  0
    1.9411    1.8981    2.6093 N   0  0  0  0  0  0  0  0  0  0  0  0
    0.5821    2.3842    2.5189 C   0  0  0  0  0  0  0  0  0  0  0  0
    0.3870    3.4102    3.1857 O   0  0  0  0  0  0  0  0  0  0  0  0
   -0.3374    1.7109    1.7034 C   0  0  0  0  0  3  0  0  0  0  0  0
   -1.6893    2.2133    1.5266 C   0  0  1  0  0  0  0  0  0  0  0  0
   -1.8265    3.6082    0.1091 S   0  0  0  0  0  0  0  0  0  0  0  0
   -0.5038    3.0409   -0.9758 C   0  0  0  0  0  0  0  0  0  0  0  0
   -0.9232    1.9771   -2.0170 C   0  0  2  0  0  0  0  0  0  0  0  0
   -1.6506    1.3044   -1.5399 H   0  0  0  0  0  0  0  0  0  0  0  0
    0.1946    1.1781   -2.4600 N   0  0  0  0  0  0  0  0  0  0  0  0
    0.5476    0.0373   -1.8444 C   0  0  0  0  0  0  0  0  0  0  0  0
    1.7640   -0.6797   -2.3783 C   0  0  0  0  0  0  0  0  0  0  0  0
   -0.0684   -0.3945   -0.8703 O   0  0  0  0  0  0  0  0  0  0  0  0
   -1.5576    2.6103   -3.2556 C   0  0  0  0  0  0  0  0  0  0  0  0
   -2.7270    3.2413   -3.0116 N   0  0  0  0  0  0  0  0  0  0  0  0
   -3.4270    4.0033   -4.0121 C   0  0  0  0  0  0  0  0  0  0  0  0
   -1.0235    2.5498   -4.3541 O   0  0  0  0  0  0  0  0  0  0  0  0
   -2.6775    1.0738    1.2376 C   0  0  0  0  0  0  0  0  0  0  0  0
   -4.0802    1.3557    0.9935 N   0  0  0  0  0  0  0  0  0  0  0  0
   -4.5309    1.5827   -0.3358 C   0  0  0  0  0  0  0  0  0  0  0  0
   -4.3705    0.4954   -1.3540 C   0  0  0  0  0  0  0  0  0  0  0  0
   -5.7409    0.8224   -0.8202 C   0  0  0  0  0  0  0  0  0  0  0  0
   -4.7354    2.1714    1.9812 C   0  0  0  0  0  0  0  0  0  0  0  0
    2.0973   -0.3669    1.6383 C   0  0  0  0  0  0  0  0  0  0  0  0
    0.8534   -5.1144   -0.3840 C   0  0  0  0  0  0  0  0  0  0  0  0
    0.0168   -6.0892   -0.9268 C   0  0  0  0  0  0  0  0  0  0  0  0
   -1.2488   -5.7804   -1.4112 C   0  0  0  0  0  0  0  0  0  0  0  0
   -5.0524   -3.4373   -2.5900 H   0  0  0  0  0  0  0  0  0  0  0  0
   -1.2086   -2.4302   -0.7641 H   0  0  0  0  0  0  0  0  0  0  0  0
    0.6892   -1.8178    0.1100 H   0  0  0  0  0  0  0  0  0  0  0  0
    5.1843   -4.4369    0.6339 H   0  0  0  0  0  0  0  0  0  0  0  0
    5.9290   -0.2591    2.3190 H   0  0  0  0  0  0  0  0  0  0  0  0
    6.0015    3.0714    3.7415 H   0  0  0  0  0  0  0  0  0  0  0  0
    6.4885    1.9988    2.3898 H   0  0  0  0  0  0  0  0  0  0  0  0
    6.1940    1.3100    4.0189 H   0  0  0  0  0  0  0  0  0  0  0  0
    2.4968    2.5763    3.1163 H   0  0  0  0  0  0  0  0  0  0  0  0
   -0.0392    0.8842    1.0690 H   0  0  0  0  0  0  0  0  0  0  0  0
   -1.9998    2.8280    2.3828 H   0  0  0  0  0  0  0  0  0  0  0  0
    0.2479    2.5908   -0.3023 H   0  0  0  0  0  0  0  0  0  0  0  0
   -0.0441    3.9097   -1.4707 H   0  0  0  0  0  0  0  0  0  0  0  0
    0.5953    1.4406   -3.3546 H   0  0  0  0  0  0  0  0  0  0  0  0
    1.5290   -1.7459   -2.5009 H   0  0  0  0  0  0  0  0  0  0  0  0
    2.5615   -0.6028   -1.6230 H   0  0  0  0  0  0  0  0  0  0  0  0
    2.1286   -0.2663   -3.3280 H   0  0  0  0  0  0  0  0  0  0  0  0
   -2.9821    3.3441   -2.0267 H   0  0  0  0  0  0  0  0  0  0  0  0
   -2.9989    3.7590   -4.9926 H   0  0  0  0  0  0  0  0  0  0  0  0
   -3.3249    5.0887   -3.8461 H   0  0  0  0  0  0  0  0  0  0  0  0
   -4.4985    3.7509   -4.0154 H   0  0  0  0  0  0  0  0  0  0  0  0
   -2.6181    0.4168    2.1252 H   0  0  0  0  0  0  0  0  0  0  0  0
   -2.2910    0.4751    0.3993 H   0  0  0  0  0  0  0  0  0  0  0  0
   -4.4469    2.6114   -0.7209 H   0  0  0  0  0  0  0  0  0  0  0  0
   -3.9119   -0.4396   -1.0224 H   0  0  0  0  0  0  0  0  0  0  0  0
   -4.1177    0.7911   -2.3755 H   0  0  0  0  0  0  0  0  0  0  0  0
   -6.1792    0.1119   -0.1148 H   0  0  0  0  0  0  0  0  0  0  0  0
   -6.4531    1.3322   -1.4751 H   0  0  0  0  0  0  0  0  0  0  0  0
   -4.4825    3.2518    1.9113 H   0  0  0  0  0  0  0  0  0  0  0  0
   -4.4563    1.8331    2.9921 H   0  0  0  0  0  0  0  0  0  0  0  0
   -5.8298    2.0779    1.8806 H   0  0  0  0  0  0  0  0  0  0  0  0
    1.0209   -0.4406    1.5225 H   0  0  0  0  0  0  0  0  0  0  0  0
    1.8496   -5.3593   -0.0251 H   0  0  0  0  0  0  0  0  0  0  0  0
    0.3737   -7.1213   -0.9719 H   0  0  0  0  0  0  0  0  0  0  0  0
   -1.8955   -6.5503   -1.8352 H   0  0  0  0  0  0  0  0  0  0  0  0
  1  2  3  0  0  0  0
  2  3  1  0  0  0  0
  3  4  1  0  0  0  0
  4 46  1  0  0  0  0
  4  5  2  0  0  0  0
  5  6  1  0  0  0  0
  7  6  1  6  0  0  0
  7 11  1  0  0  0  0
  8  7  1  0  0  0  0
  8  9  2  0  0  0  0
  9 10  1  0  0  0  0
 10 12  1  0  0  0  0
 11 12  2  0  0  0  0
 11 41  1  0  0  0  0
 12 13  1  0  0  0  0
 13 49  1  0  0  0  0
 13 14  2  0  0  0  0
 14 15  1  0  0  0  0
 15 16  1  0  0  0  0
 16 50  1  0  0  0  0
 16 52  1  0  0  0  0
 17 14  1  0  0  0  0
 17 18  1  0  0  0  0
 18 53  1  0  0  0  0
 19 18  1  0  0  0  0
 19 20  2  0  0  0  0
 21 19  1  0  0  0  0
 22 21  1  0  0  0  0
 22 55  1  1  0  0  0
 23 22  1  0  0  0  0
 24 56  1  0  0  0  0
 24 23  1  0  0  0  0
 25 26  1  1  0  0  0
 25 24  1  0  0  0  0
 27 25  1  0  0  0  0
 27 28  1  0  0  0  0
 28 30  2  0  0  0  0
 29 28  1  0  0  0  0
 29 60  1  0  0  0  0
 31 32  1  0  0  0  0
 31 25  1  0  0  0  0
 32 62  1  0  0  0  0
 33 64  1  0  0  0  0
 33 32  1  0  0  0  0
 34 31  2  0  0  0  0
 35 22  1  0  0  0  0
 35 66  1  0  0  0  0
 36 35  1  0  0  0  0
 36 40  1  0  0  0  0
 37 36  1  0  0  0  0
 38 69  1  0  0  0  0
 38 39  1  0  0  0  0
 38 37  1  0  0  0  0
 39 37  1  0  0  0  0
 39 71  1  0  0  0  0
 40 74  1  0  0  0  0
 41 17  2  0  0  0  0
 42  5  1  0  0  0  0
 42 77  1  0  0  0  0
 43 42  2  0  0  0  0
 44  3  2  0  0  0  0
 44 43  1  0  0  0  0
 45  1  1  0  0  0  0
 47  6  1  0  0  0  0
 48  9  1  0  0  0  0
 51 16  1  0  0  0  0
 54 21  1  0  0  0  0
 57 24  1  0  0  0  0
 58 27  1  0  0  0  0
 59 29  1  0  0  0  0
 61 29  1  0  0  0  0
 63 33  1  0  0  0  0
 65 33  1  0  0  0  0
 67 35  1  0  0  0  0
 68 37  1  0  0  0  0
 70 38  1  0  0  0  0
 72 39  1  0  0  0  0
 73 40  1  0  0  0  0
 75 40  1  0  0  0  0
 76 41  1  0  0  0  0
 78 43  1  0  0  0  0
 79 44  1  0  0  0  0
M  END
