79
-1 1
C        -3.953800   -5.837270   -0.685515
C        -2.753743   -5.713074   -0.580682
C        -1.328538   -5.561629   -0.460389
C        -0.789036   -4.316062   -0.127022
C         0.599894   -4.134364   -0.013891
N         1.034200   -2.866609    0.357512
C         2.290071   -2.312433    0.269108
N         3.254998   -2.921260   -0.394725
C         4.421123   -2.257386   -0.533407
N         4.715626   -1.059517   -0.108265
C         2.506889   -1.039783    0.895335
C         3.754970   -0.429666    0.629580
C         4.026941    0.846388    1.179349
C         3.110866    1.462680    2.000591
O         3.311314    2.631922    2.625050
C         4.223424    3.545436    2.063013
C         1.853922    0.834057    2.297964
N         1.008033    1.517533    3.166222
C        -0.368465    1.635169    3.179530
O        -0.906687    2.232331    4.093744
C        -1.129624    1.037753    2.047904
C        -2.442349    0.820157    2.165992
S         1.211321    3.479796   -0.055501
C         1.211055    1.998509   -1.124278
C        -0.138385    1.716418   -1.823178
H        -0.929540    1.767595   -1.057540
N        -0.166876    0.415082   -2.459259
C        -0.376211   -0.744742   -1.834771
C        -0.286297   -1.985733   -2.695573
O        -0.598507   -0.827609   -0.620440
C        -0.452276    2.718889   -2.943722
N        -0.540105    3.998458   -2.545492
C        -0.691623    5.063960   -3.500438
O        -0.607901    2.344078   -4.104005
C        -3.312942    0.283397    1.060444
N        -4.439876    1.136904    0.701759
C        -4.051201    2.406040    0.165774
C        -3.604029    2.468163   -1.263377
C        -4.947705    3.021677   -0.871701
C        -5.462431    1.241784    1.716647
C         1.583284   -0.404843    1.764329
C         1.445338   -5.232169   -0.242794
C         0.897728   -6.471565   -0.567866
C        -0.475728   -6.655179   -0.681799
H        -5.018393   -5.938731   -0.776687
H        -1.452345   -3.463703    0.036702
H         0.292173   -2.157446    0.343891
H         5.199545   -2.794138   -1.090432
H         4.984803    1.303904    0.938196
H         4.111166    4.480513    2.625078
H         3.962456    3.723263    1.006755
H         5.264572    3.190567    2.161250
H         1.464009    2.218726    3.740060
H        -0.612246    0.811260    1.112441
H        -2.915006    1.076127    3.122255
H         1.432035    1.105464   -0.519748
H         1.994364    2.058209   -1.900155
H        -0.139526    0.466896   -3.475888
H        -1.121505   -2.657890   -2.459068
H         0.644424   -2.517838   -2.444295
H        -0.283792   -1.760863   -3.770421
H        -0.111076    4.188086   -1.611750
H        -1.398669    4.761282   -4.285341
H         0.262344    5.327692   -3.990398
H        -1.078375    5.958101   -2.991795
H        -3.721667   -0.697833    1.363110
H        -2.694111    0.106796    0.168498
H        -3.545835    3.102009    0.855774
H        -3.586866    1.527152   -1.819067
H        -2.805876    3.168961   -1.517706
H        -5.829872    2.442042   -1.156056
H        -5.085947    4.105760   -0.865646
H        -5.149871    1.799430    2.625682
H        -5.780617    0.235479    2.033808
H        -6.341579    1.759651    1.302226
H         0.650861   -0.903567    2.025068
H         2.521921   -5.091087   -0.188395
H         1.570235   -7.314862   -0.742763
H        -0.896056   -7.627641   -0.942453
