-1 1
 OpenBabel05232414493D

 82 84  0  0  1  0  0  0  0  0999 V2000
    5.5243    6.6339   -1.3226 C   0  0  0  0  0  0  0  0  0  0  0  0
    5.9231    5.5271   -1.0378 C   0  0  0  0  0  0  0  0  0  0  0  0
    6.4102    4.2235   -0.6783 C   0  0  0  0  0  0  0  0  0  0  0  0
    7.3418    4.1026    0.3557 C   0  0  0  0  0  0  0  0  0  0  0  0
    7.8320    2.8489    0.7498 C   0  0  0  0  0  0  0  0  0  0  0  0
    8.7260    2.8378    1.8279 N   0  0  0  0  0  0  0  0  0  0  0  0
    9.4606    1.8201    2.3773 C   0  0  1  0  0  3  0  0  0  0  0  0
    9.4325    0.6195    1.8319 N   0  0  0  0  0  0  0  0  0  0  0  0
   10.2166   -0.3352    2.3678 C   0  0  0  0  0  0  0  0  0  0  0  0
   11.0368   -0.2161    3.3747 N   0  0  0  0  0  2  0  0  0  0  0  0
   10.2685    2.0885    3.5414 C   0  0  0  0  0  0  0  0  0  0  0  0
   11.0674    1.0082    3.9740 C   0  0  0  0  0  0  0  0  0  0  0  0
   11.9343    1.2045    5.0781 C   0  0  0  0  0  0  0  0  0  0  0  0
   11.9754    2.4077    5.7356 C   0  0  0  0  0  0  0  0  0  0  0  0
   12.7617    2.6755    6.8001 O   0  0  0  0  0  0  0  0  0  0  0  0
   13.7274    1.7449    7.2422 C   0  0  0  0  0  0  0  0  0  0  0  0
   14.9676    1.7293    6.3652 C   0  0  0  0  0  0  0  0  0  0  0  0
   11.1271    3.5134    5.3405 C   0  0  0  0  0  0  0  0  0  0  0  0
   11.2599    4.6457    6.1152 N   0  0  0  0  0  0  0  0  0  0  0  0
   10.5055    5.8146    6.3904 C   0  0  0  0  0  0  0  0  0  0  0  0
   10.9219    6.4864    7.3257 O   0  0  0  0  0  0  0  0  0  0  0  0
    9.3302    6.1242    5.6099 C   0  0  0  0  0  3  0  0  0  0  0  0
    8.5128    7.1741    5.9557 C   0  0  0  0  0  3  0  0  0  0  0  0
    9.2527    9.4602    4.9606 S   0  0  0  0  0  1  0  0  0  0  0  0
   11.0142    9.0584    4.8208 C   0  0  0  0  0  0  0  0  0  0  0  0
   11.5619    9.2331    3.4000 C   0  0  2  0  0  0  0  0  0  0  0  0
   12.6367    8.9846    3.3771 H   0  0  0  0  0  0  0  0  0  0  0  0
   11.4481   10.6037    2.9811 N   0  0  0  0  0  0  0  0  0  0  0  0
   12.3607   11.2137    2.1864 C   0  0  0  0  0  0  0  0  0  0  0  0
   11.8927   12.5339    1.5984 C   0  0  0  0  0  0  0  0  0  0  0  0
   13.4651   10.7582    1.9470 O   0  0  0  0  0  0  0  0  0  0  0  0
   10.8945    8.3275    2.3454 C   0  0  0  0  0  0  0  0  0  0  0  0
   10.6288    7.0583    2.7632 N   0  0  0  0  0  0  0  0  0  0  0  0
    9.9147    6.1342    1.9300 C   0  0  0  0  0  0  0  0  0  0  0  0
   10.6848    8.7084    1.2093 O   0  0  0  0  0  0  0  0  0  0  0  0
    7.0817    7.2250    5.4845 C   0  0  0  0  0  0  0  0  0  0  0  0
    6.8243    6.5433    4.2237 N   0  0  0  0  0  0  0  0  0  0  0  0
    5.6836    5.6867    4.2435 C   0  0  0  0  0  0  0  0  0  0  0  0
    5.7586    4.3731    3.5200 C   0  0  0  0  0  0  0  0  0  0  0  0
    5.7704    4.4089    5.0245 C   0  0  0  0  0  0  0  0  0  0  0  0
    6.8615    7.4187    3.0691 C   0  0  0  0  0  0  0  0  0  0  0  0
   10.3074    3.3231    4.2420 C   0  0  0  0  0  0  0  0  0  0  0  0
    7.3836    1.7040    0.0751 C   0  0  0  0  0  0  0  0  0  0  0  0
    6.4587    1.8340   -0.9601 C   0  0  0  0  0  0  0  0  0  0  0  0
    5.9621    3.0732   -1.3459 C   0  0  0  0  0  0  0  0  0  0  0  0
    5.1823    7.6218   -1.5670 H   0  0  0  0  0  0  0  0  0  0  0  0
    7.6792    5.0071    0.8636 H   0  0  0  0  0  0  0  0  0  0  0  0
    8.8977    3.7510    2.2257 H   0  0  0  0  0  0  0  0  0  0  0  0
   10.1553   -1.3177    1.8837 H   0  0  0  0  0  0  0  0  0  0  0  0
   12.5506    0.3564    5.3721 H   0  0  0  0  0  0  0  0  0  0  0  0
   13.2775    0.7406    7.3260 H   0  0  0  0  0  0  0  0  0  0  0  0
   13.9836    2.0712    8.2599 H   0  0  0  0  0  0  0  0  0  0  0  0
   14.7374    1.4058    5.3403 H   0  0  0  0  0  0  0  0  0  0  0  0
   15.7146    1.0387    6.7841 H   0  0  0  0  0  0  0  0  0  0  0  0
   15.4106    2.7343    6.3162 H   0  0  0  0  0  0  0  0  0  0  0  0
   11.9967    4.5685    6.8082 H   0  0  0  0  0  0  0  0  0  0  0  0
    9.0000    5.4987    4.7861 H   0  0  0  0  0  0  0  0  0  0  0  0
    8.7255    7.7000    6.8861 H   0  0  0  0  0  0  0  0  0  0  0  0
   11.1817    8.0234    5.1681 H   0  0  0  0  0  0  0  0  0  0  0  0
   11.6133    9.6914    5.4927 H   0  0  0  0  0  0  0  0  0  0  0  0
   10.5127   10.9888    3.0733 H   0  0  0  0  0  0  0  0  0  0  0  0
   12.7685   13.1374    1.3305 H   0  0  0  0  0  0  0  0  0  0  0  0
   11.2465   13.0937    2.2901 H   0  0  0  0  0  0  0  0  0  0  0  0
   11.3164   12.3207    0.6850 H   0  0  0  0  0  0  0  0  0  0  0  0
   10.5946    6.8926    3.7647 H   0  0  0  0  0  0  0  0  0  0  0  0
    8.9683    5.8428    2.4202 H   0  0  0  0  0  0  0  0  0  0  0  0
   10.5088    5.2300    1.7079 H   0  0  0  0  0  0  0  0  0  0  0  0
    9.6752    6.6337    0.9810 H   0  0  0  0  0  0  0  0  0  0  0  0
    6.7293    8.2723    5.4649 H   0  0  0  0  0  0  0  0  0  0  0  0
    6.4952    6.7147    6.2696 H   0  0  0  0  0  0  0  0  0  0  0  0
    4.6955    6.1826    4.2336 H   0  0  0  0  0  0  0  0  0  0  0  0
    6.7046    4.1398    3.0307 H   0  0  0  0  0  0  0  0  0  0  0  0
    4.8729    4.0021    2.9989 H   0  0  0  0  0  0  0  0  0  0  0  0
    6.7227    4.2072    5.5230 H   0  0  0  0  0  0  0  0  0  0  0  0
    4.8839    4.0699    5.5661 H   0  0  0  0  0  0  0  0  0  0  0  0
    7.7927    8.0043    3.0781 H   0  0  0  0  0  0  0  0  0  0  0  0
    6.0120    8.1368    3.0561 H   0  0  0  0  0  0  0  0  0  0  0  0
    6.8062    6.8246    2.1432 H   0  0  0  0  0  0  0  0  0  0  0  0
    9.6800    4.1462    3.9189 H   0  0  0  0  0  0  0  0  0  0  0  0
    7.7740    0.7334    0.3681 H   0  0  0  0  0  0  0  0  0  0  0  0
    6.1187    0.9329   -1.4760 H   0  0  0  0  0  0  0  0  0  0  0  0
    5.2358    3.1637   -2.1549 H   0  0  0  0  0  0  0  0  0  0  0  0
  1  2  3  0  0  0  0
  2  3  1  0  0  0  0
  3  4  1  0  0  0  0
  4  5  2  0  0  0  0
  4 47  1  0  0  0  0
  5  6  1  0  0  0  0
  6 48  1  0  0  0  0
  7  6  1  6  0  0  0
  7 11  1  0  0  0  0
  8  9  2  0  0  0  0
  8  7  1  0  0  0  0
  9 10  1  0  0  0  0
 10 12  1  0  0  0  0
 11 12  2  0  0  0  0
 11 42  1  0  0  0  0
 12 13  1  0  0  0  0
 13 50  1  0  0  0  0
 13 14  2  0  0  0  0
 14 15  1  0  0  0  0
 15 16  1  0  0  0  0
 16 51  1  0  0  0  0
 16 52  1  0  0  0  0
 17 54  1  0  0  0  0
 17 16  1  0  0  0  0
 18 14  1  0  0  0  0
 18 19  1  0  0  0  0
 19 20  1  0  0  0  0
 19 56  1  0  0  0  0
 20 21  2  0  0  0  0
 22 23  1  0  0  0  0
 22 20  1  0  0  0  0
 23 58  1  0  0  0  0
 25 24  1  0  0  0  0
 25 59  1  0  0  0  0
 25 60  1  0  0  0  0
 26 27  1  1  0  0  0
 26 25  1  0  0  0  0
 28 61  1  0  0  0  0
 28 26  1  0  0  0  0
 29 28  1  0  0  0  0
 30 29  1  0  0  0  0
 30 63  1  0  0  0  0
 31 29  2  0  0  0  0
 32 33  1  0  0  0  0
 32 26  1  0  0  0  0
 33 65  1  0  0  0  0
 34 66  1  0  0  0  0
 34 33  1  0  0  0  0
 35 32  2  0  0  0  0
 36 23  1  0  0  0  0
 36 70  1  0  0  0  0
 37 38  1  0  0  0  0
 37 36  1  0  0  0  0
 38 40  1  0  0  0  0
 39 38  1  0  0  0  0
 39 40  1  0  0  0  0
 40 74  1  0  0  0  0
 40 75  1  0  0  0  0
 41 76  1  0  0  0  0
 41 37  1  0  0  0  0
 42 18  2  0  0  0  0
 43 80  1  0  0  0  0
 43  5  1  0  0  0  0
 44 43  2  0  0  0  0
 45 44  1  0  0  0  0
 45  3  2  0  0  0  0
 46  1  1  0  0  0  0
 49  9  1  0  0  0  0
 53 17  1  0  0  0  0
 55 17  1  0  0  0  0
 57 22  1  0  0  0  0
 62 30  1  0  0  0  0
 64 30  1  0  0  0  0
 67 34  1  0  0  0  0
 68 34  1  0  0  0  0
 69 36  1  0  0  0  0
 71 38  1  0  0  0  0
 72 39  1  0  0  0  0
 73 39  1  0  0  0  0
 77 41  1  0  0  0  0
 78 41  1  0  0  0  0
 79 42  1  0  0  0  0
 81 44  1  0  0  0  0
 82 45  1  0  0  0  0
M  END
