-1 1
 OpenBabel05192410563D

 82 85  0  0  1  0  0  0  0  0999 V2000
   -4.2228    1.4002   -4.5415 C   0  0  0  0  0  0  0  0  0  0  0  0
   -3.7898    0.2968   -4.2950 C   0  0  0  0  0  0  0  0  0  0  0  0
   -3.2673   -1.0055   -3.9827 C   0  0  0  0  0  0  0  0  0  0  0  0
   -2.3384   -1.1408   -2.9482 C   0  0  0  0  0  0  0  0  0  0  0  0
   -1.8164   -2.3952   -2.5969 C   0  0  0  0  0  0  0  0  0  0  0  0
   -0.9289   -2.4238   -1.5185 N   0  0  0  0  0  0  0  0  0  0  0  0
   -0.1955   -3.4522   -0.9781 C   0  0  1  0  0  3  0  0  0  0  0  0
   -0.2239   -4.6467   -1.5359 N   0  0  0  0  0  0  0  0  0  0  0  0
    0.5470   -5.6106   -0.9955 C   0  0  0  0  0  0  0  0  0  0  0  0
    1.3487   -5.5029    0.0278 N   0  0  0  0  0  2  0  0  0  0  0  0
    0.6047   -3.1902    0.1900 C   0  0  0  0  0  0  0  0  0  0  0  0
    1.3832   -4.2818    0.6324 C   0  0  0  0  0  0  0  0  0  0  0  0
    2.2328   -4.0947    1.7539 C   0  0  0  0  0  0  0  0  0  0  0  0
    2.2822   -2.8903    2.4067 C   0  0  0  0  0  0  0  0  0  0  0  0
    3.0525   -2.6321    3.4871 O   0  0  0  0  0  0  0  0  0  0  0  0
    3.9829   -3.5817    3.9562 C   0  0  0  0  0  0  0  0  0  0  0  0
    5.2451   -3.6304    3.1113 C   0  0  0  0  0  0  0  0  0  0  0  0
    1.4651   -1.7638    1.9921 C   0  0  0  0  0  0  0  0  0  0  0  0
    1.6008   -0.6358    2.7435 N   0  0  0  0  0  0  0  0  0  0  0  0
    0.9457    0.6409    2.8561 C   0  0  0  0  0  0  0  0  0  0  0  0
    1.4310    1.3532    3.7524 O   0  0  0  0  0  0  0  0  0  0  0  0
   -0.1078    0.9897    1.9986 C   0  0  0  0  0  3  0  0  0  0  0  0
   -0.9334    2.1701    2.3184 C   0  0  1  0  0  0  0  0  0  0  0  0
   -0.4926    3.8314    1.4532 S   0  0  0  0  0  0  0  0  0  0  0  0
    1.3219    3.7656    1.4262 C   0  0  0  0  0  0  0  0  0  0  0  0
    1.9042    3.9908    0.0306 C   0  0  2  0  0  0  0  0  0  0  0  0
    2.9973    3.8567    0.0836 H   0  0  0  0  0  0  0  0  0  0  0  0
    1.6980    5.3451   -0.4262 N   0  0  0  0  0  0  0  0  0  0  0  0
    2.6977    6.0690   -1.0047 C   0  0  0  0  0  0  0  0  0  0  0  0
    2.2173    7.2788   -1.7848 C   0  0  0  0  0  0  0  0  0  0  0  0
    3.8756    5.7819   -0.9141 O   0  0  0  0  0  0  0  0  0  0  0  0
    1.3910    3.0298   -1.0633 C   0  0  0  0  0  0  0  0  0  0  0  0
    1.1786    1.7532   -0.6715 N   0  0  0  0  0  0  0  0  0  0  0  0
    0.5505    0.8080   -1.5541 C   0  0  0  0  0  0  0  0  0  0  0  0
    1.2407    3.4249   -2.2087 O   0  0  0  0  0  0  0  0  0  0  0  0
   -2.4323    1.9274    2.0836 C   0  0  0  0  0  0  0  0  0  0  0  0
   -2.7777    1.1920    0.8744 N   0  0  0  0  0  0  0  0  0  0  0  0
   -3.8984    0.3242    1.0419 C   0  0  0  0  0  0  0  0  0  0  0  0
   -3.8983   -0.9955    0.3256 C   0  0  0  0  0  0  0  0  0  0  0  0
   -3.6982   -0.9447    1.8162 C   0  0  0  0  0  0  0  0  0  0  0  0
   -2.8636    1.9973   -0.3241 C   0  0  0  0  0  0  0  0  0  0  0  0
    0.6519   -1.9526    0.8823 C   0  0  0  0  0  0  0  0  0  0  0  0
   -2.2300   -3.5246   -3.3201 C   0  0  0  0  0  0  0  0  0  0  0  0
   -3.1515   -3.3794   -4.3561 C   0  0  0  0  0  0  0  0  0  0  0  0
   -3.6805   -2.1404   -4.6976 C   0  0  0  0  0  0  0  0  0  0  0  0
   -4.5967    2.3839   -4.7533 H   0  0  0  0  0  0  0  0  0  0  0  0
   -2.0240   -0.2484   -2.4050 H   0  0  0  0  0  0  0  0  0  0  0  0
   -0.7762   -1.5233   -1.0853 H   0  0  0  0  0  0  0  0  0  0  0  0
    0.4887   -6.5889   -1.4884 H   0  0  0  0  0  0  0  0  0  0  0  0
    2.8315   -4.9509    2.0613 H   0  0  0  0  0  0  0  0  0  0  0  0
    3.5097   -4.5762    4.0321 H   0  0  0  0  0  0  0  0  0  0  0  0
    4.2227   -3.2583    4.9791 H   0  0  0  0  0  0  0  0  0  0  0  0
    5.0322   -3.9515    2.0819 H   0  0  0  0  0  0  0  0  0  0  0  0
    5.9654   -4.3369    3.5505 H   0  0  0  0  0  0  0  0  0  0  0  0
    5.7118   -2.6358    3.0702 H   0  0  0  0  0  0  0  0  0  0  0  0
    2.2983   -0.7042    3.4755 H   0  0  0  0  0  0  0  0  0  0  0  0
   -0.5696    0.2809    1.3194 H   0  0  0  0  0  0  0  0  0  0  0  0
   -0.7953    2.4409    3.3740 H   0  0  0  0  0  0  0  0  0  0  0  0
    1.6208    2.7926    1.8412 H   0  0  0  0  0  0  0  0  0  0  0  0
    1.7292    4.5307    2.1006 H   0  0  0  0  0  0  0  0  0  0  0  0
    0.7513    5.5551   -0.7213 H   0  0  0  0  0  0  0  0  0  0  0  0
    3.0596    7.9627   -1.9420 H   0  0  0  0  0  0  0  0  0  0  0  0
    1.3991    7.8023   -1.2689 H   0  0  0  0  0  0  0  0  0  0  0  0
    1.8444    6.9370   -2.7627 H   0  0  0  0  0  0  0  0  0  0  0  0
    1.0483    1.5515    0.3312 H   0  0  0  0  0  0  0  0  0  0  0  0
   -0.4748    0.5963   -1.1991 H   0  0  0  0  0  0  0  0  0  0  0  0
    1.1141   -0.1378   -1.6029 H   0  0  0  0  0  0  0  0  0  0  0  0
    0.4879    1.2430   -2.5597 H   0  0  0  0  0  0  0  0  0  0  0  0
   -2.9918    2.8878    2.1413 H   0  0  0  0  0  0  0  0  0  0  0  0
   -2.7697    1.3169    2.9341 H   0  0  0  0  0  0  0  0  0  0  0  0
   -4.8859    0.8103    1.1515 H   0  0  0  0  0  0  0  0  0  0  0  0
   -3.0209   -1.2260   -0.2796 H   0  0  0  0  0  0  0  0  0  0  0  0
   -4.8403   -1.3783   -0.0744 H   0  0  0  0  0  0  0  0  0  0  0  0
   -2.6868   -1.1263    2.1909 H   0  0  0  0  0  0  0  0  0  0  0  0
   -4.5049   -1.2896    2.4678 H   0  0  0  0  0  0  0  0  0  0  0  0
   -1.9161    2.5256   -0.4963 H   0  0  0  0  0  0  0  0  0  0  0  0
   -3.6711    2.7626   -0.2694 H   0  0  0  0  0  0  0  0  0  0  0  0
   -3.0779    1.3543   -1.1918 H   0  0  0  0  0  0  0  0  0  0  0  0
    0.0440   -1.1178    0.5530 H   0  0  0  0  0  0  0  0  0  0  0  0
   -1.8153   -4.4944   -3.0586 H   0  0  0  0  0  0  0  0  0  0  0  0
   -3.4634   -4.2689   -4.9087 H   0  0  0  0  0  0  0  0  0  0  0  0
   -4.4048   -2.0385   -5.5070 H   0  0  0  0  0  0  0  0  0  0  0  0
  1  2  3  0  0  0  0
  2  3  1  0  0  0  0
  3  4  1  0  0  0  0
  4  5  2  0  0  0  0
  4 47  1  0  0  0  0
  5  6  1  0  0  0  0
  6 48  1  0  0  0  0
  7  6  1  6  0  0  0
  7 11  1  0  0  0  0
  8  9  2  0  0  0  0
  8  7  1  0  0  0  0
  9 10  1  0  0  0  0
 10 12  1  0  0  0  0
 11 12  2  0  0  0  0
 11 42  1  0  0  0  0
 12 13  1  0  0  0  0
 13 50  1  0  0  0  0
 13 14  2  0  0  0  0
 14 15  1  0  0  0  0
 15 16  1  0  0  0  0
 16 51  1  0  0  0  0
 16 52  1  0  0  0  0
 17 54  1  0  0  0  0
 17 16  1  0  0  0  0
 18 14  1  0  0  0  0
 18 19  1  0  0  0  0
 19 20  1  0  0  0  0
 19 56  1  0  0  0  0
 20 21  2  0  0  0  0
 22 23  1  0  0  0  0
 22 20  1  0  0  0  0
 23 58  1  1  0  0  0
 24 23  1  0  0  0  0
 25 24  1  0  0  0  0
 25 59  1  0  0  0  0
 25 60  1  0  0  0  0
 26 27  1  1  0  0  0
 26 25  1  0  0  0  0
 28 26  1  0  0  0  0
 29 31  2  0  0  0  0
 29 28  1  0  0  0  0
 30 63  1  0  0  0  0
 30 29  1  0  0  0  0
 32 33  1  0  0  0  0
 32 26  1  0  0  0  0
 33 65  1  0  0  0  0
 34 66  1  0  0  0  0
 34 33  1  0  0  0  0
 35 32  2  0  0  0  0
 36 69  1  0  0  0  0
 36 23  1  0  0  0  0
 36 70  1  0  0  0  0
 37 38  1  0  0  0  0
 37 36  1  0  0  0  0
 38 71  1  0  0  0  0
 38 40  1  0  0  0  0
 39 38  1  0  0  0  0
 39 40  1  0  0  0  0
 40 74  1  0  0  0  0
 40 75  1  0  0  0  0
 41 77  1  0  0  0  0
 41 37  1  0  0  0  0
 42 18  2  0  0  0  0
 43 80  1  0  0  0  0
 43  5  1  0  0  0  0
 44 43  2  0  0  0  0
 45 44  1  0  0  0  0
 45  3  2  0  0  0  0
 46  1  1  0  0  0  0
 49  9  1  0  0  0  0
 53 17  1  0  0  0  0
 55 17  1  0  0  0  0
 57 22  1  0  0  0  0
 61 28  1  0  0  0  0
 62 30  1  0  0  0  0
 64 30  1  0  0  0  0
 67 34  1  0  0  0  0
 68 34  1  0  0  0  0
 72 39  1  0  0  0  0
 73 39  1  0  0  0  0
 76 41  1  0  0  0  0
 78 41  1  0  0  0  0
 79 42  1  0  0  0  0
 81 44  1  0  0  0  0
 82 45  1  0  0  0  0
M  END
