76
-1 1
C         2.115177   10.848909   -1.271724
C         1.306393    9.954575   -1.165225
C         0.340836    8.895808   -1.038593
C         0.781386    7.564269   -1.014467
C        -0.148522    6.524553   -0.891977
N         0.186909    5.166956   -0.860203
C         1.398748    4.530313   -0.916387
N         2.508873    5.225590   -1.028049
C         3.674995    4.540491   -1.078973
N         3.848625    3.252814   -1.029491
C         1.428249    3.089511   -0.851480
C         2.715040    2.494725   -0.911207
C         2.822986    1.094244   -0.865847
C         1.713152    0.265002   -0.768693
O         1.958948   -1.039788   -0.718964
C         1.099492   -2.030807   -1.287576
C         0.413107    0.868718   -0.662781
N        -0.778159    0.117672   -0.529397
C        -1.236592   -0.597959    0.560208
O        -2.394558   -0.990443    0.557883
C        -0.273628   -0.869215    1.644499
C        -0.646261   -1.588727    2.708097
S         0.251847   -4.752954    1.007907
C        -1.572437   -4.626021    1.014725
C        -2.235254   -5.259657   -0.220360
H        -3.328402   -5.303810   -0.072874
N        -1.765863   -6.603761   -0.383617
C        -2.484078   -7.570947   -0.994440
C        -1.695290   -8.829824   -1.313816
O        -3.665450   -7.463220   -1.282107
C        -2.030558   -4.467839   -1.528354
N        -2.414270   -3.160084   -1.468542
C        -2.409623   -2.314357   -2.628084
O        -1.634562   -4.985108   -2.555749
C         0.265404   -2.035528    3.804643
N         0.049875   -3.438419    4.071592
C         0.925356   -3.988196    5.053760
C         1.410825   -5.391003    4.883323
C         2.390617   -4.248579    4.758381
C         0.307983    2.246262   -0.711387
C        -1.514819    6.840689   -0.794232
C        -1.942231    8.162130   -0.819044
C        -1.023860    9.200409   -0.941079
H         2.837520   11.637440   -1.366037
H         1.838677    7.324633   -1.088938
H        -0.610201    4.553797   -0.775506
H         4.572253    5.164001   -1.173581
H         3.810950    0.639676   -0.933557
H         1.760452   -2.825660   -1.651884
H         0.526678   -1.616507   -2.129053
H         0.446140   -2.487593   -0.527977
H        -1.509411    0.283510   -1.212665
H         0.767064   -0.562442    1.522437
H        -1.686114   -1.926752    2.773874
H        -1.890361   -3.573362    1.091127
H        -1.985523   -5.134017    1.901421
H        -0.763306   -6.698347   -0.218627
H        -0.902151   -9.026026   -0.578044
H        -2.384428   -9.682201   -1.362721
H        -1.224679   -8.700746   -2.300574
H        -2.630641   -2.729657   -0.575245
H        -3.345996   -1.737765   -2.697935
H        -2.309467   -2.952094   -3.516201
H        -1.565796   -1.601238   -2.628144
H         0.024205   -1.452116    4.716628
H         1.316283   -1.783496    3.543292
H         0.134230   -3.960153    3.182007
H         0.698800   -3.669113    6.080969
H         1.119997   -5.894390    3.955385
H         1.464763   -6.035381    5.765019
H         2.738235   -4.010994    3.748574
H         3.129621   -4.099727    5.551694
H        -0.702647    2.649244   -0.606535
H        -2.249976    6.036760   -0.696101
H        -3.008881    8.382361   -0.741022
H        -1.351518   10.240633   -0.961001
