96
-1 1
O         0.931219    4.246671   -4.284023
C         0.630087    3.811627   -3.165942
N         1.533197    2.798592   -2.578650
C         1.289836    1.453161   -2.813174
C         2.179660    0.476546   -2.294438
N         3.298357    0.916815   -1.538439
C         4.396892   -0.017143   -1.394754
C         5.586653    0.650358   -0.712008
N         5.181174    1.201744    0.570836
C         4.103661    2.171172    0.415549
C         2.914097    1.508513   -0.259290
C         5.418758    0.460003    1.700101
C         4.854643    1.024319    3.002745
N         4.851528    0.093092    4.107032
C         6.166132   -0.250150    4.602855
C         3.988664    0.553887    5.171483
O         6.087589   -0.560014    1.663779
C         1.922449   -0.880480   -2.510606
C         0.798534   -1.306058   -3.215335
O         0.523791   -2.628263   -3.429804
C         0.535930   -3.454459   -2.296582
C        -0.089852   -0.347595   -3.711578
N        -1.263143   -0.771042   -4.392777
C        -2.262507   -1.440026   -3.782883
N        -2.154939   -1.639480   -2.468490
C        -3.151158   -2.205676   -1.797801
C        -2.922462   -2.230214   -0.345585
C        -2.122020   -1.240916    0.260034
N        -2.005394   -1.407420    1.568923
C        -3.281645   -3.080705    0.711095
N        -2.700224   -2.521119    1.843257
C        -2.808597   -3.058257    3.092198
C        -3.495560   -4.223227    3.258971
C        -4.079314   -4.863267    2.128020
C        -3.975510   -4.309771    0.880132
C        -4.296167   -2.612760   -2.502276
Cl        -5.737841   -3.242363   -1.740696
C        -4.296299   -2.416858   -3.886157
N        -3.303705   -1.845582   -4.539859
C         0.161245    1.006495   -3.513507
C        -0.460970    4.129237   -2.355183
C        -0.607661    3.748332   -0.943652
S        -1.641200    2.175274   -0.597703
C        -2.094241    2.445635    1.141266
C        -0.939063    2.379534    2.136154
H        -0.118746    3.024693    1.785435
N        -0.391679    1.036891    2.252394
C         0.901526    0.808364    2.531699
C         1.349761   -0.634694    2.466216
O         1.684170    1.723843    2.810308
C        -1.360518    2.886771    3.531262
N        -0.300865    3.179845    4.329672
C        -0.452369    3.573196    5.704794
O        -2.523403    2.998320    3.874139
H         2.511958    3.024761   -2.744953
H         4.689439   -0.383549   -2.390839
H         4.119564   -0.902388   -0.780073
H         5.966286    1.470858   -1.342864
H         6.386498   -0.078484   -0.540286
H         4.471302    3.000713   -0.210740
H         3.795387    2.591979    1.377381
H         2.114685    2.239802   -0.433382
H         2.525636    0.724934    0.419925
H         3.812894    1.333881    2.841747
H         5.425632    1.958072    3.232048
H         6.778511   -0.646177    3.785539
H         6.078277   -1.023926    5.381920
H         6.686915    0.626983    5.056064
H         2.989045    0.787294    4.777732
H         4.374748    1.471959    5.674403
H         3.891588   -0.228455    5.941091
H         2.601551   -1.633010   -2.110564
H        -0.052670   -3.009967   -1.475550
H         1.560089   -3.661914   -1.935350
H         0.077462   -4.410396   -2.587478
H        -1.382890   -0.579980   -5.378707
H        -1.643231   -0.395236   -0.242016
H        -2.316009   -2.495307    3.884452
H        -3.582807   -4.654270    4.256046
H        -4.612896   -5.806172    2.260321
H        -4.414217   -4.787879    0.006608
H        -5.166773   -2.734936   -4.471414
H        -0.540850    1.745748   -3.900240
H        -1.213796    4.789149   -2.794687
H        -1.145300    4.514205   -0.359198
H         0.363510    3.551353   -0.468804
H        -2.863548    1.705633    1.410563
H        -2.573071    3.431345    1.241238
H        -1.013892    0.235649    2.120859
H         0.655608   -1.287858    3.014179
H         2.364546   -0.731899    2.874407
H         1.348003   -0.968103    1.417116
H         0.623675    2.962795    3.957646
H        -0.067938    2.804655    6.396746
H        -1.523129    3.715789    5.899987
H         0.075185    4.518035    5.911449
