93
-1 1
O        -0.970414   -3.935699   -4.187773
C        -0.723840   -3.061166   -3.376402
N        -1.101230   -3.184837   -2.067218
C        -1.179443   -2.231567   -1.025861
C        -0.782872   -2.610787    0.272710
N        -0.244821   -3.894246    0.477589
C         0.991907   -4.234198   -0.220367
C         2.222844   -3.843151    0.591267
N         2.179365   -4.480968    1.893813
C         0.969582   -4.184228    2.649239
C        -0.270316   -4.492645    1.807042
C         3.123087   -5.316612    2.418298
C         4.409188   -5.579521    1.612047
H         4.646910   -4.701479    0.997483
N         5.546255   -5.804986    2.480053
C         4.180050   -6.779227    0.690803
O         2.965992   -5.882992    3.488486
C        -1.014823   -1.703236    1.324622
C        -1.586942   -0.460301    1.082469
O        -1.823559    0.474991    2.028191
C        -1.732259    0.115491    3.395069
C        -1.925753   -0.068164   -0.232218
N        -2.438169    1.230054   -0.353249
C        -2.816065    1.955613   -1.432137
N        -3.175342    3.220319   -1.161128
C        -3.567581    4.027259   -2.145464
C        -3.930119    5.389273   -1.753085
C        -4.643274    6.402314   -2.436734
N        -4.793148    7.506556   -1.722099
C        -3.636103    5.976150   -0.503631
N        -4.176419    7.246431   -0.559596
C        -4.087657    8.146733    0.462726
C        -3.434585    7.790957    1.605206
C        -2.857298    6.494008    1.714006
C        -2.954614    5.597341    0.682523
C        -3.582541    3.515667   -3.463981
Cl        -4.016577    4.443861   -4.877107
C        -3.194951    2.193714   -3.644886
N        -2.818719    1.403056   -2.653240
C        -1.737607   -0.973105   -1.267721
C         0.074007   -1.866728   -3.803215
C         1.032991   -1.276440   -3.090212
S         1.468585   -0.881805    4.508168
C         3.064849   -1.666076    4.101609
C         3.752758   -1.088283    2.838724
H         4.287864   -0.159263    3.117362
N         2.720427   -0.745334    1.869440
C         2.845065    0.096127    0.824031
C         1.534498    0.618588    0.273725
O         3.919500    0.398511    0.303053
C         4.844531   -2.058336    2.349515
N         5.259336   -1.894291    1.072367
C         6.376419   -2.623166    0.528088
O         5.326583   -2.889620    3.107485
H        -1.436371   -4.115462   -1.830743
H         1.019562   -3.743824   -1.199701
H         1.004779   -5.324646   -0.398115
H         2.247057   -2.748356    0.727196
H         3.128846   -4.123603    0.044710
H         0.981583   -3.126740    2.970680
H         0.984113   -4.798598    3.557052
H        -1.179527   -4.172093    2.334389
H        -0.339838   -5.586494    1.668662
H         5.243549   -6.449124    3.212535
H         5.727475   -4.920218    2.960962
H         3.364205   -6.598146   -0.026966
H         3.912082   -7.663711    1.290078
H         5.103415   -7.002554    0.137645
H        -0.674327   -1.936610    2.333677
H        -2.035301    1.001609    3.965041
H        -0.703229   -0.168591    3.670881
H        -2.420051   -0.717568    3.619414
H        -2.493993    1.723624    0.530854
H        -5.071747    6.358590   -3.433950
H        -4.561469    9.109252    0.273820
H        -3.361537    8.506997    2.423743
H        -2.333377    6.212894    2.629195
H        -2.537002    4.594614    0.729749
H        -3.192071    1.766019   -4.653259
H        -2.047612   -0.697334   -2.271786
H        -0.098511   -1.589496   -4.846915
H         1.245745   -1.555796   -2.055062
H         1.648977   -0.481966   -3.518007
H         2.932855   -2.748198    3.954491
H         3.773982   -1.565499    4.933034
H         1.813346   -0.721645    2.380393
H         0.891980    1.013098    1.074858
H         0.977269   -0.197681   -0.209882
H         1.742056    1.399875   -0.466412
H         4.924243   -1.049767    0.593482
H         6.558329   -3.520367    1.133979
H         7.301517   -2.020327    0.526296
H         6.167251   -2.931692   -0.507903
