93
-1 1
O         7.173472    3.946773    5.864760
C         7.644111    4.630768    6.768369
N         7.479761    4.127978    8.108704
C         6.894816    4.762727    9.191329
C         6.873739    4.073141   10.435811
N         7.530245    2.819460   10.509150
C         8.981012    2.875219   10.328083
C         9.691502    3.218953   11.629299
N         9.350299    2.243289   12.656634
C         7.923035    2.105348   12.888592
C         7.177532    1.887220   11.562787
C        10.229110    1.543222   13.425842
C        11.731277    1.673001   13.111761
H        11.975154    2.725984   12.905611
N        12.549234    1.245079   14.232843
C        12.055555    0.827985   11.877795
O         9.859556    0.785580   14.313308
C         6.193292    4.656741   11.506795
C         5.601973    5.909044   11.395131
O         4.949864    6.485210   12.466978
C         5.810953    7.084370   13.407151
C         5.679886    6.620748   10.189997
N         5.047519    7.874522   10.187358
C         5.106174    8.910032    9.313729
N         4.370954    9.980926    9.651038
C         4.368546   11.055290    8.859953
C         3.536438   12.176407    9.307101
C         3.492972   13.530583    8.899597
N         2.610709   14.251182    9.575905
C         2.572195   12.109639   10.333910
N         2.053098   13.387283   10.435314
C         1.071172   13.732048   11.318745
C         0.563729   12.780564   12.152454
C         1.062599   11.447858   12.089029
C         2.049399   11.112947   11.199811
C         5.140176   11.021833    7.678667
Cl         5.209975   12.315588    6.508555
C         5.869645    9.864616    7.416763
N         5.865559    8.815414    8.216873
C         6.314337    6.034403    9.095237
C         8.380767    5.844576    6.628132
C         9.260032    6.354090    7.599529
S        11.263713    5.390864    7.518571
C        11.917995    5.469334    9.219210
C        12.863619    4.299672    9.517671
H        13.794533    4.425971    8.936575
N        12.231305    3.055145    9.096432
C        12.938882    1.945457    8.780590
C        12.158324    0.857496    8.077640
O        14.121097    1.790895    9.072121
C        13.250714    4.253101   11.013180
N        14.352509    3.517671   11.274976
C        14.853779    3.328422   12.615569
O        12.612850    4.844580   11.874113
H         7.319170    3.124270    8.112571
H         9.225655    3.606749    9.545891
H         9.330701    1.888185    9.974559
H         9.378765    4.225041   11.963267
H        10.770176    3.269808   11.469209
H         7.555171    3.010212   13.403682
H         7.772441    1.254472   13.564157
H         6.090954    1.918045   11.731186
H         7.423373    0.871860   11.203831
H        12.149570    0.375692   14.590006
H        12.436377    1.910102   14.996330
H        11.432334    1.114903   11.019964
H        11.870164   -0.236102   12.094877
H        13.109007    0.950562   11.591812
H         6.126318    4.156025   12.472183
H         5.184990    7.523005   14.196807
H         6.423282    7.879745   12.945561
H         6.492722    6.344476   13.861819
H         4.486281    8.047963   11.013031
H         4.092700   14.014894    8.134574
H         0.763064   14.776325   11.282701
H        -0.219935   13.053154   12.859385
H         0.653976   10.688430   12.758089
H         2.467173   10.111935   11.124426
H         6.479780    9.795663    6.509700
H         6.368837    6.565430    8.148650
H         8.435600    6.224909    5.605227
H         9.082236    6.118500    8.654189
H         9.626675    7.372936    7.455835
H        11.085807    5.446176    9.943363
H        12.467253    6.403358    9.404590
H        11.392740    3.239664    8.535455
H        12.786737    0.432404    7.284590
H        11.211320    1.213789    7.650589
H        11.946482    0.056779    8.802193
H        14.663977    2.903788   10.518140
H        14.432440    2.434754   13.108595
H        14.580267    4.205443   13.217403
H        15.949758    3.239026   12.591803
