93
-1 1
O        -0.816904   -2.171838   -4.215999
C        -0.190410   -1.569419   -3.340181
N        -0.276484   -2.140907   -1.988700
C        -0.901117   -1.556227   -0.906460
C        -0.966792   -2.280542    0.320132
N        -0.306102   -3.535561    0.386172
C         1.143236   -3.461837    0.214939
C         1.840128   -3.084179    1.513472
N         1.517491   -4.055722    2.550080
C         0.091313   -4.228721    2.773166
C        -0.644269   -4.468297    1.443547
C         2.411864   -4.718555    3.332535
C         3.912233   -4.540490    3.027880
H         4.120433   -3.483158    2.806306
N         4.735984   -4.918950    4.162286
C         4.278410   -5.394662    1.811878
O         2.063698   -5.479383    4.225776
C        -1.678448   -1.725079    1.385047
C        -2.251823   -0.461830    1.295920
O        -2.937856    0.084158    2.364188
C        -2.105976    0.663944    3.340627
C        -2.114043    0.290423    0.121813
N        -2.723145    1.557123    0.139768
C        -2.575251    2.633194   -0.670661
N        -3.319619    3.701422   -0.342623
C        -3.239065    4.811192   -1.078616
C        -4.086305    5.927509   -0.646316
C        -4.063334    7.302387   -0.978014
N        -4.988969    8.007982   -0.344557
C        -5.142190    5.829664    0.282577
N        -5.641720    7.113063    0.409355
C        -6.694140    7.433425    1.217772
C        -7.296289    6.450527    1.945166
C        -6.821581    5.110631    1.850844
C        -5.763651    4.800192    1.037948
C        -2.375430    4.818375   -2.194236
Cl        -2.194857    6.163793   -3.292792
C        -1.642173    3.661533   -2.450123
N        -1.725238    2.578568   -1.702276
C        -1.449868   -0.266424   -0.969787
C         0.615594   -0.426866   -3.449690
C         1.562900    0.013499   -2.427151
S         3.252446   -0.924130   -2.546542
C         3.951515   -0.777584   -0.867186
C         4.955947   -1.897188   -0.583861
H         5.871390   -1.738576   -1.181194
N         4.383729   -3.181352   -0.971575
C         5.141113   -4.256172   -1.293241
C         4.403904   -5.403647   -1.944627
O         6.342215   -4.326053   -1.053672
C         5.366043   -1.902504    0.908543
N         6.483143   -2.612678    1.170490
C         6.995743   -2.775350    2.511009
O         4.723807   -1.307397    1.761896
H        -0.445541   -3.142665   -2.031816
H         1.374714   -2.740212   -0.580965
H         1.509597   -4.451192   -0.116230
H         1.502455   -2.081500    1.832753
H         2.918376   -3.013993    1.358409
H        -0.300450   -3.331433    3.283115
H        -0.041972   -5.081127    3.450518
H        -1.731596   -4.458902    1.609144
H        -0.377637   -5.480692    1.091002
H         4.360611   -5.793382    4.533773
H         4.595369   -4.243192    4.911655
H         3.645415   -5.155482    0.946501
H         4.139516   -6.461044    2.050670
H         5.327399   -5.231648    1.528491
H        -1.785603   -2.255371    2.331082
H        -2.754229    1.078348    4.125720
H        -1.487234    1.475209    2.916237
H        -1.430293   -0.083172    3.793311
H        -3.337776    1.703324    0.931922
H        -3.385035    7.811382   -1.656663
H        -6.976129    8.485668    1.213960
H        -8.136480    6.703688    2.591862
H        -7.306476    4.326025    2.434468
H        -5.361168    3.794468    0.943404
H        -0.961081    3.622322   -3.307185
H        -1.346213    0.291120   -1.898145
H         0.678181    0.017668   -4.446067
H         1.252500   -0.175818   -1.388491
H         1.839657    1.072629   -2.518633
H         3.133299   -0.831236   -0.130570
H         4.455306    0.186799   -0.712472
H         3.481816   -3.089382   -1.441309
H         4.948304   -5.696228   -2.852403
H         3.364372   -5.162610   -2.203148
H         4.418234   -6.261314   -1.256574
H         6.817041   -3.216014    0.414960
H         6.587910   -3.666864    3.019082
H         6.716648   -1.892919    3.102100
H         8.092149   -2.853017    2.480011
