-1 1
 OpenBabel05192410563D

 93 97  0  0  1  0  0  0  0  0999 V2000
   -0.8169   -2.1718   -4.2160 O   0  0  0  0  0  0  0  0  0  0  0  0
   -0.1904   -1.5694   -3.3402 C   0  0  0  0  0  0  0  0  0  0  0  0
   -0.2765   -2.1409   -1.9887 N   0  0  0  0  0  0  0  0  0  0  0  0
   -0.9011   -1.5562   -0.9065 C   0  0  0  0  0  0  0  0  0  0  0  0
   -0.9668   -2.2805    0.3201 C   0  0  0  0  0  0  0  0  0  0  0  0
   -0.3061   -3.5356    0.3862 N   0  0  0  0  0  0  0  0  0  0  0  0
    1.1432   -3.4618    0.2149 C   0  0  0  0  0  0  0  0  0  0  0  0
    1.8401   -3.0842    1.5135 C   0  0  0  0  0  0  0  0  0  0  0  0
    1.5175   -4.0557    2.5501 N   0  0  0  0  0  0  0  0  0  0  0  0
    0.0913   -4.2287    2.7732 C   0  0  0  0  0  0  0  0  0  0  0  0
   -0.6443   -4.4683    1.4435 C   0  0  0  0  0  0  0  0  0  0  0  0
    2.4119   -4.7186    3.3325 C   0  0  0  0  0  0  0  0  0  0  0  0
    3.9122   -4.5405    3.0279 C   0  0  1  0  0  0  0  0  0  0  0  0
    4.1204   -3.4832    2.8063 H   0  0  0  0  0  0  0  0  0  0  0  0
    4.7360   -4.9189    4.1623 N   0  0  0  0  0  0  0  0  0  0  0  0
    4.2784   -5.3947    1.8119 C   0  0  0  0  0  0  0  0  0  0  0  0
    2.0637   -5.4794    4.2258 O   0  0  0  0  0  0  0  0  0  0  0  0
   -1.6784   -1.7251    1.3850 C   0  0  0  0  0  0  0  0  0  0  0  0
   -2.2518   -0.4618    1.2959 C   0  0  0  0  0  0  0  0  0  0  0  0
   -2.9379    0.0842    2.3642 O   0  0  0  0  0  0  0  0  0  0  0  0
   -2.1060    0.6639    3.3406 C   0  0  0  0  0  0  0  0  0  0  0  0
   -2.1140    0.2904    0.1218 C   0  0  0  0  0  0  0  0  0  0  0  0
   -2.7231    1.5571    0.1398 N   0  0  0  0  0  0  0  0  0  0  0  0
   -2.5753    2.6332   -0.6707 C   0  0  0  0  0  0  0  0  0  0  0  0
   -3.3196    3.7014   -0.3426 N   0  0  0  0  0  0  0  0  0  0  0  0
   -3.2391    4.8112   -1.0786 C   0  0  0  0  0  0  0  0  0  0  0  0
   -4.0863    5.9275   -0.6463 C   0  0  0  0  0  0  0  0  0  0  0  0
   -4.0633    7.3024   -0.9780 C   0  0  0  0  0  0  0  0  0  0  0  0
   -4.9890    8.0080   -0.3446 N   0  0  0  0  0  0  0  0  0  0  0  0
   -5.1422    5.8297    0.2826 C   0  0  0  0  0  0  0  0  0  0  0  0
   -5.6417    7.1131    0.4094 N   0  0  0  0  0  0  0  0  0  0  0  0
   -6.6941    7.4334    1.2178 C   0  0  0  0  0  0  0  0  0  0  0  0
   -7.2963    6.4505    1.9452 C   0  0  0  0  0  0  0  0  0  0  0  0
   -6.8216    5.1106    1.8508 C   0  0  0  0  0  0  0  0  0  0  0  0
   -5.7637    4.8002    1.0379 C   0  0  0  0  0  0  0  0  0  0  0  0
   -2.3754    4.8184   -2.1942 C   0  0  0  0  0  0  0  0  0  0  0  0
   -2.1949    6.1638   -3.2928 Cl  0  0  0  0  0  0  0  0  0  0  0  0
   -1.6422    3.6615   -2.4501 C   0  0  0  0  0  0  0  0  0  0  0  0
   -1.7252    2.5786   -1.7023 N   0  0  0  0  0  0  0  0  0  0  0  0
   -1.4499   -0.2664   -0.9698 C   0  0  0  0  0  0  0  0  0  0  0  0
    0.6156   -0.4269   -3.4497 C   0  0  0  0  0  3  0  0  0  0  0  0
    1.5629    0.0135   -2.4272 C   0  0  0  0  0  0  0  0  0  0  0  0
    3.2524   -0.9241   -2.5465 S   0  0  0  0  0  0  0  0  0  0  0  0
    3.9515   -0.7776   -0.8672 C   0  0  0  0  0  0  0  0  0  0  0  0
    4.9559   -1.8972   -0.5839 C   0  0  2  0  0  0  0  0  0  0  0  0
    5.8714   -1.7386   -1.1812 H   0  0  0  0  0  0  0  0  0  0  0  0
    4.3837   -3.1814   -0.9716 N   0  0  0  0  0  0  0  0  0  0  0  0
    5.1411   -4.2562   -1.2932 C   0  0  0  0  0  0  0  0  0  0  0  0
    4.4039   -5.4036   -1.9446 C   0  0  0  0  0  0  0  0  0  0  0  0
    6.3422   -4.3261   -1.0537 O   0  0  0  0  0  0  0  0  0  0  0  0
    5.3660   -1.9025    0.9085 C   0  0  0  0  0  0  0  0  0  0  0  0
    6.4831   -2.6127    1.1705 N   0  0  0  0  0  0  0  0  0  0  0  0
    6.9957   -2.7753    2.5110 C   0  0  0  0  0  0  0  0  0  0  0  0
    4.7238   -1.3074    1.7619 O   0  0  0  0  0  0  0  0  0  0  0  0
   -0.4455   -3.1427   -2.0318 H   0  0  0  0  0  0  0  0  0  0  0  0
    1.3747   -2.7402   -0.5810 H   0  0  0  0  0  0  0  0  0  0  0  0
    1.5096   -4.4512   -0.1162 H   0  0  0  0  0  0  0  0  0  0  0  0
    1.5025   -2.0815    1.8328 H   0  0  0  0  0  0  0  0  0  0  0  0
    2.9184   -3.0140    1.3584 H   0  0  0  0  0  0  0  0  0  0  0  0
   -0.3004   -3.3314    3.2831 H   0  0  0  0  0  0  0  0  0  0  0  0
   -0.0420   -5.0811    3.4505 H   0  0  0  0  0  0  0  0  0  0  0  0
   -1.7316   -4.4589    1.6091 H   0  0  0  0  0  0  0  0  0  0  0  0
   -0.3776   -5.4807    1.0910 H   0  0  0  0  0  0  0  0  0  0  0  0
    4.3606   -5.7934    4.5338 H   0  0  0  0  0  0  0  0  0  0  0  0
    4.5954   -4.2432    4.9117 H   0  0  0  0  0  0  0  0  0  0  0  0
    3.6454   -5.1555    0.9465 H   0  0  0  0  0  0  0  0  0  0  0  0
    4.1395   -6.4610    2.0507 H   0  0  0  0  0  0  0  0  0  0  0  0
    5.3274   -5.2316    1.5285 H   0  0  0  0  0  0  0  0  0  0  0  0
   -1.7856   -2.2554    2.3311 H   0  0  0  0  0  0  0  0  0  0  0  0
   -2.7542    1.0783    4.1257 H   0  0  0  0  0  0  0  0  0  0  0  0
   -1.4872    1.4752    2.9162 H   0  0  0  0  0  0  0  0  0  0  0  0
   -1.4303   -0.0832    3.7933 H   0  0  0  0  0  0  0  0  0  0  0  0
   -3.3378    1.7033    0.9319 H   0  0  0  0  0  0  0  0  0  0  0  0
   -3.3850    7.8114   -1.6567 H   0  0  0  0  0  0  0  0  0  0  0  0
   -6.9761    8.4857    1.2140 H   0  0  0  0  0  0  0  0  0  0  0  0
   -8.1365    6.7037    2.5919 H   0  0  0  0  0  0  0  0  0  0  0  0
   -7.3065    4.3260    2.4345 H   0  0  0  0  0  0  0  0  0  0  0  0
   -5.3612    3.7945    0.9434 H   0  0  0  0  0  0  0  0  0  0  0  0
   -0.9611    3.6223   -3.3072 H   0  0  0  0  0  0  0  0  0  0  0  0
   -1.3462    0.2911   -1.8981 H   0  0  0  0  0  0  0  0  0  0  0  0
    0.6782    0.0177   -4.4461 H   0  0  0  0  0  0  0  0  0  0  0  0
    1.2525   -0.1758   -1.3885 H   0  0  0  0  0  0  0  0  0  0  0  0
    1.8397    1.0726   -2.5186 H   0  0  0  0  0  0  0  0  0  0  0  0
    3.1333   -0.8312   -0.1306 H   0  0  0  0  0  0  0  0  0  0  0  0
    4.4553    0.1868   -0.7125 H   0  0  0  0  0  0  0  0  0  0  0  0
    3.4818   -3.0894   -1.4413 H   0  0  0  0  0  0  0  0  0  0  0  0
    4.9483   -5.6962   -2.8524 H   0  0  0  0  0  0  0  0  0  0  0  0
    3.3644   -5.1626   -2.2031 H   0  0  0  0  0  0  0  0  0  0  0  0
    4.4182   -6.2613   -1.2566 H   0  0  0  0  0  0  0  0  0  0  0  0
    6.8170   -3.2160    0.4150 H   0  0  0  0  0  0  0  0  0  0  0  0
    6.5879   -3.6669    3.0191 H   0  0  0  0  0  0  0  0  0  0  0  0
    6.7166   -1.8929    3.1021 H   0  0  0  0  0  0  0  0  0  0  0  0
    8.0921   -2.8530    2.4800 H   0  0  0  0  0  0  0  0  0  0  0  0
  1  2  2  0  0  0  0
  2  3  1  0  0  0  0
  3  4  1  0  0  0  0
  4  5  1  0  0  0  0
  5  6  1  0  0  0  0
  5 18  2  0  0  0  0
  6 11  1  0  0  0  0
  7  6  1  0  0  0  0
  7  8  1  0  0  0  0
  8 58  1  0  0  0  0
  8  9  1  0  0  0  0
  9 10  1  0  0  0  0
  9 12  1  0  0  0  0
 10 60  1  0  0  0  0
 10 61  1  0  0  0  0
 11 62  1  0  0  0  0
 11 10  1  0  0  0  0
 12 17  2  0  0  0  0
 13 14  1  6  0  0  0
 13 12  1  0  0  0  0
 13 15  1  0  0  0  0
 15 64  1  0  0  0  0
 15 65  1  0  0  0  0
 16 67  1  0  0  0  0
 16 13  1  0  0  0  0
 18 69  1  0  0  0  0
 19 18  1  0  0  0  0
 19 20  1  0  0  0  0
 20 21  1  0  0  0  0
 21 72  1  0  0  0  0
 21 70  1  0  0  0  0
 22 23  1  0  0  0  0
 22 19  2  0  0  0  0
 23 73  1  0  0  0  0
 24 25  2  0  0  0  0
 24 23  1  0  0  0  0
 26 27  1  0  0  0  0
 26 25  1  0  0  0  0
 27 30  2  0  0  0  0
 28 27  1  0  0  0  0
 28 29  2  0  0  0  0
 29 31  1  0  0  0  0
 30 31  1  0  0  0  0
 30 35  1  0  0  0  0
 31 32  1  0  0  0  0
 32 33  2  0  0  0  0
 33 76  1  0  0  0  0
 34 33  1  0  0  0  0
 34 77  1  0  0  0  0
 35 34  2  0  0  0  0
 36 26  2  0  0  0  0
 37 36  1  0  0  0  0
 38 36  1  0  0  0  0
 38 39  2  0  0  0  0
 39 24  1  0  0  0  0
 40  4  2  0  0  0  0
 40 22  1  0  0  0  0
 41  2  1  0  0  0  0
 41 42  1  0  0  0  0
 42 82  1  0  0  0  0
 43 42  1  0  0  0  0
 43 44  1  0  0  0  0
 44 85  1  0  0  0  0
 44 45  1  0  0  0  0
 44 84  1  0  0  0  0
 45 46  1  6  0  0  0
 45 51  1  0  0  0  0
 47 45  1  0  0  0  0
 48 50  2  0  0  0  0
 48 47  1  0  0  0  0
 49 48  1  0  0  0  0
 49 89  1  0  0  0  0
 51 52  1  0  0  0  0
 51 54  2  0  0  0  0
 52 53  1  0  0  0  0
 53 91  1  0  0  0  0
 53 92  1  0  0  0  0
 55  3  1  0  0  0  0
 56  7  1  0  0  0  0
 57  7  1  0  0  0  0
 59  8  1  0  0  0  0
 63 11  1  0  0  0  0
 66 16  1  0  0  0  0
 68 16  1  0  0  0  0
 71 21  1  0  0  0  0
 74 28  1  0  0  0  0
 75 32  1  0  0  0  0
 78 35  1  0  0  0  0
 79 38  1  0  0  0  0
 80 40  1  0  0  0  0
 81 41  1  0  0  0  0
 83 42  1  0  0  0  0
 86 47  1  0  0  0  0
 87 49  1  0  0  0  0
 88 49  1  0  0  0  0
 90 52  1  0  0  0  0
 93 53  1  0  0  0  0
M  END
