99
-1 1
O         7.059408    0.251266  -12.214693
C         6.775756    1.454787  -12.135843
N         5.792959    1.922186  -13.121749
C         6.211004    2.656983  -14.235922
C         6.183132    2.094752  -15.536049
N         5.730047    0.755419  -15.686330
C         6.719169   -0.271383  -15.361280
C         6.049893   -1.628381  -15.218452
N         5.275399   -1.929546  -16.414300
C         4.296738   -0.900798  -16.724309
C         4.988495    0.445605  -16.886029
C         5.151897   -3.239897  -16.813793
N         4.610460   -3.424289  -18.089831
C         5.094570   -2.646865  -19.224414
C         6.241754   -3.365713  -19.931208
N         5.825959   -4.702933  -20.314652
C         5.424253   -5.490867  -19.158144
C         4.267164   -4.789564  -18.455151
O         5.490918   -4.180283  -16.116043
C         6.621210    2.855102  -16.623781
C         7.116600    4.153873  -16.474203
O         7.670658    4.842883  -17.512366
C         6.876516    5.002212  -18.655142
C         7.104814    4.723102  -15.196393
N         7.614912    6.006643  -14.908423
C         7.268028    7.189562  -15.465013
N         7.825218    8.271746  -14.899712
C         7.554345    9.486613  -15.372952
C         8.190040   10.603731  -14.672671
C         8.381074   11.952596  -15.051268
N         9.030967   12.662828  -14.141907
C         8.799188   10.524699  -13.400630
N         9.272010   11.797809  -13.144645
C         9.911995   12.144993  -11.989224
C        10.098495   11.199115  -11.026642
C         9.630298    9.870572  -11.236155
C         8.995782    9.530955  -12.403534
C         6.676573    9.593202  -16.474553
Cl         6.182164   11.102507  -17.206717
C         6.133347    8.415639  -16.979221
N         6.406671    7.218727  -16.494525
C         6.643243    3.973367  -14.116956
C         7.274764    2.336995  -11.154569
C         6.799061    3.634600  -10.806175
S         8.059633    5.229638  -11.336679
C         7.573039    6.457608  -10.088712
C         8.402998    6.414047   -8.785835
H         8.435241    5.365169   -8.446331
N         7.818696    7.233453   -7.753518
C         6.729341    6.853057   -7.044507
C         6.277994    7.830625   -5.973798
O         6.132784    5.811068   -7.250467
C         9.832959    6.930310   -8.992071
N        10.612071    6.175760   -9.784868
C        11.924542    6.602447  -10.203152
O        10.204280    7.980325   -8.471112
H         5.331676    1.078514  -13.456036
H         7.195576   -0.027504  -14.399959
H         7.498135   -0.321935  -16.154015
H         5.402997   -1.618966  -14.322274
H         6.796265   -2.417905  -15.073112
H         3.573850   -0.822835  -15.889590
H         3.732800   -1.167212  -17.625585
H         4.239420    1.232883  -17.059710
H         5.640020    0.397435  -17.789854
H         5.438992   -1.663170  -18.885993
H         4.264399   -2.497571  -19.936933
H         7.118756   -3.366437  -19.245675
H         6.526036   -2.797863  -20.831325
H         6.572775   -5.171228  -20.819054
H         6.240165   -5.623191  -18.417011
H         5.103613   -6.489744  -19.493765
H         3.987197   -5.334472  -17.546108
H         3.399810   -4.753705  -19.136929
H         6.646119    2.400464  -17.615753
H         5.886772    5.412141  -18.393730
H         6.744570    4.055691  -19.211809
H         7.394179    5.715742  -19.311463
H         8.082040    6.091646  -14.007348
H         8.075505   12.433769  -15.976080
H        10.227172   13.186168  -11.931500
H        10.605816   11.465165  -10.099330
H         9.784652    9.136002  -10.443865
H         8.637808    8.522956  -12.608100
H         5.428872    8.468153  -17.817493
H         6.614260    4.457147  -13.147180
H         8.038502    1.883548  -10.516985
H         6.785605    3.873709   -9.735007
H         5.861080    3.938179  -11.288114
H         6.527621    6.257499   -9.809274
H         7.612280    7.471382  -10.517396
H         8.359116    8.060645   -7.518111
H         6.973533    8.666954   -5.819194
H         6.148123    7.281171   -5.031554
H         5.294185    8.230399   -6.259200
H        10.134015    5.436264  -10.310123
H        12.593260    5.734343  -10.287670
H        12.325452    7.297866   -9.455164
H        11.896389    7.118905  -11.177335
