-1 1
 OpenBabel05192410563D

 93 97  0  0  1  0  0  0  0  0999 V2000
   -2.7132   -2.0289    1.5281 O   0  0  0  0  0  0  0  0  0  0  0  0
   -2.0732   -1.2255    0.7937 C   0  0  0  0  0  0  0  0  0  0  0  0
   -0.8378   -1.7347    0.2968 N   0  0  0  0  0  0  0  0  0  0  0  0
    0.4064   -1.1384    0.2317 C   0  0  0  0  0  0  0  0  0  0  0  0
    1.4435   -1.8401   -0.4267 C   0  0  0  0  0  0  0  0  0  0  0  0
    1.1105   -3.0634   -1.0511 N   0  0  0  0  0  0  0  0  0  0  0  0
    2.1356   -4.0629   -1.2332 C   0  0  0  0  0  0  0  0  0  0  0  0
    1.4950   -5.4116   -1.5385 C   0  0  0  0  0  0  0  0  0  0  0  0
    0.5868   -5.3210   -2.6703 N   0  0  0  0  0  0  0  0  0  0  0  0
   -0.3892   -4.2442   -2.5617 C   0  0  0  0  0  0  0  0  0  0  0  0
    0.2881   -2.9267   -2.2469 C   0  0  0  0  0  0  0  0  0  0  0  0
    0.4918   -6.3893   -3.5172 C   0  0  0  0  0  0  0  0  0  0  0  0
   -0.6387   -6.3767   -4.5655 C   0  0  2  0  0  0  0  0  0  0  0  0
   -0.7403   -5.3635   -4.9832 H   0  0  0  0  0  0  0  0  0  0  0  0
   -1.9236   -6.7399   -3.9781 N   0  0  0  0  0  0  0  0  0  0  0  0
   -0.2979   -7.3230   -5.7075 C   0  0  0  0  0  0  0  0  0  0  0  0
    1.2400   -7.3526   -3.4256 O   0  0  0  0  0  0  0  0  0  0  0  0
    2.7374   -1.3080   -0.4496 C   0  0  0  0  0  0  0  0  0  0  0  0
    3.0122   -0.0790    0.1394 C   0  0  0  0  0  0  0  0  0  0  0  0
    4.2494    0.5158    0.1617 O   0  0  0  0  0  0  0  0  0  0  0  0
    5.3142   -0.1375   -0.4570 C   0  0  0  0  0  0  0  0  0  0  0  0
    1.9740    0.6506    0.7506 C   0  0  0  0  0  0  0  0  0  0  0  0
    2.3552    1.8920    1.2887 N   0  0  0  0  0  0  0  0  0  0  0  0
    1.6362    2.8913    1.8529 C   0  0  0  0  0  0  0  0  0  0  0  0
    2.3489    3.9759    2.2021 N   0  0  0  0  0  0  0  0  0  0  0  0
    1.7347    5.0164    2.7655 C   0  0  0  0  0  0  0  0  0  0  0  0
    2.5918    6.1540    3.1149 C   0  0  0  0  0  0  0  0  0  0  0  0
    2.3662    7.2716    3.9522 C   0  0  0  0  0  0  0  0  0  0  0  0
    3.4134    8.0788    4.0393 N   0  0  0  0  0  0  0  0  0  0  0  0
    3.9173    6.3367    2.6708 C   0  0  0  0  0  0  0  0  0  0  0  0
    4.3440    7.5138    3.2584 N   0  0  0  0  0  0  0  0  0  0  0  0
    5.5853    8.0462    3.0599 C   0  0  0  0  0  0  0  0  0  0  0  0
    6.4633    7.3979    2.2435 C   0  0  0  0  0  0  0  0  0  0  0  0
    6.0743    6.1813    1.6127 C   0  0  0  0  0  0  0  0  0  0  0  0
    4.8269    5.6545    1.8201 C   0  0  0  0  0  0  0  0  0  0  0  0
    0.3387    4.9480    2.9642 C   0  0  0  0  0  0  0  0  0  0  0  0
   -0.6284    6.2378    3.6356 Cl  0  0  0  0  0  0  0  0  0  0  0  0
   -0.3112    3.7810    2.5715 C   0  0  0  0  0  0  0  0  0  0  0  0
    0.3165    2.7553    2.0290 N   0  0  0  0  0  0  0  0  0  0  0  0
    0.6891    0.1146    0.7961 C   0  0  0  0  0  0  0  0  0  0  0  0
   -2.4958    0.0288    0.3661 C   0  0  0  0  0  3  0  0  0  0  0  0
   -2.0655    0.6667   -0.8907 C   0  0  0  0  0  0  0  0  0  0  0  0
   -2.7073   -0.1717   -2.4935 S   0  0  0  0  0  0  0  0  0  0  0  0
   -4.3553   -0.6729   -1.9237 C   0  0  0  0  0  0  0  0  0  0  0  0
   -4.5098   -2.1476   -1.5040 C   0  0  2  0  0  0  0  0  0  0  0  0
   -3.5829   -2.5187   -1.0491 H   0  0  0  0  0  0  0  0  0  0  0  0
   -4.8250   -2.9773   -2.6493 N   0  0  0  0  0  0  0  0  0  0  0  0
   -4.3053   -4.2055   -2.8742 C   0  0  0  0  0  0  0  0  0  0  0  0
   -4.9788   -5.0033   -3.9737 C   0  0  0  0  0  0  0  0  0  0  0  0
   -3.3619   -4.6674   -2.2458 O   0  0  0  0  0  0  0  0  0  0  0  0
   -5.6724   -2.2458   -0.5035 C   0  0  0  0  0  0  0  0  0  0  0  0
   -5.3258   -2.1172    0.7822 N   0  0  0  0  0  0  0  0  0  0  0  0
   -6.3274   -2.0958    1.8142 C   0  0  0  0  0  0  0  0  0  0  0  0
   -6.8248   -2.3730   -0.9112 O   0  0  0  0  0  0  0  0  0  0  0  0
   -0.8020   -2.7495    0.3070 H   0  0  0  0  0  0  0  0  0  0  0  0
    2.7295   -4.1475   -0.3104 H   0  0  0  0  0  0  0  0  0  0  0  0
    2.8334   -3.8022   -2.0619 H   0  0  0  0  0  0  0  0  0  0  0  0
    0.9361   -5.7468   -0.6447 H   0  0  0  0  0  0  0  0  0  0  0  0
    2.2518   -6.1693   -1.7736 H   0  0  0  0  0  0  0  0  0  0  0  0
   -1.1222   -4.4710   -1.7713 H   0  0  0  0  0  0  0  0  0  0  0  0
   -0.9583   -4.1372   -3.4901 H   0  0  0  0  0  0  0  0  0  0  0  0
   -0.4881   -2.1657   -2.0846 H   0  0  0  0  0  0  0  0  0  0  0  0
    0.9131   -2.6046   -3.1086 H   0  0  0  0  0  0  0  0  0  0  0  0
   -2.2592   -6.0603   -3.2881 H   0  0  0  0  0  0  0  0  0  0  0  0
   -1.8428   -7.6374   -3.5027 H   0  0  0  0  0  0  0  0  0  0  0  0
   -1.1231   -7.3290   -6.4333 H   0  0  0  0  0  0  0  0  0  0  0  0
   -0.1445   -8.3416   -5.3231 H   0  0  0  0  0  0  0  0  0  0  0  0
    0.6312   -7.0219   -6.2130 H   0  0  0  0  0  0  0  0  0  0  0  0
    3.5236   -1.8605   -0.9628 H   0  0  0  0  0  0  0  0  0  0  0  0
    6.2009    0.4967   -0.3253 H   0  0  0  0  0  0  0  0  0  0  0  0
    5.1379   -0.2818   -1.5385 H   0  0  0  0  0  0  0  0  0  0  0  0
    5.5134   -1.1247   -0.0015 H   0  0  0  0  0  0  0  0  0  0  0  0
    3.3440    2.0910    1.1983 H   0  0  0  0  0  0  0  0  0  0  0  0
    1.4680    7.5120    4.5134 H   0  0  0  0  0  0  0  0  0  0  0  0
    5.7780    8.9788    3.5888 H   0  0  0  0  0  0  0  0  0  0  0  0
    7.4553    7.8205    2.0836 H   0  0  0  0  0  0  0  0  0  0  0  0
    6.7804    5.6649    0.9598 H   0  0  0  0  0  0  0  0  0  0  0  0
    4.4917    4.7235    1.3695 H   0  0  0  0  0  0  0  0  0  0  0  0
   -1.3941    3.6858    2.7065 H   0  0  0  0  0  0  0  0  0  0  0  0
   -0.1143    0.6635    1.2813 H   0  0  0  0  0  0  0  0  0  0  0  0
   -3.4221    0.3828    0.8260 H   0  0  0  0  0  0  0  0  0  0  0  0
   -0.9802    0.6723   -1.0727 H   0  0  0  0  0  0  0  0  0  0  0  0
   -2.4150    1.7063   -0.9571 H   0  0  0  0  0  0  0  0  0  0  0  0
   -5.0845   -0.4465   -2.7163 H   0  0  0  0  0  0  0  0  0  0  0  0
   -4.5977   -0.0368   -1.0628 H   0  0  0  0  0  0  0  0  0  0  0  0
   -5.7485   -2.7953   -3.0294 H   0  0  0  0  0  0  0  0  0  0  0  0
   -5.4604   -4.3623   -4.7252 H   0  0  0  0  0  0  0  0  0  0  0  0
   -5.7482   -5.6454   -3.5173 H   0  0  0  0  0  0  0  0  0  0  0  0
   -4.2303   -5.6533   -4.4472 H   0  0  0  0  0  0  0  0  0  0  0  0
   -4.3146   -2.0737    1.0702 H   0  0  0  0  0  0  0  0  0  0  0  0
   -6.7841   -3.0886    1.9730 H   0  0  0  0  0  0  0  0  0  0  0  0
   -7.1430   -1.4002    1.5601 H   0  0  0  0  0  0  0  0  0  0  0  0
   -5.8566   -1.7737    2.7527 H   0  0  0  0  0  0  0  0  0  0  0  0
  2  1  2  0  0  0  0
  3 55  1  0  0  0  0
  3  2  1  0  0  0  0
  4  3  1  0  0  0  0
  4 40  1  0  0  0  0
  5  4  2  0  0  0  0
  6  5  1  0  0  0  0
  7  6  1  0  0  0  0
  7 56  1  0  0  0  0
  8  7  1  0  0  0  0
  8 58  1  0  0  0  0
  9 10  1  0  0  0  0
  9  8  1  0  0  0  0
 10 11  1  0  0  0  0
 10 60  1  0  0  0  0
 11 62  1  0  0  0  0
 11  6  1  0  0  0  0
 12 17  2  0  0  0  0
 12  9  1  0  0  0  0
 13 14  1  6  0  0  0
 13 15  1  0  0  0  0
 13 12  1  0  0  0  0
 15 65  1  0  0  0  0
 15 64  1  0  0  0  0
 16 67  1  0  0  0  0
 16 13  1  0  0  0  0
 18  5  1  0  0  0  0
 18 19  2  0  0  0  0
 19 20  1  0  0  0  0
 19 22  1  0  0  0  0
 21 70  1  0  0  0  0
 21 72  1  0  0  0  0
 21 20  1  0  0  0  0
 22 40  2  0  0  0  0
 22 23  1  0  0  0  0
 23 24  1  0  0  0  0
 24 39  1  0  0  0  0
 24 25  2  0  0  0  0
 25 26  1  0  0  0  0
 26 36  2  0  0  0  0
 26 27  1  0  0  0  0
 27 28  1  0  0  0  0
 28 29  2  0  0  0  0
 28 74  1  0  0  0  0
 30 27  2  0  0  0  0
 30 31  1  0  0  0  0
 31 29  1  0  0  0  0
 32 31  1  0  0  0  0
 32 75  1  0  0  0  0
 33 32  2  0  0  0  0
 34 35  2  0  0  0  0
 34 33  1  0  0  0  0
 35 30  1  0  0  0  0
 36 37  1  0  0  0  0
 38 79  1  0  0  0  0
 38 36  1  0  0  0  0
 39 38  2  0  0  0  0
 40 80  1  0  0  0  0
 41  2  1  0  0  0  0
 41 81  1  0  0  0  0
 42 41  1  0  0  0  0
 43 44  1  0  0  0  0
 43 42  1  0  0  0  0
 44 45  1  0  0  0  0
 44 85  1  0  0  0  0
 45 46  1  1  0  0  0
 45 51  1  0  0  0  0
 47 45  1  0  0  0  0
 48 47  1  0  0  0  0
 48 50  2  0  0  0  0
 49 88  1  0  0  0  0
 49 48  1  0  0  0  0
 51 52  1  0  0  0  0
 52 90  1  0  0  0  0
 52 53  1  0  0  0  0
 53 91  1  0  0  0  0
 53 93  1  0  0  0  0
 54 51  2  0  0  0  0
 57  7  1  0  0  0  0
 59  8  1  0  0  0  0
 61 10  1  0  0  0  0
 63 11  1  0  0  0  0
 66 16  1  0  0  0  0
 68 16  1  0  0  0  0
 69 18  1  0  0  0  0
 71 21  1  0  0  0  0
 73 23  1  0  0  0  0
 76 33  1  0  0  0  0
 77 34  1  0  0  0  0
 78 35  1  0  0  0  0
 82 42  1  0  0  0  0
 83 42  1  0  0  0  0
 84 44  1  0  0  0  0
 86 47  1  0  0  0  0
 87 49  1  0  0  0  0
 89 49  1  0  0  0  0
 92 53  1  0  0  0  0
M  END
