93
-1 1
O         1.140876  -12.323496   -4.412319
C         1.923778  -11.586362   -5.030445
N         3.178793  -12.127333   -5.310946
C         4.432916  -11.556149   -5.500871
C         5.382207  -12.310639   -6.216924
N         4.965172  -13.539400   -6.773748
C         5.949338  -14.584168   -6.943499
C         5.248266  -15.912007   -7.192932
N         4.355389  -15.820621   -8.335646
C         3.400298  -14.723159   -8.242025
C         4.109312  -13.413171   -7.951641
C         4.336493  -16.856697   -9.226018
C         3.276505  -16.881777  -10.338848
H         2.876825  -15.877210  -10.531779
N         2.154657  -17.722609   -9.942763
C         3.902367  -17.398337  -11.628137
O         5.107230  -17.802891   -9.123602
C         6.689657  -11.824233   -6.346868
C         7.047748  -10.598820   -5.800698
O         8.296073  -10.045300   -5.888889
C         9.283668  -10.728066   -6.602103
C         6.091069   -9.826297   -5.109167
N         6.560915   -8.598483   -4.618739
C         5.950815   -7.605083   -3.926364
N         6.721863   -6.532767   -3.684411
C         6.221754   -5.496438   -3.011369
C         7.134815   -4.370826   -2.796017
C         7.070861   -3.270676   -1.908788
N         8.122941   -2.470378   -1.993867
C         8.360826   -4.183893   -3.466737
N         8.894443   -3.021922   -2.941057
C        10.083447   -2.489260   -3.348629
C        10.795114   -3.122345   -4.323689
C        10.289723   -4.322858   -4.900026
C         9.096327   -4.849975   -4.482216
C         4.877211   -5.558720   -2.583860
Cl         4.049403   -4.271110   -1.745539
C         4.160452   -6.713957   -2.879475
N         4.678721   -7.737905   -3.533748
C         4.798314  -10.319444   -4.954800
C         1.572848  -10.285986   -5.540781
C         2.118067   -9.730369   -6.688647
S         1.264211  -10.813700   -8.677050
C        -0.122390  -11.592316   -7.824692
C        -0.071096  -13.122699   -7.709523
H         0.842464  -13.414366   -7.167698
N        -0.065958  -13.723265   -9.020028
C         0.075409  -15.046096   -9.232468
C        -0.247499  -15.515406  -10.636796
O         0.434900  -15.824071   -8.354296
C        -1.301345  -13.609932   -6.916219
N        -1.200663  -13.429052   -5.581771
C        -2.278999  -13.747916   -4.686486
O        -2.285994  -14.063474   -7.478660
H         3.195990  -13.141794   -5.256319
H         6.560468  -14.658785   -6.030920
H         6.635472  -14.381014   -7.796696
H         4.666171  -16.181851   -6.292346
H         5.969218  -16.712724   -7.393265
H         2.662260  -14.942434   -7.451618
H         2.834294  -14.609880   -9.170319
H         3.353952  -12.626542   -7.802636
H         4.718636  -13.120345   -8.833631
H         1.607682  -17.278866   -9.197213
H         2.504283  -18.615531   -9.598801
H         3.130337  -17.467656  -12.407265
H         4.337782  -18.393624  -11.459015
H         4.708411  -16.734267  -11.975987
H         7.416021  -12.410967   -6.907408
H        10.192187  -10.113698   -6.558265
H         9.000375  -10.872190   -7.659968
H         9.501122  -11.716249   -6.158695
H         7.530996   -8.412786   -4.842992
H         6.289488   -3.039150   -1.190662
H        10.375002   -1.569022   -2.843790
H        11.744940   -2.699599   -4.651155
H        10.862098   -4.826107   -5.681322
H         8.678660   -5.769067   -4.886200
H         3.114326   -6.800259   -2.566973
H         4.063137   -9.735653   -4.408036
H         0.634838   -9.895487   -5.138885
H         3.127380   -9.981994   -7.010746
H         1.781679   -8.740306   -6.998397
H        -1.081207  -11.314133   -8.295098
H        -0.143777  -11.196084   -6.793688
H        -0.399700  -13.142942   -9.778182
H        -0.047326  -14.742008  -11.392451
H        -1.319867  -15.762375  -10.669753
H         0.327790  -16.424060  -10.858889
H        -0.345098  -13.023028   -5.180218
H        -1.982258  -14.520418   -3.957635
H        -3.118629  -14.128566   -5.282751
H        -2.611047  -12.859108   -4.124583
