89
-1 1
O         0.676313    3.531447   -1.576114
C         0.641083    2.612130   -0.706933
N        -0.704001    2.182696   -0.374383
C        -1.269610    0.933521   -0.436365
C        -2.681897    0.856206   -0.265963
N        -3.357619    2.065459    0.009068
C        -4.740247    2.267046   -0.360695
C        -5.017483    3.699662    0.120130
C        -3.953373    3.967916    1.220851
H        -3.222043    4.682688    0.818180
C        -3.224803    2.616250    1.347775
N        -4.467589    4.569074    2.436770
C        -3.427020    5.124864    3.276336
C        -5.401840    3.773234    3.193430
C        -3.318975   -0.375244   -0.378827
C        -2.588015   -1.536095   -0.616831
O        -3.211830   -2.765844   -0.722445
C        -3.501461   -3.367144    0.516463
C        -1.191941   -1.473671   -0.748013
N        -0.559784   -2.701113   -1.007721
C         0.743798   -3.071506   -0.967498
N         0.977279   -4.356815   -1.277791
C         2.226976   -4.823021   -1.262858
C         2.385978   -6.237393   -1.615861
C         3.470794   -7.128624   -1.442714
N         3.212428   -8.355261   -1.872085
C         1.391043   -7.039963   -2.210465
N         1.958680   -8.294313   -2.340900
C         1.308546   -9.359754   -2.893899
C         0.033077   -9.197751   -3.346388
C        -0.598721   -7.925627   -3.236869
C         0.062041   -6.863395   -2.678698
C         3.271978   -3.935811   -0.928824
Cl         4.964198   -4.365090   -0.915029
C         2.928239   -2.621917   -0.619341
N         1.684156   -2.182324   -0.627946
C        -0.540631   -0.241403   -0.665177
C         1.703086    2.087757    0.002016
C         1.599455    1.386586    1.300228
S         1.703670    2.512249    2.814193
C         0.494689    3.775272    2.335089
C         1.064916    5.000493    1.598703
H         1.714626    4.669505    0.777630
N         1.837930    5.837177    2.484424
C         3.158092    6.116633    2.318717
C         3.736316    7.044123    3.377704
O         3.852300    5.649137    1.438950
C        -0.117739    5.823805    1.070692
N        -0.483630    5.564479   -0.193179
C        -1.616840    6.201407   -0.810099
O        -0.690197    6.619142    1.817128
H        -1.379704    2.901950   -0.620179
H        -5.422048    1.556804    0.160848
H        -4.879676    2.124161   -1.442942
H        -6.040631    3.820664    0.502281
H        -4.895291    4.419372   -0.701453
H        -3.718240    1.959385    2.096421
H        -2.170861    2.716522    1.635082
H        -3.877066    5.754301    4.061672
H        -2.737453    5.749794    2.688809
H        -2.815914    4.346601    3.786930
H        -5.914124    4.408026    3.935399
H        -4.932794    2.932394    3.751659
H        -6.174901    3.343478    2.538665
H        -4.402880   -0.453079   -0.270723
H        -3.976635   -4.337276    0.312060
H        -4.194055   -2.749269    1.114761
H        -2.585045   -3.531689    1.111869
H        -1.205084   -3.451721   -1.224713
H         4.440540   -6.918203   -1.001187
H         1.883852  -10.284137   -2.929741
H        -0.488504  -10.046918   -3.788084
H        -1.619974   -7.799326   -3.600800
H        -0.384337   -5.878403   -2.565054
H         3.709434   -1.900316   -0.356777
H         0.536508   -0.173757   -0.796493
H         2.682269    2.481569   -0.282685
H         2.428453    0.685017    1.482377
H         0.664884    0.822775    1.421096
H        -0.020908    4.115251    3.246916
H        -0.248604    3.286664    1.691800
H         1.284149    6.397819    3.121635
H         2.981692    7.690527    3.848988
H         4.517439    7.661125    2.915873
H         4.206413    6.429463    4.160238
H         0.055466    4.868806   -0.764440
H        -2.228748    5.456414   -1.342908
H        -1.306597    6.968011   -1.540737
H        -2.226218    6.690068   -0.037655
