-1 1
 OpenBabel05232413483D

 89 92  0  0  1  0  0  0  0  0999 V2000
    1.4218    3.6230   -1.5079 O   0  0  0  0  0  0  0  0  0  0  0  0
    1.0883    2.5699   -0.9772 C   0  0  0  0  0  0  0  0  0  0  0  0
   -0.2429    2.2158   -0.9947 N   0  0  0  0  0  0  0  0  0  0  0  0
   -0.9195    1.0002   -0.8382 C   0  0  0  0  0  0  0  0  0  0  0  0
   -2.3014    1.0694   -0.5350 C   0  0  0  0  0  0  0  0  0  0  0  0
   -2.8941    2.3217   -0.2989 N   0  0  0  0  0  0  0  0  0  0  0  0
   -4.3294    2.4732   -0.4550 C   0  0  0  0  0  0  0  0  0  0  0  0
   -4.5707    3.9024    0.0167 C   0  0  0  0  0  0  0  0  0  0  0  0
   -3.5776    4.1080    1.1790 C   0  0  2  0  0  0  0  0  0  0  0  0
   -3.1181    5.1030    1.1123 H   0  0  0  0  0  0  0  0  0  0  0  0
   -2.4820    3.0396    0.9190 C   0  0  0  0  0  0  0  0  0  0  0  0
   -4.1965    4.0597    2.4964 N   0  0  0  0  0  0  0  0  0  0  0  0
   -3.2829    4.4463    3.5556 C   0  0  0  0  0  0  0  0  0  0  0  0
   -4.9255    2.8605    2.8193 C   0  0  0  0  0  0  0  0  0  0  0  0
   -3.0259   -0.1265   -0.5037 C   0  0  0  0  0  0  0  0  0  0  0  0
   -2.4082   -1.3515   -0.7151 C   0  0  0  0  0  0  0  0  0  0  0  0
   -3.1203   -2.5282   -0.6595 O   0  0  0  0  0  0  0  0  0  0  0  0
   -3.4216   -2.9632    0.6483 C   0  0  0  0  0  0  0  0  0  0  0  0
   -1.0348   -1.4187   -0.9950 C   0  0  0  0  0  0  0  0  0  0  0  0
   -0.5212   -2.7030   -1.2181 N   0  0  0  0  0  0  0  0  0  0  0  0
    0.7542   -3.1586   -1.3212 C   0  0  0  0  0  0  0  0  0  0  0  0
    0.8686   -4.4837   -1.4876 N   0  0  0  0  0  0  0  0  0  0  0  0
    2.0787   -5.0371   -1.5873 C   0  0  0  0  0  0  0  0  0  0  0  0
    2.1063   -6.4896   -1.7702 C   0  0  0  0  0  0  0  0  0  0  0  0
    3.1637   -7.4254   -1.6697 C   0  0  0  0  0  0  0  0  0  0  0  0
    2.7771   -8.6735   -1.8824 N   0  0  0  0  0  0  0  0  0  0  0  0
    0.9846   -7.2901   -2.0738 C   0  0  0  0  0  0  0  0  0  0  0  0
    1.4629   -8.5857   -2.1321 N   0  0  0  0  0  0  0  0  0  0  0  0
    0.6784   -9.6657   -2.4168 C   0  0  0  0  0  0  0  0  0  0  0  0
   -0.6495   -9.4763   -2.6596 C   0  0  0  0  0  0  0  0  0  0  0  0
   -1.1941   -8.1615   -2.6133 C   0  0  0  0  0  0  0  0  0  0  0  0
   -0.3976   -7.0846   -2.3249 C   0  0  0  0  0  0  0  0  0  0  0  0
    3.2087   -4.1916   -1.5194 C   0  0  0  0  0  0  0  0  0  0  0  0
    4.8592   -4.7340   -1.6736 Cl  0  0  0  0  0  0  0  0  0  0  0  0
    2.9856   -2.8293   -1.3485 C   0  0  0  0  0  0  0  0  0  0  0  0
    1.7780   -2.3013   -1.2503 N   0  0  0  0  0  0  0  0  0  0  0  0
   -0.3071   -0.2310   -1.0786 C   0  0  0  0  0  0  0  0  0  0  0  0
    2.1012    1.7525   -0.2682 C   0  0  0  0  0  0  0  0  0  0  0  0
    1.9070    1.0870    0.8748 C   0  0  0  0  0  0  0  0  0  0  0  0
    1.7669    3.0599    3.5717 S   0  0  0  0  0  1  0  0  0  0  0  0
    0.5574    3.8351    2.4565 C   0  0  0  0  0  0  0  0  0  0  0  0
    0.9593    5.2294    1.9239 C   0  0  2  0  0  0  0  0  0  0  0  0
    1.7966    5.1086    1.2118 H   0  0  0  0  0  0  0  0  0  0  0  0
    1.3653    6.0475    3.0315 N   0  0  0  0  0  0  0  0  0  0  0  0
    1.7708    7.3239    2.8770 C   0  0  0  0  0  0  0  0  0  0  0  0
    2.2613    7.9996    4.1473 C   0  0  0  0  0  0  0  0  0  0  0  0
    1.7157    7.9246    1.8145 O   0  0  0  0  0  0  0  0  0  0  0  0
   -0.2374    5.8307    1.1853 C   0  0  0  0  0  0  0  0  0  0  0  0
   -0.2216    5.6102   -0.1549 N   0  0  0  0  0  0  0  0  0  0  0  0
   -1.3181    5.9686   -1.0110 C   0  0  0  0  0  0  0  0  0  0  0  0
   -1.1797    6.3634    1.7532 O   0  0  0  0  0  0  0  0  0  0  0  0
   -0.8479    2.9785   -1.2918 H   0  0  0  0  0  0  0  0  0  0  0  0
   -4.9047    1.7658    0.1786 H   0  0  0  0  0  0  0  0  0  0  0  0
   -4.6245    2.2916   -1.5010 H   0  0  0  0  0  0  0  0  0  0  0  0
   -5.6070    4.0956    0.3270 H   0  0  0  0  0  0  0  0  0  0  0  0
   -4.3302    4.6030   -0.7967 H   0  0  0  0  0  0  0  0  0  0  0  0
   -2.3933    2.3459    1.7762 H   0  0  0  0  0  0  0  0  0  0  0  0
   -1.4972    3.4976    0.7852 H   0  0  0  0  0  0  0  0  0  0  0  0
   -3.8511    4.6901    4.4686 H   0  0  0  0  0  0  0  0  0  0  0  0
   -2.6994    5.3269    3.2503 H   0  0  0  0  0  0  0  0  0  0  0  0
   -2.5556    3.6481    3.8208 H   0  0  0  0  0  0  0  0  0  0  0  0
   -5.4035    2.9806    3.8044 H   0  0  0  0  0  0  0  0  0  0  0  0
   -4.2968    1.9416    2.8744 H   0  0  0  0  0  0  0  0  0  0  0  0
   -5.7298    2.6736    2.0908 H   0  0  0  0  0  0  0  0  0  0  0  0
   -4.0951   -0.1210   -0.2908 H   0  0  0  0  0  0  0  0  0  0  0  0
   -3.9641   -3.9143    0.5605 H   0  0  0  0  0  0  0  0  0  0  0  0
   -4.0582   -2.2361    1.1806 H   0  0  0  0  0  0  0  0  0  0  0  0
   -2.5035   -3.1206    1.2415 H   0  0  0  0  0  0  0  0  0  0  0  0
   -1.2322   -3.4244   -1.2505 H   0  0  0  0  0  0  0  0  0  0  0  0
    4.2054   -7.2310   -1.4329 H   0  0  0  0  0  0  0  0  0  0  0  0
    1.1970  -10.6236   -2.4269 H   0  0  0  0  0  0  0  0  0  0  0  0
   -1.2790  -10.3367   -2.8864 H   0  0  0  0  0  0  0  0  0  0  0  0
   -2.2577   -8.0131   -2.8084 H   0  0  0  0  0  0  0  0  0  0  0  0
   -0.7737   -6.0661   -2.2697 H   0  0  0  0  0  0  0  0  0  0  0  0
    3.8364   -2.1419   -1.2945 H   0  0  0  0  0  0  0  0  0  0  0  0
    0.7481   -0.2766   -1.3272 H   0  0  0  0  0  0  0  0  0  0  0  0
    3.1108    1.9136   -0.6542 H   0  0  0  0  0  0  0  0  0  0  0  0
    2.7436    0.6420    1.4136 H   0  0  0  0  0  0  0  0  0  0  0  0
    0.9239    0.9758    1.3371 H   0  0  0  0  0  0  0  0  0  0  0  0
   -0.4146    3.9491    2.9639 H   0  0  0  0  0  0  0  0  0  0  0  0
    0.3862    3.2014    1.5735 H   0  0  0  0  0  0  0  0  0  0  0  0
    1.6398    5.4913    3.8461 H   0  0  0  0  0  0  0  0  0  0  0  0
    2.5734    7.2838    4.9208 H   0  0  0  0  0  0  0  0  0  0  0  0
    1.4470    8.6199    4.5516 H   0  0  0  0  0  0  0  0  0  0  0  0
    3.0977    8.6638    3.8929 H   0  0  0  0  0  0  0  0  0  0  0  0
    0.5772    5.1417   -0.5766 H   0  0  0  0  0  0  0  0  0  0  0  0
   -1.9796    5.1086   -1.2326 H   0  0  0  0  0  0  0  0  0  0  0  0
   -0.9464    6.3691   -1.9655 H   0  0  0  0  0  0  0  0  0  0  0  0
   -1.9204    6.7373   -0.5082 H   0  0  0  0  0  0  0  0  0  0  0  0
  1  2  2  0  0  0  0
  2 38  1  0  0  0  0
  3  2  1  0  0  0  0
  3  4  1  0  0  0  0
  4  5  1  0  0  0  0
  5 15  2  0  0  0  0
  5  6  1  0  0  0  0
  6 11  1  0  0  0  0
  7  6  1  0  0  0  0
  7  8  1  0  0  0  0
  7 53  1  0  0  0  0
  8 55  1  0  0  0  0
  8  9  1  0  0  0  0
  9 10  1  6  0  0  0
  9 12  1  0  0  0  0
 11  9  1  0  0  0  0
 11 57  1  0  0  0  0
 12 14  1  0  0  0  0
 12 13  1  0  0  0  0
 13 61  1  0  0  0  0
 13 59  1  0  0  0  0
 14 63  1  0  0  0  0
 14 62  1  0  0  0  0
 15 65  1  0  0  0  0
 16 17  1  0  0  0  0
 16 15  1  0  0  0  0
 17 18  1  0  0  0  0
 18 67  1  0  0  0  0
 18 68  1  0  0  0  0
 19 16  2  0  0  0  0
 20 19  1  0  0  0  0
 21 36  1  0  0  0  0
 21 20  1  0  0  0  0
 22 21  2  0  0  0  0
 23 33  2  0  0  0  0
 23 22  1  0  0  0  0
 24 25  1  0  0  0  0
 24 23  1  0  0  0  0
 25 70  1  0  0  0  0
 26 25  2  0  0  0  0
 27 24  2  0  0  0  0
 28 27  1  0  0  0  0
 28 26  1  0  0  0  0
 29 28  1  0  0  0  0
 30 31  1  0  0  0  0
 30 29  2  0  0  0  0
 31 32  2  0  0  0  0
 32 74  1  0  0  0  0
 32 27  1  0  0  0  0
 33 35  1  0  0  0  0
 34 33  1  0  0  0  0
 35 75  1  0  0  0  0
 35 36  2  0  0  0  0
 37 19  1  0  0  0  0
 37  4  2  0  0  0  0
 38 39  2  0  0  0  0
 39 79  1  0  0  0  0
 39 78  1  0  0  0  0
 41 80  1  0  0  0  0
 41 40  1  0  0  0  0
 42 43  1  6  0  0  0
 42 41  1  0  0  0  0
 42 44  1  0  0  0  0
 44 82  1  0  0  0  0
 45 44  1  0  0  0  0
 45 46  1  0  0  0  0
 46 84  1  0  0  0  0
 46 83  1  0  0  0  0
 47 45  2  0  0  0  0
 48 51  2  0  0  0  0
 48 42  1  0  0  0  0
 49 48  1  0  0  0  0
 50 89  1  0  0  0  0
 50 49  1  0  0  0  0
 52  3  1  0  0  0  0
 54  7  1  0  0  0  0
 56  8  1  0  0  0  0
 58 11  1  0  0  0  0
 60 13  1  0  0  0  0
 64 14  1  0  0  0  0
 66 18  1  0  0  0  0
 69 20  1  0  0  0  0
 71 29  1  0  0  0  0
 72 30  1  0  0  0  0
 73 31  1  0  0  0  0
 76 37  1  0  0  0  0
 77 38  1  0  0  0  0
 81 41  1  0  0  0  0
 85 46  1  0  0  0  0
 86 49  1  0  0  0  0
 87 50  1  0  0  0  0
 88 50  1  0  0  0  0
M  END
