89
-1 1
O         6.004383   -4.770586   -5.381843
C         5.792088   -5.812454   -4.741315
N         4.445692   -6.217169   -4.695144
C         3.808104   -7.443807   -4.570433
C         2.411541   -7.424578   -4.306581
N         1.771393   -6.190564   -4.083241
C         0.330588   -6.098737   -4.211662
C         0.044115   -4.664751   -3.779214
C         1.052073   -4.389429   -2.644773
H         1.472680   -3.381400   -2.757329
C         2.175919   -5.426511   -2.895269
N         0.469735   -4.411027   -1.309491
C         1.417688   -4.001975   -0.290772
C        -0.233867   -5.613021   -0.939624
C         1.723202   -8.640205   -4.298063
C         2.386253   -9.846876   -4.487549
O         1.704650  -11.045636   -4.451742
C         1.447289  -11.519850   -3.149796
C         3.769507   -9.868649   -4.713601
N         4.333576  -11.138094   -4.914125
C         5.623721  -11.558385   -4.899020
N         5.794026  -12.876123   -5.082782
C         7.025326  -13.390458   -5.076130
C         7.114537  -14.838153   -5.286622
C         8.182128  -15.747521   -5.097171
N         7.855728  -17.000716   -5.375252
C         6.054030  -15.660267   -5.721300
N         6.572561  -16.941521   -5.757491
C         5.852023  -18.034188   -6.144987
C         4.551335  -17.873417   -6.519648
C         3.967573  -16.574407   -6.501794
C         4.699436  -15.484765   -6.109483
C         8.116672  -12.516202   -4.881599
Cl         9.791022  -13.008673   -4.890771
C         7.836555  -11.164459   -4.699795
N         6.610036  -10.676302   -4.704713
C         4.464757   -8.660230   -4.775587
C         6.835610   -6.513024   -4.044318
C         6.726965   -7.327565   -2.929329
S         6.650826   -6.129762   -0.818155
C         5.388080   -4.990085   -1.444095
C         5.916638   -3.653928   -1.991002
H         6.584600   -3.854562   -2.845912
N         6.636790   -2.971908   -0.945231
C         7.159927   -1.736133   -1.104931
C         7.955634   -1.215591    0.081472
O         6.979653   -1.055833   -2.100312
C         4.714539   -2.833474   -2.478125
N         4.539235   -2.871444   -3.820315
C         3.416551   -2.255415   -4.470597
O         3.935831   -2.289552   -1.708666
H         3.831244   -5.481739   -5.032391
H        -0.204574   -6.808743   -3.545024
H         0.019058   -6.322624   -5.244531
H        -0.993349   -4.496539   -3.457764
H         0.247988   -3.983464   -4.618702
H         2.303440   -6.092293   -2.020512
H         3.138743   -4.933819   -3.058617
H         0.881877   -3.740885    0.636887
H         1.995427   -3.130172   -0.630314
H         2.155773   -4.794312   -0.036536
H        -0.687918   -5.475714    0.054542
H         0.410495   -6.520237   -0.881041
H        -1.053008   -5.828285   -1.642738
H         0.648040   -8.670781   -4.118776
H         0.922040  -12.480265   -3.246155
H         0.810836  -10.818856   -2.582520
H         2.383140  -11.673019   -2.583173
H         3.647636  -11.877061   -5.014877
H         9.187983  -15.530410   -4.750223
H         6.395751  -18.977890   -6.122205
H         3.973160  -18.744211   -6.828814
H         2.925856  -16.448988   -6.802531
H         4.291799  -14.477654   -6.070871
H         8.654941  -10.452637   -4.547590
H         5.530441   -8.659342   -4.985120
H         7.822513   -6.125181   -4.308681
H         7.611991   -7.866242   -2.589900
H         5.782341   -7.806819   -2.668875
H         4.649658   -4.763687   -0.658000
H         4.854031   -5.491000   -2.260763
H         6.972809   -3.579000   -0.203068
H         8.322298   -2.014086    0.742000
H         7.310829   -0.543858    0.668095
H         8.802416   -0.627238   -0.294950
H         5.215937   -3.374754   -4.402357
H         2.701358   -3.003964   -4.859363
H         3.746725   -1.629985   -5.314288
H         2.896623   -1.621841   -3.739790
