89
-1 1
O         1.421767    3.622983   -1.507918
C         1.088264    2.569907   -0.977234
N        -0.242851    2.215811   -0.994650
C        -0.919488    1.000179   -0.838248
C        -2.301427    1.069374   -0.534984
N        -2.894132    2.321674   -0.298885
C        -4.329411    2.473212   -0.455036
C        -4.570654    3.902391    0.016737
C        -3.577556    4.107998    1.179048
H        -3.118079    5.103039    1.112254
C        -2.482041    3.039585    0.919013
N        -4.196464    4.059676    2.496416
C        -3.282932    4.446282    3.555626
C        -4.925465    2.860527    2.819319
C        -3.025924   -0.126533   -0.503680
C        -2.408231   -1.351517   -0.715101
O        -3.120329   -2.528163   -0.659479
C        -3.421620   -2.963187    0.648297
C        -1.034750   -1.418741   -0.994955
N        -0.521246   -2.703010   -1.218093
C         0.754231   -3.158586   -1.321243
N         0.868573   -4.483706   -1.487584
C         2.078745   -5.037129   -1.587251
C         2.106304   -6.489594   -1.770249
C         3.163676   -7.425445   -1.669656
N         2.777050   -8.673548   -1.882435
C         0.984567   -7.290074   -2.073769
N         1.462870   -8.585692   -2.132128
C         0.678408   -9.665680   -2.416763
C        -0.649531   -9.476279   -2.659595
C        -1.194095   -8.161454   -2.613341
C        -0.397566   -7.084583   -2.324857
C         3.208655   -4.191596   -1.519357
Cl         4.859205   -4.733965   -1.673617
C         2.985628   -2.829252   -1.348491
N         1.778006   -2.301275   -1.250262
C        -0.307078   -0.230983   -1.078591
C         2.101192    1.752534   -0.268162
C         1.906969    1.087042    0.874795
S         1.766917    3.059874    3.571740
C         0.557433    3.835052    2.456464
C         0.959257    5.229360    1.923857
H         1.796644    5.108608    1.211788
N         1.365291    6.047492    3.031517
C         1.770834    7.323941    2.876972
C         2.261277    7.999592    4.147294
O         1.715699    7.924565    1.814517
C        -0.237436    5.830688    1.185274
N        -0.221633    5.610240   -0.154899
C        -1.318115    5.968580   -1.010988
O        -1.179727    6.363414    1.753248
H        -0.847868    2.978528   -1.291849
H        -4.904664    1.765827    0.178608
H        -4.624450    2.291598   -1.500994
H        -5.607020    4.095576    0.326968
H        -4.330189    4.603000   -0.796705
H        -2.393278    2.345885    1.776168
H        -1.497180    3.497616    0.785177
H        -3.851108    4.690066    4.468583
H        -2.699441    5.326867    3.250332
H        -2.555557    3.648087    3.820814
H        -5.403505    2.980632    3.804385
H        -4.296760    1.941551    2.874432
H        -5.729813    2.673583    2.090789
H        -4.095059   -0.121004   -0.290845
H        -3.964105   -3.914269    0.560544
H        -4.058228   -2.236094    1.180577
H        -2.503533   -3.120638    1.241453
H        -1.232181   -3.424410   -1.250475
H         4.205442   -7.230986   -1.432921
H         1.196984  -10.623644   -2.426851
H        -1.279015  -10.336705   -2.886417
H        -2.257712   -8.013113   -2.808351
H        -0.773683   -6.066119   -2.269726
H         3.836422   -2.141876   -1.294486
H         0.748145   -0.276635   -1.327221
H         3.110768    1.913600   -0.654161
H         2.743625    0.641955    1.413593
H         0.923926    0.975753    1.337139
H        -0.414612    3.949078    2.963934
H         0.386194    3.201425    1.573456
H         1.639828    5.491338    3.846114
H         2.573359    7.283826    4.920760
H         1.446968    8.619897    4.551647
H         3.097662    8.663806    3.892942
H         0.577197    5.141686   -0.576635
H        -1.979638    5.108606   -1.232627
H        -0.946366    6.369056   -1.965546
H        -1.920383    6.737347   -0.508198
