95
-1 1
O         1.939862   -1.495973    5.483329
C         1.128500   -1.761861    4.567484
N         0.426350   -0.637062    4.014305
C         0.281441   -0.416624    2.621684
C         1.373661   -0.305577    1.710931
N         2.707867   -0.325266    2.099875
C         3.161929    0.336595    3.319525
C         2.748457    1.805811    3.413771
N         3.186815    2.408171    4.659627
C         3.204646    3.847091    4.598808
C         2.443265    1.933768    5.809800
C         3.711752   -0.549929    1.091601
C         1.052731   -0.206610    0.344747
C        -0.251810   -0.226251   -0.144372
O        -0.394606   -0.226297   -1.505751
C        -1.073140   -1.335621   -2.071840
C        -1.322442   -0.208477    0.758883
N        -2.681186   -0.174355    0.368678
C        -3.255749    0.741586   -0.460202
N        -2.480585    1.684092   -0.981817
C        -2.991903    2.504422   -1.901228
C        -1.979935    3.376694   -2.525321
C        -0.694436    2.909402   -2.687540
N         0.094022    3.856436   -3.276251
C         1.491246    3.715036   -3.596122
C        -1.981081    4.732939   -3.021835
C        -0.662472    4.988089   -3.487222
C        -0.278415    6.220410   -4.026932
C        -1.233285    7.225922   -4.082921
C        -2.536712    7.009748   -3.597327
C        -2.913397    5.784120   -3.066451
C        -4.347882    2.415093   -2.277264
C        -4.995734    3.215317   -3.373975
C        -5.076062    1.438538   -1.587766
N        -4.572058    0.600257   -0.696478
C        -1.010171   -0.302093    2.115672
C         0.834401   -3.042164    4.075878
C        -0.383434   -3.432433    3.371434
S        -0.356283   -3.653720    1.435598
C         1.283669   -4.395186    1.260988
C         1.711501   -4.489692   -0.207387
H         2.649463   -5.065576   -0.272810
N         1.963490   -3.192034   -0.767934
C         2.690317   -3.067232   -1.912497
C         2.722715   -1.676336   -2.516459
O         3.313766   -3.996322   -2.394321
C         0.665193   -5.239001   -1.062737
N         0.496335   -6.545367   -0.717062
C        -0.546237   -7.360107   -1.285769
O         0.059124   -4.711679   -1.973958
H         0.628838    0.193202    4.561030
H         4.260168    0.300718    3.322377
H         2.844291   -0.225781    4.209523
H         1.645611    1.901260    3.278680
H         3.201694    2.363571    2.576460
H         2.193060    4.294285    4.448651
H         3.847132    4.191370    3.772817
H         3.610755    4.260664    5.536172
H         2.419528    0.833648    5.855879
H         1.386319    2.294367    5.801688
H         2.910296    2.303303    6.736769
H         4.659251   -0.813474    1.580848
H         3.904999    0.328413    0.437036
H         3.429353   -1.398266    0.451686
H         1.840617   -0.113149   -0.398842
H        -1.077131   -1.174233   -3.158016
H        -2.112561   -1.405191   -1.717239
H        -0.556973   -2.285046   -1.850562
H        -3.324240   -0.820745    0.807575
H        -0.315491    1.925145   -2.403173
H         1.827089    2.715691   -3.293267
H         2.095517    4.463457   -3.059710
H         1.664296    3.832189   -4.677621
H         0.740127    6.389360   -4.382940
H        -0.966029    8.201116   -4.496368
H        -3.262325    7.825664   -3.632415
H        -3.920787    5.645846   -2.673764
H        -5.448791    4.150197   -3.005551
H        -5.801128    2.634269   -3.848160
H        -4.271833    3.487903   -4.154905
H        -6.145708    1.318734   -1.808424
H        -1.825420   -0.347585    2.841305
H         1.461083   -3.835626    4.491349
H        -1.200822   -2.703907    3.468569
H        -0.753301   -4.415254    3.698778
H         1.301293   -5.399254    1.718292
H         1.995943   -3.772727    1.829167
H         1.357872   -2.435305   -0.457594
H         3.490253   -1.074168   -2.004646
H         1.760177   -1.154709   -2.422056
H         3.003842   -1.767199   -3.572360
H         0.947442   -6.866043    0.128638
H        -0.870649   -6.883237   -2.218974
H        -1.420110   -7.440040   -0.617339
H        -0.174977   -8.371769   -1.510738
