95
-1 1
O         6.687823    7.510736   -6.773470
C         5.900994    7.274566   -7.702082
N         5.241845    8.382856   -8.282478
C         5.076041    8.566218   -9.681265
C         6.168778    8.658209  -10.585377
N         7.502047    8.614827  -10.181744
C         7.965817    9.343087   -9.005214
C         7.538266   10.811206   -8.972420
N         7.977740   11.472396   -7.756828
C         7.993962   12.907664   -7.885806
C         7.234427   11.053452   -6.586279
C         8.505964    8.327327  -11.176096
C         5.855234    8.760922  -11.951011
C         4.552258    8.741863  -12.441334
O         4.408947    8.740731  -13.800957
C         3.738600    7.628690  -14.375224
C         3.478447    8.762389  -11.539626
N         2.121859    8.788412  -11.935107
C         1.548626    9.694831  -12.775428
N         2.321033   10.645090  -13.287372
C         1.814092   11.456544  -14.216983
C         2.825978   12.333095  -14.835132
C         4.114210   11.871153  -14.990565
N         4.900924   12.820215  -15.578501
C         6.299213   12.682709  -15.895743
C         2.820625   13.687600  -15.335798
C         4.140069   13.947689  -15.796022
C         4.520171   15.180215  -16.338114
C         3.560275   16.180483  -16.401949
C         2.255577   15.959190  -15.921971
C         1.882801   14.733434  -15.388655
C         0.464013   11.353172  -14.610340
C        -0.176656   12.145556  -15.716863
C        -0.263142   10.370133  -13.929261
N         0.237938    9.538312  -13.030110
C         3.783384    8.677248  -10.182164
C         5.583557    5.956941   -8.164305
C         4.392145    5.576027   -8.792799
S         4.364528    5.287032  -11.052118
C         6.037767    4.605469  -11.150150
C         6.543878    4.505152  -12.595644
H         7.492887    3.943999  -12.624670
N         6.799803    5.808697  -13.141684
C         7.614016    5.976506  -14.218420
C         7.600117    7.366554  -14.829319
O         8.350144    5.100020  -14.634385
C         5.550237    3.752757  -13.509340
N         5.233308    2.495599  -13.085845
C         4.166796    1.752949  -13.708949
O         5.121376    4.226218  -14.543038
H         5.451570    9.226368   -7.758358
H         9.064277    9.319878   -9.017228
H         7.671235    8.825273   -8.082429
H         6.434535   10.893027   -9.106184
H         7.982370   11.332798   -9.836749
H         6.982152   13.345667   -8.056649
H         8.635729   13.211791   -8.727562
H         8.400916   13.365405   -6.969783
H         7.227331    9.958318   -6.479198
H         6.172566   11.397575   -6.617128
H         7.692141   11.477011   -5.678306
H         9.433518    8.020634  -10.673022
H         8.750581    9.188529  -11.835855
H         8.185137    7.487855  -11.808255
H         6.648103    8.837366  -12.691276
H         3.657326    7.839906  -15.449580
H         2.730231    7.497831  -13.956229
H         4.304595    6.693392  -14.231147
H         1.485659    8.121279  -11.517458
H         4.496174   10.888930  -14.703259
H         6.637628   11.684654  -15.591456
H         6.900343   13.433751  -15.359436
H         6.473567   12.798950  -16.977093
H         5.539344   15.353209  -16.690354
H         3.824321   17.155563  -16.817723
H         1.525801   16.771063  -15.963845
H         0.874088   14.590633  -15.000823
H        -0.637254   13.080061  -15.356993
H        -0.974713   11.558820  -16.196323
H         0.553727   12.418102  -16.491791
H        -1.328235   10.238243  -14.164352
H         2.965153    8.643368   -9.459557
H         6.266728    5.185884   -7.800112
H         3.569325    6.294265   -8.817096
H         4.062315    4.546346   -8.639016
H         6.086624    3.608357  -10.675798
H         6.721805    5.250567  -10.569592
H         6.114748    6.520320  -12.901405
H         8.343435    7.995087  -14.313087
H         6.619494    7.855955  -14.750603
H         7.897508    7.281900  -15.881543
H         5.440357    2.284554  -12.118686
H         4.134331    2.023994  -14.771583
H         3.183672    1.989078  -13.265998
H         4.350145    0.671873  -13.618953
