-1 1
 OpenBabel05232413483D

 95 97  0  0  1  0  0  0  0  0999 V2000
    2.3068   -1.2042    5.7231 O   0  0  0  0  0  0  0  0  0  0  0  0
    1.9530   -1.4827    4.5861 C   0  0  0  0  0  0  0  0  0  0  0  0
    1.1985   -0.6022    3.8572 N   0  0  0  0  0  0  0  0  0  0  0  0
    1.1518   -0.4764    2.4395 C   0  0  0  0  0  0  0  0  0  0  0  0
    2.2574    0.0158    1.7019 C   0  0  0  0  0  0  0  0  0  0  0  0
    3.4868    0.3258    2.3019 N   0  0  0  0  0  0  0  0  0  0  0  0
    3.5436    1.1404    3.5120 C   0  0  0  0  0  0  0  0  0  0  0  0
    2.6843    2.4052    3.4629 C   0  0  0  0  0  0  0  0  0  0  0  0
    2.7252    3.1327    4.7179 N   0  0  0  0  0  0  0  0  0  0  0  0
    2.3607    4.5205    4.5636 C   0  0  0  0  0  0  0  0  0  0  0  0
    1.9517    2.4956    5.7633 C   0  0  0  0  0  0  0  0  0  0  0  0
    4.6435    0.4148    1.4437 C   0  0  0  0  0  0  0  0  0  0  0  0
    2.0945    0.1075    0.3135 C   0  0  0  0  0  0  0  0  0  0  0  0
    0.9328   -0.2919   -0.3530 C   0  0  0  0  0  0  0  0  0  0  0  0
    0.9833   -0.2008   -1.7042 O   0  0  0  0  0  0  0  0  0  0  0  0
    0.5212   -1.2908   -2.4860 C   0  0  0  0  0  0  0  0  0  0  0  0
   -0.1774   -0.7310    0.3936 C   0  0  0  0  0  0  0  0  0  0  0  0
   -1.3992   -1.1557   -0.1553 N   0  0  0  0  0  0  0  0  0  0  0  0
   -2.1897   -0.3816   -0.9406 C   0  0  0  0  0  0  0  0  0  0  0  0
   -1.7302    0.8158   -1.3015 N   0  0  0  0  0  0  0  0  0  0  0  0
   -2.4282    1.5412   -2.1769 C   0  0  0  0  0  0  0  0  0  0  0  0
   -1.7321    2.7722   -2.6005 C   0  0  0  0  0  0  0  0  0  0  0  0
   -0.3591    2.7889   -2.6909 C   0  0  0  0  0  0  0  0  0  0  0  0
    0.0859    4.0202   -3.0870 N   0  0  0  0  0  0  0  0  0  0  0  0
    1.4591    4.4004   -3.2910 C   0  0  0  0  0  0  0  0  0  0  0  0
   -2.1727    4.1071   -2.9316 C   0  0  0  0  0  0  0  0  0  0  0  0
   -1.0013    4.8518   -3.2362 C   0  0  0  0  0  0  0  0  0  0  0  0
   -1.0389    6.2053   -3.5894 C   0  0  0  0  0  0  0  0  0  0  0  0
   -2.2776    6.8304   -3.6164 C   0  0  0  0  0  0  0  0  0  0  0  0
   -3.4492    6.1240   -3.2843 C   0  0  0  0  0  0  0  0  0  0  0  0
   -3.4066    4.7805   -2.9398 C   0  0  0  0  0  0  0  0  0  0  0  0
   -3.6535    1.0762   -2.6915 C   0  0  0  0  0  0  0  0  0  0  0  0
   -4.4571    1.7522   -3.7689 C   0  0  0  0  0  0  0  0  0  0  0  0
   -4.0673   -0.1559   -2.1674 C   0  0  0  0  0  0  0  0  0  0  0  0
   -3.3788   -0.8896   -1.3125 N   0  0  0  0  0  0  0  0  0  0  0  0
   -0.0242   -0.8073    1.7810 C   0  0  0  0  0  0  0  0  0  0  0  0
    2.3162   -2.7927    3.9752 C   0  0  0  0  0  0  0  0  0  0  0  0
    1.4906   -3.5698    3.2701 C   0  0  0  0  0  0  0  0  0  0  0  0
   -1.9625   -3.8506    1.5852 S   0  0  0  0  0  1  0  0  0  0  0  0
   -1.0589   -5.2680    0.8502 C   0  0  0  0  0  0  0  0  0  0  0  0
   -0.1787   -4.9570   -0.3661 C   0  0  2  0  0  0  0  0  0  0  0  0
    0.3430   -5.8781   -0.6717 H   0  0  0  0  0  0  0  0  0  0  0  0
    0.8777   -4.0223   -0.0460 N   0  0  0  0  0  0  0  0  0  0  0  0
    2.1974   -4.3198   -0.1862 C   0  0  0  0  0  0  0  0  0  0  0  0
    3.1390   -3.1779    0.1475 C   0  0  0  0  0  0  0  0  0  0  0  0
    2.6082   -5.3984   -0.5761 O   0  0  0  0  0  0  0  0  0  0  0  0
   -0.8972   -4.4982   -1.6519 C   0  0  0  0  0  0  0  0  0  0  0  0
   -2.2186   -4.2427   -1.5575 N   0  0  0  0  0  0  0  0  0  0  0  0
   -2.9497   -3.7895   -2.7115 C   0  0  0  0  0  0  0  0  0  0  0  0
   -0.2797   -4.4018   -2.7041 O   0  0  0  0  0  0  0  0  0  0  0  0
    0.9372    0.2173    4.3980 H   0  0  0  0  0  0  0  0  0  0  0  0
    4.5874    1.4543    3.6515 H   0  0  0  0  0  0  0  0  0  0  0  0
    3.2991    0.5482    4.4039 H   0  0  0  0  0  0  0  0  0  0  0  0
    1.6404    2.1501    3.1690 H   0  0  0  0  0  0  0  0  0  0  0  0
    3.0661    3.0587    2.6617 H   0  0  0  0  0  0  0  0  0  0  0  0
    1.3085    4.6634    4.2251 H   0  0  0  0  0  0  0  0  0  0  0  0
    3.0187    5.0107    3.8295 H   0  0  0  0  0  0  0  0  0  0  0  0
    2.4749    5.0493    5.5231 H   0  0  0  0  0  0  0  0  0  0  0  0
    2.2514    1.4478    5.9116 H   0  0  0  0  0  0  0  0  0  0  0  0
    0.8567    2.5090    5.5480 H   0  0  0  0  0  0  0  0  0  0  0  0
    2.1063    3.0193    6.7193 H   0  0  0  0  0  0  0  0  0  0  0  0
    5.5539    0.3672    2.0581 H   0  0  0  0  0  0  0  0  0  0  0  0
    4.6918    1.3460    0.8402 H   0  0  0  0  0  0  0  0  0  0  0  0
    4.6695   -0.4381    0.7502 H   0  0  0  0  0  0  0  0  0  0  0  0
    2.9047    0.4569   -0.3241 H   0  0  0  0  0  0  0  0  0  0  0  0
   -0.5551   -1.2201   -2.7010 H   0  0  0  0  0  0  0  0  0  0  0  0
    0.7240   -2.2565   -2.0025 H   0  0  0  0  0  0  0  0  0  0  0  0
    1.0713   -1.2499   -3.4353 H   0  0  0  0  0  0  0  0  0  0  0  0
   -1.7913   -2.0284    0.2537 H   0  0  0  0  0  0  0  0  0  0  0  0
    0.3231    1.9628   -2.4800 H   0  0  0  0  0  0  0  0  0  0  0  0
    2.1039    3.5401   -3.0729 H   0  0  0  0  0  0  0  0  0  0  0  0
    1.7431    5.2280   -2.6216 H   0  0  0  0  0  0  0  0  0  0  0  0
    1.6341    4.7157   -4.3320 H   0  0  0  0  0  0  0  0  0  0  0  0
   -0.1249    6.7543   -3.8265 H   0  0  0  0  0  0  0  0  0  0  0  0
   -2.3427    7.8871   -3.8859 H   0  0  0  0  0  0  0  0  0  0  0  0
   -4.4086    6.6465   -3.2915 H   0  0  0  0  0  0  0  0  0  0  0  0
   -4.3221    4.2573   -2.6635 H   0  0  0  0  0  0  0  0  0  0  0  0
   -5.2405    2.4134   -3.3632 H   0  0  0  0  0  0  0  0  0  0  0  0
   -4.9647    1.0022   -4.3944 H   0  0  0  0  0  0  0  0  0  0  0  0
   -3.8205    2.3621   -4.4252 H   0  0  0  0  0  0  0  0  0  0  0  0
   -5.0246   -0.5804   -2.5007 H   0  0  0  0  0  0  0  0  0  0  0  0
   -0.8611   -1.1834    2.3701 H   0  0  0  0  0  0  0  0  0  0  0  0
    3.3097   -3.1456    4.2674 H   0  0  0  0  0  0  0  0  0  0  0  0
    0.4637   -3.2914    2.9989 H   0  0  0  0  0  0  0  0  0  0  0  0
    1.8188   -4.5598    2.9407 H   0  0  0  0  0  0  0  0  0  0  0  0
   -1.7731   -6.0550    0.5563 H   0  0  0  0  0  0  0  0  0  0  0  0
   -0.3997   -5.7149    1.6119 H   0  0  0  0  0  0  0  0  0  0  0  0
    0.5984   -3.1641    0.4206 H   0  0  0  0  0  0  0  0  0  0  0  0
    2.8099   -2.6067    1.0262 H   0  0  0  0  0  0  0  0  0  0  0  0
    3.1785   -2.4840   -0.7065 H   0  0  0  0  0  0  0  0  0  0  0  0
    4.1415   -3.5884    0.3196 H   0  0  0  0  0  0  0  0  0  0  0  0
   -2.5983   -4.0818   -0.6152 H   0  0  0  0  0  0  0  0  0  0  0  0
   -2.9425   -4.5545   -3.5046 H   0  0  0  0  0  0  0  0  0  0  0  0
   -2.5153   -2.8689   -3.1352 H   0  0  0  0  0  0  0  0  0  0  0  0
   -3.9846   -3.5768   -2.4168 H   0  0  0  0  0  0  0  0  0  0  0  0
  2  1  2  0  0  0  0
  3 51  1  0  0  0  0
  3  2  1  0  0  0  0
  4  3  1  0  0  0  0
  5  6  1  0  0  0  0
  5  4  2  0  0  0  0
  6  7  1  0  0  0  0
  7 52  1  0  0  0  0
  7 53  1  0  0  0  0
  8  7  1  0  0  0  0
  8  9  1  0  0  0  0
  9 11  1  0  0  0  0
 10  9  1  0  0  0  0
 10 58  1  0  0  0  0
 11 59  1  0  0  0  0
 11 61  1  0  0  0  0
 12 62  1  0  0  0  0
 12  6  1  0  0  0  0
 13  5  1  0  0  0  0
 14 13  2  0  0  0  0
 14 17  1  0  0  0  0
 15 14  1  0  0  0  0
 16 67  1  0  0  0  0
 16 15  1  0  0  0  0
 17 36  2  0  0  0  0
 18 69  1  0  0  0  0
 18 17  1  0  0  0  0
 19 18  1  0  0  0  0
 20 19  2  0  0  0  0
 21 20  1  0  0  0  0
 22 21  1  0  0  0  0
 23 22  2  0  0  0  0
 23 70  1  0  0  0  0
 24 23  1  0  0  0  0
 25 24  1  0  0  0  0
 25 71  1  0  0  0  0
 25 72  1  0  0  0  0
 26 22  1  0  0  0  0
 27 24  1  0  0  0  0
 27 26  2  0  0  0  0
 28 27  1  0  0  0  0
 29 28  2  0  0  0  0
 29 30  1  0  0  0  0
 30 31  2  0  0  0  0
 31 26  1  0  0  0  0
 31 77  1  0  0  0  0
 32 21  2  0  0  0  0
 32 34  1  0  0  0  0
 33 78  1  0  0  0  0
 33 32  1  0  0  0  0
 34 35  2  0  0  0  0
 35 19  1  0  0  0  0
 36 82  1  0  0  0  0
 36  4  1  0  0  0  0
 37 83  1  0  0  0  0
 37  2  1  0  0  0  0
 38 37  2  0  0  0  0
 40 39  1  0  0  0  0
 40 87  1  0  0  0  0
 41 42  1  6  0  0  0
 41 43  1  0  0  0  0
 41 40  1  0  0  0  0
 43 88  1  0  0  0  0
 44 43  1  0  0  0  0
 44 45  1  0  0  0  0
 45 91  1  0  0  0  0
 45 89  1  0  0  0  0
 46 44  2  0  0  0  0
 47 48  1  0  0  0  0
 47 41  1  0  0  0  0
 48 92  1  0  0  0  0
 49 95  1  0  0  0  0
 49 48  1  0  0  0  0
 50 47  2  0  0  0  0
 54  8  1  0  0  0  0
 55  8  1  0  0  0  0
 56 10  1  0  0  0  0
 57 10  1  0  0  0  0
 60 11  1  0  0  0  0
 63 12  1  0  0  0  0
 64 12  1  0  0  0  0
 65 13  1  0  0  0  0
 66 16  1  0  0  0  0
 68 16  1  0  0  0  0
 73 25  1  0  0  0  0
 74 28  1  0  0  0  0
 75 29  1  0  0  0  0
 76 30  1  0  0  0  0
 79 33  1  0  0  0  0
 80 33  1  0  0  0  0
 81 34  1  0  0  0  0
 84 38  1  0  0  0  0
 85 38  1  0  0  0  0
 86 40  1  0  0  0  0
 90 45  1  0  0  0  0
 93 49  1  0  0  0  0
 94 49  1  0  0  0  0
M  END
