-1 1
 OpenBabel05192410563D

 95 98  0  0  1  0  0  0  0  0999 V2000
    1.9399   -1.4960    5.4833 O   0  0  0  0  0  0  0  0  0  0  0  0
    1.1285   -1.7619    4.5675 C   0  0  0  0  0  0  0  0  0  0  0  0
    0.4264   -0.6371    4.0143 N   0  0  0  0  0  0  0  0  0  0  0  0
    0.2814   -0.4166    2.6217 C   0  0  0  0  0  0  0  0  0  0  0  0
    1.3737   -0.3056    1.7109 C   0  0  0  0  0  0  0  0  0  0  0  0
    2.7079   -0.3253    2.0999 N   0  0  0  0  0  0  0  0  0  0  0  0
    3.1619    0.3366    3.3195 C   0  0  0  0  0  0  0  0  0  0  0  0
    2.7485    1.8058    3.4138 C   0  0  0  0  0  0  0  0  0  0  0  0
    3.1868    2.4082    4.6596 N   0  0  0  0  0  0  0  0  0  0  0  0
    3.2046    3.8471    4.5988 C   0  0  0  0  0  0  0  0  0  0  0  0
    2.4433    1.9338    5.8098 C   0  0  0  0  0  0  0  0  0  0  0  0
    3.7118   -0.5499    1.0916 C   0  0  0  0  0  0  0  0  0  0  0  0
    1.0527   -0.2066    0.3447 C   0  0  0  0  0  0  0  0  0  0  0  0
   -0.2518   -0.2263   -0.1444 C   0  0  0  0  0  0  0  0  0  0  0  0
   -0.3946   -0.2263   -1.5058 O   0  0  0  0  0  0  0  0  0  0  0  0
   -1.0731   -1.3356   -2.0718 C   0  0  0  0  0  0  0  0  0  0  0  0
   -1.3224   -0.2085    0.7589 C   0  0  0  0  0  0  0  0  0  0  0  0
   -2.6812   -0.1744    0.3687 N   0  0  0  0  0  0  0  0  0  0  0  0
   -3.2557    0.7416   -0.4602 C   0  0  0  0  0  0  0  0  0  0  0  0
   -2.4806    1.6841   -0.9818 N   0  0  0  0  0  0  0  0  0  0  0  0
   -2.9919    2.5044   -1.9012 C   0  0  0  0  0  0  0  0  0  0  0  0
   -1.9799    3.3767   -2.5253 C   0  0  0  0  0  0  0  0  0  0  0  0
   -0.6944    2.9094   -2.6875 C   0  0  0  0  0  0  0  0  0  0  0  0
    0.0940    3.8564   -3.2763 N   0  0  0  0  0  0  0  0  0  0  0  0
    1.4912    3.7150   -3.5961 C   0  0  0  0  0  0  0  0  0  0  0  0
   -1.9811    4.7329   -3.0218 C   0  0  0  0  0  0  0  0  0  0  0  0
   -0.6625    4.9881   -3.4872 C   0  0  0  0  0  0  0  0  0  0  0  0
   -0.2784    6.2204   -4.0269 C   0  0  0  0  0  0  0  0  0  0  0  0
   -1.2333    7.2259   -4.0829 C   0  0  0  0  0  0  0  0  0  0  0  0
   -2.5367    7.0097   -3.5973 C   0  0  0  0  0  0  0  0  0  0  0  0
   -2.9134    5.7841   -3.0665 C   0  0  0  0  0  0  0  0  0  0  0  0
   -4.3479    2.4151   -2.2773 C   0  0  0  0  0  0  0  0  0  0  0  0
   -4.9957    3.2153   -3.3740 C   0  0  0  0  0  0  0  0  0  0  0  0
   -5.0761    1.4385   -1.5878 C   0  0  0  0  0  0  0  0  0  0  0  0
   -4.5721    0.6003   -0.6965 N   0  0  0  0  0  0  0  0  0  0  0  0
   -1.0102   -0.3021    2.1157 C   0  0  0  0  0  0  0  0  0  0  0  0
    0.8344   -3.0422    4.0759 C   0  0  0  0  0  3  0  0  0  0  0  0
   -0.3834   -3.4324    3.3714 C   0  0  0  0  0  0  0  0  0  0  0  0
   -0.3563   -3.6537    1.4356 S   0  0  0  0  0  0  0  0  0  0  0  0
    1.2837   -4.3952    1.2610 C   0  0  0  0  0  0  0  0  0  0  0  0
    1.7115   -4.4897   -0.2074 C   0  0  2  0  0  0  0  0  0  0  0  0
    2.6495   -5.0656   -0.2728 H   0  0  0  0  0  0  0  0  0  0  0  0
    1.9635   -3.1920   -0.7679 N   0  0  0  0  0  0  0  0  0  0  0  0
    2.6903   -3.0672   -1.9125 C   0  0  0  0  0  0  0  0  0  0  0  0
    2.7227   -1.6763   -2.5165 C   0  0  0  0  0  0  0  0  0  0  0  0
    3.3138   -3.9963   -2.3943 O   0  0  0  0  0  0  0  0  0  0  0  0
    0.6652   -5.2390   -1.0627 C   0  0  0  0  0  0  0  0  0  0  0  0
    0.4963   -6.5454   -0.7171 N   0  0  0  0  0  0  0  0  0  0  0  0
   -0.5462   -7.3601   -1.2858 C   0  0  0  0  0  0  0  0  0  0  0  0
    0.0591   -4.7117   -1.9740 O   0  0  0  0  0  0  0  0  0  0  0  0
    0.6288    0.1932    4.5610 H   0  0  0  0  0  0  0  0  0  0  0  0
    4.2602    0.3007    3.3224 H   0  0  0  0  0  0  0  0  0  0  0  0
    2.8443   -0.2258    4.2095 H   0  0  0  0  0  0  0  0  0  0  0  0
    1.6456    1.9013    3.2787 H   0  0  0  0  0  0  0  0  0  0  0  0
    3.2017    2.3636    2.5765 H   0  0  0  0  0  0  0  0  0  0  0  0
    2.1931    4.2943    4.4487 H   0  0  0  0  0  0  0  0  0  0  0  0
    3.8471    4.1914    3.7728 H   0  0  0  0  0  0  0  0  0  0  0  0
    3.6108    4.2607    5.5362 H   0  0  0  0  0  0  0  0  0  0  0  0
    2.4195    0.8336    5.8559 H   0  0  0  0  0  0  0  0  0  0  0  0
    1.3863    2.2944    5.8017 H   0  0  0  0  0  0  0  0  0  0  0  0
    2.9103    2.3033    6.7368 H   0  0  0  0  0  0  0  0  0  0  0  0
    4.6593   -0.8135    1.5808 H   0  0  0  0  0  0  0  0  0  0  0  0
    3.9050    0.3284    0.4370 H   0  0  0  0  0  0  0  0  0  0  0  0
    3.4294   -1.3983    0.4517 H   0  0  0  0  0  0  0  0  0  0  0  0
    1.8406   -0.1131   -0.3988 H   0  0  0  0  0  0  0  0  0  0  0  0
   -1.0771   -1.1742   -3.1580 H   0  0  0  0  0  0  0  0  0  0  0  0
   -2.1126   -1.4052   -1.7172 H   0  0  0  0  0  0  0  0  0  0  0  0
   -0.5570   -2.2850   -1.8506 H   0  0  0  0  0  0  0  0  0  0  0  0
   -3.3242   -0.8207    0.8076 H   0  0  0  0  0  0  0  0  0  0  0  0
   -0.3155    1.9251   -2.4032 H   0  0  0  0  0  0  0  0  0  0  0  0
    1.8271    2.7157   -3.2933 H   0  0  0  0  0  0  0  0  0  0  0  0
    2.0955    4.4635   -3.0597 H   0  0  0  0  0  0  0  0  0  0  0  0
    1.6643    3.8322   -4.6776 H   0  0  0  0  0  0  0  0  0  0  0  0
    0.7401    6.3894   -4.3829 H   0  0  0  0  0  0  0  0  0  0  0  0
   -0.9660    8.2011   -4.4964 H   0  0  0  0  0  0  0  0  0  0  0  0
   -3.2623    7.8257   -3.6324 H   0  0  0  0  0  0  0  0  0  0  0  0
   -3.9208    5.6458   -2.6738 H   0  0  0  0  0  0  0  0  0  0  0  0
   -5.4488    4.1502   -3.0056 H   0  0  0  0  0  0  0  0  0  0  0  0
   -5.8011    2.6343   -3.8482 H   0  0  0  0  0  0  0  0  0  0  0  0
   -4.2718    3.4879   -4.1549 H   0  0  0  0  0  0  0  0  0  0  0  0
   -6.1457    1.3187   -1.8084 H   0  0  0  0  0  0  0  0  0  0  0  0
   -1.8254   -0.3476    2.8413 H   0  0  0  0  0  0  0  0  0  0  0  0
    1.4611   -3.8356    4.4913 H   0  0  0  0  0  0  0  0  0  0  0  0
   -1.2008   -2.7039    3.4686 H   0  0  0  0  0  0  0  0  0  0  0  0
   -0.7533   -4.4153    3.6988 H   0  0  0  0  0  0  0  0  0  0  0  0
    1.3013   -5.3993    1.7183 H   0  0  0  0  0  0  0  0  0  0  0  0
    1.9959   -3.7727    1.8292 H   0  0  0  0  0  0  0  0  0  0  0  0
    1.3579   -2.4353   -0.4576 H   0  0  0  0  0  0  0  0  0  0  0  0
    3.4903   -1.0742   -2.0046 H   0  0  0  0  0  0  0  0  0  0  0  0
    1.7602   -1.1547   -2.4221 H   0  0  0  0  0  0  0  0  0  0  0  0
    3.0038   -1.7672   -3.5724 H   0  0  0  0  0  0  0  0  0  0  0  0
    0.9474   -6.8660    0.1286 H   0  0  0  0  0  0  0  0  0  0  0  0
   -0.8706   -6.8832   -2.2190 H   0  0  0  0  0  0  0  0  0  0  0  0
   -1.4201   -7.4400   -0.6173 H   0  0  0  0  0  0  0  0  0  0  0  0
   -0.1750   -8.3718   -1.5107 H   0  0  0  0  0  0  0  0  0  0  0  0
  2  1  2  0  0  0  0
  3 51  1  0  0  0  0
  3  2  1  0  0  0  0
  4  3  1  0  0  0  0
  5  6  1  0  0  0  0
  5  4  2  0  0  0  0
  6  7  1  0  0  0  0
  7 52  1  0  0  0  0
  7  8  1  0  0  0  0
  7 53  1  0  0  0  0
  8  9  1  0  0  0  0
  9 11  1  0  0  0  0
 10  9  1  0  0  0  0
 10 58  1  0  0  0  0
 11 59  1  0  0  0  0
 11 61  1  0  0  0  0
 12 62  1  0  0  0  0
 12  6  1  0  0  0  0
 13  5  1  0  0  0  0
 14 13  2  0  0  0  0
 14 17  1  0  0  0  0
 15 14  1  0  0  0  0
 16 68  1  0  0  0  0
 16 67  1  0  0  0  0
 16 15  1  0  0  0  0
 17 36  2  0  0  0  0
 18 17  1  0  0  0  0
 18 69  1  0  0  0  0
 19 18  1  0  0  0  0
 20 19  2  0  0  0  0
 21 20  1  0  0  0  0
 22 21  1  0  0  0  0
 23 22  2  0  0  0  0
 23 70  1  0  0  0  0
 24 23  1  0  0  0  0
 25 71  1  0  0  0  0
 25 24  1  0  0  0  0
 25 72  1  0  0  0  0
 26 22  1  0  0  0  0
 27 24  1  0  0  0  0
 27 26  2  0  0  0  0
 28 27  1  0  0  0  0
 29 28  2  0  0  0  0
 29 30  1  0  0  0  0
 30 31  2  0  0  0  0
 31 26  1  0  0  0  0
 31 77  1  0  0  0  0
 32 21  2  0  0  0  0
 32 34  1  0  0  0  0
 33 78  1  0  0  0  0
 33 32  1  0  0  0  0
 34 35  2  0  0  0  0
 35 19  1  0  0  0  0
 36  4  1  0  0  0  0
 36 82  1  0  0  0  0
 37 83  1  0  0  0  0
 37  2  1  0  0  0  0
 38 84  1  0  0  0  0
 38 85  1  0  0  0  0
 38 37  1  0  0  0  0
 39 38  1  0  0  0  0
 40 39  1  0  0  0  0
 40 86  1  0  0  0  0
 40 87  1  0  0  0  0
 41 42  1  6  0  0  0
 41 40  1  0  0  0  0
 43 88  1  0  0  0  0
 43 41  1  0  0  0  0
 44 43  1  0  0  0  0
 45 90  1  0  0  0  0
 45 89  1  0  0  0  0
 45 44  1  0  0  0  0
 46 44  2  0  0  0  0
 47 48  1  0  0  0  0
 47 41  1  0  0  0  0
 48 92  1  0  0  0  0
 49 48  1  0  0  0  0
 49 94  1  0  0  0  0
 50 47  2  0  0  0  0
 54  8  1  0  0  0  0
 55  8  1  0  0  0  0
 56 10  1  0  0  0  0
 57 10  1  0  0  0  0
 60 11  1  0  0  0  0
 63 12  1  0  0  0  0
 64 12  1  0  0  0  0
 65 13  1  0  0  0  0
 66 16  1  0  0  0  0
 73 25  1  0  0  0  0
 74 28  1  0  0  0  0
 75 29  1  0  0  0  0
 76 30  1  0  0  0  0
 79 33  1  0  0  0  0
 80 33  1  0  0  0  0
 81 34  1  0  0  0  0
 91 45  1  0  0  0  0
 93 49  1  0  0  0  0
 95 49  1  0  0  0  0
M  END
