-1 1
 OpenBabel05232414493D

 99103  0  0  1  0  0  0  0  0999 V2000
    2.7593   -2.6589   10.0146 O   0  0  0  0  0  0  0  0  0  0  0  0
    3.6780   -2.2645    9.2478 C   0  0  0  0  0  0  0  0  0  0  0  0
    4.4344   -1.1721    9.6411 N   0  0  0  0  0  0  0  0  0  0  0  0
    5.8381   -1.0104    9.3074 C   0  0  0  0  0  0  0  0  0  0  0  0
    6.5336   -1.0553   10.6686 C   0  0  0  0  0  0  0  0  0  0  0  0
    5.5402   -0.3448   11.6003 C   0  0  1  0  0  0  0  0  0  0  0  0
    5.8005    0.7158   11.6686 H   0  0  0  0  0  0  0  0  0  0  0  0
    4.1607   -0.4712   10.8849 C   0  0  0  0  0  0  0  0  0  0  0  0
    5.6217   -0.8112   12.9938 N   0  0  0  0  0  0  0  0  0  0  0  0
    5.9258    0.1355   13.9777 C   0  0  0  0  0  0  0  0  0  0  0  0
    6.0753   -0.3482   15.2751 N   0  0  0  0  0  0  0  0  0  0  0  0
    6.3507   -1.7592   15.5304 C   0  0  0  0  0  0  0  0  0  0  0  0
    5.5321   -2.6055   14.6155 C   0  0  0  0  0  0  0  0  0  0  0  0
    5.2468   -2.1104   13.3323 C   0  0  0  0  0  0  0  0  0  0  0  0
    4.6232   -2.8244   12.4325 N   0  0  0  0  0  0  0  0  0  0  0  0
    4.1585   -4.0412   12.7891 C   0  0  0  0  0  0  0  0  0  0  0  0
    3.4155   -4.6224   11.8269 N   0  0  0  0  0  0  0  0  0  0  0  0
    2.7401   -5.8442   11.7561 C   0  0  0  0  0  0  0  0  0  0  0  0
    2.7245   -6.8175   12.7617 C   0  0  0  0  0  0  0  0  0  0  0  0
    2.0172   -8.0134   12.5967 C   0  0  0  0  0  0  0  0  0  0  0  0
    2.0499   -9.0533   13.6864 C   0  0  0  0  0  0  0  0  0  0  0  0
    1.2959   -8.2394   11.4078 C   0  0  0  0  0  0  0  0  0  0  0  0
    0.5642   -9.4514   11.2537 N   0  0  0  0  0  0  0  0  0  0  0  0
    0.4382   -9.9743    9.9055 C   0  0  0  0  0  0  0  0  0  0  0  0
   -0.0838  -11.4110    9.9670 C   0  0  0  0  0  0  0  0  0  0  0  0
   -1.3440  -11.5370   10.6825 N   0  0  0  0  0  0  0  0  0  0  0  0
   -1.2334  -10.9292   11.9984 C   0  0  0  0  0  0  0  0  0  0  0  0
   -0.7055   -9.4945   11.9648 C   0  0  0  0  0  0  0  0  0  0  0  0
   -2.5043  -11.1177    9.9274 C   0  0  0  0  0  0  0  0  0  0  0  0
    1.3308   -7.2652   10.4014 C   0  0  0  0  0  0  0  0  0  0  0  0
    2.0421   -6.0876   10.5648 C   0  0  0  0  0  0  0  0  0  0  0  0
    4.3813   -4.6149   13.9832 N   0  0  0  0  0  0  0  0  0  0  0  0
    5.0702   -3.8890   14.8601 C   0  0  0  0  0  0  0  0  0  0  0  0
    6.2920    0.5727   16.3316 C   0  0  0  0  0  0  0  0  0  0  0  0
    5.4912    1.7159   16.4672 C   0  0  0  0  0  0  0  0  0  0  0  0
    5.6883    2.5850   17.5334 C   0  0  0  0  0  0  0  0  0  0  0  0
    6.6731    2.3317   18.4902 C   0  0  0  0  0  0  0  0  0  0  0  0
    7.4655    1.1957   18.3624 C   0  0  0  0  0  0  0  0  0  0  0  0
    7.2821    0.3239   17.2890 C   0  0  0  0  0  0  0  0  0  0  0  0
    6.0383    1.3136   13.7131 O   0  0  0  0  0  0  0  0  0  0  0  0
    3.9585   -2.9242    8.0047 C   0  0  0  0  0  3  0  0  0  0  0  0
    4.3678   -2.3254    6.8071 C   0  0  0  0  0  3  0  0  0  0  0  0
    2.5937   -1.5089    5.5606 S   0  0  0  0  0  1  0  0  0  0  0  0
    1.3864   -1.7703    6.8835 C   0  0  0  0  0  0  0  0  0  0  0  0
    0.6906   -3.1442    7.1225 C   0  0  2  0  0  0  0  0  0  0  0  0
   -0.2460   -3.1823    6.5427 H   0  0  0  0  0  0  0  0  0  0  0  0
    0.3290   -3.1966    8.5157 N   0  0  0  0  0  0  0  0  0  0  0  0
   -0.8339   -3.7367    8.9515 C   0  0  0  0  0  0  0  0  0  0  0  0
   -0.8943   -3.9595   10.4518 C   0  0  0  0  0  0  0  0  0  0  0  0
   -1.7665   -4.0282    8.2199 O   0  0  0  0  0  0  0  0  0  0  0  0
    1.4156   -4.4581    6.7509 C   0  0  0  0  0  0  0  0  0  0  0  0
    1.9498   -4.5087    5.5101 N   0  0  0  0  0  0  0  0  0  0  0  0
    2.7157   -5.6567    5.1015 C   0  0  0  0  0  0  0  0  0  0  0  0
    1.4225   -5.4209    7.5048 O   0  0  0  0  0  0  0  0  0  0  0  0
    6.0189   -0.0463    8.7955 H   0  0  0  0  0  0  0  0  0  0  0  0
    6.1649   -1.8175    8.6422 H   0  0  0  0  0  0  0  0  0  0  0  0
    7.5240   -0.5765   10.6737 H   0  0  0  0  0  0  0  0  0  0  0  0
    6.6480   -2.1057   10.9720 H   0  0  0  0  0  0  0  0  0  0  0  0
    3.7690    0.5396   10.6759 H   0  0  0  0  0  0  0  0  0  0  0  0
    3.4125   -1.0291   11.4541 H   0  0  0  0  0  0  0  0  0  0  0  0
    6.1028   -1.9729   16.5801 H   0  0  0  0  0  0  0  0  0  0  0  0
    7.4319   -1.9712   15.4016 H   0  0  0  0  0  0  0  0  0  0  0  0
    3.2137   -3.9620   11.0538 H   0  0  0  0  0  0  0  0  0  0  0  0
    3.2844   -6.6360   13.6782 H   0  0  0  0  0  0  0  0  0  0  0  0
    2.9821   -8.9862   14.2655 H   0  0  0  0  0  0  0  0  0  0  0  0
    1.9611  -10.0607   13.2541 H   0  0  0  0  0  0  0  0  0  0  0  0
    1.2158   -8.9292   14.3985 H   0  0  0  0  0  0  0  0  0  0  0  0
    1.4252   -9.9513    9.4199 H   0  0  0  0  0  0  0  0  0  0  0  0
   -0.2437   -9.3605    9.2775 H   0  0  0  0  0  0  0  0  0  0  0  0
    0.6702  -12.0298   10.4846 H   0  0  0  0  0  0  0  0  0  0  0  0
   -0.2044  -11.8146    8.9490 H   0  0  0  0  0  0  0  0  0  0  0  0
   -0.5350  -11.5365   12.6014 H   0  0  0  0  0  0  0  0  0  0  0  0
   -2.2159  -10.9618   12.4963 H   0  0  0  0  0  0  0  0  0  0  0  0
   -0.5639   -9.1292   12.9919 H   0  0  0  0  0  0  0  0  0  0  0  0
   -1.4499   -8.8181   11.4884 H   0  0  0  0  0  0  0  0  0  0  0  0
   -2.5577  -11.6893    8.9874 H   0  0  0  0  0  0  0  0  0  0  0  0
   -2.5338  -10.0406    9.6611 H   0  0  0  0  0  0  0  0  0  0  0  0
   -3.4175  -11.3394   10.5023 H   0  0  0  0  0  0  0  0  0  0  0  0
    0.8015   -7.4036    9.4572 H   0  0  0  0  0  0  0  0  0  0  0  0
    2.0370   -5.3556    9.7534 H   0  0  0  0  0  0  0  0  0  0  0  0
    5.2655   -4.3609   15.8320 H   0  0  0  0  0  0  0  0  0  0  0  0
    4.7195    1.9221   15.7273 H   0  0  0  0  0  0  0  0  0  0  0  0
    5.0550    3.4706   17.6218 H   0  0  0  0  0  0  0  0  0  0  0  0
    6.8187    3.0165   19.3283 H   0  0  0  0  0  0  0  0  0  0  0  0
    8.2440    0.9818   19.0984 H   0  0  0  0  0  0  0  0  0  0  0  0
    7.9286   -0.5498   17.1960 H   0  0  0  0  0  0  0  0  0  0  0  0
    3.5398   -3.9320    7.9628 H   0  0  0  0  0  0  0  0  0  0  0  0
    4.7037   -2.9810    6.0011 H   0  0  0  0  0  0  0  0  0  0  0  0
    4.8780   -1.3600    6.8278 H   0  0  0  0  0  0  0  0  0  0  0  0
    0.5895   -1.0221    6.7724 H   0  0  0  0  0  0  0  0  0  0  0  0
    1.9090   -1.5209    7.8166 H   0  0  0  0  0  0  0  0  0  0  0  0
    1.1096   -3.0773    9.1715 H   0  0  0  0  0  0  0  0  0  0  0  0
   -0.1474   -3.3696   11.0014 H   0  0  0  0  0  0  0  0  0  0  0  0
   -0.6981   -5.0245   10.6488 H   0  0  0  0  0  0  0  0  0  0  0  0
   -1.9055   -3.7244   10.8098 H   0  0  0  0  0  0  0  0  0  0  0  0
    2.1520   -3.5971    5.0790 H   0  0  0  0  0  0  0  0  0  0  0  0
    2.1642   -6.5785    5.3340 H   0  0  0  0  0  0  0  0  0  0  0  0
    3.6905   -5.7188    5.6192 H   0  0  0  0  0  0  0  0  0  0  0  0
    2.8956   -5.6090    4.0182 H   0  0  0  0  0  0  0  0  0  0  0  0
  2  3  1  0  0  0  0
  2  1  2  0  0  0  0
  3  8  1  0  0  0  0
  4  3  1  0  0  0  0
  4  5  1  0  0  0  0
  5 57  1  0  0  0  0
  5 58  1  0  0  0  0
  5  6  1  0  0  0  0
  6  7  1  1  0  0  0
  6  9  1  0  0  0  0
  8 60  1  0  0  0  0
  8  6  1  0  0  0  0
  9 14  1  0  0  0  0
  9 10  1  0  0  0  0
 10 11  1  0  0  0  0
 11 12  1  0  0  0  0
 11 34  1  0  0  0  0
 12 61  1  0  0  0  0
 13 33  1  0  0  0  0
 13 12  1  0  0  0  0
 14 13  2  0  0  0  0
 15 16  2  0  0  0  0
 15 14  1  0  0  0  0
 16 32  1  0  0  0  0
 17 16  1  0  0  0  0
 18 17  1  0  0  0  0
 18 19  1  0  0  0  0
 19 64  1  0  0  0  0
 20 19  2  0  0  0  0
 20 21  1  0  0  0  0
 21 65  1  0  0  0  0
 21 67  1  0  0  0  0
 22 20  1  0  0  0  0
 23 22  1  0  0  0  0
 23 28  1  0  0  0  0
 24 25  1  0  0  0  0
 24 23  1  0  0  0  0
 25 70  1  0  0  0  0
 25 26  1  0  0  0  0
 26 27  1  0  0  0  0
 27 73  1  0  0  0  0
 27 72  1  0  0  0  0
 28 27  1  0  0  0  0
 28 74  1  0  0  0  0
 29 78  1  0  0  0  0
 29 26  1  0  0  0  0
 30 31  1  0  0  0  0
 30 22  2  0  0  0  0
 31 18  2  0  0  0  0
 32 33  2  0  0  0  0
 33 81  1  0  0  0  0
 34 35  2  0  0  0  0
 34 39  1  0  0  0  0
 35 36  1  0  0  0  0
 36 83  1  0  0  0  0
 36 37  2  0  0  0  0
 37 84  1  0  0  0  0
 38 37  1  0  0  0  0
 38 85  1  0  0  0  0
 39 38  2  0  0  0  0
 40 10  2  0  0  0  0
 41  2  1  0  0  0  0
 42 89  1  0  0  0  0
 42 41  1  0  0  0  0
 43 44  1  0  0  0  0
 44 45  1  0  0  0  0
 44 91  1  0  0  0  0
 45 46  1  6  0  0  0
 45 47  1  0  0  0  0
 47 48  1  0  0  0  0
 47 92  1  0  0  0  0
 48 49  1  0  0  0  0
 49 94  1  0  0  0  0
 49 95  1  0  0  0  0
 49 93  1  0  0  0  0
 50 48  2  0  0  0  0
 51 45  1  0  0  0  0
 51 54  2  0  0  0  0
 52 51  1  0  0  0  0
 53 97  1  0  0  0  0
 53 52  1  0  0  0  0
 53 98  1  0  0  0  0
 55  4  1  0  0  0  0
 56  4  1  0  0  0  0
 59  8  1  0  0  0  0
 62 12  1  0  0  0  0
 63 17  1  0  0  0  0
 66 21  1  0  0  0  0
 68 24  1  0  0  0  0
 69 24  1  0  0  0  0
 71 25  1  0  0  0  0
 75 28  1  0  0  0  0
 76 29  1  0  0  0  0
 77 29  1  0  0  0  0
 79 30  1  0  0  0  0
 80 31  1  0  0  0  0
 82 35  1  0  0  0  0
 86 39  1  0  0  0  0
 87 41  1  0  0  0  0
 88 42  1  0  0  0  0
 90 44  1  0  0  0  0
 96 52  1  0  0  0  0
 99 53  1  0  0  0  0
M  END
