99
-1 1
O        -0.140597    0.987877   -1.186577
C         0.698692    1.467572   -2.022771
N         1.428401    2.604373   -1.618257
C         2.839271    2.740483   -1.929566
C         3.531900    2.646617   -0.568324
C         2.551733    3.367248    0.365816
H         2.819704    4.426980    0.419114
C         1.164523    3.242320   -0.339641
N         2.638102    2.918478    1.766916
C         2.903649    3.880322    2.744015
N         3.022408    3.416380    4.054043
C         3.306108    2.012675    4.340805
C         2.528974    1.142268    3.412411
C         2.276501    1.617857    2.114611
N         1.693364    0.884290    1.206454
C         1.227289   -0.332039    1.561707
N         0.514181   -0.918651    0.581682
C        -0.188774   -2.121423    0.512964
C        -0.205810   -3.105951    1.508152
C        -0.941121   -4.285258    1.345202
C        -0.909718   -5.337262    2.423405
C        -1.691160   -4.482948    0.169621
N        -2.451282   -5.678712    0.017926
C        -2.608523   -6.189029   -1.331165
C        -3.157774   -7.615667   -1.271934
N        -4.408827   -7.722339   -0.537308
C        -4.265601   -7.125879    0.780938
C        -3.709821   -5.701561    0.748696
C        -5.572292   -7.275085   -1.270852
C        -1.658566   -3.497518   -0.826313
C        -0.918302   -2.337472   -0.666679
N         1.422477   -0.890781    2.768999
C         2.076787   -0.145116    3.656788
C         3.186421    4.354653    5.103311
C         2.370559    5.492664    5.187746
C         2.513181    6.378783    6.248351
C         3.457590    6.149395    7.250904
C         4.264846    5.019270    7.174182
C         4.136138    4.130019    6.106981
O         3.009365    5.056991    2.468985
C         0.903820    0.914774   -3.289180
C         1.265331    1.642410   -4.506521
S        -0.257186    2.292180   -5.541318
C        -1.600039    2.122315   -4.331749
C        -2.303886    0.761895   -4.016908
H        -3.300271    0.765698   -4.490282
N        -2.531636    0.701436   -2.600330
C        -3.707997    0.283374   -2.077528
C        -3.663721    0.029656   -0.582649
O        -4.725465    0.115097   -2.733275
C        -1.698964   -0.584848   -4.479297
N        -1.233248   -0.635569   -5.752685
C        -0.599476   -1.835927   -6.236367
O        -1.746409   -1.573903   -3.767885
H         3.057506    3.710662   -2.418491
H         3.150229    1.938062   -2.610017
H         4.534658    3.099712   -0.548856
H         3.614454    1.587815   -0.286269
H         0.747241    4.255298   -0.484621
H         0.441500    2.639176    0.217202
H         3.025346    1.812209    5.385012
H         4.393836    1.813100    4.252474
H         0.324824   -0.242934   -0.195805
H         0.373733   -2.944282    2.416442
H         0.034413   -5.295837    2.985351
H        -1.028300   -6.338068    1.982842
H        -1.727321   -5.202999    3.152717
H        -1.628886   -6.181690   -1.832116
H        -3.288098   -5.557749   -1.944625
H        -2.408158   -8.252877   -0.770687
H        -3.302599   -8.009588   -2.290715
H        -3.569849   -7.751028    1.368417
H        -5.240655   -7.143029    1.294069
H        -3.544154   -5.346755    1.775838
H        -4.448501   -5.006856    0.289622
H        -5.651918   -7.838790   -2.213906
H        -5.584939   -6.195587   -1.529200
H        -6.480606   -7.482889   -0.682977
H        -2.215771   -3.614854   -1.757291
H        -0.923007   -1.589403   -1.463196
H         2.249553   -0.603418    4.639574
H         1.630742    5.681142    4.411574
H         1.868359    7.259320    6.295875
H         3.560346    6.847623    8.084276
H         5.012620    4.823473    7.946290
H         4.793722    3.261211    6.055264
H         0.456459   -0.073410   -3.411939
H         1.790575    1.032871   -5.256562
H         1.840737    2.559556   -4.331197
H        -2.364482    2.839855   -4.661080
H        -1.200826    2.503401   -3.384334
H        -1.687645    0.739140   -2.001236
H        -2.806870    0.517381   -0.097444
H        -3.571563   -1.055499   -0.422217
H        -4.606605    0.365294   -0.130576
H        -0.953735    0.257841   -6.162330
H        -1.220740   -2.708339   -5.991918
H         0.393214   -2.000269   -5.780179
H        -0.481302   -1.772862   -7.327346
