99
-1 1
O         2.759251   -2.658851   10.014642
C         3.678043   -2.264482    9.247830
N         4.434424   -1.172087    9.641146
C         5.838088   -1.010379    9.307359
C         6.533650   -1.055343   10.668592
C         5.540201   -0.344761   11.600286
H         5.800486    0.715789   11.668559
C         4.160740   -0.471226   10.884876
N         5.621697   -0.811150   12.993830
C         5.925832    0.135517   13.977698
N         6.075292   -0.348188   15.275108
C         6.350747   -1.759236   15.530379
C         5.532149   -2.605481   14.615529
C         5.246807   -2.110429   13.332284
N         4.623207   -2.824397   12.432520
C         4.158540   -4.041215   12.789065
N         3.415456   -4.622416   11.826907
C         2.740092   -5.844223   11.756100
C         2.724499   -6.817453   12.761688
C         2.017187   -8.013385   12.596677
C         2.049919   -9.053299   13.686372
C         1.295852   -8.239412   11.407808
N         0.564157   -9.451382   11.253684
C         0.438210   -9.974292    9.905511
C        -0.083751  -11.410989    9.967006
N        -1.343956  -11.536978   10.682499
C        -1.233400  -10.929216   11.998433
C        -0.705476   -9.494458   11.964833
C        -2.504270  -11.117727    9.927394
C         1.330768   -7.265202   10.401438
C         2.042083   -6.087615   10.564769
N         4.381281   -4.614934   13.983194
C         5.070239   -3.888971   14.860073
C         6.291971    0.572708   16.331564
C         5.491182    1.715854   16.467239
C         5.688340    2.584970   17.533417
C         6.673111    2.331734   18.490190
C         7.465517    1.195652   18.362379
C         7.282097    0.323855   17.288987
O         6.038329    1.313574   13.713053
C         3.958483   -2.924184    8.004732
C         4.367825   -2.325392    6.807112
S         2.593660   -1.508887    5.560635
C         1.386394   -1.770309    6.883539
C         0.690559   -3.144182    7.122535
H        -0.246026   -3.182285    6.542745
N         0.328982   -3.196598    8.515684
C        -0.833851   -3.736696    8.951484
C        -0.894311   -3.959515   10.451821
O        -1.766547   -4.028234    8.219915
C         1.415583   -4.458104    6.750934
N         1.949846   -4.508659    5.510148
C         2.715677   -5.656741    5.101535
O         1.422513   -5.420940    7.504798
H         6.018932   -0.046316    8.795495
H         6.164871   -1.817485    8.642240
H         7.523955   -0.576544   10.673707
H         6.648031   -2.105664   10.971951
H         3.769004    0.539565   10.675908
H         3.412525   -1.029135   11.454075
H         6.102760   -1.972947   16.580117
H         7.431919   -1.971215   15.401648
H         3.213687   -3.962018   11.053822
H         3.284437   -6.636028   13.678202
H         2.982092   -8.986223   14.265509
H         1.961129  -10.060737   13.254090
H         1.215842   -8.929232   14.398519
H         1.425239   -9.951252    9.419880
H        -0.243681   -9.360499    9.277502
H         0.670180  -12.029775   10.484607
H        -0.204416  -11.814645    8.948999
H        -0.534998  -11.536474   12.601378
H        -2.215891  -10.961817   12.496334
H        -0.563948   -9.129157   12.991865
H        -1.449948   -8.818060   11.488400
H        -2.557722  -11.689334    8.987353
H        -2.533769  -10.040563    9.661053
H        -3.417525  -11.339410   10.502331
H         0.801467   -7.403636    9.457226
H         2.037035   -5.355581    9.753380
H         5.265465   -4.360854   15.831966
H         4.719538    1.922096   15.727268
H         5.055007    3.470610   17.621832
H         6.818654    3.016531   19.328262
H         8.243994    0.981847   19.098429
H         7.928588   -0.549829   17.196012
H         3.539791   -3.932041    7.962834
H         4.703670   -2.980956    6.001138
H         4.877958   -1.359974    6.827764
H         0.589500   -1.022073    6.772402
H         1.908998   -1.520909    7.816632
H         1.109584   -3.077334    9.171542
H        -0.147421   -3.369649   11.001406
H        -0.698070   -5.024519   10.648793
H        -1.905501   -3.724409   10.809773
H         2.152037   -3.597114    5.079039
H         2.164158   -6.578476    5.334029
H         3.690507   -5.718817    5.619179
H         2.895627   -5.609017    4.018220
