-1 1
 OpenBabel05232413483D

 99103  0  0  1  0  0  0  0  0999 V2000
   -0.3644    1.2909   -1.1552 O   0  0  0  0  0  0  0  0  0  0  0  0
    0.5444    1.7752   -1.8297 C   0  0  0  0  0  0  0  0  0  0  0  0
    1.3000    2.8126   -1.3775 N   0  0  0  0  0  0  0  0  0  0  0  0
    2.6521    3.1323   -1.8161 C   0  0  0  0  0  0  0  0  0  0  0  0
    3.4626    3.0343   -0.5242 C   0  0  0  0  0  0  0  0  0  0  0  0
    2.4974    3.5876    0.5377 C   0  0  1  0  0  0  0  0  0  0  0  0
    2.6733    4.6606    0.6600 H   0  0  0  0  0  0  0  0  0  0  0  0
    1.0754    3.3867   -0.0590 C   0  0  0  0  0  0  0  0  0  0  0  0
    2.7138    3.0421    1.8809 N   0  0  0  0  0  0  0  0  0  0  0  0
    2.9165    3.9667    2.9194 C   0  0  0  0  0  0  0  0  0  0  0  0
    3.1328    3.4376    4.1823 N   0  0  0  0  0  0  0  0  0  0  0  0
    3.5348    2.0462    4.3663 C   0  0  0  0  0  0  0  0  0  0  0  0
    2.7951    1.1748    3.4091 C   0  0  0  0  0  0  0  0  0  0  0  0
    2.4726    1.6953    2.1463 C   0  0  0  0  0  0  0  0  0  0  0  0
    1.9232    0.9655    1.2049 N   0  0  0  0  0  0  0  0  0  0  0  0
    1.5849   -0.3067    1.5114 C   0  0  0  0  0  0  0  0  0  0  0  0
    0.9661   -0.9574    0.5077 N   0  0  0  0  0  0  0  0  0  0  0  0
    0.2841   -2.1897    0.4480 C   0  0  0  0  0  0  0  0  0  0  0  0
   -0.1167   -2.9465    1.5518 C   0  0  0  0  0  0  0  0  0  0  0  0
   -0.9773   -4.0393    1.3924 C   0  0  0  0  0  0  0  0  0  0  0  0
   -1.3929   -4.8374    2.6012 C   0  0  0  0  0  0  0  0  0  0  0  0
   -1.4614   -4.3674    0.1069 C   0  0  0  0  0  0  0  0  0  0  0  0
   -2.4880   -5.3370   -0.0346 N   0  0  0  0  0  0  0  0  0  0  0  0
   -2.6153   -5.9296   -1.3602 C   0  0  0  0  0  0  0  0  0  0  0  0
   -3.6591   -7.0454   -1.3342 C   0  0  0  0  0  0  0  0  0  0  0  0
   -4.9644   -6.6000   -0.8766 N   0  0  0  0  0  0  0  0  0  0  0  0
   -4.8231   -5.9609    0.4208 C   0  0  0  0  0  0  0  0  0  0  0  0
   -3.7896   -4.8369    0.4333 C   0  0  0  0  0  0  0  0  0  0  0  0
   -5.6877   -5.7940   -1.8448 C   0  0  0  0  0  0  0  0  0  0  0  0
   -0.9479   -3.6739   -0.9949 C   0  0  0  0  0  0  0  0  0  0  0  0
   -0.0871   -2.6032   -0.8320 C   0  0  0  0  0  0  0  0  0  0  0  0
    1.8162   -0.8939    2.6946 N   0  0  0  0  0  0  0  0  0  0  0  0
    2.4257   -0.1464    3.6086 C   0  0  0  0  0  0  0  0  0  0  0  0
    3.2624    4.3198    5.2881 C   0  0  0  0  0  0  0  0  0  0  0  0
    2.3393    5.3533    5.4959 C   0  0  0  0  0  0  0  0  0  0  0  0
    2.4561    6.1798    6.6073 C   0  0  0  0  0  0  0  0  0  0  0  0
    3.4809    5.9877    7.5354 C   0  0  0  0  0  0  0  0  0  0  0  0
    4.3952    4.9584    7.3348 C   0  0  0  0  0  0  0  0  0  0  0  0
    4.2921    4.1316    6.2163 C   0  0  0  0  0  0  0  0  0  0  0  0
    2.8858    5.1606    2.7108 O   0  0  0  0  0  0  0  0  0  0  0  0
    0.7926    1.2329   -3.1953 C   0  0  0  0  0  0  0  0  0  0  0  0
    0.9244    1.9913   -4.2850 C   0  0  0  0  0  0  0  0  0  0  0  0
   -3.1936    0.6032   -6.3419 S   0  0  0  0  0  1  0  0  0  0  0  0
   -2.7826    0.5697   -4.5592 C   0  0  0  0  0  0  0  0  0  0  0  0
   -2.4406   -0.8102   -3.9374 C   0  0  2  0  0  0  0  0  0  0  0  0
   -3.2666   -1.5040   -4.1556 H   0  0  0  0  0  0  0  0  0  0  0  0
   -2.3621   -0.6861   -2.4983 N   0  0  0  0  0  0  0  0  0  0  0  0
   -3.0800   -1.4324   -1.6329 C   0  0  0  0  0  0  0  0  0  0  0  0
   -2.9583   -1.0163   -0.1790 C   0  0  0  0  0  0  0  0  0  0  0  0
   -3.8038   -2.3650   -1.9673 O   0  0  0  0  0  0  0  0  0  0  0  0
   -1.1520   -1.4287   -4.4987 C   0  0  0  0  0  0  0  0  0  0  0  0
   -1.1541   -1.6114   -5.8268 N   0  0  0  0  0  0  0  0  0  0  0  0
    0.0283   -2.0570   -6.5114 C   0  0  0  0  0  0  0  0  0  0  0  0
   -0.1873   -1.7311   -3.7895 O   0  0  0  0  0  0  0  0  0  0  0  0
    2.6887    4.1548   -2.2337 H   0  0  0  0  0  0  0  0  0  0  0  0
    2.9874    2.4385   -2.5945 H   0  0  0  0  0  0  0  0  0  0  0  0
    4.4051    3.5984   -0.5615 H   0  0  0  0  0  0  0  0  0  0  0  0
    3.6883    1.9790   -0.3201 H   0  0  0  0  0  0  0  0  0  0  0  0
    0.5656    4.3595   -0.1548 H   0  0  0  0  0  0  0  0  0  0  0  0
    0.4382    2.7150    0.5233 H   0  0  0  0  0  0  0  0  0  0  0  0
    3.3103    1.7589    5.4035 H   0  0  0  0  0  0  0  0  0  0  0  0
    4.6299    1.9398    4.2287 H   0  0  0  0  0  0  0  0  0  0  0  0
    0.7510   -0.3404   -0.2729 H   0  0  0  0  0  0  0  0  0  0  0  0
    0.2295   -2.6676    2.5466 H   0  0  0  0  0  0  0  0  0  0  0  0
   -0.5646   -4.9119    3.3213 H   0  0  0  0  0  0  0  0  0  0  0  0
   -1.7035   -5.8481    2.2996 H   0  0  0  0  0  0  0  0  0  0  0  0
   -2.2429   -4.3750    3.1312 H   0  0  0  0  0  0  0  0  0  0  0  0
   -1.6378   -6.3350   -1.6646 H   0  0  0  0  0  0  0  0  0  0  0  0
   -2.9131   -5.1750   -2.1157 H   0  0  0  0  0  0  0  0  0  0  0  0
   -3.3078   -7.8424   -0.6548 H   0  0  0  0  0  0  0  0  0  0  0  0
   -3.7572   -7.4847   -2.3400 H   0  0  0  0  0  0  0  0  0  0  0  0
   -4.5185   -6.7302    1.1535 H   0  0  0  0  0  0  0  0  0  0  0  0
   -5.8017   -5.5678    0.7404 H   0  0  0  0  0  0  0  0  0  0  0  0
   -3.6868   -4.4529    1.4577 H   0  0  0  0  0  0  0  0  0  0  0  0
   -4.1173   -3.9921   -0.2049 H   0  0  0  0  0  0  0  0  0  0  0  0
   -5.7875   -6.3577   -2.7857 H   0  0  0  0  0  0  0  0  0  0  0  0
   -5.2268   -4.8146   -2.0828 H   0  0  0  0  0  0  0  0  0  0  0  0
   -6.7042   -5.5989   -1.4670 H   0  0  0  0  0  0  0  0  0  0  0  0
   -1.2779   -3.8992   -2.0074 H   0  0  0  0  0  0  0  0  0  0  0  0
    0.2009   -2.0450   -1.7261 H   0  0  0  0  0  0  0  0  0  0  0  0
    2.6325   -0.6302    4.5718 H   0  0  0  0  0  0  0  0  0  0  0  0
    1.5360    5.5101    4.7776 H   0  0  0  0  0  0  0  0  0  0  0  0
    1.7284    6.9810    6.7540 H   0  0  0  0  0  0  0  0  0  0  0  0
    3.5632    6.6373    8.4092 H   0  0  0  0  0  0  0  0  0  0  0  0
    5.2055    4.7950    8.0488 H   0  0  0  0  0  0  0  0  0  0  0  0
    5.0296    3.3420    6.0655 H   0  0  0  0  0  0  0  0  0  0  0  0
    0.6675    0.1462   -3.2866 H   0  0  0  0  0  0  0  0  0  0  0  0
    0.9406    1.5390   -5.2796 H   0  0  0  0  0  0  0  0  0  0  0  0
    0.9629    3.0839   -4.2319 H   0  0  0  0  0  0  0  0  0  0  0  0
   -3.6409    0.9401   -3.9778 H   0  0  0  0  0  0  0  0  0  0  0  0
   -1.9404    1.2511   -4.3418 H   0  0  0  0  0  0  0  0  0  0  0  0
   -1.7386    0.0232   -2.1159 H   0  0  0  0  0  0  0  0  0  0  0  0
   -2.2214   -0.2173   -0.0208 H   0  0  0  0  0  0  0  0  0  0  0  0
   -2.6789   -1.8931    0.4213 H   0  0  0  0  0  0  0  0  0  0  0  0
   -3.9468   -0.6743    0.1629 H   0  0  0  0  0  0  0  0  0  0  0  0
   -1.8808   -1.0618   -6.3441 H   0  0  0  0  0  0  0  0  0  0  0  0
    0.4873   -2.8954   -5.9682 H   0  0  0  0  0  0  0  0  0  0  0  0
    0.7923   -1.2623   -6.5980 H   0  0  0  0  0  0  0  0  0  0  0  0
   -0.2405   -2.3861   -7.5250 H   0  0  0  0  0  0  0  0  0  0  0  0
  2  3  1  0  0  0  0
  2  1  2  0  0  0  0
  3  8  1  0  0  0  0
  4  3  1  0  0  0  0
  4  5  1  0  0  0  0
  5 58  1  0  0  0  0
  5  6  1  0  0  0  0
  6  7  1  1  0  0  0
  6  9  1  0  0  0  0
  8 60  1  0  0  0  0
  8  6  1  0  0  0  0
  9 14  1  0  0  0  0
  9 10  1  0  0  0  0
 10 11  1  0  0  0  0
 11 12  1  0  0  0  0
 11 34  1  0  0  0  0
 12 61  1  0  0  0  0
 13 33  1  0  0  0  0
 13 12  1  0  0  0  0
 14 13  2  0  0  0  0
 15 16  2  0  0  0  0
 15 14  1  0  0  0  0
 16 32  1  0  0  0  0
 17 16  1  0  0  0  0
 18 17  1  0  0  0  0
 18 19  1  0  0  0  0
 19 64  1  0  0  0  0
 20 19  2  0  0  0  0
 20 21  1  0  0  0  0
 21 67  1  0  0  0  0
 21 65  1  0  0  0  0
 22 20  1  0  0  0  0
 23 22  1  0  0  0  0
 23 28  1  0  0  0  0
 24 25  1  0  0  0  0
 24 23  1  0  0  0  0
 25 26  1  0  0  0  0
 25 70  1  0  0  0  0
 26 27  1  0  0  0  0
 27 28  1  0  0  0  0
 27 73  1  0  0  0  0
 27 72  1  0  0  0  0
 28 74  1  0  0  0  0
 29 78  1  0  0  0  0
 29 26  1  0  0  0  0
 30 31  1  0  0  0  0
 30 22  2  0  0  0  0
 31 18  2  0  0  0  0
 32 33  2  0  0  0  0
 33 81  1  0  0  0  0
 34 35  2  0  0  0  0
 34 39  1  0  0  0  0
 35 36  1  0  0  0  0
 36 83  1  0  0  0  0
 36 37  2  0  0  0  0
 37 84  1  0  0  0  0
 38 37  1  0  0  0  0
 38 85  1  0  0  0  0
 39 38  2  0  0  0  0
 40 10  2  0  0  0  0
 41  2  1  0  0  0  0
 42 89  1  0  0  0  0
 42 41  2  0  0  0  0
 43 44  1  0  0  0  0
 44 91  1  0  0  0  0
 44 90  1  0  0  0  0
 44 45  1  0  0  0  0
 45 46  1  6  0  0  0
 45 47  1  0  0  0  0
 47 92  1  0  0  0  0
 47 48  1  0  0  0  0
 48 49  1  0  0  0  0
 49 93  1  0  0  0  0
 49 95  1  0  0  0  0
 49 94  1  0  0  0  0
 50 48  2  0  0  0  0
 51 45  1  0  0  0  0
 51 54  2  0  0  0  0
 52 51  1  0  0  0  0
 53 97  1  0  0  0  0
 53 52  1  0  0  0  0
 55  4  1  0  0  0  0
 56  4  1  0  0  0  0
 57  5  1  0  0  0  0
 59  8  1  0  0  0  0
 62 12  1  0  0  0  0
 63 17  1  0  0  0  0
 66 21  1  0  0  0  0
 68 24  1  0  0  0  0
 69 24  1  0  0  0  0
 71 25  1  0  0  0  0
 75 28  1  0  0  0  0
 76 29  1  0  0  0  0
 77 29  1  0  0  0  0
 79 30  1  0  0  0  0
 80 31  1  0  0  0  0
 82 35  1  0  0  0  0
 86 39  1  0  0  0  0
 87 41  1  0  0  0  0
 88 42  1  0  0  0  0
 96 52  1  0  0  0  0
 98 53  1  0  0  0  0
 99 53  1  0  0  0  0
M  END
