-1 1
 OpenBabel05192410563D

 96101  0  0  1  0  0  0  0  0999 V2000
   -1.0714    2.5278   -0.9120 O   0  0  0  0  0  0  0  0  0  0  0  0
    0.1733    2.7707   -0.7974 C   0  0  0  0  0  0  0  0  0  0  0  0
    0.5736    3.4815    0.3533 N   0  0  0  0  0  0  0  0  0  0  0  0
    1.8446    3.3265    1.0257 C   0  0  0  0  0  0  0  0  0  0  0  0
    1.4711    2.9485    2.4619 C   0  0  0  0  0  0  0  0  0  0  0  0
    0.1287    3.6612    2.7041 C   0  0  1  0  0  0  0  0  0  0  0  0
    0.3041    4.5907    3.2539 H   0  0  0  0  0  0  0  0  0  0  0  0
   -0.4068    3.9986    1.2821 C   0  0  0  0  0  0  0  0  0  0  0  0
   -0.7673    2.8914    3.5964 N   0  0  0  0  0  0  0  0  0  0  0  0
   -0.6669    3.1602    4.9631 C   0  0  0  0  0  0  0  0  0  0  0  0
   -1.3846    2.3255    5.8212 N   0  0  0  0  0  0  0  0  0  0  0  0
   -2.4678    1.4715    5.3416 C   0  0  0  0  0  0  0  0  0  0  0  0
   -2.1318    0.9274    3.9955 C   0  0  0  0  0  0  0  0  0  0  0  0
   -1.3460    1.7143    3.1373 C   0  0  0  0  0  0  0  0  0  0  0  0
   -1.1043    1.3616    1.9036 N   0  0  0  0  0  0  0  0  0  0  0  0
   -1.6688    0.2370    1.4325 C   0  0  0  0  0  0  0  0  0  0  0  0
   -1.5327    0.1056    0.0934 N   0  0  0  0  0  0  0  0  0  0  0  0
   -1.6408   -1.0057   -0.7247 C   0  0  0  0  0  0  0  0  0  0  0  0
   -1.3165   -0.8056   -2.0808 C   0  0  0  0  0  0  0  0  0  0  0  0
   -1.3210   -1.8778   -2.9449 C   0  0  0  0  0  0  0  0  0  0  0  0
   -1.0046   -1.6552   -4.2400 F   0  0  0  0  0  0  0  0  0  0  0  0
   -1.6061   -3.1945   -2.5502 C   0  0  0  0  0  0  0  0  0  0  0  0
   -1.5349   -4.2372   -3.4959 N   0  0  0  0  0  0  0  0  0  0  0  0
   -2.2805   -5.4442   -3.2130 C   0  0  0  0  0  0  0  0  0  0  0  0
   -2.3556   -6.3040   -4.4789 C   0  0  0  0  0  0  0  0  0  0  0  0
   -1.0581   -6.6159   -5.0522 N   0  0  0  0  0  0  0  0  0  0  0  0
   -0.2965   -5.3902   -5.2562 C   0  0  0  0  0  0  0  0  0  0  0  0
   -0.1954   -4.5233   -4.0057 C   0  0  0  0  0  0  0  0  0  0  0  0
   -0.3346   -7.6593   -4.3633 C   0  0  0  0  0  0  0  0  0  0  0  0
   -1.9577   -3.3596   -1.2070 C   0  0  0  0  0  0  0  0  0  0  0  0
   -1.9928   -2.2951   -0.3048 C   0  0  0  0  0  0  0  0  0  0  0  0
   -2.3150   -0.6569    2.1993 N   0  0  0  0  0  0  0  0  0  0  0  0
   -2.5302   -0.2884    3.4619 C   0  0  0  0  0  0  0  0  0  0  0  0
   -1.2609    2.5049    7.2217 C   0  0  0  0  0  0  0  0  0  0  0  0
   -0.0045    2.6701    7.8241 C   0  0  0  0  0  0  0  0  0  0  0  0
    0.0987    2.7959    9.2041 C   0  0  0  0  0  0  0  0  0  0  0  0
   -1.0370    2.7496   10.0149 C   0  0  0  0  0  0  0  0  0  0  0  0
   -2.2840    2.5797    9.4227 C   0  0  0  0  0  0  0  0  0  0  0  0
   -2.3982    2.4630    8.0373 C   0  0  0  0  0  0  0  0  0  0  0  0
    0.0267    4.0627    5.3822 O   0  0  0  0  0  0  0  0  0  0  0  0
    1.0831    2.3736   -1.7838 C   0  0  0  0  0  3  0  0  0  0  0  0
    2.5113    2.6282   -1.9517 C   0  0  0  0  0  0  0  0  0  0  0  0
    3.6946    1.1973   -1.3464 S   0  0  0  0  0  0  0  0  0  0  0  0
    2.7347   -0.1969   -1.9781 C   0  0  0  0  0  0  0  0  0  0  0  0
    2.8336   -0.4066   -3.5180 C   0  0  2  0  0  0  0  0  0  0  0  0
    3.5991    0.2773   -3.9156 H   0  0  0  0  0  0  0  0  0  0  0  0
    1.6246   -0.0783   -4.2177 N   0  0  0  0  0  0  0  0  0  0  0  0
    1.5266    1.0077   -5.0309 C   0  0  0  0  0  0  0  0  0  0  0  0
    0.1318    1.2917   -5.5446 C   0  0  0  0  0  0  0  0  0  0  0  0
    2.4719    1.7333   -5.2899 O   0  0  0  0  0  0  0  0  0  0  0  0
    3.2595   -1.8401   -3.8269 C   0  0  0  0  0  0  0  0  0  0  0  0
    4.5588   -2.0946   -3.5117 N   0  0  0  0  0  0  0  0  0  0  0  0
    5.1481   -3.4037   -3.6110 C   0  0  0  0  0  0  0  0  0  0  0  0
    2.5057   -2.6837   -4.2786 O   0  0  0  0  0  0  0  0  0  0  0  0
    2.4370    4.2655    1.0141 H   0  0  0  0  0  0  0  0  0  0  0  0
    2.4495    2.5408    0.5579 H   0  0  0  0  0  0  0  0  0  0  0  0
    2.2293    3.2370    3.2048 H   0  0  0  0  0  0  0  0  0  0  0  0
    1.3257    1.8608    2.5174 H   0  0  0  0  0  0  0  0  0  0  0  0
   -0.4868    5.1006    1.1996 H   0  0  0  0  0  0  0  0  0  0  0  0
   -1.3849    3.5692    1.0427 H   0  0  0  0  0  0  0  0  0  0  0  0
   -3.4192    2.0403    5.3019 H   0  0  0  0  0  0  0  0  0  0  0  0
   -2.6105    0.6564    6.0667 H   0  0  0  0  0  0  0  0  0  0  0  0
   -1.2916    1.0362   -0.3652 H   0  0  0  0  0  0  0  0  0  0  0  0
   -1.0657    0.1986   -2.4320 H   0  0  0  0  0  0  0  0  0  0  0  0
   -3.2979   -5.1743   -2.8896 H   0  0  0  0  0  0  0  0  0  0  0  0
   -1.8233   -6.0365   -2.3871 H   0  0  0  0  0  0  0  0  0  0  0  0
   -2.9405   -5.7473   -5.2317 H   0  0  0  0  0  0  0  0  0  0  0  0
   -2.8943   -7.2417   -4.2655 H   0  0  0  0  0  0  0  0  0  0  0  0
   -0.7973   -4.7995   -6.0424 H   0  0  0  0  0  0  0  0  0  0  0  0
    0.7115   -5.6406   -5.6211 H   0  0  0  0  0  0  0  0  0  0  0  0
    0.3351   -3.5939   -4.2438 H   0  0  0  0  0  0  0  0  0  0  0  0
    0.4120   -5.0368   -3.2280 H   0  0  0  0  0  0  0  0  0  0  0  0
   -0.9483   -8.5741   -4.3283 H   0  0  0  0  0  0  0  0  0  0  0  0
   -0.0346   -7.4213   -3.3204 H   0  0  0  0  0  0  0  0  0  0  0  0
    0.5854   -7.8981   -4.9200 H   0  0  0  0  0  0  0  0  0  0  0  0
   -2.2043   -4.3580   -0.8411 H   0  0  0  0  0  0  0  0  0  0  0  0
   -2.2732   -2.4544    0.7344 H   0  0  0  0  0  0  0  0  0  0  0  0
   -3.0742   -1.0057    4.0902 H   0  0  0  0  0  0  0  0  0  0  0  0
    0.8875    2.7094    7.2015 H   0  0  0  0  0  0  0  0  0  0  0  0
    1.0862    2.9244    9.6534 H   0  0  0  0  0  0  0  0  0  0  0  0
   -0.9471    2.8448   11.0991 H   0  0  0  0  0  0  0  0  0  0  0  0
   -3.1859    2.5445   10.0384 H   0  0  0  0  0  0  0  0  0  0  0  0
   -3.3879    2.3511    7.5926 H   0  0  0  0  0  0  0  0  0  0  0  0
    0.5944    1.8370   -2.5986 H   0  0  0  0  0  0  0  0  0  0  0  0
    2.9062    3.4913   -1.3987 H   0  0  0  0  0  0  0  0  0  0  0  0
    2.7895    2.7326   -3.0089 H   0  0  0  0  0  0  0  0  0  0  0  0
    1.6818   -0.0104   -1.7045 H   0  0  0  0  0  0  0  0  0  0  0  0
    3.0661   -1.0897   -1.4288 H   0  0  0  0  0  0  0  0  0  0  0  0
    0.8310   -0.7004   -4.1221 H   0  0  0  0  0  0  0  0  0  0  0  0
   -0.5185    0.4077   -5.5359 H   0  0  0  0  0  0  0  0  0  0  0  0
    0.2002    1.7096   -6.5568 H   0  0  0  0  0  0  0  0  0  0  0  0
   -0.3104    2.0562   -4.8866 H   0  0  0  0  0  0  0  0  0  0  0  0
    5.1052   -1.3319   -3.1298 H   0  0  0  0  0  0  0  0  0  0  0  0
    6.0236   -3.4044   -4.2802 H   0  0  0  0  0  0  0  0  0  0  0  0
    4.3876   -4.0771   -4.0264 H   0  0  0  0  0  0  0  0  0  0  0  0
    5.4597   -3.7876   -2.6257 H   0  0  0  0  0  0  0  0  0  0  0  0
  1  2  2  0  0  0  0
  2  3  1  0  0  0  0
  3  4  1  0  0  0  0
  3  8  1  0  0  0  0
  4  5  1  0  0  0  0
  5 58  1  0  0  0  0
  5  6  1  0  0  0  0
  5 57  1  0  0  0  0
  6  7  1  1  0  0  0
  6  9  1  0  0  0  0
  8  6  1  0  0  0  0
  9 10  1  0  0  0  0
 10 40  2  0  0  0  0
 10 11  1  0  0  0  0
 11 34  1  0  0  0  0
 12 11  1  0  0  0  0
 12 62  1  0  0  0  0
 13 12  1  0  0  0  0
 14  9  1  0  0  0  0
 14 13  2  0  0  0  0
 15 14  1  0  0  0  0
 16 15  2  0  0  0  0
 16 32  1  0  0  0  0
 17 16  1  0  0  0  0
 18 31  1  0  0  0  0
 18 17  1  0  0  0  0
 19 18  2  0  0  0  0
 20 22  2  0  0  0  0
 20 19  1  0  0  0  0
 21 20  1  0  0  0  0
 22 30  1  0  0  0  0
 23 24  1  0  0  0  0
 23 22  1  0  0  0  0
 24 65  1  0  0  0  0
 24 66  1  0  0  0  0
 25 68  1  0  0  0  0
 25 24  1  0  0  0  0
 26 25  1  0  0  0  0
 26 29  1  0  0  0  0
 27 26  1  0  0  0  0
 27 28  1  0  0  0  0
 28 23  1  0  0  0  0
 28 72  1  0  0  0  0
 29 73  1  0  0  0  0
 29 74  1  0  0  0  0
 30 76  1  0  0  0  0
 30 31  2  0  0  0  0
 31 77  1  0  0  0  0
 32 33  2  0  0  0  0
 33 13  1  0  0  0  0
 33 78  1  0  0  0  0
 34 35  2  0  0  0  0
 34 39  1  0  0  0  0
 35 36  1  0  0  0  0
 36 80  1  0  0  0  0
 36 37  2  0  0  0  0
 37 81  1  0  0  0  0
 38 37  1  0  0  0  0
 38 82  1  0  0  0  0
 39 38  2  0  0  0  0
 41  2  1  0  0  0  0
 42 41  1  0  0  0  0
 42 85  1  0  0  0  0
 42 43  1  0  0  0  0
 44 87  1  0  0  0  0
 44 88  1  0  0  0  0
 44 43  1  0  0  0  0
 45 46  1  6  0  0  0
 45 44  1  0  0  0  0
 47 89  1  0  0  0  0
 47 45  1  0  0  0  0
 48 47  1  0  0  0  0
 49 90  1  0  0  0  0
 49 48  1  0  0  0  0
 49 92  1  0  0  0  0
 50 48  2  0  0  0  0
 51 45  1  0  0  0  0
 51 52  1  0  0  0  0
 52 93  1  0  0  0  0
 53 52  1  0  0  0  0
 53 96  1  0  0  0  0
 54 51  2  0  0  0  0
 55  4  1  0  0  0  0
 56  4  1  0  0  0  0
 59  8  1  0  0  0  0
 60  8  1  0  0  0  0
 61 12  1  0  0  0  0
 63 17  1  0  0  0  0
 64 19  1  0  0  0  0
 67 25  1  0  0  0  0
 69 27  1  0  0  0  0
 70 27  1  0  0  0  0
 71 28  1  0  0  0  0
 75 29  1  0  0  0  0
 79 35  1  0  0  0  0
 83 39  1  0  0  0  0
 84 41  1  0  0  0  0
 86 42  1  0  0  0  0
 91 49  1  0  0  0  0
 94 53  1  0  0  0  0
 95 53  1  0  0  0  0
M  END
