96
-1 1
O         1.815478   -6.578872    5.340279
C         3.051748   -6.385211    5.500899
N         3.456090   -5.789329    6.697582
C         4.727138   -5.977098    7.364453
C         4.337466   -6.361949    8.793670
C         3.007894   -5.625948    9.041100
H         3.197251   -4.711673    9.611322
C         2.487086   -5.252126    7.626868
N         2.086672   -6.395195    9.904580
C         2.193369   -6.167666   11.280214
N         1.444976   -6.998145   12.112703
C         0.335122   -7.798576   11.605062
C         0.660944   -8.320457   10.247690
C         1.474992   -7.540109    9.410539
N         1.709450   -7.871104    8.166591
C         1.118846   -8.971009    7.674864
N         1.260346   -9.102793    6.331634
C         1.141355  -10.227383    5.525562
C         1.403548  -10.051732    4.153991
C         1.390235  -11.148183    3.318027
F         1.631498  -10.956993    2.003082
C         1.170165  -12.462246    3.757272
N         1.257927  -13.526098    2.838078
C         0.569897  -14.753707    3.175275
C         0.506334  -15.656593    1.938970
N         1.804469  -15.933984    1.350354
C         2.511138  -14.686162    1.090979
C         2.599303  -13.775143    2.310517
C         2.583556  -16.924135    2.057472
C         0.871111  -12.602161    5.115240
C         0.837230  -11.514584    5.987840
N         0.438275   -9.856454    8.418439
C         0.225436   -9.509795    9.686855
C         1.569118   -6.861262   13.518593
C         2.828155   -6.761305   14.128952
C         2.929591   -6.675826   15.512233
C         1.788915   -6.699069   16.316935
C         0.538809   -6.804427   15.716050
C         0.426791   -6.880161   14.327713
O         2.918313   -5.301947   11.722179
C         3.976636   -6.720656    4.474344
C         5.390281   -6.632443    4.404674
S         6.388631   -8.434304    5.093446
C         5.147479   -9.501662    4.332932
C         5.367869   -9.689904    2.804818
H         6.101049   -8.938590    2.477484
N         4.196905   -9.448640    2.009603
C         4.082143   -8.347560    1.220351
C         2.734332   -8.179645    0.548739
O         4.968495   -7.521051    1.088255
C         5.941247  -11.075373    2.530459
N         7.186610  -11.241854    3.044863
C         7.870150  -12.507148    3.044041
O         5.328403  -11.952986    1.942369
H         5.336225   -5.049450    7.360820
H         5.310724   -6.774958    6.890182
H         5.098417   -6.097998    9.542209
H         4.171431   -7.447357    8.835755
H         2.446258   -4.147891    7.552659
H         1.495598   -5.643997    7.380841
H        -0.594640   -7.194863   11.573088
H         0.157396   -8.626476   12.307351
H         1.538889   -8.200603    5.877828
H         1.626192   -9.057212    3.760255
H        -0.451290  -14.516069    3.512125
H         1.069092  -15.299123    4.008854
H        -0.115111  -15.148832    1.180944
H         0.010664  -16.607745    2.193149
H         1.972261  -14.143112    0.295667
H         3.522256  -14.906313    0.716068
H         3.091103  -12.835478    2.031627
H         3.241318  -14.236919    3.092172
H         2.008918  -17.861384    2.134455
H         2.893548  -16.639586    3.085700
H         3.501838  -17.143228    1.490103
H         0.669860  -13.596525    5.517415
H         0.595636  -11.656219    7.038493
H        -0.346496  -10.222272   10.295319
H         3.723865   -6.740629   13.510807
H         3.919032   -6.597846   15.968661
H         1.877208   -6.636012   17.403592
H        -0.366450   -6.820665   16.327471
H        -0.564165   -6.941988   13.875963
H         3.465540   -7.133239    3.602150
H         5.918899   -5.922067    5.046400
H         5.785591   -6.636988    3.384392
H         4.173160   -9.005158    4.487389
H         5.107080  -10.465718    4.861370
H         3.470654  -10.152659    1.985887
H         2.168961   -9.116537    0.469326
H         2.885372   -7.736409   -0.443634
H         2.146795   -7.468916    1.150432
H         7.564536  -10.465872    3.585011
H         8.872503  -12.422236    2.594422
H         7.273870  -13.209593    2.447559
H         7.979159  -12.914811    4.062968
