-1 1
 OpenBabel05232413483D

 96100  0  0  1  0  0  0  0  0999 V2000
   -2.3838    3.3567   -1.7665 O   0  0  0  0  0  0  0  0  0  0  0  0
   -1.1690    3.5493   -1.7616 C   0  0  0  0  0  0  0  0  0  0  0  0
   -0.4911    4.0263   -0.6948 N   0  0  0  0  0  0  0  0  0  0  0  0
    0.9465    3.8951   -0.4535 C   0  0  0  0  0  0  0  0  0  0  0  0
    0.9962    3.2346    0.9164 C   0  0  0  0  0  0  0  0  0  0  0  0
   -0.2206    3.8070    1.6650 C   0  0  1  0  0  0  0  0  0  0  0  0
    0.1051    4.6482    2.2837 H   0  0  0  0  0  0  0  0  0  0  0  0
   -1.1658    4.3432    0.5588 C   0  0  0  0  0  0  0  0  0  0  0  0
   -0.7733    2.8552    2.6374 N   0  0  0  0  0  0  0  0  0  0  0  0
   -0.1453    2.8935    3.9003 C   0  0  0  0  0  0  0  0  0  0  0  0
   -0.3839    1.8526    4.7567 N   0  0  0  0  0  0  0  0  0  0  0  0
   -1.2650    0.7177    4.5270 C   0  0  0  0  0  0  0  0  0  0  0  0
   -1.7976    0.7158    3.1357 C   0  0  0  0  0  0  0  0  0  0  0  0
   -1.4964    1.7421    2.2319 C   0  0  0  0  0  0  0  0  0  0  0  0
   -1.8665    1.6704    0.9639 N   0  0  0  0  0  0  0  0  0  0  0  0
   -2.5578    0.6012    0.5676 C   0  0  0  0  0  0  0  0  0  0  0  0
   -2.8812    0.5848   -0.7790 N   0  0  0  0  0  0  0  0  0  0  0  0
   -2.5720   -0.4811   -1.6291 C   0  0  0  0  0  0  0  0  0  0  0  0
   -2.3078   -0.1988   -2.9773 C   0  0  0  0  0  0  0  0  0  0  0  0
   -1.8435   -1.1969   -3.8172 C   0  0  0  0  0  0  0  0  0  0  0  0
   -1.5822   -0.8594   -5.0948 F   0  0  0  0  0  0  0  0  0  0  0  0
   -1.5681   -2.5027   -3.3822 C   0  0  0  0  0  0  0  0  0  0  0  0
   -0.9563   -3.4424   -4.2393 N   0  0  0  0  0  0  0  0  0  0  0  0
   -0.9784   -4.8213   -3.7692 C   0  0  0  0  0  0  0  0  0  0  0  0
   -0.4325   -5.7570   -4.8475 C   0  0  0  0  0  0  0  0  0  0  0  0
    0.9025   -5.4051   -5.2981 N   0  0  0  0  0  0  0  0  0  0  0  0
    0.8993   -4.0233   -5.7463 C   0  0  0  0  0  0  0  0  0  0  0  0
    0.3797   -3.0430   -4.6974 C   0  0  0  0  0  0  0  0  0  0  0  0
    1.9474   -5.7084   -4.3363 C   0  0  0  0  0  0  0  0  0  0  0  0
   -1.9305   -2.7759   -2.0562 C   0  0  0  0  0  0  0  0  0  0  0  0
   -2.4449   -1.8081   -1.2015 C   0  0  0  0  0  0  0  0  0  0  0  0
   -2.9272   -0.4108    1.3473 N   0  0  0  0  0  0  0  0  0  0  0  0
   -2.5112   -0.3462    2.6114 C   0  0  0  0  0  0  0  0  0  0  0  0
    0.4483    1.7593    5.9148 C   0  0  0  0  0  0  0  0  0  0  0  0
    1.5041    0.8448    5.9100 C   0  0  0  0  0  0  0  0  0  0  0  0
    2.3025    0.7145    7.0444 C   0  0  0  0  0  0  0  0  0  0  0  0
    2.0545    1.4960    8.1735 C   0  0  0  0  0  0  0  0  0  0  0  0
    1.0026    2.4121    8.1689 C   0  0  0  0  0  0  0  0  0  0  0  0
    0.1954    2.5419    7.0404 C   0  0  0  0  0  0  0  0  0  0  0  0
    0.5934    3.8115    4.1976 O   0  0  0  0  0  0  0  0  0  0  0  0
   -0.4146    3.2970   -3.0302 C   0  0  0  0  0  0  0  0  0  0  0  0
    0.4567    4.1403   -3.5816 C   0  0  0  0  0  0  0  0  0  0  0  0
    1.1040   -1.2817    2.6293 S   0  0  0  0  0  1  0  0  0  0  0  0
    0.5169   -0.9518    0.9243 C   0  0  0  0  0  0  0  0  0  0  0  0
    1.4150   -1.5031   -0.2035 C   0  0  2  0  0  0  0  0  0  0  0  0
    2.4530   -1.2193    0.0452 H   0  0  0  0  0  0  0  0  0  0  0  0
    1.0869   -0.9657   -1.5089 N   0  0  0  0  0  0  0  0  0  0  0  0
    1.5635    0.2021   -1.9871 C   0  0  0  0  0  0  0  0  0  0  0  0
    1.3994    0.3857   -3.4868 C   0  0  0  0  0  0  0  0  0  0  0  0
    2.1273    1.0377   -1.2936 O   0  0  0  0  0  0  0  0  0  0  0  0
    1.3546   -3.0340   -0.3480 C   0  0  0  0  0  0  0  0  0  0  0  0
    1.4770   -3.7220    0.7911 N   0  0  0  0  0  0  0  0  0  0  0  0
    1.3706   -5.1550    0.8122 C   0  0  0  0  0  0  0  0  0  0  0  0
    1.2010   -3.5749   -1.4471 O   0  0  0  0  0  0  0  0  0  0  0  0
    1.4190    4.8949   -0.4463 H   0  0  0  0  0  0  0  0  0  0  0  0
    1.4320    3.2701   -1.2107 H   0  0  0  0  0  0  0  0  0  0  0  0
    1.9336    3.4162    1.4573 H   0  0  0  0  0  0  0  0  0  0  0  0
    0.8943    2.1487    0.7833 H   0  0  0  0  0  0  0  0  0  0  0  0
   -1.2559    5.4394    0.6509 H   0  0  0  0  0  0  0  0  0  0  0  0
   -2.1666    3.9069    0.5570 H   0  0  0  0  0  0  0  0  0  0  0  0
   -2.0818    0.7340    5.2733 H   0  0  0  0  0  0  0  0  0  0  0  0
   -0.6873   -0.2131    4.6600 H   0  0  0  0  0  0  0  0  0  0  0  0
   -2.7559    1.5094   -1.1965 H   0  0  0  0  0  0  0  0  0  0  0  0
   -2.4399    0.8115   -3.3707 H   0  0  0  0  0  0  0  0  0  0  0  0
   -2.0193   -5.1001   -3.5406 H   0  0  0  0  0  0  0  0  0  0  0  0
   -0.3853   -4.9369   -2.8399 H   0  0  0  0  0  0  0  0  0  0  0  0
   -1.1094   -5.7261   -5.7196 H   0  0  0  0  0  0  0  0  0  0  0  0
   -0.4280   -6.7916   -4.4677 H   0  0  0  0  0  0  0  0  0  0  0  0
    0.2564   -3.9528   -6.6413 H   0  0  0  0  0  0  0  0  0  0  0  0
    1.9194   -3.7343   -6.0469 H   0  0  0  0  0  0  0  0  0  0  0  0
    0.3241   -2.0422   -5.1436 H   0  0  0  0  0  0  0  0  0  0  0  0
    1.0788   -3.0008   -3.8386 H   0  0  0  0  0  0  0  0  0  0  0  0
    1.9267   -6.7859   -4.1067 H   0  0  0  0  0  0  0  0  0  0  0  0
    1.8811   -5.1560   -3.3776 H   0  0  0  0  0  0  0  0  0  0  0  0
    2.9287   -5.4863   -4.7856 H   0  0  0  0  0  0  0  0  0  0  0  0
   -1.7614   -3.7723   -1.6517 H   0  0  0  0  0  0  0  0  0  0  0  0
   -2.6963   -2.0602   -0.1740 H   0  0  0  0  0  0  0  0  0  0  0  0
   -2.7521   -1.2030    3.2501 H   0  0  0  0  0  0  0  0  0  0  0  0
    1.6832    0.2503    5.0064 H   0  0  0  0  0  0  0  0  0  0  0  0
    3.1297    0.0013    7.0397 H   0  0  0  0  0  0  0  0  0  0  0  0
    2.6859    1.3937    9.0596 H   0  0  0  0  0  0  0  0  0  0  0  0
    0.8094    3.0303    9.0489 H   0  0  0  0  0  0  0  0  0  0  0  0
   -0.6274    3.2587    7.0158 H   0  0  0  0  0  0  0  0  0  0  0  0
   -0.7331    2.3978   -3.5638 H   0  0  0  0  0  0  0  0  0  0  0  0
    0.7655    5.0591   -3.0750 H   0  0  0  0  0  0  0  0  0  0  0  0
    0.8910    3.9415   -4.5646 H   0  0  0  0  0  0  0  0  0  0  0  0
    0.4625    0.1324    0.7543 H   0  0  0  0  0  0  0  0  0  0  0  0
   -0.4983   -1.3513    0.7757 H   0  0  0  0  0  0  0  0  0  0  0  0
    0.6897   -1.6427   -2.1543 H   0  0  0  0  0  0  0  0  0  0  0  0
    0.3713    0.1851   -3.8163 H   0  0  0  0  0  0  0  0  0  0  0  0
    2.0603   -0.3200   -4.0137 H   0  0  0  0  0  0  0  0  0  0  0  0
    1.6830    1.4100   -3.7523 H   0  0  0  0  0  0  0  0  0  0  0  0
    1.4698   -3.1614    1.6713 H   0  0  0  0  0  0  0  0  0  0  0  0
    1.5763   -5.5118    1.8303 H   0  0  0  0  0  0  0  0  0  0  0  0
    2.0925   -5.6166    0.1201 H   0  0  0  0  0  0  0  0  0  0  0  0
    0.3651   -5.5014    0.5155 H   0  0  0  0  0  0  0  0  0  0  0  0
  1  2  2  0  0  0  0
  2  3  1  0  0  0  0
  3  4  1  0  0  0  0
  3  8  1  0  0  0  0
  4 55  1  0  0  0  0
  4  5  1  0  0  0  0
  5 57  1  0  0  0  0
  5  6  1  0  0  0  0
  6  7  1  1  0  0  0
  6  9  1  0  0  0  0
  8 59  1  0  0  0  0
  8  6  1  0  0  0  0
  9 10  1  0  0  0  0
 10 40  2  0  0  0  0
 10 11  1  0  0  0  0
 11 34  1  0  0  0  0
 12 62  1  0  0  0  0
 12 11  1  0  0  0  0
 12 61  1  0  0  0  0
 13 12  1  0  0  0  0
 14  9  1  0  0  0  0
 14 13  2  0  0  0  0
 15 14  1  0  0  0  0
 16 15  2  0  0  0  0
 16 32  1  0  0  0  0
 17 16  1  0  0  0  0
 18 31  1  0  0  0  0
 18 17  1  0  0  0  0
 19 18  2  0  0  0  0
 20 22  2  0  0  0  0
 20 19  1  0  0  0  0
 21 20  1  0  0  0  0
 22 30  1  0  0  0  0
 23 24  1  0  0  0  0
 23 22  1  0  0  0  0
 24 65  1  0  0  0  0
 24 66  1  0  0  0  0
 25 68  1  0  0  0  0
 25 24  1  0  0  0  0
 26 25  1  0  0  0  0
 26 29  1  0  0  0  0
 27 26  1  0  0  0  0
 27 28  1  0  0  0  0
 28 23  1  0  0  0  0
 28 72  1  0  0  0  0
 29 73  1  0  0  0  0
 29 74  1  0  0  0  0
 30 76  1  0  0  0  0
 30 31  2  0  0  0  0
 31 77  1  0  0  0  0
 32 33  2  0  0  0  0
 33 13  1  0  0  0  0
 33 78  1  0  0  0  0
 34 39  1  0  0  0  0
 35 34  2  0  0  0  0
 35 36  1  0  0  0  0
 36 37  2  0  0  0  0
 37 81  1  0  0  0  0
 38 37  1  0  0  0  0
 38 82  1  0  0  0  0
 39 38  2  0  0  0  0
 41  2  1  0  0  0  0
 42 85  1  0  0  0  0
 42 41  2  0  0  0  0
 44 43  1  0  0  0  0
 45 46  1  1  0  0  0
 45 44  1  0  0  0  0
 47 45  1  0  0  0  0
 48 47  1  0  0  0  0
 48 50  2  0  0  0  0
 49 48  1  0  0  0  0
 51 45  1  0  0  0  0
 51 52  1  0  0  0  0
 52 53  1  0  0  0  0
 52 93  1  0  0  0  0
 53 94  1  0  0  0  0
 54 51  2  0  0  0  0
 56  4  1  0  0  0  0
 58  5  1  0  0  0  0
 60  8  1  0  0  0  0
 63 17  1  0  0  0  0
 64 19  1  0  0  0  0
 67 25  1  0  0  0  0
 69 27  1  0  0  0  0
 70 27  1  0  0  0  0
 71 28  1  0  0  0  0
 75 29  1  0  0  0  0
 79 35  1  0  0  0  0
 80 36  1  0  0  0  0
 83 39  1  0  0  0  0
 84 41  1  0  0  0  0
 86 42  1  0  0  0  0
 87 44  1  0  0  0  0
 88 44  1  0  0  0  0
 89 47  1  0  0  0  0
 90 49  1  0  0  0  0
 91 49  1  0  0  0  0
 92 49  1  0  0  0  0
 95 53  1  0  0  0  0
 96 53  1  0  0  0  0
M  END
