-1 1
 OpenBabel05192410563D

 97102  0  0  1  0  0  0  0  0999 V2000
   -3.1314   -1.8748   -2.7118 O   0  0  0  0  0  0  0  0  0  0  0  0
   -3.0075   -0.8266   -3.3712 C   0  0  0  0  0  0  0  0  0  0  0  0
   -2.8446    0.4258   -2.6471 N   0  0  0  0  0  0  0  0  0  0  0  0
   -3.9456    1.3676   -2.6877 C   0  0  0  0  0  0  0  0  0  0  0  0
   -3.5545    2.3899   -1.6370 C   0  0  0  0  0  0  0  0  0  0  0  0
   -2.9990    1.5057   -0.5120 C   0  0  1  0  0  0  0  0  0  0  0  0
   -3.8284    1.1435    0.1174 H   0  0  0  0  0  0  0  0  0  0  0  0
   -2.3624    0.3213   -1.2784 C   0  0  0  0  0  0  0  0  0  0  0  0
   -2.0402    2.2306    0.3441 N   0  0  0  0  0  0  0  0  0  0  0  0
   -2.3680    3.5383    0.7546 C   0  0  0  0  0  0  0  0  0  0  0  0
   -1.3017    4.2755    1.2338 N   0  0  0  0  0  0  0  0  0  0  0  0
    0.0521    3.7629    1.0189 C   0  0  0  0  0  0  0  0  0  0  0  0
    0.0801    2.3354    1.4459 C   0  0  0  0  0  0  0  0  0  0  0  0
   -1.0219    1.5700    1.0076 C   0  0  0  0  0  0  0  0  0  0  0  0
   -1.1064    0.2753    1.2413 N   0  0  0  0  0  0  0  0  0  0  0  0
   -0.0770   -0.2964    1.8858 C   0  0  0  0  0  0  0  0  0  0  0  0
   -0.2055   -1.6571    2.0067 N   0  0  0  0  0  0  0  0  0  0  0  0
    0.6127   -2.6213    2.5911 C   0  0  0  0  0  0  0  0  0  0  0  0
    0.2252   -3.9657    2.4515 C   0  0  0  0  0  0  0  0  0  0  0  0
    0.9821   -4.9859    3.0058 C   0  0  0  0  0  0  0  0  0  0  0  0
    2.1609   -4.7315    3.7235 C   0  0  0  0  0  0  0  0  0  0  0  0
    2.9315   -5.9022    4.3301 C   0  0  0  0  0  0  0  0  0  0  0  0
    3.3236   -6.9558    3.2704 C   0  0  0  0  0  0  0  0  0  0  0  0
    4.5078   -6.4808    2.4223 C   0  0  0  0  0  0  0  0  0  0  0  0
    5.6868   -6.1565    3.2106 N   0  0  0  0  0  0  0  0  0  0  0  0
    5.3762   -5.1449    4.2066 C   0  0  0  0  0  0  0  0  0  0  0  0
    4.1953   -5.5160    5.1193 C   0  0  0  0  0  0  0  0  0  0  0  0
    6.4028   -7.3014    3.7184 C   0  0  0  0  0  0  0  0  0  0  0  0
    2.5229   -3.3901    3.8661 C   0  0  0  0  0  0  0  0  0  0  0  0
    1.7786   -2.3461    3.3153 C   0  0  0  0  0  0  0  0  0  0  0  0
    0.9823    0.3347    2.3863 N   0  0  0  0  0  0  0  0  0  0  0  0
    1.0388    1.6528    2.1593 C   0  0  0  0  0  0  0  0  0  0  0  0
   -1.5058    5.5126    1.8929 C   0  0  0  0  0  0  0  0  0  0  0  0
   -2.3448    6.4969    1.3575 C   0  0  0  0  0  0  0  0  0  0  0  0
   -2.5061    7.7098    2.0225 C   0  0  0  0  0  0  0  0  0  0  0  0
   -1.8296    7.9659    3.2146 C   0  0  0  0  0  0  0  0  0  0  0  0
   -0.9933    6.9872    3.7491 C   0  0  0  0  0  0  0  0  0  0  0  0
   -0.8400    5.7652    3.0992 C   0  0  0  0  0  0  0  0  0  0  0  0
   -3.5048    3.9550    0.7178 O   0  0  0  0  0  0  0  0  0  0  0  0
   -2.9355   -0.7241   -4.7685 C   0  0  0  0  0  3  0  0  0  0  0  0
   -2.5718    0.4792   -5.5499 C   0  0  0  0  0  0  0  0  0  0  0  0
   -0.9021    0.4596   -6.4459 S   0  0  0  0  0  0  0  0  0  0  0  0
    0.2297    1.1282   -5.1927 C   0  0  0  0  0  0  0  0  0  0  0  0
    0.3379    0.3846   -3.8459 C   0  0  2  0  0  0  0  0  0  0  0  0
   -0.6342    0.4673   -3.3358 H   0  0  0  0  0  0  0  0  0  0  0  0
    1.3750    0.9870   -3.0330 N   0  0  0  0  0  0  0  0  0  0  0  0
    1.2287    2.0209   -2.1875 C   0  0  0  0  0  0  0  0  0  0  0  0
    2.4653    2.3477   -1.3661 C   0  0  0  0  0  0  0  0  0  0  0  0
    0.1914    2.6582   -2.0467 O   0  0  0  0  0  0  0  0  0  0  0  0
    0.7661   -1.0880   -3.9903 C   0  0  0  0  0  0  0  0  0  0  0  0
   -0.2242   -1.9506   -4.2051 N   0  0  0  0  0  0  0  0  0  0  0  0
   -0.0255   -3.3664   -4.3439 C   0  0  0  0  0  0  0  0  0  0  0  0
    1.9554   -1.3893   -3.8767 O   0  0  0  0  0  0  0  0  0  0  0  0
   -4.9160    0.8908   -2.4258 H   0  0  0  0  0  0  0  0  0  0  0  0
   -4.0720    1.8207   -3.6823 H   0  0  0  0  0  0  0  0  0  0  0  0
   -4.3791    3.0333   -1.3119 H   0  0  0  0  0  0  0  0  0  0  0  0
   -2.7351    3.0157   -2.0250 H   0  0  0  0  0  0  0  0  0  0  0  0
   -2.6417   -0.6466   -0.8396 H   0  0  0  0  0  0  0  0  0  0  0  0
   -1.2626    0.3877   -1.2616 H   0  0  0  0  0  0  0  0  0  0  0  0
    0.7706    4.3818    1.5688 H   0  0  0  0  0  0  0  0  0  0  0  0
    0.2827    3.8129   -0.0615 H   0  0  0  0  0  0  0  0  0  0  0  0
   -1.0300   -1.9974    1.5258 H   0  0  0  0  0  0  0  0  0  0  0  0
   -0.6845   -4.2084    1.8955 H   0  0  0  0  0  0  0  0  0  0  0  0
    0.6347   -6.0150    2.8795 H   0  0  0  0  0  0  0  0  0  0  0  0
    2.2379   -6.3894    5.0380 H   0  0  0  0  0  0  0  0  0  0  0  0
    2.4702   -7.1946    2.6186 H   0  0  0  0  0  0  0  0  0  0  0  0
    3.5911   -7.8948    3.7852 H   0  0  0  0  0  0  0  0  0  0  0  0
    4.2091   -5.5776    1.8618 H   0  0  0  0  0  0  0  0  0  0  0  0
    4.7767   -7.2431    1.6737 H   0  0  0  0  0  0  0  0  0  0  0  0
    5.1538   -4.2076    3.6709 H   0  0  0  0  0  0  0  0  0  0  0  0
    6.2761   -4.9535    4.8134 H   0  0  0  0  0  0  0  0  0  0  0  0
    3.9849   -4.6962    5.8240 H   0  0  0  0  0  0  0  0  0  0  0  0
    4.4847   -6.3806    5.7404 H   0  0  0  0  0  0  0  0  0  0  0  0
    6.6781   -7.9655    2.8838 H   0  0  0  0  0  0  0  0  0  0  0  0
    5.8514   -7.9193    4.4615 H   0  0  0  0  0  0  0  0  0  0  0  0
    7.3374   -6.9711    4.1994 H   0  0  0  0  0  0  0  0  0  0  0  0
    3.4173   -3.1191    4.4294 H   0  0  0  0  0  0  0  0  0  0  0  0
    2.0946   -1.3126    3.4333 H   0  0  0  0  0  0  0  0  0  0  0  0
    1.9170    2.1780    2.5544 H   0  0  0  0  0  0  0  0  0  0  0  0
   -2.8755    6.2962    0.4286 H   0  0  0  0  0  0  0  0  0  0  0  0
   -3.1658    8.4684    1.5947 H   0  0  0  0  0  0  0  0  0  0  0  0
   -1.9568    8.9221    3.7268 H   0  0  0  0  0  0  0  0  0  0  0  0
   -0.4659    7.1672    4.6888 H   0  0  0  0  0  0  0  0  0  0  0  0
   -0.2102    4.9884    3.5383 H   0  0  0  0  0  0  0  0  0  0  0  0
   -3.2020   -1.6291   -5.3243 H   0  0  0  0  0  0  0  0  0  0  0  0
   -2.5284    1.3891   -4.9363 H   0  0  0  0  0  0  0  0  0  0  0  0
   -3.2521    0.6805   -6.3944 H   0  0  0  0  0  0  0  0  0  0  0  0
   -0.0512    2.1681   -4.9643 H   0  0  0  0  0  0  0  0  0  0  0  0
    1.2213    1.1444   -5.6718 H   0  0  0  0  0  0  0  0  0  0  0  0
    2.2364    0.4426   -3.0594 H   0  0  0  0  0  0  0  0  0  0  0  0
    3.3804    1.8778   -1.7516 H   0  0  0  0  0  0  0  0  0  0  0  0
    2.2999    1.9992   -0.3355 H   0  0  0  0  0  0  0  0  0  0  0  0
    2.5967    3.4379   -1.3403 H   0  0  0  0  0  0  0  0  0  0  0  0
   -1.1809   -1.5754   -4.3437 H   0  0  0  0  0  0  0  0  0  0  0  0
    0.9384   -3.6436   -3.8959 H   0  0  0  0  0  0  0  0  0  0  0  0
   -0.0183   -3.6774   -5.4028 H   0  0  0  0  0  0  0  0  0  0  0  0
   -0.8429   -3.8902   -3.8281 H   0  0  0  0  0  0  0  0  0  0  0  0
  2  1  2  0  0  0  0
  2  3  1  0  0  0  0
  3  8  1  0  0  0  0
  4  3  1  0  0  0  0
  4 54  1  0  0  0  0
  4  5  1  0  0  0  0
  5 56  1  0  0  0  0
  5  6  1  0  0  0  0
  6  7  1  1  0  0  0
  6  9  1  0  0  0  0
  8 59  1  0  0  0  0
  8 58  1  0  0  0  0
  8  6  1  0  0  0  0
  9 10  1  0  0  0  0
  9 14  1  0  0  0  0
 10 11  1  0  0  0  0
 11 33  1  0  0  0  0
 12 11  1  0  0  0  0
 12 13  1  0  0  0  0
 12 60  1  0  0  0  0
 13 32  1  0  0  0  0
 14 15  1  0  0  0  0
 14 13  2  0  0  0  0
 15 16  2  0  0  0  0
 16 17  1  0  0  0  0
 16 31  1  0  0  0  0
 17 18  1  0  0  0  0
 18 30  1  0  0  0  0
 19 18  2  0  0  0  0
 19 20  1  0  0  0  0
 20 21  2  0  0  0  0
 21 29  1  0  0  0  0
 21 22  1  0  0  0  0
 22 65  1  0  0  0  0
 22 27  1  0  0  0  0
 23 67  1  0  0  0  0
 23 22  1  0  0  0  0
 24 25  1  0  0  0  0
 24 23  1  0  0  0  0
 25 28  1  0  0  0  0
 25 26  1  0  0  0  0
 26 71  1  0  0  0  0
 26 27  1  0  0  0  0
 27 73  1  0  0  0  0
 27 72  1  0  0  0  0
 28 76  1  0  0  0  0
 28 75  1  0  0  0  0
 29 77  1  0  0  0  0
 30 78  1  0  0  0  0
 30 29  2  0  0  0  0
 32 31  2  0  0  0  0
 32 79  1  0  0  0  0
 33 38  1  0  0  0  0
 34 33  2  0  0  0  0
 34 35  1  0  0  0  0
 35 36  2  0  0  0  0
 36 82  1  0  0  0  0
 36 37  1  0  0  0  0
 37 83  1  0  0  0  0
 38 84  1  0  0  0  0
 38 37  2  0  0  0  0
 39 10  2  0  0  0  0
 40  2  1  0  0  0  0
 41 86  1  0  0  0  0
 41 40  1  0  0  0  0
 42 41  1  0  0  0  0
 42 43  1  0  0  0  0
 43 88  1  0  0  0  0
 43 44  1  0  0  0  0
 44 45  1  1  0  0  0
 44 46  1  0  0  0  0
 46 47  1  0  0  0  0
 47 49  2  0  0  0  0
 47 48  1  0  0  0  0
 48 93  1  0  0  0  0
 48 92  1  0  0  0  0
 50 53  2  0  0  0  0
 50 44  1  0  0  0  0
 51 50  1  0  0  0  0
 52 51  1  0  0  0  0
 52 95  1  0  0  0  0
 52 97  1  0  0  0  0
 55  4  1  0  0  0  0
 57  5  1  0  0  0  0
 61 12  1  0  0  0  0
 62 17  1  0  0  0  0
 63 19  1  0  0  0  0
 64 20  1  0  0  0  0
 66 23  1  0  0  0  0
 68 24  1  0  0  0  0
 69 24  1  0  0  0  0
 70 26  1  0  0  0  0
 74 28  1  0  0  0  0
 80 34  1  0  0  0  0
 81 35  1  0  0  0  0
 85 40  1  0  0  0  0
 87 41  1  0  0  0  0
 89 43  1  0  0  0  0
 90 46  1  0  0  0  0
 91 48  1  0  0  0  0
 94 51  1  0  0  0  0
 96 52  1  0  0  0  0
M  END
