97
-1 1
O        -3.131377   -1.874768   -2.711760
C        -3.007482   -0.826602   -3.371247
N        -2.844622    0.425778   -2.647140
C        -3.945552    1.367641   -2.687717
C        -3.554517    2.389928   -1.636984
C        -2.998963    1.505726   -0.511983
H        -3.828372    1.143486    0.117393
C        -2.362368    0.321310   -1.278398
N        -2.040177    2.230619    0.344055
C        -2.367952    3.538337    0.754610
N        -1.301703    4.275535    1.233812
C         0.052144    3.762920    1.018903
C         0.080097    2.335398    1.445948
C        -1.021875    1.569967    1.007641
N        -1.106437    0.275267    1.241293
C        -0.076989   -0.296414    1.885813
N        -0.205522   -1.657113    2.006704
C         0.612711   -2.621316    2.591057
C         0.225211   -3.965743    2.451509
C         0.982148   -4.985913    3.005778
C         2.160907   -4.731464    3.723479
C         2.931507   -5.902248    4.330104
C         3.323590   -6.955778    3.270420
C         4.507755   -6.480842    2.422272
N         5.686809   -6.156482    3.210616
C         5.376211   -5.144938    4.206598
C         4.195291   -5.515954    5.119264
C         6.402845   -7.301437    3.718428
C         2.522863   -3.390076    3.866103
C         1.778619   -2.346143    3.315253
N         0.982344    0.334679    2.386270
C         1.038826    1.652756    2.159315
C        -1.505810    5.512589    1.892936
C        -2.344771    6.496877    1.357460
C        -2.506113    7.709794    2.022483
C        -1.829621    7.965891    3.214571
C        -0.993301    6.987171    3.749055
C        -0.840018    5.765244    3.099222
O        -3.504767    3.954990    0.717788
C        -2.935489   -0.724079   -4.768524
C        -2.571804    0.479176   -5.549875
S        -0.902102    0.459644   -6.445884
C         0.229707    1.128153   -5.192669
C         0.337915    0.384614   -3.845931
H        -0.634233    0.467258   -3.335784
N         1.375029    0.986969   -3.032958
C         1.228709    2.020893   -2.187457
C         2.465338    2.347669   -1.366127
O         0.191441    2.658213   -2.046667
C         0.766077   -1.087982   -3.990334
N        -0.224242   -1.950576   -4.205140
C        -0.025506   -3.366422   -4.343922
O         1.955415   -1.389283   -3.876663
H        -4.916018    0.890787   -2.425843
H        -4.071995    1.820730   -3.682303
H        -4.379144    3.033326   -1.311857
H        -2.735086    3.015687   -2.024967
H        -2.641734   -0.646564   -0.839584
H        -1.262597    0.387750   -1.261567
H         0.770602    4.381820    1.568810
H         0.282665    3.812883   -0.061489
H        -1.030013   -1.997433    1.525825
H        -0.684453   -4.208375    1.895464
H         0.634668   -6.015008    2.879547
H         2.237875   -6.389434    5.037979
H         2.470152   -7.194628    2.618557
H         3.591056   -7.894777    3.785156
H         4.209089   -5.577627    1.861836
H         4.776724   -7.243148    1.673686
H         5.153825   -4.207605    3.670919
H         6.276095   -4.953451    4.813437
H         3.984931   -4.696196    5.823987
H         4.484722   -6.380598    5.740417
H         6.678122   -7.965461    2.883796
H         5.851367   -7.919275    4.461508
H         7.337366   -6.971101    4.199361
H         3.417270   -3.119083    4.429445
H         2.094594   -1.312603    3.433315
H         1.917043    2.177950    2.554387
H        -2.875537    6.296211    0.428569
H        -3.165753    8.468394    1.594733
H        -1.956823    8.922140    3.726806
H        -0.465901    7.167152    4.688785
H        -0.210169    4.988374    3.538293
H        -3.202046   -1.629122   -5.324297
H        -2.528416    1.389082   -4.936259
H        -3.252108    0.680472   -6.394431
H        -0.051229    2.168057   -4.964261
H         1.221331    1.144399   -5.671821
H         2.236410    0.442556   -3.059434
H         3.380387    1.877846   -1.751575
H         2.299856    1.999224   -0.335548
H         2.596747    3.437857   -1.340260
H        -1.180860   -1.575448   -4.343731
H         0.938368   -3.643556   -3.895871
H        -0.018320   -3.677386   -5.402775
H        -0.842880   -3.890205   -3.828125
