96
-1 1
O         2.937847    1.098265    1.324136
C         3.722698    0.185713    0.975949
N         3.556255   -0.348573   -0.399332
C         4.502222    0.215929   -1.378878
C         3.648714    0.902738   -2.465474
C         2.239131    1.028986   -1.870727
H         1.486481    0.909660   -2.658592
C         2.210024   -0.179275   -0.923993
N         1.862775    2.289724   -1.190338
C         2.825231    3.118357   -0.573896
N         2.330859    4.111444    0.256050
C         0.991490    4.641236    0.111983
C         0.046343    3.517755   -0.155535
C         0.532942    2.374608   -0.825206
N        -0.276873    1.373350   -1.130623
C        -1.556570    1.456955   -0.743267
N        -2.287355    0.336495   -1.051095
C        -3.611998   -0.013387   -0.788738
C        -4.578721    0.864024   -0.271270
C        -5.876495    0.421332   -0.050566
C        -6.281863   -0.888823   -0.347118
N        -7.615426   -1.288246   -0.096106
C        -7.898924   -2.708623   -0.082101
C        -9.273123   -2.960136    0.544306
N       -10.348569   -2.221040   -0.093267
C       -10.016849   -0.807504   -0.136366
C        -8.654960   -0.522916   -0.770027
C       -10.796716   -2.773066   -1.351614
C        -5.312194   -1.756807   -0.865754
C        -4.004019   -1.328311   -1.070974
N        -2.116368    2.484452   -0.112407
C        -1.292305    3.499526    0.169162
C         3.232057    4.737840    1.156731
C         3.964720    3.943972    2.048254
C         4.821489    4.558009    2.955006
C         4.940478    5.950123    2.999923
C         4.194729    6.733919    2.123318
C         3.345556    6.129002    1.195050
O         4.007843    3.006581   -0.787773
C         4.748712   -0.375904    1.720073
C         5.497727   -1.595111    1.379485
S         4.864325   -3.209595    2.186708
C         3.078113   -3.059067    1.946375
C         2.537311   -3.696465    0.668901
H         2.725523   -4.783107    0.679003
N         3.204142   -3.162339   -0.502516
C         3.340017   -3.856203   -1.642994
C         4.150137   -3.161429   -2.719641
O         2.847334   -4.970616   -1.828131
C         1.011163   -3.488137    0.551420
N         0.449852   -4.204700   -0.460304
C        -0.931616   -4.055550   -0.826638
O         0.380839   -2.747738    1.283555
H         5.140253   -0.570326   -1.821190
H         5.158770    0.937953   -0.877986
H         3.546202    0.239800   -3.341274
H         4.082196    1.847906   -2.806937
H         1.915223   -1.067515   -1.516685
H         1.496543   -0.077897   -0.101297
H         0.942535    5.394212   -0.702570
H         0.720010    5.158892    1.043434
H        -1.701093   -0.394244   -1.435024
H        -4.284307    1.880282   -0.019318
H        -6.596590    1.114265    0.390951
H        -7.131181   -3.222101    0.515905
H        -7.864344   -3.151099   -1.103865
H        -9.226465   -2.656093    1.604194
H        -9.505329   -4.036571    0.518569
H       -10.000590   -0.424980    0.899048
H       -10.806485   -0.263815   -0.679071
H        -8.435140    0.550151   -0.691365
H        -8.679248   -0.763219   -1.856836
H       -11.111332   -3.818177   -1.203972
H       -10.044106   -2.766364   -2.168601
H       -11.673848   -2.210814   -1.709135
H        -5.564043   -2.787444   -1.117711
H        -3.267061   -2.035291   -1.461498
H        -1.737843    4.353501    0.693507
H         3.815923    2.855979    2.015958
H         5.393056    3.937292    3.649029
H         5.610571    6.421968    3.722834
H         4.278306    7.823346    2.150546
H         2.776860    6.742351    0.491934
H         4.882878    0.036700    2.724032
H         6.532736   -1.585139    1.754970
H         5.538871   -1.796671    0.300988
H         2.831758   -1.984748    1.979927
H         2.581193   -3.517201    2.811593
H         3.515102   -2.166986   -0.446243
H         4.166388   -3.791500   -3.616323
H         5.178076   -2.982754   -2.371785
H         3.708648   -2.183445   -2.963052
H         1.088036   -4.746221   -1.047548
H        -1.403644   -3.378584   -0.101341
H        -1.465812   -5.019815   -0.806796
H        -1.042277   -3.625842   -1.838243
