96
-1 1
O         2.588088   -7.897001   -2.656230
C         3.462838   -8.567489   -3.202206
N         3.254734   -9.056706   -4.528809
C         4.148221   -8.606154   -5.600952
C         3.246138   -7.846610   -6.608974
C         1.850698   -7.787536   -5.965945
H         1.074144   -7.923531   -6.726552
C         1.893020   -8.992824   -5.021187
N         1.459763   -6.546006   -5.258724
C         2.413717   -5.744628   -4.599326
N         1.909336   -4.729587   -3.806871
C         0.575302   -4.195177   -4.001162
C        -0.368792   -5.324279   -4.246778
C         0.122173   -6.470795   -4.904142
N        -0.674926   -7.481684   -5.203183
C        -1.958055   -7.402545   -4.819162
N        -2.688284   -8.519000   -5.131072
C        -4.022392   -8.860018   -4.893222
C        -4.969482   -8.009062   -4.301981
C        -6.273397   -8.445171   -4.104803
C        -6.703717   -9.722532   -4.495071
N        -8.039451  -10.120301   -4.261313
C        -8.349042  -11.531541   -4.368515
C        -9.717713  -11.815353   -3.743713
N       -10.789196  -11.003524   -4.292865
C       -10.432791   -9.597972   -4.211656
C        -9.076782   -9.278416   -4.841259
C       -11.266571  -11.430353   -5.588667
C        -5.753058  -10.563053   -5.089436
C        -4.440113  -10.140973   -5.275158
N        -2.519934   -6.374773   -4.188393
C        -1.706198   -5.351230   -3.914730
C         2.789455   -4.086514   -2.895639
C         3.493102   -4.854716   -1.960341
C         4.327468   -4.220211   -1.046858
C         4.452569   -2.828588   -1.039714
C         3.737385   -2.068075   -1.961052
C         2.911865   -2.695678   -2.894907
O         3.602345   -5.919381   -4.726735
C         4.701648   -8.936460   -2.560571
C         5.562831   -9.915192   -2.987417
S         4.830845  -12.267691   -2.204609
C         3.070866  -11.847865   -2.162749
C         2.255929  -12.380957   -3.345188
H         2.235959  -13.483246   -3.319752
N         2.872304  -11.999137   -4.603319
C         2.783742  -12.696712   -5.743125
C         3.632975  -12.164287   -6.882360
O         2.053224  -13.677593   -5.889367
C         0.796463  -11.877044   -3.331159
N         0.015864  -12.475364   -4.276255
C        -1.313080  -12.015658   -4.564912
O         0.386711  -11.013321   -2.577949
H         4.639059   -9.461982   -6.098049
H         4.930660   -7.961145   -5.184630
H         3.140284   -8.433634   -7.535292
H         3.652211   -6.866227   -6.877660
H         1.663107   -9.905480   -5.601220
H         1.186704   -8.941634   -4.187147
H         0.553212   -3.475434   -4.845375
H         0.288315   -3.640509   -3.096557
H        -2.109272   -9.245759   -5.533544
H        -4.658147   -7.018215   -3.979935
H        -6.976776   -7.774901   -3.605499
H        -7.582433  -12.109185   -3.830722
H        -8.337173  -11.881453   -5.425852
H        -9.648873  -11.609937   -2.661578
H        -9.969500  -12.880979   -3.862822
H       -10.392774   -9.312797   -3.145960
H       -11.220923   -8.993320   -4.687895
H        -8.836941   -8.221069   -4.667474
H        -9.123733   -9.416194   -5.944859
H       -11.597486  -12.479250   -5.531916
H       -10.526518  -11.361021   -6.414189
H       -12.138894  -10.823411   -5.878295
H        -6.024515  -11.565729   -5.420745
H        -3.722876  -10.825146   -5.735929
H        -2.157961   -4.498137   -3.394431
H         3.357133   -5.940980   -1.959062
H         4.876539   -4.823409   -0.320397
H         5.104469   -2.339151   -0.312334
H         3.827047   -0.979034   -1.964453
H         2.368061   -2.100634   -3.632317
H         4.833324   -8.498706   -1.568278
H         6.501241  -10.080488   -2.459589
H         5.528217  -10.306840   -4.003108
H         2.958855  -10.747665   -2.119759
H         2.600401  -12.220619   -1.241287
H         3.431608  -11.146145   -4.563684
H         3.624147  -12.892329   -7.701770
H         4.666116  -11.982113   -6.552814
H         3.217721  -11.211204   -7.246631
H         0.481161  -13.135391   -4.903685
H        -1.541934  -11.184321   -3.883075
H        -2.071088  -12.803572   -4.417522
H        -1.394834  -11.659692   -5.608708
