79
-1 1
O         0.216871   -0.576028    3.356054
C        -0.341709   -1.574043    2.797077
N        -1.553502   -1.326483    2.121251
C        -2.005144   -2.038066    0.939021
C        -2.015166   -0.968318   -0.149346
C        -2.487735    0.279790    0.605212
H        -3.575338    0.359139    0.508258
C        -2.130322    0.002519    2.098327
N        -1.992809    1.542301    0.015825
C        -2.803767    2.130728   -0.959166
N        -2.300057    3.273657   -1.582260
C        -1.243344    4.067958   -0.966998
C        -0.238785    3.171099   -0.327499
C        -0.673356    1.935043    0.185428
N         0.134393    1.133040    0.831775
C         1.376779    1.570554    1.108980
N         2.019032    0.785221    2.006142
C         3.287054    0.893356    2.568363
C         4.293220    1.771743    2.135516
C         5.543175    1.749519    2.754553
C         5.815718    0.873948    3.803090
C         4.809133    0.008478    4.239943
C         3.559517    0.014815    3.635171
N         1.928099    2.667021    0.567520
C         1.107152    3.435968   -0.149084
C        -3.023800    3.848668   -2.655756
C        -3.190003    5.236847   -2.729536
C        -3.850684    5.816182   -3.813206
C        -4.364019    5.020976   -4.832287
C        -4.204657    3.635610   -4.758356
C        -3.538807    3.050480   -3.688554
O        -3.879424    1.659601   -1.257139
C         0.198418   -2.865953    2.885099
C        -0.459052   -4.148177    2.625610
S         0.064733   -5.139620    1.021773
C         1.402825   -4.108212    0.395068
C         1.044230   -3.256731   -0.834155
H         0.194068   -2.609588   -0.585299
N         0.674073   -4.045367   -1.980058
C        -0.572403   -4.064337   -2.518139
C        -0.714644   -4.956098   -3.739761
O        -1.524039   -3.463109   -2.057127
C         2.257019   -2.400300   -1.210902
N         2.468960   -1.330252   -0.415006
C         3.630586   -0.484129   -0.546470
O         2.986621   -2.717029   -2.140418
H        -3.025324   -2.446597    1.082498
H        -1.363780   -2.885656    0.680368
H        -2.646226   -1.221942   -1.009932
H        -0.988453   -0.810753   -0.512047
H        -3.066423    0.032906    2.688253
H        -1.422609    0.706696    2.545443
H        -1.669454    4.768914   -0.220154
H        -0.770526    4.679769   -1.749509
H         1.326631    0.158710    2.527604
H         4.079100    2.462676    1.322949
H         6.317898    2.436789    2.403583
H         6.799566    0.865449    4.277922
H         4.998845   -0.682549    5.065186
H         2.755185   -0.645353    3.971569
H         1.549660    4.338238   -0.590548
H        -2.814814    5.878181   -1.930946
H        -3.968259    6.901822   -3.849569
H        -4.884312    5.473604   -5.679101
H        -4.598203    2.996738   -5.552300
H        -3.421081    1.969132   -3.640930
H         1.135037   -2.896039    3.448224
H        -1.548973   -4.070791    2.517479
H        -0.240553   -4.886213    3.409061
H         2.273886   -4.739593    0.161308
H         1.667465   -3.426040    1.223064
H         1.457608   -4.392011   -2.521361
H        -1.478840   -4.529126   -4.401018
H        -1.062517   -5.946144   -3.408346
H         0.227347   -5.085348   -4.291964
H         1.834631   -1.157445    0.360379
H         4.170981   -0.797222   -1.448287
H         4.297364   -0.576501    0.324840
H         3.341849    0.573386   -0.644903
