79
-1 1
O         0.087103   -0.608218    3.959316
C        -0.424099   -1.483639    3.246080
N        -1.576204   -1.261090    2.579880
C        -2.241958   -2.116847    1.604826
C        -2.570718   -1.163128    0.464032
C        -2.669481    0.242879    1.087988
H        -3.715533    0.567675    1.097430
C        -2.195225    0.055859    2.550392
N        -1.992543    1.269202    0.263840
C        -2.699981    1.581514   -0.915411
N        -2.145461    2.517559   -1.747457
C        -0.983027    3.315843   -1.403109
C        -0.093550    2.570013   -0.468324
C        -0.639663    1.568517    0.357816
N         0.106282    0.924081    1.227832
C         1.394902    1.284280    1.346699
N         2.040612    0.641097    2.369109
C         3.344517    0.741207    2.849988
C         4.358017    1.523995    2.276434
C         5.635961    1.515643    2.834436
C         5.932085    0.749734    3.959608
C         4.919176   -0.018874    4.537234
C         3.641514   -0.025173    3.993600
N         2.024152    2.162396    0.571531
C         1.262628    2.773352   -0.339792
C        -2.660272    2.628226   -3.073236
C        -3.866621    3.280177   -3.325351
C        -4.327000    3.397738   -4.635584
C        -3.580351    2.872525   -5.690198
C        -2.376220    2.216460   -5.431720
C        -1.916192    2.086018   -4.123466
O        -3.754323    1.033526   -1.172005
C         0.295181   -2.780516    3.104402
C        -0.216978   -4.009097    2.997291
S        -0.541464   -4.746062   -0.245505
C         0.963058   -3.725201   -0.392523
C         0.713605   -2.261209   -0.846703
H         0.348331   -1.671388    0.017291
N        -0.275388   -2.250246   -1.888945
C        -0.742391   -1.133135   -2.463367
C        -1.917704   -1.319104   -3.400554
O        -0.284915   -0.012359   -2.233035
C         2.035710   -1.658859   -1.325384
N         2.767247   -1.094365   -0.324733
C         4.056137   -0.497536   -0.556409
O         2.436957   -1.754843   -2.468663
H        -3.157316   -2.544201    2.054883
H        -1.613020   -2.948088    1.247745
H        -3.479053   -1.438154   -0.084080
H        -1.743578   -1.170825   -0.252148
H        -3.086837    0.052216    3.202143
H        -1.496798    0.806342    2.926271
H        -1.307019    4.279155   -0.959466
H        -0.440941    3.558564   -2.328336
H         1.383379    0.140290    2.983643
H         4.126608    2.125889    1.400948
H         6.415159    2.127016    2.371700
H         6.938366    0.751261    4.384134
H         5.125137   -0.623851    5.423697
H         2.841935   -0.618003    4.446294
H         1.772108    3.488065   -0.997069
H        -4.442686    3.677328   -2.488125
H        -5.275761    3.901928   -4.833773
H        -3.942974    2.967095   -6.716545
H        -1.797533    1.787361   -6.253050
H        -1.005055    1.534082   -3.874226
H         1.379993   -2.650793    3.176997
H        -1.288453   -4.208144    2.966296
H         0.435502   -4.881775    2.939572
H         1.652283   -4.183863   -1.119792
H         1.498915   -3.668145    0.569545
H        -0.797160   -3.134927   -1.932510
H        -1.653906   -0.927397   -4.393142
H        -2.759750   -0.721604   -3.019529
H        -2.225892   -2.368674   -3.497387
H         2.344863   -0.990588    0.588965
H         4.435671   -0.878822   -1.513390
H         4.757665   -0.758187    0.250448
H         3.989638    0.601681   -0.614579
