-1 1
 OpenBabel05232414493D

 79 82  0  0  1  0  0  0  0  0999 V2000
    7.0545   10.9046    2.1774 O   0  0  0  0  0  0  0  0  0  0  0  0
    6.4858    9.9619    1.5799 C   0  0  0  0  0  0  0  0  0  0  0  0
    5.3343   10.2226    0.8619 N   0  0  0  0  0  0  0  0  0  0  0  0
    4.8867    9.4981   -0.3205 C   0  0  0  0  0  0  0  0  0  0  0  0
    4.8839   10.5749   -1.4000 C   0  0  0  0  0  0  0  0  0  0  0  0
    4.3905   11.8171   -0.6479 C   0  0  1  0  0  0  0  0  0  0  0  0
    3.3032   11.8847   -0.7533 H   0  0  0  0  0  0  0  0  0  0  0  0
    4.7378   11.5464    0.8452 C   0  0  0  0  0  0  0  0  0  0  0  0
    4.8794   13.0840   -1.2281 N   0  0  0  0  0  0  0  0  0  0  0  0
    4.0731   13.6501   -2.2256 C   0  0  0  0  0  0  0  0  0  0  0  0
    4.5703   14.7883   -2.8555 N   0  0  0  0  0  0  0  0  0  0  0  0
    5.5996   15.6100   -2.2324 C   0  0  0  0  0  0  0  0  0  0  0  0
    6.6057   14.7414   -1.5565 C   0  0  0  0  0  0  0  0  0  0  0  0
    6.1867   13.5026   -1.0374 C   0  0  0  0  0  0  0  0  0  0  0  0
    7.0010   12.7274   -0.3607 N   0  0  0  0  0  0  0  0  0  0  0  0
    8.2283   13.1973   -0.0722 C   0  0  0  0  0  0  0  0  0  0  0  0
    8.8870   12.4316    0.8334 N   0  0  0  0  0  0  0  0  0  0  0  0
   10.1608   12.5474    1.3843 C   0  0  0  0  0  0  0  0  0  0  0  0
   11.1513   13.4352    0.9378 C   0  0  0  0  0  0  0  0  0  0  0  0
   12.4065   13.4298    1.5459 C   0  0  0  0  0  0  0  0  0  0  0  0
   12.6987   12.5611    2.5947 C   0  0  0  0  0  0  0  0  0  0  0  0
   11.7083   11.6832    3.0418 C   0  0  0  0  0  0  0  0  0  0  0  0
   10.4531   11.6732    2.4480 C   0  0  0  0  0  0  0  0  0  0  0  0
    8.7618   14.3037   -0.6044 N   0  0  0  0  0  0  0  0  0  0  0  0
    7.9386   15.0443   -1.3475 C   0  0  0  0  0  0  0  0  0  0  0  0
    3.8585   15.3324   -3.9546 C   0  0  0  0  0  0  0  0  0  0  0  0
    3.6533   16.7137   -4.0454 C   0  0  0  0  0  0  0  0  0  0  0  0
    3.0043   17.2623   -5.1519 C   0  0  0  0  0  0  0  0  0  0  0  0
    2.5425   16.4412   -6.1752 C   0  0  0  0  0  0  0  0  0  0  0  0
    2.7418   15.0621   -6.0837 C   0  0  0  0  0  0  0  0  0  0  0  0
    3.3970   14.5079   -4.9910 C   0  0  0  0  0  0  0  0  0  0  0  0
    3.0098   13.1576   -2.5296 O   0  0  0  0  0  0  0  0  0  0  0  0
    6.9965    8.6146    1.6943 C   0  0  0  0  0  3  0  0  0  0  0  0
    6.3218    7.4240    1.4760 C   0  0  0  0  0  3  0  0  0  0  0  0
    6.8005    6.3746   -0.6589 S   0  0  0  0  0  1  0  0  0  0  0  0
    8.1131    7.5232   -1.0988 C   0  0  0  0  0  0  0  0  0  0  0  0
    7.8270    8.4061   -2.3322 C   0  0  2  0  0  0  0  0  0  0  0  0
    6.9602    9.0454   -2.1275 H   0  0  0  0  0  0  0  0  0  0  0  0
    7.4886    7.6410   -3.5002 N   0  0  0  0  0  0  0  0  0  0  0  0
    6.2888    7.7165   -4.1234 C   0  0  0  0  0  0  0  0  0  0  0  0
    6.0742    6.6694   -5.2015 C   0  0  0  0  0  0  0  0  0  0  0  0
    5.4251    8.5291   -3.8420 O   0  0  0  0  0  0  0  0  0  0  0  0
    9.0555    9.2708   -2.6191 C   0  0  0  0  0  0  0  0  0  0  0  0
    9.1776   10.3646   -1.8231 N   0  0  0  0  0  0  0  0  0  0  0  0
   10.3505   11.2031   -1.8408 C   0  0  0  0  0  0  0  0  0  0  0  0
    9.8789    8.9587   -3.4638 O   0  0  0  0  0  0  0  0  0  0  0  0
    3.8650    9.0999   -0.1700 H   0  0  0  0  0  0  0  0  0  0  0  0
    5.5281    8.6409   -0.5607 H   0  0  0  0  0  0  0  0  0  0  0  0
    4.2774   10.3188   -2.2765 H   0  0  0  0  0  0  0  0  0  0  0  0
    5.9135   10.7468   -1.7462 H   0  0  0  0  0  0  0  0  0  0  0  0
    3.8018   11.5475    1.4329 H   0  0  0  0  0  0  0  0  0  0  0  0
    5.4275   12.2632    1.2981 H   0  0  0  0  0  0  0  0  0  0  0  0
    5.1475   16.3159   -1.5059 H   0  0  0  0  0  0  0  0  0  0  0  0
    6.0787   16.2164   -3.0150 H   0  0  0  0  0  0  0  0  0  0  0  0
    8.2407   11.7695    1.3151 H   0  0  0  0  0  0  0  0  0  0  0  0
   10.9218   14.1203    0.1248 H   0  0  0  0  0  0  0  0  0  0  0  0
   13.1698   14.1244    1.1852 H   0  0  0  0  0  0  0  0  0  0  0  0
   13.6867   12.5658    3.0604 H   0  0  0  0  0  0  0  0  0  0  0  0
   11.9146   10.9945    3.8647 H   0  0  0  0  0  0  0  0  0  0  0  0
    9.6666   10.9964    2.7929 H   0  0  0  0  0  0  0  0  0  0  0  0
    8.3674   15.9546   -1.7853 H   0  0  0  0  0  0  0  0  0  0  0  0
    3.9893   17.3728   -3.2436 H   0  0  0  0  0  0  0  0  0  0  0  0
    2.8551   18.3433   -5.2034 H   0  0  0  0  0  0  0  0  0  0  0  0
    2.0315   16.8695   -7.0401 H   0  0  0  0  0  0  0  0  0  0  0  0
    2.3896   14.4042   -6.8814 H   0  0  0  0  0  0  0  0  0  0  0  0
    3.5488   13.4311   -4.9306 H   0  0  0  0  0  0  0  0  0  0  0  0
    7.9854    8.5809    2.1577 H   0  0  0  0  0  0  0  0  0  0  0  0
    5.2464    7.4252    1.2905 H   0  0  0  0  0  0  0  0  0  0  0  0
    6.6958    6.5267    1.9671 H   0  0  0  0  0  0  0  0  0  0  0  0
    9.0658    6.9914   -1.2615 H   0  0  0  0  0  0  0  0  0  0  0  0
    8.2659    8.2052   -0.2344 H   0  0  0  0  0  0  0  0  0  0  0  0
    8.1740    6.9683   -3.8146 H   0  0  0  0  0  0  0  0  0  0  0  0
    5.3602    7.0578   -5.9379 H   0  0  0  0  0  0  0  0  0  0  0  0
    5.6399    5.7747   -4.7298 H   0  0  0  0  0  0  0  0  0  0  0  0
    7.0082    6.3779   -5.7037 H   0  0  0  0  0  0  0  0  0  0  0  0
    8.4752   10.5309   -1.1102 H   0  0  0  0  0  0  0  0  0  0  0  0
   10.9574   10.9038   -2.7043 H   0  0  0  0  0  0  0  0  0  0  0  0
   10.9521   11.0862   -0.9251 H   0  0  0  0  0  0  0  0  0  0  0  0
   10.0810   12.2657   -1.9408 H   0  0  0  0  0  0  0  0  0  0  0  0
  2 33  1  0  0  0  0
  2  1  2  0  0  0  0
  3  2  1  0  0  0  0
  4 47  1  0  0  0  0
  4  3  1  0  0  0  0
  5  6  1  0  0  0  0
  5  4  1  0  0  0  0
  6  7  1  6  0  0  0
  6  8  1  0  0  0  0
  8  3  1  0  0  0  0
  8 52  1  0  0  0  0
  8 51  1  0  0  0  0
  9 14  1  0  0  0  0
  9  6  1  0  0  0  0
 10  9  1  0  0  0  0
 11 12  1  0  0  0  0
 11 10  1  0  0  0  0
 12 13  1  0  0  0  0
 12 53  1  0  0  0  0
 13 25  1  0  0  0  0
 13 14  2  0  0  0  0
 14 15  1  0  0  0  0
 15 16  2  0  0  0  0
 16 17  1  0  0  0  0
 17 55  1  0  0  0  0
 17 18  1  0  0  0  0
 18 23  1  0  0  0  0
 19 18  2  0  0  0  0
 19 20  1  0  0  0  0
 20 21  2  0  0  0  0
 21 22  1  0  0  0  0
 21 58  1  0  0  0  0
 22 59  1  0  0  0  0
 23 60  1  0  0  0  0
 23 22  2  0  0  0  0
 24 16  1  0  0  0  0
 25 24  2  0  0  0  0
 26 11  1  0  0  0  0
 27 26  1  0  0  0  0
 27 62  1  0  0  0  0
 28 27  2  0  0  0  0
 29 30  2  0  0  0  0
 29 28  1  0  0  0  0
 30 31  1  0  0  0  0
 31 66  1  0  0  0  0
 31 26  2  0  0  0  0
 32 10  2  0  0  0  0
 33 67  1  0  0  0  0
 34 33  1  0  0  0  0
 34 69  1  0  0  0  0
 36 35  1  0  0  0  0
 36 71  1  0  0  0  0
 37 38  1  1  0  0  0
 37 36  1  0  0  0  0
 39 37  1  0  0  0  0
 40 42  2  0  0  0  0
 40 39  1  0  0  0  0
 41 74  1  0  0  0  0
 41 40  1  0  0  0  0
 43 37  1  0  0  0  0
 43 44  1  0  0  0  0
 44 76  1  0  0  0  0
 45 44  1  0  0  0  0
 45 78  1  0  0  0  0
 46 43  2  0  0  0  0
 48  4  1  0  0  0  0
 49  5  1  0  0  0  0
 50  5  1  0  0  0  0
 54 12  1  0  0  0  0
 56 19  1  0  0  0  0
 57 20  1  0  0  0  0
 61 25  1  0  0  0  0
 63 28  1  0  0  0  0
 64 29  1  0  0  0  0
 65 30  1  0  0  0  0
 68 34  1  0  0  0  0
 70 36  1  0  0  0  0
 72 39  1  0  0  0  0
 73 41  1  0  0  0  0
 75 41  1  0  0  0  0
 77 45  1  0  0  0  0
 79 45  1  0  0  0  0
M  END
