99
-1 1
O        -3.052418    1.195183    0.600140
C        -2.904706    1.465259   -0.589457
N        -2.534684    2.705682   -1.009892
C        -1.897297    3.033545   -2.282758
C        -0.567739    3.639756   -1.848870
C        -0.910892    4.386659   -0.549365
H        -1.100025    5.437666   -0.789187
C        -2.226796    3.743975   -0.040980
N         0.194376    4.442330    0.419039
C         1.070883    5.533930    0.262672
N         2.149370    5.591179    1.112220
C         2.177117    4.836823    2.350023
C         1.587911    3.484409    2.133164
C         0.555460    3.340583    1.186536
N        -0.076514    2.198990    1.012498
C         0.257950    1.167676    1.814605
N        -0.514979    0.062674    1.679258
C        -0.385916   -1.195252    2.284502
C        -0.939231   -2.300831    1.587426
O        -1.494744   -2.024508    0.393026
C        -1.983213   -3.077752   -0.407687
C        -0.896001   -3.574155    2.143906
C        -0.266412   -3.811132    3.380443
N        -0.245961   -5.125107    3.897581
C         0.148230   -5.295582    5.280567
C        -0.229622   -6.697996    5.765082
N         0.301714   -7.766342    4.938003
C        -0.074668   -7.546014    3.551874
C         0.305503   -6.159831    3.032414
C         1.705084   -8.045286    5.142833
C         0.294937   -2.724213    4.051653
C         0.218752   -1.435656    3.512975
N         1.272767    1.179516    2.688745
C         1.920192    2.332672    2.820801
C         3.099143    6.690069    0.940379
C         2.972028    7.729896    2.053986
C         4.527137    6.169177    0.786556
O         0.877680    6.364598   -0.605346
C        -3.159047    0.413100   -1.614705
C        -3.915283    0.560501   -2.701871
S        -2.404502   -2.503378   -4.061134
C        -1.928832   -1.113060   -5.157338
C        -0.413754   -0.802890   -5.171736
H        -0.174066   -0.133711   -6.011701
N         0.300598   -2.047209   -5.320070
C         1.622060   -2.127179   -5.583918
C         2.199656   -3.532697   -5.509396
O         2.322048   -1.162649   -5.844012
C        -0.008540   -0.009854   -3.922069
N         0.133687   -0.747539   -2.796427
C         0.416783   -0.113538   -1.536174
O         0.139898    1.204447   -3.951067
H        -2.515790    3.763062   -2.837076
H        -1.747832    2.151959   -2.913543
H        -0.123640    4.301293   -2.603199
H         0.140513    2.822907   -1.657482
H        -3.029418    4.501558   -0.036702
H        -2.169047    3.297231    0.955725
H         1.627963    5.379316    3.147767
H         3.219109    4.746091    2.692055
H        -1.332802    0.194467    1.079694
H        -2.255870   -2.653685   -1.386134
H        -2.867043   -3.550755    0.053001
H        -1.204393   -3.842097   -0.570212
H        -1.373781   -4.402644    1.624038
H        -0.376565   -4.551006    5.897329
H         1.239170   -5.125200    5.425603
H        -1.330700   -6.775408    5.762185
H         0.109323   -6.838133    6.803986
H        -1.169915   -7.656502    3.469955
H         0.384925   -8.322956    2.920709
H        -0.080245   -6.038728    2.012129
H         1.412008   -6.064560    2.965210
H         1.881371   -8.288628    6.202604
H         2.397803   -7.220051    4.872876
H         1.996304   -8.925388    4.548095
H         0.810414   -2.857491    5.002456
H         0.669583   -0.598653    4.040424
H         2.749588    2.346210    3.540086
H         2.801655    7.166280   -0.001892
H         3.266253    7.321097    3.034298
H         1.936708    8.094555    2.126176
H         3.624180    8.591421    1.846351
H         4.903516    5.701843    1.710877
H         5.206708    6.998927    0.540808
H         4.581244    5.426151   -0.021546
H        -2.767882   -0.572954   -1.355641
H        -4.350549    1.527822   -2.972839
H        -4.106360   -0.308193   -3.340585
H        -2.449684   -0.184267   -4.873137
H        -2.228488   -1.344669   -6.192253
H        -0.238354   -2.857525   -4.999707
H         2.973998   -3.638915   -6.280289
H         1.439733   -4.317507   -5.629947
H         2.681046   -3.660037   -4.527463
H        -0.353316   -1.647223   -2.811997
H        -0.391903    0.557787   -1.201780
H         1.330458    0.494159   -1.615594
H         0.558210   -0.877888   -0.763130
