-1 1
 OpenBabel05232414493D

 99103  0  0  1  0  0  0  0  0999 V2000
    0.8391   -5.0253   13.9511 O   0  0  0  0  0  0  0  0  0  0  0  0
    0.8410   -4.7763   12.7253 C   0  0  0  0  0  0  0  0  0  0  0  0
    1.2175   -3.4826   12.3158 N   0  0  0  0  0  0  0  0  0  0  0  0
    2.0097   -3.2022   11.1377 C   0  0  0  0  0  0  0  0  0  0  0  0
    3.2541   -2.4936   11.6756 C   0  0  0  0  0  0  0  0  0  0  0  0
    2.7190   -1.7096   12.8832 C   0  0  1  0  0  0  0  0  0  0  0  0
    2.4803   -0.6916   12.5585 H   0  0  0  0  0  0  0  0  0  0  0  0
    1.4043   -2.4296   13.2910 C   0  0  0  0  0  0  0  0  0  0  0  0
    3.7126   -1.5090   13.9523 N   0  0  0  0  0  0  0  0  0  0  0  0
    4.5125   -0.3607   13.8383 C   0  0  0  0  0  0  0  0  0  0  0  0
    5.4784   -0.1789   14.8040 N   0  0  0  0  0  0  0  0  0  0  0  0
    5.4101   -0.8639   16.0809 C   0  0  0  0  0  0  0  0  0  0  0  0
    4.9512   -2.2682   15.8784 C   0  0  0  0  0  0  0  0  0  0  0  0
    4.0611   -2.5364   14.8202 C   0  0  0  0  0  0  0  0  0  0  0  0
    3.5468   -3.7288   14.6311 N   0  0  0  0  0  0  0  0  0  0  0  0
    3.8229   -4.6906   15.5326 C   0  0  0  0  0  0  0  0  0  0  0  0
    3.1148   -5.8349   15.3629 N   0  0  0  0  0  0  0  0  0  0  0  0
    3.2042   -7.0415   16.0605 C   0  0  0  0  0  0  0  0  0  0  0  0
    2.6004   -8.1754   15.4515 C   0  0  0  0  0  0  0  0  0  0  0  0
    2.0456   -7.9530   14.2456 O   0  0  0  0  0  0  0  0  0  0  0  0
    1.4035   -8.9895   13.5641 C   0  0  0  0  0  0  0  0  0  0  0  0
    2.5998   -9.4098   16.0879 C   0  0  0  0  0  0  0  0  0  0  0  0
    3.2368   -9.5890   17.3308 C   0  0  0  0  0  0  0  0  0  0  0  0
    3.2128  -10.8714   17.9309 N   0  0  0  0  0  0  0  0  0  0  0  0
    3.5681  -10.9577   19.3320 C   0  0  0  0  0  0  0  0  0  0  0  0
    3.1612  -12.3239   19.8902 C   0  0  0  0  0  0  0  0  0  0  0  0
    3.7106  -13.4453   19.1480 N   0  0  0  0  0  0  0  0  0  0  0  0
    3.3870  -13.3073   17.7381 C   0  0  0  0  0  0  0  0  0  0  0  0
    3.7937  -11.9558   17.1511 C   0  0  0  0  0  0  0  0  0  0  0  0
    5.1029  -13.7225   19.4201 C   0  0  0  0  0  0  0  0  0  0  0  0
    3.8485   -8.4841   17.9180 C   0  0  0  0  0  0  0  0  0  0  0  0
    3.8190   -7.2300   17.2952 C   0  0  0  0  0  0  0  0  0  0  0  0
    4.7197   -4.5626   16.5218 N   0  0  0  0  0  0  0  0  0  0  0  0
    5.2716   -3.3595   16.6628 C   0  0  0  0  0  0  0  0  0  0  0  0
    6.3497    0.9883   14.6842 C   0  0  0  0  0  0  0  0  0  0  0  0
    5.9935    2.0728   15.7018 C   0  0  0  0  0  0  0  0  0  0  0  0
    7.8236    0.5900   14.7470 C   0  0  0  0  0  0  0  0  0  0  0  0
    4.3643    0.4160   12.9129 O   0  0  0  0  0  0  0  0  0  0  0  0
    0.4083   -5.7305   11.7606 C   0  0  0  0  0  3  0  0  0  0  0  0
   -0.0392   -5.5002   10.4291 C   0  0  0  0  0  0  0  0  0  0  0  0
    0.9697   -6.3993    8.7851 S   0  0  0  0  0  0  0  0  0  0  0  0
    2.2648   -5.2821    8.1325 C   0  0  0  0  0  0  0  0  0  0  0  0
    3.7104   -5.7707    8.3433 C   0  0  2  0  0  0  0  0  0  0  0  0
    4.3827   -5.1741    7.7137 H   0  0  0  0  0  0  0  0  0  0  0  0
    3.8556   -7.1453    7.9069 N   0  0  0  0  0  0  0  0  0  0  0  0
    4.5118   -7.5075    6.7739 C   0  0  0  0  0  0  0  0  0  0  0  0
    4.3819   -8.9783    6.4135 C   0  0  0  0  0  0  0  0  0  0  0  0
    5.1419   -6.7344    6.0765 O   0  0  0  0  0  0  0  0  0  0  0  0
    4.2519   -5.5952    9.7724 C   0  0  0  0  0  0  0  0  0  0  0  0
    3.5937   -6.2812   10.7352 N   0  0  0  0  0  0  0  0  0  0  0  0
    3.9659   -6.1660   12.1265 C   0  0  0  0  0  0  0  0  0  0  0  0
    5.2320   -4.9011    9.9903 O   0  0  0  0  0  0  0  0  0  0  0  0
    1.4693   -2.5543   10.4165 H   0  0  0  0  0  0  0  0  0  0  0  0
    2.2587   -4.1362   10.6279 H   0  0  0  0  0  0  0  0  0  0  0  0
    3.7402   -1.8376   10.9407 H   0  0  0  0  0  0  0  0  0  0  0  0
    3.9931   -3.2395   11.9965 H   0  0  0  0  0  0  0  0  0  0  0  0
    0.5730   -1.7001   13.2438 H   0  0  0  0  0  0  0  0  0  0  0  0
    1.4159   -2.8724   14.2914 H   0  0  0  0  0  0  0  0  0  0  0  0
    4.7287   -0.3271   16.7739 H   0  0  0  0  0  0  0  0  0  0  0  0
    6.4063   -0.8523   16.5488 H   0  0  0  0  0  0  0  0  0  0  0  0
    2.3165   -5.7222   14.7024 H   0  0  0  0  0  0  0  0  0  0  0  0
    1.0720   -8.5681   12.6075 H   0  0  0  0  0  0  0  0  0  0  0  0
    0.5243   -9.3580   14.1213 H   0  0  0  0  0  0  0  0  0  0  0  0
    2.0875   -9.8359   13.3716 H   0  0  0  0  0  0  0  0  0  0  0  0
    2.0862  -10.2551   15.6312 H   0  0  0  0  0  0  0  0  0  0  0  0
    3.0379  -10.1681   19.8850 H   0  0  0  0  0  0  0  0  0  0  0  0
    4.6572  -10.7924   19.4969 H   0  0  0  0  0  0  0  0  0  0  0  0
    2.0601  -12.3937   19.8548 H   0  0  0  0  0  0  0  0  0  0  0  0
    3.4644  -12.4032   20.9464 H   0  0  0  0  0  0  0  0  0  0  0  0
    2.2945  -13.4175   17.6227 H   0  0  0  0  0  0  0  0  0  0  0  0
    3.8647  -14.1235   17.1730 H   0  0  0  0  0  0  0  0  0  0  0  0
    3.4471  -11.8928   16.1110 H   0  0  0  0  0  0  0  0  0  0  0  0
    4.9029  -11.8679   17.1202 H   0  0  0  0  0  0  0  0  0  0  0  0
    5.2389  -13.9012   20.4985 H   0  0  0  0  0  0  0  0  0  0  0  0
    5.8133  -12.9213   19.1251 H   0  0  0  0  0  0  0  0  0  0  0  0
    5.4059  -14.6403   18.8917 H   0  0  0  0  0  0  0  0  0  0  0  0
    4.3681   -8.5738   18.8722 H   0  0  0  0  0  0  0  0  0  0  0  0
    4.3059   -6.3771   17.7611 H   0  0  0  0  0  0  0  0  0  0  0  0
    6.0037   -3.2525   17.4742 H   0  0  0  0  0  0  0  0  0  0  0  0
    6.1417    1.3851   13.6829 H   0  0  0  0  0  0  0  0  0  0  0  0
    6.1864    1.7453   16.7364 H   0  0  0  0  0  0  0  0  0  0  0  0
    4.9317    2.3472   15.6166 H   0  0  0  0  0  0  0  0  0  0  0  0
    6.5958    2.9763   15.5233 H   0  0  0  0  0  0  0  0  0  0  0  0
    8.1125    0.2118   15.7411 H   0  0  0  0  0  0  0  0  0  0  0  0
    8.4599    1.4619   14.5324 H   0  0  0  0  0  0  0  0  0  0  0  0
    8.0426   -0.1907   14.0049 H   0  0  0  0  0  0  0  0  0  0  0  0
    0.1507   -6.6882   12.2186 H   0  0  0  0  0  0  0  0  0  0  0  0
   -0.0841   -4.4596   10.0861 H   0  0  0  0  0  0  0  0  0  0  0  0
   -0.9540   -6.0343   10.1440 H   0  0  0  0  0  0  0  0  0  0  0  0
    2.1419   -4.2773    8.5618 H   0  0  0  0  0  0  0  0  0  0  0  0
    2.1026   -5.1877    7.0483 H   0  0  0  0  0  0  0  0  0  0  0  0
    3.2437   -7.8153    8.3605 H   0  0  0  0  0  0  0  0  0  0  0  0
    3.5930   -9.0863    5.6536 H   0  0  0  0  0  0  0  0  0  0  0  0
    4.1280   -9.6140    7.2733 H   0  0  0  0  0  0  0  0  0  0  0  0
    5.3274   -9.3148    5.9695 H   0  0  0  0  0  0  0  0  0  0  0  0
    2.6520   -6.6148   10.5208 H   0  0  0  0  0  0  0  0  0  0  0  0
    3.5770   -5.2452   12.5883 H   0  0  0  0  0  0  0  0  0  0  0  0
    5.0609   -6.1556   12.2108 H   0  0  0  0  0  0  0  0  0  0  0  0
    3.5544   -7.0109   12.6898 H   0  0  0  0  0  0  0  0  0  0  0  0
  2  1  2  0  0  0  0
  3  2  1  0  0  0  0
  3  8  1  0  0  0  0
  4  5  1  0  0  0  0
  4  3  1  0  0  0  0
  5 56  1  0  0  0  0
  5  6  1  0  0  0  0
  6  7  1  6  0  0  0
  6  8  1  0  0  0  0
  6  9  1  0  0  0  0
  8 58  1  0  0  0  0
  9 14  1  0  0  0  0
 10  9  1  0  0  0  0
 10 11  1  0  0  0  0
 11 12  1  0  0  0  0
 12 60  1  0  0  0  0
 12 59  1  0  0  0  0
 13 12  1  0  0  0  0
 13 34  1  0  0  0  0
 14 13  2  0  0  0  0
 15 14  1  0  0  0  0
 15 16  2  0  0  0  0
 16 33  1  0  0  0  0
 17 16  1  0  0  0  0
 17 18  1  0  0  0  0
 18 32  1  0  0  0  0
 19 18  2  0  0  0  0
 19 22  1  0  0  0  0
 20 19  1  0  0  0  0
 21 63  1  0  0  0  0
 21 20  1  0  0  0  0
 22 23  2  0  0  0  0
 23 31  1  0  0  0  0
 23 24  1  0  0  0  0
 24 25  1  0  0  0  0
 25 67  1  0  0  0  0
 25 66  1  0  0  0  0
 25 26  1  0  0  0  0
 26 69  1  0  0  0  0
 27 30  1  0  0  0  0
 27 26  1  0  0  0  0
 28 27  1  0  0  0  0
 29 28  1  0  0  0  0
 29 24  1  0  0  0  0
 30 74  1  0  0  0  0
 31 77  1  0  0  0  0
 32 78  1  0  0  0  0
 32 31  2  0  0  0  0
 33 34  2  0  0  0  0
 34 79  1  0  0  0  0
 35 37  1  0  0  0  0
 35 11  1  0  0  0  0
 35 36  1  0  0  0  0
 36 81  1  0  0  0  0
 37 84  1  0  0  0  0
 38 10  2  0  0  0  0
 39 87  1  0  0  0  0
 39  2  1  0  0  0  0
 40 39  1  0  0  0  0
 41 40  1  0  0  0  0
 42 43  1  0  0  0  0
 42 90  1  0  0  0  0
 42 41  1  0  0  0  0
 43 44  1  6  0  0  0
 43 49  1  0  0  0  0
 45 43  1  0  0  0  0
 45 92  1  0  0  0  0
 46 45  1  0  0  0  0
 47 46  1  0  0  0  0
 47 94  1  0  0  0  0
 48 46  2  0  0  0  0
 49 52  2  0  0  0  0
 49 50  1  0  0  0  0
 50 51  1  0  0  0  0
 51 98  1  0  0  0  0
 51 97  1  0  0  0  0
 51 99  1  0  0  0  0
 53  4  1  0  0  0  0
 54  4  1  0  0  0  0
 55  5  1  0  0  0  0
 57  8  1  0  0  0  0
 61 17  1  0  0  0  0
 62 21  1  0  0  0  0
 64 21  1  0  0  0  0
 65 22  1  0  0  0  0
 68 26  1  0  0  0  0
 70 28  1  0  0  0  0
 71 28  1  0  0  0  0
 72 29  1  0  0  0  0
 73 29  1  0  0  0  0
 75 30  1  0  0  0  0
 76 30  1  0  0  0  0
 80 35  1  0  0  0  0
 82 36  1  0  0  0  0
 83 36  1  0  0  0  0
 85 37  1  0  0  0  0
 86 37  1  0  0  0  0
 88 40  1  0  0  0  0
 89 40  1  0  0  0  0
 91 42  1  0  0  0  0
 93 47  1  0  0  0  0
 95 47  1  0  0  0  0
 96 50  1  0  0  0  0
M  END
