-1 1
 OpenBabel05232413483D

 99102  0  0  1  0  0  0  0  0999 V2000
   -3.0524    1.1952    0.6001 O   0  0  0  0  0  0  0  0  0  0  0  0
   -2.9047    1.4653   -0.5895 C   0  0  0  0  0  0  0  0  0  0  0  0
   -2.5347    2.7057   -1.0099 N   0  0  0  0  0  0  0  0  0  0  0  0
   -1.8973    3.0335   -2.2828 C   0  0  0  0  0  0  0  0  0  0  0  0
   -0.5677    3.6398   -1.8489 C   0  0  0  0  0  0  0  0  0  0  0  0
   -0.9109    4.3867   -0.5494 C   0  0  1  0  0  0  0  0  0  0  0  0
   -1.1000    5.4377   -0.7892 H   0  0  0  0  0  0  0  0  0  0  0  0
   -2.2268    3.7440   -0.0410 C   0  0  0  0  0  0  0  0  0  0  0  0
    0.1944    4.4423    0.4190 N   0  0  0  0  0  0  0  0  0  0  0  0
    1.0709    5.5339    0.2627 C   0  0  0  0  0  0  0  0  0  0  0  0
    2.1494    5.5912    1.1122 N   0  0  0  0  0  0  0  0  0  0  0  0
    2.1771    4.8368    2.3500 C   0  0  0  0  0  0  0  0  0  0  0  0
    1.5879    3.4844    2.1332 C   0  0  0  0  0  0  0  0  0  0  0  0
    0.5555    3.3406    1.1865 C   0  0  0  0  0  0  0  0  0  0  0  0
   -0.0765    2.1990    1.0125 N   0  0  0  0  0  0  0  0  0  0  0  0
    0.2580    1.1677    1.8146 C   0  0  0  0  0  0  0  0  0  0  0  0
   -0.5150    0.0627    1.6793 N   0  0  0  0  0  0  0  0  0  0  0  0
   -0.3859   -1.1953    2.2845 C   0  0  0  0  0  0  0  0  0  0  0  0
   -0.9392   -2.3008    1.5874 C   0  0  0  0  0  0  0  0  0  0  0  0
   -1.4947   -2.0245    0.3930 O   0  0  0  0  0  0  0  0  0  0  0  0
   -1.9832   -3.0778   -0.4077 C   0  0  0  0  0  0  0  0  0  0  0  0
   -0.8960   -3.5742    2.1439 C   0  0  0  0  0  0  0  0  0  0  0  0
   -0.2664   -3.8111    3.3804 C   0  0  0  0  0  0  0  0  0  0  0  0
   -0.2460   -5.1251    3.8976 N   0  0  0  0  0  0  0  0  0  0  0  0
    0.1482   -5.2956    5.2806 C   0  0  0  0  0  0  0  0  0  0  0  0
   -0.2296   -6.6980    5.7651 C   0  0  0  0  0  0  0  0  0  0  0  0
    0.3017   -7.7663    4.9380 N   0  0  0  0  0  0  0  0  0  0  0  0
   -0.0747   -7.5460    3.5519 C   0  0  0  0  0  0  0  0  0  0  0  0
    0.3055   -6.1598    3.0324 C   0  0  0  0  0  0  0  0  0  0  0  0
    1.7051   -8.0453    5.1428 C   0  0  0  0  0  0  0  0  0  0  0  0
    0.2949   -2.7242    4.0517 C   0  0  0  0  0  0  0  0  0  0  0  0
    0.2188   -1.4357    3.5130 C   0  0  0  0  0  0  0  0  0  0  0  0
    1.2728    1.1795    2.6887 N   0  0  0  0  0  0  0  0  0  0  0  0
    1.9202    2.3327    2.8208 C   0  0  0  0  0  0  0  0  0  0  0  0
    3.0991    6.6901    0.9404 C   0  0  0  0  0  0  0  0  0  0  0  0
    2.9720    7.7299    2.0540 C   0  0  0  0  0  0  0  0  0  0  0  0
    4.5271    6.1692    0.7866 C   0  0  0  0  0  0  0  0  0  0  0  0
    0.8777    6.3646   -0.6053 O   0  0  0  0  0  0  0  0  0  0  0  0
   -3.1590    0.4131   -1.6147 C   0  0  0  0  0  0  0  0  0  0  0  0
   -3.9153    0.5605   -2.7019 C   0  0  0  0  0  0  0  0  0  0  0  0
   -2.4045   -2.5034   -4.0611 S   0  0  0  0  0  1  0  0  0  0  0  0
   -1.9288   -1.1131   -5.1573 C   0  0  0  0  0  0  0  0  0  0  0  0
   -0.4138   -0.8029   -5.1717 C   0  0  2  0  0  0  0  0  0  0  0  0
   -0.1741   -0.1337   -6.0117 H   0  0  0  0  0  0  0  0  0  0  0  0
    0.3006   -2.0472   -5.3201 N   0  0  0  0  0  0  0  0  0  0  0  0
    1.6221   -2.1272   -5.5839 C   0  0  0  0  0  0  0  0  0  0  0  0
    2.1997   -3.5327   -5.5094 C   0  0  0  0  0  0  0  0  0  0  0  0
    2.3220   -1.1626   -5.8440 O   0  0  0  0  0  0  0  0  0  0  0  0
   -0.0085   -0.0099   -3.9221 C   0  0  0  0  0  0  0  0  0  0  0  0
    0.1337   -0.7475   -2.7964 N   0  0  0  0  0  0  0  0  0  0  0  0
    0.4168   -0.1135   -1.5362 C   0  0  0  0  0  0  0  0  0  0  0  0
    0.1399    1.2044   -3.9511 O   0  0  0  0  0  0  0  0  0  0  0  0
   -2.5158    3.7631   -2.8371 H   0  0  0  0  0  0  0  0  0  0  0  0
   -1.7478    2.1520   -2.9135 H   0  0  0  0  0  0  0  0  0  0  0  0
   -0.1236    4.3013   -2.6032 H   0  0  0  0  0  0  0  0  0  0  0  0
    0.1405    2.8229   -1.6575 H   0  0  0  0  0  0  0  0  0  0  0  0
   -3.0294    4.5016   -0.0367 H   0  0  0  0  0  0  0  0  0  0  0  0
   -2.1690    3.2972    0.9557 H   0  0  0  0  0  0  0  0  0  0  0  0
    1.6280    5.3793    3.1478 H   0  0  0  0  0  0  0  0  0  0  0  0
    3.2191    4.7461    2.6921 H   0  0  0  0  0  0  0  0  0  0  0  0
   -1.3328    0.1945    1.0797 H   0  0  0  0  0  0  0  0  0  0  0  0
   -2.2559   -2.6537   -1.3861 H   0  0  0  0  0  0  0  0  0  0  0  0
   -2.8670   -3.5508    0.0530 H   0  0  0  0  0  0  0  0  0  0  0  0
   -1.2044   -3.8421   -0.5702 H   0  0  0  0  0  0  0  0  0  0  0  0
   -1.3738   -4.4026    1.6240 H   0  0  0  0  0  0  0  0  0  0  0  0
   -0.3766   -4.5510    5.8973 H   0  0  0  0  0  0  0  0  0  0  0  0
    1.2392   -5.1252    5.4256 H   0  0  0  0  0  0  0  0  0  0  0  0
   -1.3307   -6.7754    5.7622 H   0  0  0  0  0  0  0  0  0  0  0  0
    0.1093   -6.8381    6.8040 H   0  0  0  0  0  0  0  0  0  0  0  0
   -1.1699   -7.6565    3.4700 H   0  0  0  0  0  0  0  0  0  0  0  0
    0.3849   -8.3230    2.9207 H   0  0  0  0  0  0  0  0  0  0  0  0
   -0.0802   -6.0387    2.0121 H   0  0  0  0  0  0  0  0  0  0  0  0
    1.4120   -6.0646    2.9652 H   0  0  0  0  0  0  0  0  0  0  0  0
    1.8814   -8.2886    6.2026 H   0  0  0  0  0  0  0  0  0  0  0  0
    2.3978   -7.2201    4.8729 H   0  0  0  0  0  0  0  0  0  0  0  0
    1.9963   -8.9254    4.5481 H   0  0  0  0  0  0  0  0  0  0  0  0
    0.8104   -2.8575    5.0025 H   0  0  0  0  0  0  0  0  0  0  0  0
    0.6696   -0.5987    4.0404 H   0  0  0  0  0  0  0  0  0  0  0  0
    2.7496    2.3462    3.5401 H   0  0  0  0  0  0  0  0  0  0  0  0
    2.8017    7.1663   -0.0019 H   0  0  0  0  0  0  0  0  0  0  0  0
    3.2663    7.3211    3.0343 H   0  0  0  0  0  0  0  0  0  0  0  0
    1.9367    8.0946    2.1262 H   0  0  0  0  0  0  0  0  0  0  0  0
    3.6242    8.5914    1.8464 H   0  0  0  0  0  0  0  0  0  0  0  0
    4.9035    5.7018    1.7109 H   0  0  0  0  0  0  0  0  0  0  0  0
    5.2067    6.9989    0.5408 H   0  0  0  0  0  0  0  0  0  0  0  0
    4.5812    5.4262   -0.0215 H   0  0  0  0  0  0  0  0  0  0  0  0
   -2.7679   -0.5730   -1.3556 H   0  0  0  0  0  0  0  0  0  0  0  0
   -4.3505    1.5278   -2.9728 H   0  0  0  0  0  0  0  0  0  0  0  0
   -4.1064   -0.3082   -3.3406 H   0  0  0  0  0  0  0  0  0  0  0  0
   -2.4497   -0.1843   -4.8731 H   0  0  0  0  0  0  0  0  0  0  0  0
   -2.2285   -1.3447   -6.1923 H   0  0  0  0  0  0  0  0  0  0  0  0
   -0.2384   -2.8575   -4.9997 H   0  0  0  0  0  0  0  0  0  0  0  0
    2.9740   -3.6389   -6.2803 H   0  0  0  0  0  0  0  0  0  0  0  0
    1.4397   -4.3175   -5.6299 H   0  0  0  0  0  0  0  0  0  0  0  0
    2.6810   -3.6600   -4.5275 H   0  0  0  0  0  0  0  0  0  0  0  0
   -0.3533   -1.6472   -2.8120 H   0  0  0  0  0  0  0  0  0  0  0  0
   -0.3919    0.5578   -1.2018 H   0  0  0  0  0  0  0  0  0  0  0  0
    1.3305    0.4942   -1.6156 H   0  0  0  0  0  0  0  0  0  0  0  0
    0.5582   -0.8779   -0.7631 H   0  0  0  0  0  0  0  0  0  0  0  0
  2  1  2  0  0  0  0
  3  2  1  0  0  0  0
  3  8  1  0  0  0  0
  4  5  1  0  0  0  0
  4  3  1  0  0  0  0
  5 56  1  0  0  0  0
  5  6  1  0  0  0  0
  6  7  1  6  0  0  0
  6  8  1  0  0  0  0
  6  9  1  0  0  0  0
  8 57  1  0  0  0  0
  8 58  1  0  0  0  0
  9 14  1  0  0  0  0
 10  9  1  0  0  0  0
 10 11  1  0  0  0  0
 11 12  1  0  0  0  0
 12 60  1  0  0  0  0
 12 59  1  0  0  0  0
 13 12  1  0  0  0  0
 13 34  1  0  0  0  0
 14 13  2  0  0  0  0
 15 14  1  0  0  0  0
 15 16  2  0  0  0  0
 16 33  1  0  0  0  0
 17 16  1  0  0  0  0
 17 18  1  0  0  0  0
 18 32  1  0  0  0  0
 19 22  1  0  0  0  0
 19 18  2  0  0  0  0
 20 19  1  0  0  0  0
 21 63  1  0  0  0  0
 21 20  1  0  0  0  0
 22 23  2  0  0  0  0
 23 24  1  0  0  0  0
 23 31  1  0  0  0  0
 24 25  1  0  0  0  0
 25 67  1  0  0  0  0
 25 26  1  0  0  0  0
 25 66  1  0  0  0  0
 26 69  1  0  0  0  0
 27 30  1  0  0  0  0
 27 26  1  0  0  0  0
 28 27  1  0  0  0  0
 29 28  1  0  0  0  0
 29 24  1  0  0  0  0
 30 74  1  0  0  0  0
 31 77  1  0  0  0  0
 32 78  1  0  0  0  0
 32 31  2  0  0  0  0
 33 34  2  0  0  0  0
 34 79  1  0  0  0  0
 35 11  1  0  0  0  0
 35 36  1  0  0  0  0
 36 82  1  0  0  0  0
 36 81  1  0  0  0  0
 37 35  1  0  0  0  0
 37 84  1  0  0  0  0
 38 10  2  0  0  0  0
 39 87  1  0  0  0  0
 39  2  1  0  0  0  0
 40 39  2  0  0  0  0
 42 90  1  0  0  0  0
 42 41  1  0  0  0  0
 43 44  1  6  0  0  0
 43 42  1  0  0  0  0
 43 49  1  0  0  0  0
 45 43  1  0  0  0  0
 45 92  1  0  0  0  0
 46 47  1  0  0  0  0
 46 45  1  0  0  0  0
 47 95  1  0  0  0  0
 48 46  2  0  0  0  0
 49 50  1  0  0  0  0
 50 51  1  0  0  0  0
 51 97  1  0  0  0  0
 51 99  1  0  0  0  0
 52 49  2  0  0  0  0
 53  4  1  0  0  0  0
 54  4  1  0  0  0  0
 55  5  1  0  0  0  0
 61 17  1  0  0  0  0
 62 21  1  0  0  0  0
 64 21  1  0  0  0  0
 65 22  1  0  0  0  0
 68 26  1  0  0  0  0
 70 28  1  0  0  0  0
 71 28  1  0  0  0  0
 72 29  1  0  0  0  0
 73 29  1  0  0  0  0
 75 30  1  0  0  0  0
 76 30  1  0  0  0  0
 80 35  1  0  0  0  0
 83 36  1  0  0  0  0
 85 37  1  0  0  0  0
 86 37  1  0  0  0  0
 88 40  1  0  0  0  0
 89 40  1  0  0  0  0
 91 42  1  0  0  0  0
 93 47  1  0  0  0  0
 94 47  1  0  0  0  0
 96 50  1  0  0  0  0
 98 51  1  0  0  0  0
M  END
