99
-1 1
O         0.839104   -5.025272   13.951079
C         0.841049   -4.776339   12.725302
N         1.217522   -3.482573   12.315836
C         2.009711   -3.202198   11.137720
C         3.254143   -2.493587   11.675626
C         2.718967   -1.709582   12.883174
H         2.480258   -0.691571   12.558527
C         1.404284   -2.429612   13.290997
N         3.712566   -1.509047   13.952254
C         4.512526   -0.360664   13.838335
N         5.478402   -0.178873   14.803997
C         5.410102   -0.863885   16.080940
C         4.951188   -2.268198   15.878375
C         4.061082   -2.536376   14.820212
N         3.546845   -3.728782   14.631085
C         3.822939   -4.690555   15.532630
N         3.114768   -5.834870   15.362919
C         3.204158   -7.041506   16.060471
C         2.600389   -8.175390   15.451519
O         2.045591   -7.952970   14.245632
C         1.403481   -8.989525   13.564105
C         2.599796   -9.409825   16.087863
C         3.236771   -9.588988   17.330789
N         3.212783  -10.871448   17.930916
C         3.568099  -10.957704   19.332015
C         3.161159  -12.323900   19.890172
N         3.710588  -13.445328   19.148033
C         3.386961  -13.307290   17.738057
C         3.793652  -11.955821   17.151052
C         5.102862  -13.722485   19.420091
C         3.848518   -8.484091   17.918003
C         3.819034   -7.229965   17.295216
N         4.719667   -4.562577   16.521785
C         5.271573   -3.359500   16.662806
C         6.349745    0.988302   14.684155
C         5.993520    2.072787   15.701761
C         7.823585    0.590005   14.747014
O         4.364329    0.416029   12.912903
C         0.408319   -5.730529   11.760622
C        -0.039173   -5.500171   10.429087
S         0.969696   -6.399317    8.785098
C         2.264809   -5.282055    8.132544
C         3.710400   -5.770707    8.343349
H         4.382727   -5.174052    7.713744
N         3.855596   -7.145337    7.906882
C         4.511824   -7.507502    6.773923
C         4.381939   -8.978333    6.413471
O         5.141921   -6.734435    6.076477
C         4.251854   -5.595225    9.772399
N         3.593662   -6.281224   10.735227
C         3.965854   -6.165986   12.126466
O         5.231954   -4.901067    9.990303
H         1.469293   -2.554329   10.416520
H         2.258746   -4.136168   10.627919
H         3.740173   -1.837617   10.940671
H         3.993065   -3.239476   11.996497
H         0.573049   -1.700069   13.243849
H         1.415916   -2.872414   14.291449
H         4.728658   -0.327086   16.773942
H         6.406313   -0.852251   16.548790
H         2.316504   -5.722164   14.702351
H         1.072043   -8.568064   12.607497
H         0.524323   -9.358044   14.121295
H         2.087522   -9.835868   13.371570
H         2.086160  -10.255129   15.631243
H         3.037865  -10.168091   19.885031
H         4.657184  -10.792408   19.496893
H         2.060130  -12.393711   19.854757
H         3.464444  -12.403199   20.946384
H         2.294533  -13.417455   17.622672
H         3.864655  -14.123525   17.173040
H         3.447115  -11.892831   16.111016
H         4.902886  -11.867882   17.120227
H         5.238866  -13.901160   20.498511
H         5.813349  -12.921344   19.125129
H         5.405924  -14.640259   18.891679
H         4.368057   -8.573784   18.872239
H         4.305903   -6.377145   17.761052
H         6.003718   -3.252513   17.474177
H         6.141734    1.385062   13.682866
H         6.186397    1.745335   16.736382
H         4.931690    2.347232   15.616580
H         6.595812    2.976348   15.523282
H         8.112495    0.211778   15.741052
H         8.459851    1.461862   14.532377
H         8.042611   -0.190694   14.004941
H         0.150749   -6.688159   12.218576
H        -0.084100   -4.459633   10.086129
H        -0.954012   -6.034339   10.143962
H         2.141920   -4.277334    8.561849
H         2.102574   -5.187748    7.048312
H         3.243658   -7.815311    8.360521
H         3.593029   -9.086348    5.653634
H         4.128036   -9.613970    7.273318
H         5.327391   -9.314758    5.969453
H         2.651999   -6.614807   10.520820
H         3.577039   -5.245156   12.588336
H         5.060920   -6.155627   12.210777
H         3.554353   -7.010902   12.689788
