-1 1
 OpenBabel05232414493D

 93 96  0  0  1  0  0  0  0  0999 V2000
    0.7570    8.5010    8.6017 O   0  0  0  0  0  0  0  0  0  0  0  0
    1.5934    7.7035    8.1390 C   0  0  0  0  0  0  0  0  0  0  0  0
    1.5576    7.3904    6.7702 N   0  0  0  0  0  0  0  0  0  0  0  0
    2.7415    7.3597    5.9252 C   0  0  0  0  0  0  0  0  0  0  0  0
    2.4381    8.3929    4.8370 C   0  0  0  0  0  0  0  0  0  0  0  0
    0.9208    8.2580    4.6416 C   0  0  1  0  0  0  0  0  0  0  0  0
    0.7424    7.5228    3.8525 H   0  0  0  0  0  0  0  0  0  0  0  0
    0.3828    7.7013    5.9845 C   0  0  0  0  0  0  0  0  0  0  0  0
    0.2750    9.4908    4.1635 N   0  0  0  0  0  0  0  0  0  0  0  0
   -0.5167    9.4195    3.0117 C   0  0  0  0  0  0  0  0  0  0  0  0
   -1.0571   10.6063    2.5644 N   0  0  0  0  0  0  0  0  0  0  0  0
   -0.5700   11.9030    2.9957 C   0  0  0  0  0  0  0  0  0  0  0  0
   -0.1946   11.8501    4.4397 C   0  0  0  0  0  0  0  0  0  0  0  0
    0.2648   10.6267    4.9616 C   0  0  0  0  0  0  0  0  0  0  0  0
    0.6871   10.5161    6.1984 N   0  0  0  0  0  0  0  0  0  0  0  0
    0.5900   11.5828    7.0067 C   0  0  0  0  0  0  0  0  0  0  0  0
    0.9437   11.3268    8.2918 N   0  0  0  0  0  0  0  0  0  0  0  0
    1.1674   12.2166    9.3459 C   0  0  0  0  0  0  0  0  0  0  0  0
    2.0132   11.7846   10.3875 C   0  0  0  0  0  0  0  0  0  0  0  0
    2.5844   10.5524   10.3482 O   0  0  0  0  0  0  0  0  0  0  0  0
    3.6564   10.3921    9.4430 C   0  0  0  0  0  0  0  0  0  0  0  0
    2.2436   12.5872   11.5038 C   0  0  0  0  0  0  0  0  0  0  0  0
    1.6765   13.8630   11.6133 C   0  0  0  0  0  0  0  0  0  0  0  0
    1.9124   14.7055   12.7253 N   0  0  0  0  0  0  0  0  0  0  0  0
    2.9798   14.3324   13.6311 C   0  0  0  0  0  0  0  0  0  0  0  0
    3.3138   15.5044   14.5574 C   0  0  0  0  0  0  0  0  0  0  0  0
    2.1683   16.0167   15.2890 N   0  0  0  0  0  0  0  0  0  0  0  0
    1.0976   16.3379   14.3608 C   0  0  0  0  0  0  0  0  0  0  0  0
    0.7307   15.1810   13.4317 C   0  0  0  0  0  0  0  0  0  0  0  0
    1.7629   15.2060   16.4154 C   0  0  0  0  0  0  0  0  0  0  0  0
    0.8687   14.3045   10.5557 C   0  0  0  0  0  0  0  0  0  0  0  0
    0.6074   13.4967    9.4548 C   0  0  0  0  0  0  0  0  0  0  0  0
    0.1744   12.7967    6.6138 N   0  0  0  0  0  0  0  0  0  0  0  0
   -0.1941   12.9029    5.3380 C   0  0  0  0  0  0  0  0  0  0  0  0
   -1.8173   10.5859    1.3380 C   0  0  0  0  0  0  0  0  0  0  0  0
   -0.7366    8.3623    2.4500 O   0  0  0  0  0  0  0  0  0  0  0  0
    2.5876    7.0653    8.9559 C   0  0  0  0  0  3  0  0  0  0  0  0
    3.3166    5.9110    8.6427 C   0  0  0  0  0  3  0  0  0  0  0  0
    2.2699    3.9368    9.0798 S   0  0  0  0  0  1  0  0  0  0  0  0
    0.8729    4.1753    7.9402 C   0  0  0  0  0  0  0  0  0  0  0  0
    1.0589    3.5746    6.5279 C   0  0  2  0  0  0  0  0  0  0  0  0
    2.0386    3.8893    6.1392 H   0  0  0  0  0  0  0  0  0  0  0  0
    0.0607    4.0558    5.5989 N   0  0  0  0  0  0  0  0  0  0  0  0
    0.3698    4.6725    4.4283 C   0  0  0  0  0  0  0  0  0  0  0  0
   -0.7995    4.9289    3.4997 C   0  0  0  0  0  0  0  0  0  0  0  0
    1.4963    5.0405    4.1339 O   0  0  0  0  0  0  0  0  0  0  0  0
    0.9785    2.0376    6.5363 C   0  0  0  0  0  0  0  0  0  0  0  0
    1.9871    1.4218    7.1918 N   0  0  0  0  0  0  0  0  0  0  0  0
    1.9808    0.0040    7.4378 C   0  0  0  0  0  0  0  0  0  0  0  0
    0.0546    1.4471    5.9928 O   0  0  0  0  0  0  0  0  0  0  0  0
    2.8929    6.3652    5.4733 H   0  0  0  0  0  0  0  0  0  0  0  0
    3.6298    7.6252    6.5137 H   0  0  0  0  0  0  0  0  0  0  0  0
    2.9869    8.2046    3.9027 H   0  0  0  0  0  0  0  0  0  0  0  0
    2.6894    9.3981    5.2031 H   0  0  0  0  0  0  0  0  0  0  0  0
   -0.2167    6.7922    5.8014 H   0  0  0  0  0  0  0  0  0  0  0  0
   -0.2368    8.4161    6.5344 H   0  0  0  0  0  0  0  0  0  0  0  0
   -1.3681   12.6453    2.8311 H   0  0  0  0  0  0  0  0  0  0  0  0
    0.2894   12.2194    2.3652 H   0  0  0  0  0  0  0  0  0  0  0  0
    1.0253   10.3092    8.4938 H   0  0  0  0  0  0  0  0  0  0  0  0
    3.8916    9.3204    9.4128 H   0  0  0  0  0  0  0  0  0  0  0  0
    4.5375   10.9716    9.7750 H   0  0  0  0  0  0  0  0  0  0  0  0
    3.3831   10.7121    8.4239 H   0  0  0  0  0  0  0  0  0  0  0  0
    2.8794   12.1641   12.2811 H   0  0  0  0  0  0  0  0  0  0  0  0
    3.8737   14.0725   13.0449 H   0  0  0  0  0  0  0  0  0  0  0  0
    2.7183   13.4346   14.2351 H   0  0  0  0  0  0  0  0  0  0  0  0
    3.7221   16.3234   13.9400 H   0  0  0  0  0  0  0  0  0  0  0  0
    4.0976   15.2053   15.2713 H   0  0  0  0  0  0  0  0  0  0  0  0
    1.4251   17.1888   13.7381 H   0  0  0  0  0  0  0  0  0  0  0  0
    0.2099   16.6626   14.9268 H   0  0  0  0  0  0  0  0  0  0  0  0
   -0.0215   15.5219   12.7083 H   0  0  0  0  0  0  0  0  0  0  0  0
    0.2609   14.3560   14.0123 H   0  0  0  0  0  0  0  0  0  0  0  0
    2.6111   15.0879   17.1081 H   0  0  0  0  0  0  0  0  0  0  0  0
    1.3990   14.1882   16.1613 H   0  0  0  0  0  0  0  0  0  0  0  0
    0.9555   15.7159   16.9645 H   0  0  0  0  0  0  0  0  0  0  0  0
    0.4409   15.3089   10.5867 H   0  0  0  0  0  0  0  0  0  0  0  0
   -0.0203   13.8571    8.6429 H   0  0  0  0  0  0  0  0  0  0  0  0
   -0.5215   13.8983    5.0101 H   0  0  0  0  0  0  0  0  0  0  0  0
   -2.1104    9.5539    1.1192 H   0  0  0  0  0  0  0  0  0  0  0  0
   -1.2239   10.9697    0.4873 H   0  0  0  0  0  0  0  0  0  0  0  0
   -2.7181   11.2123    1.4415 H   0  0  0  0  0  0  0  0  0  0  0  0
    2.5652    7.4048    9.9948 H   0  0  0  0  0  0  0  0  0  0  0  0
    4.1568    5.6520    9.2923 H   0  0  0  0  0  0  0  0  0  0  0  0
    3.4935    5.6434    7.5998 H   0  0  0  0  0  0  0  0  0  0  0  0
    0.7244    5.2593    7.8206 H   0  0  0  0  0  0  0  0  0  0  0  0
   -0.0463    3.7672    8.3913 H   0  0  0  0  0  0  0  0  0  0  0  0
   -0.8194    3.5546    5.6378 H   0  0  0  0  0  0  0  0  0  0  0  0
   -1.7482    4.5110    3.8638 H   0  0  0  0  0  0  0  0  0  0  0  0
   -0.5628    4.4975    2.5171 H   0  0  0  0  0  0  0  0  0  0  0  0
   -0.9101    6.0147    3.3547 H   0  0  0  0  0  0  0  0  0  0  0  0
    2.5511    2.0320    7.7964 H   0  0  0  0  0  0  0  0  0  0  0  0
    1.2700   -0.4648    6.7451 H   0  0  0  0  0  0  0  0  0  0  0  0
    1.6689   -0.2335    8.4694 H   0  0  0  0  0  0  0  0  0  0  0  0
    2.9812   -0.4251    7.2719 H   0  0  0  0  0  0  0  0  0  0  0  0
  2  1  2  0  0  0  0
  2 37  1  0  0  0  0
  3  2  1  0  0  0  0
  4 52  1  0  0  0  0
  4  3  1  0  0  0  0
  5 54  1  0  0  0  0
  5  4  1  0  0  0  0
  6  7  1  6  0  0  0
  6  5  1  0  0  0  0
  6  8  1  0  0  0  0
  8 56  1  0  0  0  0
  8  3  1  0  0  0  0
  9  6  1  0  0  0  0
  9 14  1  0  0  0  0
 10  9  1  0  0  0  0
 11 12  1  0  0  0  0
 11 10  1  0  0  0  0
 12 13  1  0  0  0  0
 13 14  2  0  0  0  0
 13 34  1  0  0  0  0
 14 15  1  0  0  0  0
 15 16  2  0  0  0  0
 16 17  1  0  0  0  0
 17 59  1  0  0  0  0
 17 18  1  0  0  0  0
 18 32  2  0  0  0  0
 18 19  1  0  0  0  0
 19 22  2  0  0  0  0
 20 19  1  0  0  0  0
 21 61  1  0  0  0  0
 21 20  1  0  0  0  0
 22 23  1  0  0  0  0
 22 63  1  0  0  0  0
 23 24  1  0  0  0  0
 24 29  1  0  0  0  0
 24 25  1  0  0  0  0
 25 65  1  0  0  0  0
 25 26  1  0  0  0  0
 26 67  1  0  0  0  0
 26 27  1  0  0  0  0
 27 30  1  0  0  0  0
 28 69  1  0  0  0  0
 28 27  1  0  0  0  0
 29 71  1  0  0  0  0
 29 28  1  0  0  0  0
 30 74  1  0  0  0  0
 30 72  1  0  0  0  0
 31 75  1  0  0  0  0
 31 23  2  0  0  0  0
 32 31  1  0  0  0  0
 33 16  1  0  0  0  0
 34 33  2  0  0  0  0
 35 80  1  0  0  0  0
 35 11  1  0  0  0  0
 36 10  2  0  0  0  0
 37 81  1  0  0  0  0
 38 37  1  0  0  0  0
 38 82  1  0  0  0  0
 40 85  1  0  0  0  0
 40 39  1  0  0  0  0
 41 42  1  6  0  0  0
 41 47  1  0  0  0  0
 41 40  1  0  0  0  0
 43 86  1  0  0  0  0
 43 41  1  0  0  0  0
 44 43  1  0  0  0  0
 45 87  1  0  0  0  0
 45 44  1  0  0  0  0
 46 44  2  0  0  0  0
 47 48  1  0  0  0  0
 48 49  1  0  0  0  0
 48 90  1  0  0  0  0
 49 92  1  0  0  0  0
 50 47  2  0  0  0  0
 51  4  1  0  0  0  0
 53  5  1  0  0  0  0
 55  8  1  0  0  0  0
 57 12  1  0  0  0  0
 58 12  1  0  0  0  0
 60 21  1  0  0  0  0
 62 21  1  0  0  0  0
 64 25  1  0  0  0  0
 66 26  1  0  0  0  0
 68 28  1  0  0  0  0
 70 29  1  0  0  0  0
 73 30  1  0  0  0  0
 76 32  1  0  0  0  0
 77 34  1  0  0  0  0
 78 35  1  0  0  0  0
 79 35  1  0  0  0  0
 83 38  1  0  0  0  0
 84 40  1  0  0  0  0
 88 45  1  0  0  0  0
 89 45  1  0  0  0  0
 91 49  1  0  0  0  0
 93 49  1  0  0  0  0
M  END
