93
-1 1
O         0.756993    8.500993    8.601736
C         1.593445    7.703516    8.139018
N         1.557608    7.390423    6.770248
C         2.741453    7.359674    5.925189
C         2.438058    8.392906    4.837018
C         0.920784    8.257975    4.641583
H         0.742409    7.522819    3.852461
C         0.382795    7.701295    5.984470
N         0.275000    9.490816    4.163525
C        -0.516667    9.419486    3.011732
N        -1.057067   10.606270    2.564353
C        -0.569955   11.902965    2.995738
C        -0.194648   11.850071    4.439676
C         0.264754   10.626730    4.961649
N         0.687102   10.516121    6.198362
C         0.589966   11.582795    7.006725
N         0.943715   11.326761    8.291826
C         1.167397   12.216612    9.345928
C         2.013196   11.784620   10.387519
O         2.584358   10.552421   10.348216
C         3.656369   10.392100    9.442951
C         2.243600   12.587212   11.503834
C         1.676507   13.862991   11.613291
N         1.912427   14.705481   12.725258
C         2.979797   14.332433   13.631099
C         3.313751   15.504405   14.557387
N         2.168277   16.016730   15.288978
C         1.097645   16.337917   14.360832
C         0.730734   15.180966   13.431718
C         1.762944   15.206014   16.415447
C         0.868743   14.304546   10.555723
C         0.607385   13.496731    9.454763
N         0.174369   12.796671    6.613751
C        -0.194137   12.902877    5.337958
C        -1.817331   10.585934    1.337969
O        -0.736617    8.362259    2.450029
C         2.587588    7.065259    8.955901
C         3.316565    5.910962    8.642714
S         2.269871    3.936846    9.079823
C         0.872932    4.175329    7.940199
C         1.058916    3.574606    6.527919
H         2.038566    3.889305    6.139209
N         0.060693    4.055790    5.598938
C         0.369848    4.672457    4.428345
C        -0.799486    4.928941    3.499652
O         1.496296    5.040537    4.133946
C         0.978512    2.037562    6.536350
N         1.987074    1.421849    7.191797
C         1.980761    0.003963    7.437765
O         0.054588    1.447138    5.992831
H         2.892870    6.365174    5.473258
H         3.629776    7.625226    6.513749
H         2.986914    8.204613    3.902686
H         2.689428    9.398084    5.203083
H        -0.216651    6.792227    5.801448
H        -0.236795    8.416118    6.534357
H        -1.368089   12.645334    2.831073
H         0.289397   12.219387    2.365194
H         1.025313   10.309174    8.493845
H         3.891576    9.320369    9.412829
H         4.537547   10.971634    9.774989
H         3.383052   10.712091    8.423879
H         2.879365   12.164096   12.281134
H         3.873734   14.072501   13.044875
H         2.718270   13.434593   14.235120
H         3.722118   16.323393   13.940029
H         4.097617   15.205333   15.271311
H         1.425063   17.188838   13.738058
H         0.209909   16.662643   14.926816
H        -0.021463   15.521869   12.708297
H         0.260929   14.355981   14.012319
H         2.611127   15.087881   17.108090
H         1.399016   14.188161   16.161339
H         0.955495   15.715853   16.964512
H         0.440938   15.308926   10.586749
H        -0.020308   13.857076    8.642851
H        -0.521527   13.898336    5.010120
H        -2.110415    9.553862    1.119211
H        -1.223880   10.969745    0.487266
H        -2.718104   11.212336    1.441496
H         2.565200    7.404805    9.994751
H         4.156846    5.652047    9.292297
H         3.493475    5.643433    7.599820
H         0.724352    5.259270    7.820580
H        -0.046289    3.767203    8.391341
H        -0.819384    3.554606    5.637843
H        -1.748150    4.511007    3.863779
H        -0.562795    4.497513    2.517065
H        -0.910099    6.014742    3.354724
H         2.551077    2.032010    7.796415
H         1.269982   -0.464826    6.745080
H         1.668887   -0.233470    8.469444
H         2.981217   -0.425136    7.271906
