93
-1 1
O        -0.903010   -0.678008    1.141184
C         0.067295   -1.301979    0.704754
N         0.108670   -1.784177   -0.562790
C         1.307139   -2.044175   -1.359383
C         1.129043   -1.104722   -2.554295
C        -0.391567   -1.102232   -2.795269
H        -0.606293   -1.835722   -3.575436
C        -1.016534   -1.593013   -1.464672
N        -0.906363    0.173354   -3.315430
C        -1.659632    0.137147   -4.500985
N        -2.023959    1.355442   -5.030909
C        -1.372851    2.591090   -4.643935
C        -1.104678    2.576164   -3.175961
C        -0.832288    1.336295   -2.565997
N        -0.512626    1.245508   -1.292629
C        -0.525700    2.370325   -0.560435
N        -0.257975    2.181216    0.759523
C        -0.017703    3.141126    1.750591
C         0.934899    2.835691    2.736090
O         1.629904    1.661369    2.683903
C         2.664320    1.624787    1.722529
C         1.175691    3.702347    3.801228
C         0.506133    4.928749    3.900507
N         0.749610    5.838503    4.950680
C         1.888266    5.583914    5.810566
C         2.204267    6.826506    6.647229
N         1.073790    7.321147    7.411729
C        -0.059303    7.532561    6.528423
C        -0.415581    6.303753    5.692129
C         0.773767    6.561370    8.604834
C        -0.414007    5.249107    2.888213
C        -0.681807    4.370277    1.847190
N        -0.775292    3.596837   -1.034018
C        -1.047582    3.672377   -2.335748
C        -2.731876    1.365389   -6.288926
O        -1.992667   -0.912056   -5.014762
C         1.215474   -1.543009    1.628207
C         1.961276   -2.649323    1.692556
S         1.832406   -5.900249    0.014251
C         0.206290   -5.637009   -0.781168
C         0.080829   -6.294611   -2.174140
H         1.022548   -6.088822   -2.710636
N        -1.023530   -5.774417   -2.951793
C        -0.925471   -4.666987   -3.710684
C        -2.125961   -4.347292   -4.579871
O         0.067327   -3.947272   -3.718512
C        -0.136169   -7.812813   -2.090193
N         0.808068   -8.473788   -1.400796
C         0.704965   -9.877101   -1.109860
O        -1.111996   -8.345002   -2.617197
H         1.332638   -3.094744   -1.686938
H         2.213576   -1.840334   -0.780603
H         1.672880   -1.456901   -3.440798
H         1.480868   -0.096296   -2.289871
H        -1.521573   -2.559025   -1.627870
H        -1.724150   -0.890165   -1.014268
H        -2.036010    3.431236   -4.905835
H        -0.435828    2.733933   -5.224534
H        -0.267014    1.195434    1.048119
H         3.139183    0.638422    1.796494
H         3.413424    2.411051    1.922975
H         2.273853    1.750991    0.699104
H         1.901873    3.373714    4.543904
H         2.762255    5.343764    5.187215
H         1.716429    4.709247    6.477025
H         2.532839    7.626619    5.961390
H         3.041390    6.612269    7.330256
H         0.189548    8.358513    5.839325
H        -0.931845    7.847623    7.122438
H        -1.221524    6.564018    4.994049
H        -0.811248    5.495591    6.345941
H         1.662825    6.529394    9.253959
H         0.452381    5.512629    8.431447
H        -0.029416    7.062168    9.167951
H        -0.925068    6.213481    2.908468
H        -1.395000    4.638760    1.070348
H        -1.238710    4.676986   -2.734836
H        -3.168447    0.375840   -6.459213
H        -2.056184    1.598856   -7.132451
H        -3.531569    2.122942   -6.264788
H         1.295136   -0.761385    2.390510
H         2.697702   -2.756413    2.495418
H         1.867000   -3.508982    1.010514
H         0.027561   -4.560148   -0.925395
H        -0.615786   -6.005681   -0.142579
H        -1.768968   -6.448598   -3.106965
H        -3.012065   -4.947524   -4.330551
H        -1.853311   -4.530041   -5.630173
H        -2.355367   -3.275865   -4.494533
H         1.462614   -7.872171   -0.859422
H        -0.078377  -10.312498   -1.744351
H         0.438953  -10.055916   -0.053799
H         1.658515  -10.390706   -1.312634
