93
-1 1
O        -0.296153   -0.621508    0.762573
C         0.444103   -1.557975    0.369338
N         0.389007   -1.936801   -1.020767
C         1.592724   -1.887344   -1.839485
C         1.318711   -0.791547   -2.873247
C        -0.186532   -0.944962   -3.123695
H        -0.322779   -1.679293   -3.922996
C        -0.758362   -1.521949   -1.802337
N        -0.841544    0.276881   -3.621223
C        -1.624223    0.190209   -4.774801
N        -2.183294    1.366898   -5.229291
C        -1.726954    2.675451   -4.798793
C        -1.348756    2.633023   -3.355401
C        -0.871204    1.418381   -2.829794
N        -0.446033    1.317792   -1.596173
C        -0.550116    2.382706   -0.786368
N        -0.185643    2.123201    0.493660
C         0.042511    3.011368    1.546349
C         0.849737    2.565136    2.615308
O         1.375227    1.314712    2.622013
C         2.424121    1.057261    1.711262
C         1.080378    3.378255    3.724843
C         0.555267    4.673450    3.805502
N         0.793852    5.523559    4.913431
C         1.835847    5.132673    5.840397
C         2.181309    6.304210    6.762862
N         1.035540    6.848182    7.471597
C        -0.013336    7.183771    6.523381
C        -0.388926    6.027222    5.597206
C         0.594489    6.055720    8.597470
C        -0.212246    5.127198    2.724736
C        -0.474412    4.312580    1.628618
N        -0.982954    3.591138   -1.183961
C        -1.358180    3.687703   -2.458654
C        -2.933901    1.329786   -6.460743
O        -1.824966   -0.871412   -5.337678
C         1.317679   -2.280766    1.191627
C         1.972308   -3.549595    0.864225
S         1.004447   -5.154127    1.313553
C        -0.390053   -4.995031    0.161744
C        -0.131276   -5.526392   -1.263765
H         0.832678   -5.133866   -1.619737
N        -1.128339   -5.052386   -2.191009
C        -0.802642   -4.510851   -3.398650
C        -1.969671   -4.220194   -4.317267
O         0.340147   -4.235042   -3.721166
C        -0.112084   -7.065378   -1.318623
N         0.932382   -7.645586   -0.680419
C         1.040032   -9.072358   -0.523575
O        -0.989896   -7.692393   -1.890707
H         1.774631   -2.849034   -2.352054
H         2.462858   -1.654869   -1.209190
H         1.901841   -0.913518   -3.798634
H         1.538596    0.191594   -2.436059
H        -1.422451   -2.375772   -2.027570
H        -1.327324   -0.784637   -1.225701
H        -2.542945    3.398364   -4.964185
H        -0.876446    3.011472   -5.431552
H        -0.098246    1.090989    0.679011
H         2.573940   -0.030392    1.692555
H         3.348960    1.572911    2.031153
H         2.171302    1.381241    0.689119
H         1.684335    2.944848    4.521742
H         2.732835    4.845474    5.271742
H         1.542764    4.246738    6.447864
H         2.617779    7.108889    6.145907
H         2.946341    5.993950    7.492413
H         0.342037    8.022439    5.899280
H        -0.902859    7.531784    7.072646
H        -1.122302    6.377205    4.858782
H        -0.885015    5.216446    6.176513
H         1.428658    5.924695    9.304794
H         0.212438    5.043988    8.345494
H        -0.210429    6.587440    9.129404
H        -0.607044    6.145673    2.732739
H        -1.072434    4.681723    0.798518
H        -1.699873    4.678069   -2.788035
H        -3.205530    0.292092   -6.680359
H        -2.342139    1.724173   -7.308037
H        -3.847399    1.939061   -6.365174
H         1.322218   -1.964530    2.238453
H         2.896894   -3.724806    1.435698
H         2.207981   -3.688627   -0.198788
H        -0.616729   -3.921019    0.091176
H        -1.259099   -5.503351    0.607986
H        -2.038014   -5.489057   -2.111558
H        -2.933623   -4.573349   -3.925455
H        -1.773251   -4.694543   -5.288730
H        -2.022197   -3.134190   -4.492774
H         1.487364   -7.032804   -0.080014
H         0.312245   -9.544998   -1.195430
H         0.819868   -9.390474    0.509592
H         2.050538   -9.422697   -0.786394
