-1 1
 OpenBabel05192410563D

 93 97  0  0  1  0  0  0  0  0999 V2000
   -0.2962   -0.6215    0.7626 O   0  0  0  0  0  0  0  0  0  0  0  0
    0.4441   -1.5580    0.3693 C   0  0  0  0  0  0  0  0  0  0  0  0
    0.3890   -1.9368   -1.0208 N   0  0  0  0  0  0  0  0  0  0  0  0
    1.5927   -1.8873   -1.8395 C   0  0  0  0  0  0  0  0  0  0  0  0
    1.3187   -0.7915   -2.8732 C   0  0  0  0  0  0  0  0  0  0  0  0
   -0.1865   -0.9450   -3.1237 C   0  0  1  0  0  0  0  0  0  0  0  0
   -0.3228   -1.6793   -3.9230 H   0  0  0  0  0  0  0  0  0  0  0  0
   -0.7584   -1.5219   -1.8023 C   0  0  0  0  0  0  0  0  0  0  0  0
   -0.8415    0.2769   -3.6212 N   0  0  0  0  0  0  0  0  0  0  0  0
   -1.6242    0.1902   -4.7748 C   0  0  0  0  0  0  0  0  0  0  0  0
   -2.1833    1.3669   -5.2293 N   0  0  0  0  0  0  0  0  0  0  0  0
   -1.7270    2.6755   -4.7988 C   0  0  0  0  0  0  0  0  0  0  0  0
   -1.3488    2.6330   -3.3554 C   0  0  0  0  0  0  0  0  0  0  0  0
   -0.8712    1.4184   -2.8298 C   0  0  0  0  0  0  0  0  0  0  0  0
   -0.4460    1.3178   -1.5962 N   0  0  0  0  0  0  0  0  0  0  0  0
   -0.5501    2.3827   -0.7864 C   0  0  0  0  0  0  0  0  0  0  0  0
   -0.1856    2.1232    0.4937 N   0  0  0  0  0  0  0  0  0  0  0  0
    0.0425    3.0114    1.5463 C   0  0  0  0  0  0  0  0  0  0  0  0
    0.8497    2.5651    2.6153 C   0  0  0  0  0  0  0  0  0  0  0  0
    1.3752    1.3147    2.6220 O   0  0  0  0  0  0  0  0  0  0  0  0
    2.4241    1.0573    1.7113 C   0  0  0  0  0  0  0  0  0  0  0  0
    1.0804    3.3783    3.7248 C   0  0  0  0  0  0  0  0  0  0  0  0
    0.5553    4.6734    3.8055 C   0  0  0  0  0  0  0  0  0  0  0  0
    0.7939    5.5236    4.9134 N   0  0  0  0  0  0  0  0  0  0  0  0
    1.8358    5.1327    5.8404 C   0  0  0  0  0  0  0  0  0  0  0  0
    2.1813    6.3042    6.7629 C   0  0  0  0  0  0  0  0  0  0  0  0
    1.0355    6.8482    7.4716 N   0  0  0  0  0  0  0  0  0  0  0  0
   -0.0133    7.1838    6.5234 C   0  0  0  0  0  0  0  0  0  0  0  0
   -0.3889    6.0272    5.5972 C   0  0  0  0  0  0  0  0  0  0  0  0
    0.5945    6.0557    8.5975 C   0  0  0  0  0  0  0  0  0  0  0  0
   -0.2122    5.1272    2.7247 C   0  0  0  0  0  0  0  0  0  0  0  0
   -0.4744    4.3126    1.6286 C   0  0  0  0  0  0  0  0  0  0  0  0
   -0.9830    3.5911   -1.1840 N   0  0  0  0  0  0  0  0  0  0  0  0
   -1.3582    3.6877   -2.4587 C   0  0  0  0  0  0  0  0  0  0  0  0
   -2.9339    1.3298   -6.4607 C   0  0  0  0  0  0  0  0  0  0  0  0
   -1.8250   -0.8714   -5.3377 O   0  0  0  0  0  0  0  0  0  0  0  0
    1.3177   -2.2808    1.1916 C   0  0  0  0  0  3  0  0  0  0  0  0
    1.9723   -3.5496    0.8642 C   0  0  0  0  0  0  0  0  0  0  0  0
    1.0044   -5.1541    1.3136 S   0  0  0  0  0  0  0  0  0  0  0  0
   -0.3901   -4.9950    0.1617 C   0  0  0  0  0  0  0  0  0  0  0  0
   -0.1313   -5.5264   -1.2638 C   0  0  2  0  0  0  0  0  0  0  0  0
    0.8327   -5.1339   -1.6197 H   0  0  0  0  0  0  0  0  0  0  0  0
   -1.1283   -5.0524   -2.1910 N   0  0  0  0  0  0  0  0  0  0  0  0
   -0.8026   -4.5109   -3.3986 C   0  0  0  0  0  0  0  0  0  0  0  0
   -1.9697   -4.2202   -4.3173 C   0  0  0  0  0  0  0  0  0  0  0  0
    0.3401   -4.2350   -3.7212 O   0  0  0  0  0  0  0  0  0  0  0  0
   -0.1121   -7.0654   -1.3186 C   0  0  0  0  0  0  0  0  0  0  0  0
    0.9324   -7.6456   -0.6804 N   0  0  0  0  0  0  0  0  0  0  0  0
    1.0400   -9.0724   -0.5236 C   0  0  0  0  0  0  0  0  0  0  0  0
   -0.9899   -7.6924   -1.8907 O   0  0  0  0  0  0  0  0  0  0  0  0
    1.7746   -2.8490   -2.3521 H   0  0  0  0  0  0  0  0  0  0  0  0
    2.4629   -1.6549   -1.2092 H   0  0  0  0  0  0  0  0  0  0  0  0
    1.9018   -0.9135   -3.7986 H   0  0  0  0  0  0  0  0  0  0  0  0
    1.5386    0.1916   -2.4361 H   0  0  0  0  0  0  0  0  0  0  0  0
   -1.4225   -2.3758   -2.0276 H   0  0  0  0  0  0  0  0  0  0  0  0
   -1.3273   -0.7846   -1.2257 H   0  0  0  0  0  0  0  0  0  0  0  0
   -2.5429    3.3984   -4.9642 H   0  0  0  0  0  0  0  0  0  0  0  0
   -0.8764    3.0115   -5.4316 H   0  0  0  0  0  0  0  0  0  0  0  0
   -0.0982    1.0910    0.6790 H   0  0  0  0  0  0  0  0  0  0  0  0
    2.5739   -0.0304    1.6926 H   0  0  0  0  0  0  0  0  0  0  0  0
    3.3490    1.5729    2.0312 H   0  0  0  0  0  0  0  0  0  0  0  0
    2.1713    1.3812    0.6891 H   0  0  0  0  0  0  0  0  0  0  0  0
    1.6843    2.9448    4.5217 H   0  0  0  0  0  0  0  0  0  0  0  0
    2.7328    4.8455    5.2717 H   0  0  0  0  0  0  0  0  0  0  0  0
    1.5428    4.2467    6.4479 H   0  0  0  0  0  0  0  0  0  0  0  0
    2.6178    7.1089    6.1459 H   0  0  0  0  0  0  0  0  0  0  0  0
    2.9463    5.9939    7.4924 H   0  0  0  0  0  0  0  0  0  0  0  0
    0.3420    8.0224    5.8993 H   0  0  0  0  0  0  0  0  0  0  0  0
   -0.9029    7.5318    7.0726 H   0  0  0  0  0  0  0  0  0  0  0  0
   -1.1223    6.3772    4.8588 H   0  0  0  0  0  0  0  0  0  0  0  0
   -0.8850    5.2164    6.1765 H   0  0  0  0  0  0  0  0  0  0  0  0
    1.4287    5.9247    9.3048 H   0  0  0  0  0  0  0  0  0  0  0  0
    0.2124    5.0440    8.3455 H   0  0  0  0  0  0  0  0  0  0  0  0
   -0.2104    6.5874    9.1294 H   0  0  0  0  0  0  0  0  0  0  0  0
   -0.6070    6.1457    2.7327 H   0  0  0  0  0  0  0  0  0  0  0  0
   -1.0724    4.6817    0.7985 H   0  0  0  0  0  0  0  0  0  0  0  0
   -1.6999    4.6781   -2.7880 H   0  0  0  0  0  0  0  0  0  0  0  0
   -3.2055    0.2921   -6.6804 H   0  0  0  0  0  0  0  0  0  0  0  0
   -2.3421    1.7242   -7.3080 H   0  0  0  0  0  0  0  0  0  0  0  0
   -3.8474    1.9391   -6.3652 H   0  0  0  0  0  0  0  0  0  0  0  0
    1.3222   -1.9645    2.2385 H   0  0  0  0  0  0  0  0  0  0  0  0
    2.8969   -3.7248    1.4357 H   0  0  0  0  0  0  0  0  0  0  0  0
    2.2080   -3.6886   -0.1988 H   0  0  0  0  0  0  0  0  0  0  0  0
   -0.6167   -3.9210    0.0912 H   0  0  0  0  0  0  0  0  0  0  0  0
   -1.2591   -5.5034    0.6080 H   0  0  0  0  0  0  0  0  0  0  0  0
   -2.0380   -5.4891   -2.1116 H   0  0  0  0  0  0  0  0  0  0  0  0
   -2.9336   -4.5733   -3.9255 H   0  0  0  0  0  0  0  0  0  0  0  0
   -1.7733   -4.6945   -5.2887 H   0  0  0  0  0  0  0  0  0  0  0  0
   -2.0222   -3.1342   -4.4928 H   0  0  0  0  0  0  0  0  0  0  0  0
    1.4874   -7.0328   -0.0800 H   0  0  0  0  0  0  0  0  0  0  0  0
    0.3122   -9.5450   -1.1954 H   0  0  0  0  0  0  0  0  0  0  0  0
    0.8199   -9.3905    0.5096 H   0  0  0  0  0  0  0  0  0  0  0  0
    2.0505   -9.4227   -0.7864 H   0  0  0  0  0  0  0  0  0  0  0  0
  2  1  2  0  0  0  0
  2 37  1  0  0  0  0
  3  2  1  0  0  0  0
  4 52  1  0  0  0  0
  4  3  1  0  0  0  0
  5 54  1  0  0  0  0
  5  4  1  0  0  0  0
  6  7  1  6  0  0  0
  6  5  1  0  0  0  0
  6  8  1  0  0  0  0
  8 56  1  0  0  0  0
  8  3  1  0  0  0  0
  9  6  1  0  0  0  0
  9 14  1  0  0  0  0
 10  9  1  0  0  0  0
 11 12  1  0  0  0  0
 11 10  1  0  0  0  0
 12 13  1  0  0  0  0
 13 14  2  0  0  0  0
 13 34  1  0  0  0  0
 14 15  1  0  0  0  0
 15 16  2  0  0  0  0
 16 17  1  0  0  0  0
 17 59  1  0  0  0  0
 17 18  1  0  0  0  0
 18 32  2  0  0  0  0
 18 19  1  0  0  0  0
 19 20  1  0  0  0  0
 19 22  2  0  0  0  0
 21 61  1  0  0  0  0
 21 20  1  0  0  0  0
 22 23  1  0  0  0  0
 22 63  1  0  0  0  0
 23 24  1  0  0  0  0
 24 29  1  0  0  0  0
 24 25  1  0  0  0  0
 25 65  1  0  0  0  0
 25 26  1  0  0  0  0
 26 27  1  0  0  0  0
 26 67  1  0  0  0  0
 27 30  1  0  0  0  0
 28 69  1  0  0  0  0
 28 27  1  0  0  0  0
 29 71  1  0  0  0  0
 29 28  1  0  0  0  0
 30 74  1  0  0  0  0
 30 72  1  0  0  0  0
 31 75  1  0  0  0  0
 31 23  2  0  0  0  0
 32 31  1  0  0  0  0
 33 16  1  0  0  0  0
 34 33  2  0  0  0  0
 35 80  1  0  0  0  0
 35 11  1  0  0  0  0
 36 10  2  0  0  0  0
 37 81  1  0  0  0  0
 38 37  1  0  0  0  0
 38 39  1  0  0  0  0
 38 82  1  0  0  0  0
 40 85  1  0  0  0  0
 40 39  1  0  0  0  0
 41 42  1  6  0  0  0
 41 40  1  0  0  0  0
 43 86  1  0  0  0  0
 43 41  1  0  0  0  0
 44 43  1  0  0  0  0
 45 87  1  0  0  0  0
 45 44  1  0  0  0  0
 46 44  2  0  0  0  0
 47 41  1  0  0  0  0
 47 48  1  0  0  0  0
 48 49  1  0  0  0  0
 48 90  1  0  0  0  0
 49 92  1  0  0  0  0
 50 47  2  0  0  0  0
 51  4  1  0  0  0  0
 53  5  1  0  0  0  0
 55  8  1  0  0  0  0
 57 12  1  0  0  0  0
 58 12  1  0  0  0  0
 60 21  1  0  0  0  0
 62 21  1  0  0  0  0
 64 25  1  0  0  0  0
 66 26  1  0  0  0  0
 68 28  1  0  0  0  0
 70 29  1  0  0  0  0
 73 30  1  0  0  0  0
 76 32  1  0  0  0  0
 77 34  1  0  0  0  0
 78 35  1  0  0  0  0
 79 35  1  0  0  0  0
 83 38  1  0  0  0  0
 84 40  1  0  0  0  0
 88 45  1  0  0  0  0
 89 45  1  0  0  0  0
 91 49  1  0  0  0  0
 93 49  1  0  0  0  0
M  END
