-1 1
 OpenBabel05232414493D

 99102  0  0  1  0  0  0  0  0999 V2000
    4.0219    0.4458  -12.3714 O   0  0  0  0  0  0  0  0  0  0  0  0
    3.0188    0.7809  -11.7145 C   0  0  0  0  0  0  0  0  0  0  0  0
    1.9477    1.3348  -12.4165 N   0  0  0  0  0  0  0  0  0  0  0  0
    0.9995    2.2422  -11.8155 C   0  0  0  0  0  0  0  0  0  0  0  0
    1.5588    3.5675  -11.2834 C   0  0  0  0  0  0  0  0  0  0  0  0
    1.7496    4.6081  -12.2999 N   0  0  0  0  0  0  0  0  0  0  0  0
    0.9293    5.7373  -12.2076 C   0  0  0  0  0  0  0  0  0  0  0  0
    1.2396    6.8074  -13.0150 N   0  0  0  0  0  0  0  0  0  0  0  0
    2.1997    6.7942  -14.0973 C   0  0  0  0  0  0  0  0  0  0  0  0
    3.1839    5.6852  -13.9293 C   0  0  0  0  0  0  0  0  0  0  0  0
    2.9098    4.6151  -13.0555 C   0  0  0  0  0  0  0  0  0  0  0  0
    3.7424    3.6069  -12.9171 N   0  0  0  0  0  0  0  0  0  0  0  0
    4.8847    3.6121  -13.6273 C   0  0  0  0  0  0  0  0  0  0  0  0
    5.6611    2.5174  -13.4520 N   0  0  0  0  0  0  0  0  0  0  0  0
    6.9353    2.2444  -13.9569 C   0  0  0  0  0  0  0  0  0  0  0  0
    7.6998    1.2858  -13.2371 C   0  0  0  0  0  0  0  0  0  0  0  0
    7.1162    0.8253  -12.1224 O   0  0  0  0  0  0  0  0  0  0  0  0
    7.7603   -0.1055  -11.2993 C   0  0  0  0  0  0  0  0  0  0  0  0
    8.9630    0.9117  -13.6757 C   0  0  0  0  0  0  0  0  0  0  0  0
    9.5232    1.4754  -14.8388 C   0  0  0  0  0  0  0  0  0  0  0  0
   10.8186    1.0640  -15.2372 N   0  0  0  0  0  0  0  0  0  0  0  0
   11.5064    1.8785  -16.2166 C   0  0  0  0  0  0  0  0  0  0  0  0
   12.9883    1.4972  -16.2643 C   0  0  0  0  0  0  0  0  0  0  0  0
   13.2207    0.0845  -16.5111 N   0  0  0  0  0  0  0  0  0  0  0  0
   12.4773   -0.7110  -15.5482 C   0  0  0  0  0  0  0  0  0  0  0  0
   10.9909   -0.3597  -15.4890 C   0  0  0  0  0  0  0  0  0  0  0  0
   13.0464   -0.3219  -17.8870 C   0  0  0  0  0  0  0  0  0  0  0  0
    8.7845    2.4343  -15.5287 C   0  0  0  0  0  0  0  0  0  0  0  0
    7.5096    2.8144  -15.0870 C   0  0  0  0  0  0  0  0  0  0  0  0
    5.2629    4.6044  -14.4491 N   0  0  0  0  0  0  0  0  0  0  0  0
    4.4015    5.6101  -14.5788 C   0  0  0  0  0  0  0  0  0  0  0  0
    0.4782    8.0247  -12.8616 C   0  0  0  0  0  0  0  0  0  0  0  0
    1.3020    9.1657  -12.2966 C   0  0  0  0  0  0  0  0  0  0  0  0
    1.1085   10.4759  -12.7429 C   0  0  0  0  0  0  0  0  0  0  0  0
    1.8425   11.5306  -12.1997 C   0  0  0  0  0  0  0  0  0  0  0  0
    2.7883   11.2814  -11.2066 C   0  0  0  0  0  0  0  0  0  0  0  0
    2.9917    9.9742  -10.7629 C   0  0  0  0  0  0  0  0  0  0  0  0
    2.2540    8.9206  -11.2997 C   0  0  0  0  0  0  0  0  0  0  0  0
   -0.0110    5.7742  -11.4366 O   0  0  0  0  0  0  0  0  0  0  0  0
    2.8842    0.5891  -10.2984 C   0  0  0  0  0  3  0  0  0  0  0  0
    3.8740   -0.0756   -9.5813 C   0  0  0  0  0  3  0  0  0  0  0  0
    5.4738    1.2818   -8.6172 S   0  0  0  0  0  1  0  0  0  0  0  0
    5.5041    2.5892   -9.8694 C   0  0  0  0  0  0  0  0  0  0  0  0
    5.4863    4.0447   -9.3557 C   0  0  2  0  0  0  0  0  0  0  0  0
    4.5118    4.2540   -8.8898 H   0  0  0  0  0  0  0  0  0  0  0  0
    5.6606    4.9726  -10.4535 N   0  0  0  0  0  0  0  0  0  0  0  0
    4.7953    5.9609  -10.7730 C   0  0  0  0  0  0  0  0  0  0  0  0
    5.3839    7.0227  -11.6842 C   0  0  0  0  0  0  0  0  0  0  0  0
    3.6463    6.0229  -10.3554 O   0  0  0  0  0  0  0  0  0  0  0  0
    6.6043    4.3571   -8.3429 C   0  0  0  0  0  0  0  0  0  0  0  0
    6.4190    3.8345   -7.1082 N   0  0  0  0  0  0  0  0  0  0  0  0
    7.4751    3.8514   -6.1286 C   0  0  0  0  0  0  0  0  0  0  0  0
    7.5669    5.0452   -8.6524 O   0  0  0  0  0  0  0  0  0  0  0  0
    2.2702    1.6093  -13.3372 H   0  0  0  0  0  0  0  0  0  0  0  0
    0.4982    1.7303  -10.9798 H   0  0  0  0  0  0  0  0  0  0  0  0
    0.2073    2.4599  -12.5506 H   0  0  0  0  0  0  0  0  0  0  0  0
    2.5194    3.3986  -10.7797 H   0  0  0  0  0  0  0  0  0  0  0  0
    0.8577    3.9913  -10.5583 H   0  0  0  0  0  0  0  0  0  0  0  0
    2.7235    7.7669  -14.1090 H   0  0  0  0  0  0  0  0  0  0  0  0
    1.6652    6.7155  -15.0679 H   0  0  0  0  0  0  0  0  0  0  0  0
    5.2156    1.7707  -12.8867 H   0  0  0  0  0  0  0  0  0  0  0  0
    7.1073   -0.2371  -10.4265 H   0  0  0  0  0  0  0  0  0  0  0  0
    8.7386    0.2726  -10.9531 H   0  0  0  0  0  0  0  0  0  0  0  0
    7.9077   -1.0679  -11.8213 H   0  0  0  0  0  0  0  0  0  0  0  0
    9.5512    0.2059  -13.0898 H   0  0  0  0  0  0  0  0  0  0  0  0
   11.4149    2.9368  -15.9301 H   0  0  0  0  0  0  0  0  0  0  0  0
   11.0580    1.7783  -17.2314 H   0  0  0  0  0  0  0  0  0  0  0  0
   13.4392    1.7553  -15.2904 H   0  0  0  0  0  0  0  0  0  0  0  0
   13.5040    2.0908  -17.0360 H   0  0  0  0  0  0  0  0  0  0  0  0
   12.9118   -0.5367  -14.5484 H   0  0  0  0  0  0  0  0  0  0  0  0
   12.6039   -1.7798  -15.7837 H   0  0  0  0  0  0  0  0  0  0  0  0
   10.5120   -0.9389  -14.6885 H   0  0  0  0  0  0  0  0  0  0  0  0
   10.4879   -0.6555  -16.4371 H   0  0  0  0  0  0  0  0  0  0  0  0
   13.7114    0.2724  -18.5336 H   0  0  0  0  0  0  0  0  0  0  0  0
   12.0155   -0.2166  -18.2867 H   0  0  0  0  0  0  0  0  0  0  0  0
   13.3347   -1.3793  -17.9983 H   0  0  0  0  0  0  0  0  0  0  0  0
    9.1760    2.8980  -16.4343 H   0  0  0  0  0  0  0  0  0  0  0  0
    6.9471    3.5724  -15.6268 H   0  0  0  0  0  0  0  0  0  0  0  0
    4.7081    6.4257  -15.2471 H   0  0  0  0  0  0  0  0  0  0  0  0
   -0.3577    7.7963  -12.1864 H   0  0  0  0  0  0  0  0  0  0  0  0
    0.0493    8.3214  -13.8361 H   0  0  0  0  0  0  0  0  0  0  0  0
    0.3746   10.6743  -13.5300 H   0  0  0  0  0  0  0  0  0  0  0  0
    1.6805   12.5493  -12.5610 H   0  0  0  0  0  0  0  0  0  0  0  0
    3.3702   12.1036  -10.7830 H   0  0  0  0  0  0  0  0  0  0  0  0
    3.7348    9.7637   -9.9900 H   0  0  0  0  0  0  0  0  0  0  0  0
    2.4431    7.8992  -10.9507 H   0  0  0  0  0  0  0  0  0  0  0  0
    2.0126    0.9754   -9.7683 H   0  0  0  0  0  0  0  0  0  0  0  0
    4.6031   -0.6403  -10.1654 H   0  0  0  0  0  0  0  0  0  0  0  0
    3.6251   -0.4986   -8.6064 H   0  0  0  0  0  0  0  0  0  0  0  0
    4.6062    2.4599  -10.5018 H   0  0  0  0  0  0  0  0  0  0  0  0
    6.3742    2.4631  -10.5294 H   0  0  0  0  0  0  0  0  0  0  0  0
    6.6342    5.1164  -10.7015 H   0  0  0  0  0  0  0  0  0  0  0  0
    6.0383    6.5804  -12.4485 H   0  0  0  0  0  0  0  0  0  0  0  0
    5.9825    7.7179  -11.0746 H   0  0  0  0  0  0  0  0  0  0  0  0
    4.5765    7.5838  -12.1675 H   0  0  0  0  0  0  0  0  0  0  0  0
    5.7642    3.0471   -7.0823 H   0  0  0  0  0  0  0  0  0  0  0  0
    8.1175    4.7202   -6.3203 H   0  0  0  0  0  0  0  0  0  0  0  0
    8.0990    2.9421   -6.1811 H   0  0  0  0  0  0  0  0  0  0  0  0
    7.0550    3.9294   -5.1146 H   0  0  0  0  0  0  0  0  0  0  0  0
  1  2  2  0  0  0  0
  2 40  1  0  0  0  0
  3  4  1  0  0  0  0
  3  2  1  0  0  0  0
  4  5  1  0  0  0  0
  4 55  1  0  0  0  0
  5 57  1  0  0  0  0
  5 58  1  0  0  0  0
  6  7  1  0  0  0  0
  6  5  1  0  0  0  0
  7 39  2  0  0  0  0
  8 32  1  0  0  0  0
  8  7  1  0  0  0  0
  9 10  1  0  0  0  0
  9  8  1  0  0  0  0
 10 11  2  0  0  0  0
 11 12  1  0  0  0  0
 11  6  1  0  0  0  0
 13 14  1  0  0  0  0
 13 12  2  0  0  0  0
 14 61  1  0  0  0  0
 15 14  1  0  0  0  0
 15 16  1  0  0  0  0
 16 17  1  0  0  0  0
 17 18  1  0  0  0  0
 18 63  1  0  0  0  0
 18 62  1  0  0  0  0
 19 16  2  0  0  0  0
 19 65  1  0  0  0  0
 20 19  1  0  0  0  0
 21 20  1  0  0  0  0
 22 66  1  0  0  0  0
 22 21  1  0  0  0  0
 23 22  1  0  0  0  0
 23 68  1  0  0  0  0
 24 23  1  0  0  0  0
 24 25  1  0  0  0  0
 25 26  1  0  0  0  0
 25 70  1  0  0  0  0
 26 21  1  0  0  0  0
 26 72  1  0  0  0  0
 27 24  1  0  0  0  0
 28 29  1  0  0  0  0
 28 20  2  0  0  0  0
 29 15  2  0  0  0  0
 30 13  1  0  0  0  0
 31 30  2  0  0  0  0
 31 10  1  0  0  0  0
 32 33  1  0  0  0  0
 32 80  1  0  0  0  0
 33 38  1  0  0  0  0
 34 33  2  0  0  0  0
 34 35  1  0  0  0  0
 35 36  2  0  0  0  0
 36 84  1  0  0  0  0
 36 37  1  0  0  0  0
 37 85  1  0  0  0  0
 38 86  1  0  0  0  0
 38 37  2  0  0  0  0
 40 87  1  0  0  0  0
 40 41  1  0  0  0  0
 41 89  1  0  0  0  0
 43 44  1  0  0  0  0
 43 42  1  0  0  0  0
 44 45  1  1  0  0  0
 44 50  1  0  0  0  0
 46 44  1  0  0  0  0
 47 46  1  0  0  0  0
 47 49  2  0  0  0  0
 48 94  1  0  0  0  0
 48 47  1  0  0  0  0
 50 51  1  0  0  0  0
 51 96  1  0  0  0  0
 51 52  1  0  0  0  0
 52 99  1  0  0  0  0
 53 50  2  0  0  0  0
 54  3  1  0  0  0  0
 56  4  1  0  0  0  0
 59  9  1  0  0  0  0
 60  9  1  0  0  0  0
 64 18  1  0  0  0  0
 67 22  1  0  0  0  0
 69 23  1  0  0  0  0
 71 25  1  0  0  0  0
 73 26  1  0  0  0  0
 74 27  1  0  0  0  0
 75 27  1  0  0  0  0
 76 27  1  0  0  0  0
 77 28  1  0  0  0  0
 78 29  1  0  0  0  0
 79 31  1  0  0  0  0
 81 32  1  0  0  0  0
 82 34  1  0  0  0  0
 83 35  1  0  0  0  0
 88 41  1  0  0  0  0
 90 43  1  0  0  0  0
 91 43  1  0  0  0  0
 92 46  1  0  0  0  0
 93 48  1  0  0  0  0
 95 48  1  0  0  0  0
 97 52  1  0  0  0  0
 98 52  1  0  0  0  0
M  END
