99
-1 1
O        -3.537369   -3.297443   -1.447403
C        -3.524817   -2.863200   -0.305992
N        -4.500568   -2.002273    0.116417
C        -4.611618   -1.295085    1.374973
C        -3.656901   -0.115399    1.541264
N        -3.675518    0.792423    0.394040
C        -4.486621    1.923026    0.500145
N        -4.339523    2.894980   -0.461041
C        -3.564217    2.766903   -1.677230
C        -2.555729    1.671423   -1.565824
C        -2.673155    0.699989   -0.552076
N        -1.823993   -0.300145   -0.462644
C        -0.799723   -0.348519   -1.326221
N         0.046551   -1.390249   -1.106802
C         1.334370   -1.634648   -1.577578
C         2.095034   -2.558061   -0.811928
O         1.449621   -3.066694    0.255289
C         2.157016   -3.639859    1.326668
C         3.402005   -2.860593   -1.159493
C         3.999236   -2.279362   -2.296224
N         5.338012   -2.617388   -2.608416
C         6.038861   -1.770381   -3.550792
C         7.540565   -2.063720   -3.498585
N         7.870279   -3.461940   -3.714400
C         7.114717   -4.293081   -2.792490
C         5.609345   -4.030447   -2.832561
C         7.811007   -3.888267   -5.094102
C         3.247634   -1.377924   -3.048757
C         1.932611   -1.053154   -2.688340
N        -0.576172    0.530930   -2.307436
C        -1.471228    1.516462   -2.406028
C        -5.057914    4.135642   -0.296242
C        -4.145074    5.310771    0.001283
C        -4.475717    6.595030   -0.440314
C        -3.662086    7.686052   -0.135395
C        -2.499233    7.500311    0.610732
C        -2.159534    6.219263    1.046564
C        -2.974418    5.128383    0.747022
O        -5.279262    2.036221    1.416209
C        -2.485631   -3.254740    0.694090
C        -1.591908   -4.198597    0.396714
S        -0.565990   -2.106055    3.592111
C         0.088058   -0.884864    2.400115
C         0.377498    0.528081    2.955392
H        -0.510480    0.870769    3.510399
N         0.654877    1.467016    1.888827
C        -0.252969    2.271218    1.306205
C         0.311166    3.162428    0.213473
O        -1.446550    2.270406    1.589352
C         1.608887    0.549358    3.873658
N         1.508860   -0.235486    4.961763
C         2.628202   -0.461713    5.835864
O         2.596040    1.225769    3.595898
H        -5.117699   -1.720069   -0.634882
H        -4.455799   -1.984286    2.219051
H        -5.647242   -0.930689    1.449733
H        -2.628953   -0.462547    1.678463
H        -3.938084    0.459853    2.429431
H        -3.056068    3.728271   -1.868386
H        -4.247074    2.595294   -2.535818
H        -0.226186   -1.964272   -0.311737
H         1.447310   -3.691283    2.167145
H         3.009325   -3.003208    1.619639
H         2.527986   -4.647804    1.069234
H         3.985535   -3.531821   -0.528914
H         5.866657   -0.717409   -3.282488
H         5.664256   -1.905120   -4.591113
H         7.911328   -1.772204   -2.500752
H         8.069468   -1.446254   -4.242054
H         7.472490   -4.085938   -1.768901
H         7.318738   -5.354174   -3.007463
H         5.115321   -4.631297   -2.057566
H         5.186785   -4.362554   -3.807500
H         8.480856   -3.260295   -5.702674
H         6.804183   -3.847561   -5.561500
H         8.167865   -4.927336   -5.174381
H         3.667922   -0.909796   -3.938973
H         1.358744   -0.332632   -3.267383
H        -1.299135    2.245513   -3.208022
H        -5.761648    3.989556    0.534854
H        -5.652878    4.346669   -1.203410
H        -5.383090    6.744338   -1.033687
H        -3.934634    8.683652   -0.488827
H        -1.856519    8.351430    0.848198
H        -1.248811    6.059686    1.628943
H        -2.681031    4.126996    1.082247
H        -2.415665   -2.761676    1.670502
H        -1.611747   -4.692741   -0.578955
H        -0.822501   -4.466055    1.123700
H        -0.635262   -0.740364    1.585166
H         1.014841   -1.245303    1.922619
H         1.645787    1.651167    1.758476
H         0.495210    2.552864   -0.684489
H         1.265782    3.619216    0.514228
H        -0.414059    3.947281   -0.032919
H         0.745605   -0.939474    4.919689
H         3.345872    0.360288    5.714456
H         3.146115   -1.409195    5.604892
H         2.296794   -0.500305    6.885093
