99
-1 1
O         4.021870    0.445774  -12.371436
C         3.018761    0.780853  -11.714491
N         1.947668    1.334814  -12.416524
C         0.999477    2.242153  -11.815479
C         1.558801    3.567545  -11.283412
N         1.749624    4.608142  -12.299902
C         0.929273    5.737331  -12.207562
N         1.239571    6.807436  -13.014953
C         2.199675    6.794206  -14.097276
C         3.183931    5.685231  -13.929310
C         2.909778    4.615064  -13.055519
N         3.742373    3.606938  -12.917143
C         4.884723    3.612071  -13.627328
N         5.661084    2.517432  -13.452047
C         6.935284    2.244437  -13.956910
C         7.699753    1.285803  -13.237112
O         7.116246    0.825340  -12.122363
C         7.760284   -0.105549  -11.299290
C         8.963018    0.911656  -13.675705
C         9.523223    1.475400  -14.838773
N        10.818633    1.064012  -15.237202
C        11.506372    1.878498  -16.216596
C        12.988278    1.497179  -16.264283
N        13.220749    0.084459  -16.511072
C        12.477303   -0.710994  -15.548184
C        10.990910   -0.359735  -15.488955
C        13.046442   -0.321936  -17.886988
C         8.784512    2.434336  -15.528746
C         7.509625    2.814382  -15.086983
N         5.262874    4.604351  -14.449081
C         4.401542    5.610058  -14.578800
C         0.478157    8.024687  -12.861617
C         1.302031    9.165750  -12.296632
C         1.108527   10.475889  -12.742875
C         1.842504   11.530637  -12.199699
C         2.788333   11.281415  -11.206565
C         2.991730    9.974176  -10.762902
C         2.254042    8.920559  -11.299664
O        -0.010983    5.774204  -11.436643
C         2.884194    0.589093  -10.298411
C         3.874008   -0.075648   -9.581341
S         5.473809    1.281763   -8.617226
C         5.504067    2.589150   -9.869422
C         5.486324    4.044673   -9.355661
H         4.511829    4.253990   -8.889759
N         5.660614    4.972580  -10.453461
C         4.795260    5.960854  -10.773011
C         5.383865    7.022670  -11.684195
O         3.646299    6.022914  -10.355430
C         6.604311    4.357088   -8.342927
N         6.418968    3.834456   -7.108189
C         7.475084    3.851395   -6.128567
O         7.566930    5.045218   -8.652364
H         2.270242    1.609280  -13.337250
H         0.498220    1.730348  -10.979766
H         0.207283    2.459944  -12.550565
H         2.519435    3.398604  -10.779750
H         0.857678    3.991333  -10.558326
H         2.723540    7.766869  -14.108967
H         1.665154    6.715508  -15.067933
H         5.215639    1.770704  -12.886701
H         7.107319   -0.237051  -10.426491
H         8.738550    0.272616  -10.953139
H         7.907719   -1.067922  -11.821251
H         9.551242    0.205866  -13.089762
H        11.414894    2.936766  -15.930108
H        11.057954    1.778319  -17.231402
H        13.439160    1.755253  -15.290437
H        13.504022    2.090770  -17.036037
H        12.911840   -0.536661  -14.548441
H        12.603879   -1.779798  -15.783725
H        10.511971   -0.938917  -14.688540
H        10.487907   -0.655523  -16.437144
H        13.711403    0.272402  -18.533621
H        12.015470   -0.216647  -18.286722
H        13.334731   -1.379309  -17.998306
H         9.176022    2.898041  -16.434280
H         6.947111    3.572368  -15.626825
H         4.708105    6.425715  -15.247148
H        -0.357706    7.796335  -12.186448
H         0.049296    8.321354  -13.836096
H         0.374565   10.674341  -13.529999
H         1.680501   12.549281  -12.561022
H         3.370244   12.103578  -10.783016
H         3.734812    9.763658   -9.990043
H         2.443111    7.899163  -10.950734
H         2.012649    0.975448   -9.768287
H         4.603063   -0.640317  -10.165443
H         3.625105   -0.498583   -8.606367
H         4.606213    2.459941  -10.501773
H         6.374182    2.463116  -10.529433
H         6.634196    5.116434  -10.701481
H         6.038297    6.580395  -12.448529
H         5.982493    7.717912  -11.074614
H         4.576488    7.583826  -12.167501
H         5.764221    3.047087   -7.082345
H         8.117515    4.720222   -6.320320
H         8.098976    2.942122   -6.181095
H         7.055050    3.929381   -5.114575
