-1 1
 OpenBabel05192410563D

 99103  0  0  1  0  0  0  0  0999 V2000
   -1.2987   -3.2419   -0.0928 O   0  0  0  0  0  0  0  0  0  0  0  0
   -2.3028   -2.9687    0.6281 C   0  0  0  0  0  0  0  0  0  0  0  0
   -3.4338   -2.4765   -0.0609 N   0  0  0  0  0  0  0  0  0  0  0  0
   -4.3713   -1.5831    0.5731 C   0  0  0  0  0  0  0  0  0  0  0  0
   -3.8232   -0.2522    1.1085 C   0  0  0  0  0  0  0  0  0  0  0  0
   -3.6510    0.8010    0.0987 N   0  0  0  0  0  0  0  0  0  0  0  0
   -4.4710    1.9280    0.2089 C   0  0  0  0  0  0  0  0  0  0  0  0
   -4.1855    2.9933   -0.6168 N   0  0  0  0  0  0  0  0  0  0  0  0
   -3.2840    2.9479   -1.7480 C   0  0  0  0  0  0  0  0  0  0  0  0
   -2.2568    1.8825   -1.5635 C   0  0  0  0  0  0  0  0  0  0  0  0
   -2.4998    0.8190   -0.6712 C   0  0  0  0  0  0  0  0  0  0  0  0
   -1.6439   -0.1657   -0.5247 N   0  0  0  0  0  0  0  0  0  0  0  0
   -0.5112   -0.1539   -1.2521 C   0  0  0  0  0  0  0  0  0  0  0  0
    0.2703   -1.2442   -1.0803 N   0  0  0  0  0  0  0  0  0  0  0  0
    1.5344   -1.5096   -1.6082 C   0  0  0  0  0  0  0  0  0  0  0  0
    2.3220   -2.4663   -0.9097 C   0  0  0  0  0  0  0  0  0  0  0  0
    1.7786   -2.9292    0.2275 O   0  0  0  0  0  0  0  0  0  0  0  0
    2.4194   -3.9212    0.9732 C   0  0  0  0  0  0  0  0  0  0  0  0
    3.5739   -2.8382   -1.3824 C   0  0  0  0  0  0  0  0  0  0  0  0
    4.1044   -2.2722   -2.5578 C   0  0  0  0  0  0  0  0  0  0  0  0
    5.3890   -2.6860   -2.9910 N   0  0  0  0  0  0  0  0  0  0  0  0
    6.0568   -1.8625   -3.9767 C   0  0  0  0  0  0  0  0  0  0  0  0
    7.5338   -2.2542   -4.0685 C   0  0  0  0  0  0  0  0  0  0  0  0
    7.7482   -3.6648   -4.3430 N   0  0  0  0  0  0  0  0  0  0  0  0
    7.0222   -4.4698   -3.3747 C   0  0  0  0  0  0  0  0  0  0  0  0
    5.5410   -4.1067   -3.2717 C   0  0  0  0  0  0  0  0  0  0  0  0
    7.5363   -4.0479   -5.7204 C   0  0  0  0  0  0  0  0  0  0  0  0
    3.3490   -1.3103   -3.2240 C   0  0  0  0  0  0  0  0  0  0  0  0
    2.0850   -0.9346   -2.7492 C   0  0  0  0  0  0  0  0  0  0  0  0
   -0.1532    0.8460   -2.0759 N   0  0  0  0  0  0  0  0  0  0  0  0
   -1.0372    1.8325   -2.2106 C   0  0  0  0  0  0  0  0  0  0  0  0
   -4.9529    4.2059   -0.4645 C   0  0  0  0  0  0  0  0  0  0  0  0
   -4.1080    5.3818   -0.0140 C   0  0  0  0  0  0  0  0  0  0  0  0
   -4.3591    6.6689   -0.4966 C   0  0  0  0  0  0  0  0  0  0  0  0
   -3.6029    7.7562   -0.0581 C   0  0  0  0  0  0  0  0  0  0  0  0
   -2.5767    7.5630    0.8653 C   0  0  0  0  0  0  0  0  0  0  0  0
   -2.3160    6.2786    1.3447 C   0  0  0  0  0  0  0  0  0  0  0  0
   -3.0753    5.1927    0.9125 C   0  0  0  0  0  0  0  0  0  0  0  0
   -5.3872    1.9716    1.0082 O   0  0  0  0  0  0  0  0  0  0  0  0
   -2.3605   -3.1451    2.0151 C   0  0  0  0  0  3  0  0  0  0  0  0
   -1.2194   -3.7218    2.7119 C   0  0  0  0  0  0  0  0  0  0  0  0
   -0.0469   -2.4909    3.6358 S   0  0  0  0  0  0  0  0  0  0  0  0
    0.1317   -1.1831    2.3919 C   0  0  0  0  0  0  0  0  0  0  0  0
    0.0083    0.2564    2.9214 C   0  0  2  0  0  0  0  0  0  0  0  0
   -1.0232    0.4359    3.2585 H   0  0  0  0  0  0  0  0  0  0  0  0
    0.2849    1.1956    1.8595 N   0  0  0  0  0  0  0  0  0  0  0  0
   -0.5281    2.2249    1.5225 C   0  0  0  0  0  0  0  0  0  0  0  0
    0.1141    3.2453    0.6026 C   0  0  0  0  0  0  0  0  0  0  0  0
   -1.6734    2.3423    1.9342 O   0  0  0  0  0  0  0  0  0  0  0  0
    0.9838    0.5602    4.0713 C   0  0  0  0  0  0  0  0  0  0  0  0
    0.5978    0.0931    5.2849 N   0  0  0  0  0  0  0  0  0  0  0  0
    1.4876    0.0995    6.4178 C   0  0  0  0  0  0  0  0  0  0  0  0
    2.0178    1.1805    3.8827 O   0  0  0  0  0  0  0  0  0  0  0  0
   -3.1232   -2.1662   -0.9744 H   0  0  0  0  0  0  0  0  0  0  0  0
   -4.8397   -2.1070    1.4220 H   0  0  0  0  0  0  0  0  0  0  0  0
   -5.1908   -1.3684   -0.1340 H   0  0  0  0  0  0  0  0  0  0  0  0
   -2.8564   -0.4237    1.5983 H   0  0  0  0  0  0  0  0  0  0  0  0
   -4.5207    0.1601    1.8439 H   0  0  0  0  0  0  0  0  0  0  0  0
   -2.7961    3.9338   -1.8433 H   0  0  0  0  0  0  0  0  0  0  0  0
   -3.8640    2.7928   -2.6832 H   0  0  0  0  0  0  0  0  0  0  0  0
   -0.2152   -2.0266   -0.5646 H   0  0  0  0  0  0  0  0  0  0  0  0
    1.7804   -4.1073    1.8457 H   0  0  0  0  0  0  0  0  0  0  0  0
    3.4124   -3.5887    1.3260 H   0  0  0  0  0  0  0  0  0  0  0  0
    2.5374   -4.8517    0.3900 H   0  0  0  0  0  0  0  0  0  0  0  0
    4.1804   -3.5438   -0.8150 H   0  0  0  0  0  0  0  0  0  0  0  0
    5.9798   -0.8077   -3.6737 H   0  0  0  0  0  0  0  0  0  0  0  0
    5.5818   -1.9456   -4.9809 H   0  0  0  0  0  0  0  0  0  0  0  0
    8.0116   -2.0150   -3.1026 H   0  0  0  0  0  0  0  0  0  0  0  0
    8.0347   -1.6529   -4.8440 H   0  0  0  0  0  0  0  0  0  0  0  0
    7.4834   -4.3158   -2.3836 H   0  0  0  0  0  0  0  0  0  0  0  0
    7.1333   -5.5356   -3.6310 H   0  0  0  0  0  0  0  0  0  0  0  0
    5.0766   -4.6951   -2.4693 H   0  0  0  0  0  0  0  0  0  0  0  0
    5.0113   -4.3815   -4.2117 H   0  0  0  0  0  0  0  0  0  0  0  0
    8.1894   -3.4481   -6.3741 H   0  0  0  0  0  0  0  0  0  0  0  0
    6.4965   -3.9288   -6.0922 H   0  0  0  0  0  0  0  0  0  0  0  0
    7.8136   -5.1054   -5.8557 H   0  0  0  0  0  0  0  0  0  0  0  0
    3.7169   -0.8430   -4.1377 H   0  0  0  0  0  0  0  0  0  0  0  0
    1.5074   -0.1772   -3.2737 H   0  0  0  0  0  0  0  0  0  0  0  0
   -0.7493    2.6512   -2.8837 H   0  0  0  0  0  0  0  0  0  0  0  0
   -5.7340    3.9972    0.2794 H   0  0  0  0  0  0  0  0  0  0  0  0
   -5.4584    4.4544   -1.4160 H   0  0  0  0  0  0  0  0  0  0  0  0
   -5.1565    6.8233   -1.2301 H   0  0  0  0  0  0  0  0  0  0  0  0
   -3.8111    8.7562   -0.4468 H   0  0  0  0  0  0  0  0  0  0  0  0
   -1.9775    8.4107    1.2065 H   0  0  0  0  0  0  0  0  0  0  0  0
   -1.5108    6.1124    2.0644 H   0  0  0  0  0  0  0  0  0  0  0  0
   -2.8451    4.1889    1.2868 H   0  0  0  0  0  0  0  0  0  0  0  0
   -3.2479   -2.8756    2.5900 H   0  0  0  0  0  0  0  0  0  0  0  0
   -0.5602   -4.2459    2.0080 H   0  0  0  0  0  0  0  0  0  0  0  0
   -1.4748   -4.3847    3.5532 H   0  0  0  0  0  0  0  0  0  0  0  0
   -0.6801   -1.3430    1.6640 H   0  0  0  0  0  0  0  0  0  0  0  0
    1.0851   -1.2989    1.8588 H   0  0  0  0  0  0  0  0  0  0  0  0
    1.2640    1.2681    1.6075 H   0  0  0  0  0  0  0  0  0  0  0  0
    0.7383    2.7610   -0.1616 H   0  0  0  0  0  0  0  0  0  0  0  0
    0.7511    3.9138    1.2032 H   0  0  0  0  0  0  0  0  0  0  0  0
   -0.6664    3.8418    0.1169 H   0  0  0  0  0  0  0  0  0  0  0  0
   -0.1537   -0.5932    5.2731 H   0  0  0  0  0  0  0  0  0  0  0  0
    2.2617    0.8567    6.2408 H   0  0  0  0  0  0  0  0  0  0  0  0
    1.9812   -0.8775    6.5565 H   0  0  0  0  0  0  0  0  0  0  0  0
    0.9412    0.3517    7.3392 H   0  0  0  0  0  0  0  0  0  0  0  0
  1  2  2  0  0  0  0
  2 40  1  0  0  0  0
  3  4  1  0  0  0  0
  3  2  1  0  0  0  0
  4  5  1  0  0  0  0
  4 55  1  0  0  0  0
  5 57  1  0  0  0  0
  5 58  1  0  0  0  0
  6  7  1  0  0  0  0
  6  5  1  0  0  0  0
  7 39  2  0  0  0  0
  8 32  1  0  0  0  0
  8  7  1  0  0  0  0
  9 10  1  0  0  0  0
  9  8  1  0  0  0  0
 10 11  2  0  0  0  0
 11 12  1  0  0  0  0
 11  6  1  0  0  0  0
 13 14  1  0  0  0  0
 13 12  2  0  0  0  0
 14 61  1  0  0  0  0
 15 14  1  0  0  0  0
 15 16  1  0  0  0  0
 16 17  1  0  0  0  0
 17 18  1  0  0  0  0
 18 63  1  0  0  0  0
 18 62  1  0  0  0  0
 19 16  2  0  0  0  0
 19 65  1  0  0  0  0
 20 19  1  0  0  0  0
 21 20  1  0  0  0  0
 22 66  1  0  0  0  0
 22 21  1  0  0  0  0
 23 22  1  0  0  0  0
 23 68  1  0  0  0  0
 24 23  1  0  0  0  0
 24 25  1  0  0  0  0
 25 26  1  0  0  0  0
 25 70  1  0  0  0  0
 26 21  1  0  0  0  0
 26 72  1  0  0  0  0
 27 24  1  0  0  0  0
 28 29  1  0  0  0  0
 28 20  2  0  0  0  0
 29 15  2  0  0  0  0
 30 13  1  0  0  0  0
 31 30  2  0  0  0  0
 31 10  1  0  0  0  0
 32 33  1  0  0  0  0
 32 80  1  0  0  0  0
 33 38  1  0  0  0  0
 34 35  1  0  0  0  0
 34 33  2  0  0  0  0
 35 36  2  0  0  0  0
 36 84  1  0  0  0  0
 36 37  1  0  0  0  0
 37 85  1  0  0  0  0
 38 86  1  0  0  0  0
 38 37  2  0  0  0  0
 40 87  1  0  0  0  0
 40 41  1  0  0  0  0
 41 89  1  0  0  0  0
 41 42  1  0  0  0  0
 43 44  1  0  0  0  0
 43 42  1  0  0  0  0
 44 45  1  1  0  0  0
 44 50  1  0  0  0  0
 46 44  1  0  0  0  0
 47 46  1  0  0  0  0
 47 49  2  0  0  0  0
 48 94  1  0  0  0  0
 48 47  1  0  0  0  0
 50 51  1  0  0  0  0
 51 52  1  0  0  0  0
 52 98  1  0  0  0  0
 52 99  1  0  0  0  0
 53 50  2  0  0  0  0
 54  3  1  0  0  0  0
 56  4  1  0  0  0  0
 59  9  1  0  0  0  0
 60  9  1  0  0  0  0
 64 18  1  0  0  0  0
 67 22  1  0  0  0  0
 69 23  1  0  0  0  0
 71 25  1  0  0  0  0
 73 26  1  0  0  0  0
 74 27  1  0  0  0  0
 75 27  1  0  0  0  0
 76 27  1  0  0  0  0
 77 28  1  0  0  0  0
 78 29  1  0  0  0  0
 79 31  1  0  0  0  0
 81 32  1  0  0  0  0
 82 34  1  0  0  0  0
 83 35  1  0  0  0  0
 88 41  1  0  0  0  0
 90 43  1  0  0  0  0
 91 43  1  0  0  0  0
 92 46  1  0  0  0  0
 93 48  1  0  0  0  0
 95 48  1  0  0  0  0
 96 51  1  0  0  0  0
 97 52  1  0  0  0  0
M  END
