99
-1 1
O        -1.298679   -3.241912   -0.092764
C        -2.302847   -2.968667    0.628138
N        -3.433785   -2.476474   -0.060863
C        -4.371337   -1.583120    0.573084
C        -3.823222   -0.252210    1.108485
N        -3.650960    0.801034    0.098681
C        -4.470994    1.927985    0.208871
N        -4.185478    2.993339   -0.616790
C        -3.284036    2.947929   -1.747994
C        -2.256830    1.882492   -1.563495
C        -2.499754    0.819047   -0.671179
N        -1.643910   -0.165655   -0.524699
C        -0.511237   -0.153927   -1.252087
N         0.270312   -1.244154   -1.080339
C         1.534384   -1.509627   -1.608159
C         2.322020   -2.466278   -0.909718
O         1.778555   -2.929211    0.227480
C         2.419366   -3.921182    0.973236
C         3.573902   -2.838213   -1.382396
C         4.104417   -2.272176   -2.557824
N         5.388989   -2.685977   -2.990950
C         6.056750   -1.862532   -3.976720
C         7.533836   -2.254246   -4.068459
N         7.748249   -3.664827   -4.342999
C         7.022163   -4.469842   -3.374702
C         5.541015   -4.106680   -3.271711
C         7.536316   -4.047863   -5.720413
C         3.348952   -1.310297   -3.224034
C         2.085016   -0.934569   -2.749170
N        -0.153209    0.846044   -2.075928
C        -1.037170    1.832502   -2.210615
C        -4.952870    4.205931   -0.464460
C        -4.107991    5.381763   -0.013952
C        -4.359150    6.668947   -0.496645
C        -3.602882    7.756240   -0.058057
C        -2.576726    7.563050    0.865265
C        -2.316024    6.278637    1.344655
C        -3.075278    5.192732    0.912515
O        -5.387203    1.971564    1.008188
C        -2.360456   -3.145051    2.015079
C        -1.219444   -3.721848    2.711918
S        -0.046885   -2.490892    3.635825
C         0.131728   -1.183078    2.391936
C         0.008278    0.256390    2.921406
H        -1.023235    0.435949    3.258546
N         0.284946    1.195625    1.859543
C        -0.528067    2.224874    1.522473
C         0.114116    3.245321    0.602645
O        -1.673433    2.342288    1.934197
C         0.983776    0.560188    4.071301
N         0.597809    0.093106    5.284892
C         1.487629    0.099509    6.417840
O         2.017818    1.180503    3.882660
H        -3.123194   -2.166156   -0.974381
H        -4.839723   -2.106998    1.421981
H        -5.190751   -1.368386   -0.134046
H        -2.856353   -0.423705    1.598288
H        -4.520671    0.160100    1.843926
H        -2.796144    3.933766   -1.843317
H        -3.864024    2.792808   -2.683192
H        -0.215220   -2.026556   -0.564607
H         1.780386   -4.107277    1.845668
H         3.412445   -3.588666    1.326028
H         2.537365   -4.851724    0.390016
H         4.180432   -3.543764   -0.814963
H         5.979768   -0.807655   -3.673677
H         5.581817   -1.945623   -4.980934
H         8.011626   -2.015040   -3.102602
H         8.034655   -1.652881   -4.844036
H         7.483418   -4.315833   -2.383569
H         7.133302   -5.535591   -3.631025
H         5.076599   -4.695066   -2.469272
H         5.011328   -4.381483   -4.211664
H         8.189359   -3.448075   -6.374123
H         6.496501   -3.928781   -6.092231
H         7.813623   -5.105387   -5.855702
H         3.716922   -0.842974   -4.137715
H         1.507389   -0.177191   -3.273675
H        -0.749276    2.651232   -2.883733
H        -5.733995    3.997189    0.279376
H        -5.458373    4.454429   -1.416028
H        -5.156515    6.823262   -1.230145
H        -3.811135    8.756224   -0.446824
H        -1.977526    8.410746    1.206485
H        -1.510812    6.112390    2.064402
H        -2.845133    4.188904    1.286840
H        -3.247937   -2.875553    2.590030
H        -0.560211   -4.245939    2.007986
H        -1.474783   -4.384734    3.553168
H        -0.680109   -1.343011    1.663995
H         1.085114   -1.298920    1.858843
H         1.263965    1.268098    1.607497
H         0.738259    2.760981   -0.161562
H         0.751077    3.913847    1.203165
H        -0.666368    3.841791    0.116905
H        -0.153693   -0.593249    5.273136
H         2.261722    0.856710    6.240820
H         1.981240   -0.877526    6.556484
H         0.941228    0.351650    7.339249
