103
-1 1
O         0.509444    2.699601   -1.385108
C         1.749482    2.801398   -1.328385
N         2.465386    1.895612   -0.412887
C         3.089850    0.758543   -1.081274
C         1.970898   -0.288062   -1.254498
C         1.001597    0.037365   -0.098561
H         0.038980    0.335184   -0.516684
C         1.609546    1.290062    0.583143
N         0.706603   -1.068301    0.833715
C         1.763836   -1.691386    1.502778
N         1.433304   -2.659336    2.430450
C         0.113685   -2.718997    3.025617
C        -0.914396   -2.445809    1.978898
C        -0.583050   -1.562056    0.927378
N        -1.479629   -1.205677    0.027651
C        -2.716097   -1.713451    0.137861
N        -3.581087   -1.254190   -0.812773
C        -4.931041   -1.513154   -1.036973
C        -5.525730   -0.789129   -2.103672
O        -4.683513    0.044259   -2.758424
C        -5.166192    0.850582   -3.795268
C        -6.861665   -0.966617   -2.427232
C        -7.672520   -1.855659   -1.692096
N        -9.028612   -2.005158   -2.063299
C        -9.837550   -0.792960   -2.056132
C       -11.148453   -1.025936   -2.807501
N       -11.903724   -2.162585   -2.310758
C       -11.058040   -3.342595   -2.287635
C        -9.745233   -3.143904   -1.525413
C       -12.628156   -1.914958   -1.084503
C        -7.085933   -2.565185   -0.645859
C        -5.731072   -2.402714   -0.328834
N        -3.120873   -2.591001    1.057820
C        -2.203330   -2.936076    1.964359
C         2.517160   -3.265930    3.182896
C         2.788077   -2.572784    4.503504
C         2.473149   -3.185620    5.718527
C         2.693112   -2.526690    6.929222
C         3.228675   -1.240912    6.933181
C         3.545608   -0.619504    5.723526
C         3.329407   -1.279578    4.516988
O         2.922940   -1.415513    1.255724
C         2.559276    3.700909   -2.032835
C         3.965288    3.960469   -1.728358
S         5.198282    3.124446   -2.957521
C         6.809666    3.733438   -2.363616
C         7.242208    3.294430   -0.947424
H         6.420003    3.540072   -0.253552
N         8.439650    3.988508   -0.531168
C         8.465983    5.286744   -0.153171
C         9.806941    5.777152    0.370292
O         7.502497    6.029839   -0.219172
C         7.563476    1.794628   -0.800073
N         6.554628    0.957478   -1.088730
C         6.673913   -0.475740   -0.999048
O         8.669460    1.428934   -0.413102
H         3.877784    0.342489   -0.432189
H         3.535557    1.073375   -2.033605
H         2.343476   -1.321137   -1.220689
H         1.455250   -0.133589   -2.212501
H         2.210360    0.997694    1.460589
H         0.823936    1.991952    0.886712
H         0.030274   -1.998021    3.865239
H        -0.030816   -3.722436    3.458452
H        -3.163922   -0.577310   -1.442755
H        -4.322479    1.462723   -4.135367
H        -5.976227    1.515159   -3.447228
H        -5.537996    0.246125   -4.641264
H        -7.291608   -0.438544   -3.277778
H        -9.285663    0.026104   -2.536156
H       -10.044768   -0.465860   -1.012948
H       -10.908494   -1.208237   -3.869614
H       -11.775571   -0.121631   -2.759556
H       -10.811739   -3.611164   -3.329541
H       -11.619188   -4.184787   -1.852720
H        -9.122692   -4.044065   -1.637537
H        -9.953861   -3.027508   -0.437928
H       -13.313543   -1.064665   -1.226797
H       -11.998260   -1.687580   -0.198388
H       -13.240830   -2.795415   -0.834750
H        -7.674463   -3.256494   -0.042854
H        -5.281044   -2.958102    0.490930
H        -2.526782   -3.645031    2.736693
H         3.411045   -3.231743    2.548570
H         2.259721   -4.322807    3.362463
H         2.048832   -4.194277    5.718489
H         2.441629   -3.019804    7.871318
H         3.400021   -0.720500    7.878367
H         3.967666    0.387933    5.719162
H         3.578906   -0.800115    3.566981
H         2.053080    4.325227   -2.773581
H         4.233881    3.556507   -0.742092
H         4.259302    5.020051   -1.792213
H         6.781189    4.832815   -2.352784
H         7.572637    3.421224   -3.093780
H         9.216597    3.359639   -0.340723
H         9.682508    6.077969    1.420587
H        10.094797    6.674121   -0.195388
H        10.608719    5.029125    0.301145
H         5.734113    1.363604   -1.547451
H         6.743531   -0.940371   -1.996588
H         5.802724   -0.899765   -0.477274
H         7.586059   -0.715079   -0.438326
