103
-1 1
O         3.505354    9.212304    6.910256
C         4.723876    9.199860    6.678818
N         5.542715    8.257000    7.416928
C         6.275106    7.264683    6.642941
C         5.308515    6.071893    6.475449
C         4.310769    6.258275    7.640524
H         3.337281    6.540172    7.232965
C         4.833567    7.491413    8.415011
N         4.054492    5.070828    8.473809
C         5.126596    4.474848    9.146452
N         4.827877    3.413037    9.976613
C         3.488271    3.205688   10.488528
C         2.497611    3.478078    9.405855
C         2.809246    4.467522    8.446951
N         1.939052    4.820525    7.520335
C         0.746539    4.205844    7.513941
N        -0.099503    4.665614    6.546962
C        -1.406435    4.313668    6.217991
C        -1.999717    5.068282    5.172020
O        -1.197533    6.018292    4.636297
C        -1.688891    6.860848    3.632691
C        -3.293948    4.806662    4.750984
C        -4.064611    3.797640    5.364340
N        -5.378709    3.566750    4.896621
C        -6.289620    4.703429    4.943858
C        -7.529186    4.425145    4.093481
N        -8.209605    3.193341    4.452365
C        -7.266962    2.089130    4.440127
C        -6.022831    2.332548    5.298621
C        -9.022870    3.279710    5.644399
C        -3.479294    3.058195    6.390392
C        -2.164547    3.307058    6.805148
N         0.367951    3.227861    8.338697
C         1.258768    2.886876    9.273025
C         5.918247    2.826794   10.735798
C         6.066577    3.422158   12.121823
C         5.732198    2.688928   13.262719
C         5.836922    3.257157   14.533358
C         6.275232    4.571921   14.672516
C         6.610865    5.313279   13.537790
C         6.509734    4.743747   12.271463
O         6.269169    4.856373    8.980734
C         5.388826   10.078174    5.786251
C         6.799401   10.278299    5.689424
S         7.731761    9.389511    4.049053
C         9.466093    9.403199    4.604868
C         9.843758    8.303486    5.620992
H         9.070805    8.297590    6.409857
N        11.137919    8.545082    6.216887
C        11.371300    9.508052    7.137791
C        12.762006    9.484350    7.753142
O        10.545581   10.339522    7.471228
C         9.920506    6.883220    5.030167
N         8.805058    6.457816    4.413531
C         8.684150    5.150630    3.825340
O        10.936208    6.205683    5.152662
H         7.168781    6.936810    7.201977
H         6.598113    7.688406    5.686726
H         5.828293    5.105171    6.516766
H         4.775596    6.137386    5.515445
H         5.527835    7.188312    9.214727
H         4.007799    8.081803    8.826589
H         3.302314    3.851153   11.371945
H         3.403873    2.163699   10.837883
H         0.291029    5.422889    5.996694
H        -0.884266    7.566104    3.393067
H        -2.572799    7.426216    3.976106
H        -1.956719    6.296039    2.722487
H        -3.719240    5.363011    3.916307
H        -5.784476    5.601761    4.564808
H        -6.584970    4.925865    5.993358
H        -7.212967    4.350440    3.038344
H        -8.234724    5.267615    4.169561
H        -6.938111    1.927593    3.398917
H        -7.776729    1.170900    4.772266
H        -5.318783    1.498897    5.158155
H        -6.303432    2.342175    6.376042
H        -9.771092    4.078714    5.522836
H        -8.467859    3.486312    6.584052
H        -9.569026    2.333974    5.786637
H        -4.038587    2.274514    6.901157
H        -1.715489    2.727691    7.608726
H         0.954405    2.093848    9.967384
H         6.836560    2.983605   10.157061
H         5.737780    1.741914   10.812866
H         5.384136    1.656958   13.156329
H         5.571622    2.670340   15.416083
H         6.356034    5.021513   15.664950
H         6.957016    6.344270   13.639607
H         6.774638    5.317347   11.379622
H         4.721446   10.725401    5.211586
H         7.392993    9.855893    6.510599
H         7.121191   11.302145    5.464418
H         9.652158   10.366377    5.102745
H        10.132724    9.343411    3.730046
H        11.795591    7.783976    6.064693
H        12.673613    9.173444    8.804633
H        13.165089   10.506000    7.744466
H        13.459108    8.809121    7.237795
H         8.070844    7.159790    4.262620
H         8.693800    5.195038    2.723418
H         7.746467    4.671306    4.145510
H         9.532832    4.539053    4.156916
