-1 1
 OpenBabel05232413483D

103107  0  0  1  0  0  0  0  0999 V2000
    4.6721    3.6512    3.5483 O   0  0  0  0  0  0  0  0  0  0  0  0
    4.7144    3.1552    2.4266 C   0  0  0  0  0  0  0  0  0  0  0  0
    3.5943    2.7709    1.7681 N   0  0  0  0  0  0  0  0  0  0  0  0
    3.5364    1.8959    0.5935 C   0  0  0  0  0  0  0  0  0  0  0  0
    2.0573    1.5351    0.4686 C   0  0  0  0  0  0  0  0  0  0  0  0
    1.4455    1.7449    1.8538 C   0  0  2  0  0  0  0  0  0  0  0  0
    0.4253    2.1229    1.7373 H   0  0  0  0  0  0  0  0  0  0  0  0
    2.3305    2.8192    2.4901 C   0  0  0  0  0  0  0  0  0  0  0  0
    1.2706    0.5149    2.6557 N   0  0  0  0  0  0  0  0  0  0  0  0
    2.3451   -0.0804    3.3244 C   0  0  0  0  0  0  0  0  0  0  0  0
    2.0440   -1.1670    4.1158 N   0  0  0  0  0  0  0  0  0  0  0  0
    0.6749   -1.4917    4.4727 C   0  0  0  0  0  0  0  0  0  0  0  0
   -0.1942   -1.2998    3.2727 C   0  0  0  0  0  0  0  0  0  0  0  0
    0.1247   -0.2308    2.4117 C   0  0  0  0  0  0  0  0  0  0  0  0
   -0.6141    0.0718    1.3680 N   0  0  0  0  0  0  0  0  0  0  0  0
   -1.6799   -0.7064    1.1119 C   0  0  0  0  0  0  0  0  0  0  0  0
   -2.3584   -0.3421   -0.0079 N   0  0  0  0  0  0  0  0  0  0  0  0
   -3.4070   -0.9578   -0.6942 C   0  0  0  0  0  0  0  0  0  0  0  0
   -3.7066   -0.3887   -1.9614 C   0  0  0  0  0  0  0  0  0  0  0  0
   -2.9285    0.6524   -2.2952 O   0  0  0  0  0  0  0  0  0  0  0  0
   -3.0532    1.2924   -3.5419 C   0  0  0  0  0  0  0  0  0  0  0  0
   -4.7097   -0.9210   -2.7562 C   0  0  0  0  0  0  0  0  0  0  0  0
   -5.4705   -2.0239   -2.3160 C   0  0  0  0  0  0  0  0  0  0  0  0
   -6.4784   -2.5366   -3.1649 N   0  0  0  0  0  0  0  0  0  0  0  0
   -7.5059   -1.5970   -3.5928 C   0  0  0  0  0  0  0  0  0  0  0  0
   -8.2906   -2.1699   -4.7728 C   0  0  0  0  0  0  0  0  0  0  0  0
   -8.8576   -3.4809   -4.5064 N   0  0  0  0  0  0  0  0  0  0  0  0
   -7.8170   -4.3800   -4.0396 C   0  0  0  0  0  0  0  0  0  0  0  0
   -7.0245   -3.8393   -2.8464 C   0  0  0  0  0  0  0  0  0  0  0  0
  -10.0509   -3.4654   -3.6911 C   0  0  0  0  0  0  0  0  0  0  0  0
   -5.1754   -2.5755   -1.0699 C   0  0  0  0  0  0  0  0  0  0  0  0
   -4.1476   -2.0530   -0.2718 C   0  0  0  0  0  0  0  0  0  0  0  0
   -2.0623   -1.7577    1.8435 N   0  0  0  0  0  0  0  0  0  0  0  0
   -1.3107   -2.0288    2.9133 C   0  0  0  0  0  0  0  0  0  0  0  0
    3.1046   -1.6778    4.9681 C   0  0  0  0  0  0  0  0  0  0  0  0
    3.1487   -1.0001    6.3238 C   0  0  0  0  0  0  0  0  0  0  0  0
    2.7023   -1.6597    7.4718 C   0  0  0  0  0  0  0  0  0  0  0  0
    2.7053   -1.0185    8.7116 C   0  0  0  0  0  0  0  0  0  0  0  0
    3.1547    0.2962    8.8123 C   0  0  0  0  0  0  0  0  0  0  0  0
    3.6024    0.9638    7.6707 C   0  0  0  0  0  0  0  0  0  0  0  0
    3.6027    0.3228    6.4345 C   0  0  0  0  0  0  0  0  0  0  0  0
    3.4821    0.3325    3.2079 O   0  0  0  0  0  0  0  0  0  0  0  0
    6.0580    2.9758    1.7839 C   0  0  0  0  0  0  0  0  0  0  0  0
    6.4013    3.1074    0.5008 C   0  0  0  0  0  0  0  0  0  0  0  0
   -0.1671    3.0462   -2.2360 S   0  0  0  0  0  1  0  0  0  0  0  0
    1.2494    2.8569   -3.3823 C   0  0  0  0  0  0  0  0  0  0  0  0
    2.1514    1.6323   -3.1092 C   0  0  2  0  0  0  0  0  0  0  0  0
    2.3949    1.6405   -2.0384 H   0  0  0  0  0  0  0  0  0  0  0  0
    3.3907    1.6725   -3.8575 N   0  0  0  0  0  0  0  0  0  0  0  0
    4.4939    2.3197   -3.4366 C   0  0  0  0  0  0  0  0  0  0  0  0
    5.7326    2.1259   -4.2949 C   0  0  0  0  0  0  0  0  0  0  0  0
    4.5316    3.0267   -2.4379 O   0  0  0  0  0  0  0  0  0  0  0  0
    1.4973    0.2834   -3.4428 C   0  0  0  0  0  0  0  0  0  0  0  0
    0.3670    0.0207   -2.7644 N   0  0  0  0  0  0  0  0  0  0  0  0
   -0.3938   -1.1785   -2.9948 C   0  0  0  0  0  0  0  0  0  0  0  0
    2.0082   -0.4842   -4.2563 O   0  0  0  0  0  0  0  0  0  0  0  0
    4.1661    1.0082    0.7636 H   0  0  0  0  0  0  0  0  0  0  0  0
    3.8760    2.4040   -0.3177 H   0  0  0  0  0  0  0  0  0  0  0  0
    1.8873    0.5192    0.0883 H   0  0  0  0  0  0  0  0  0  0  0  0
    1.5385    2.2169   -0.2265 H   0  0  0  0  0  0  0  0  0  0  0  0
    2.5047    2.6840    3.5659 H   0  0  0  0  0  0  0  0  0  0  0  0
    1.8530    3.8042    2.3578 H   0  0  0  0  0  0  0  0  0  0  0  0
    0.3315   -0.8653    5.3218 H   0  0  0  0  0  0  0  0  0  0  0  0
    0.6422   -2.5380    4.8158 H   0  0  0  0  0  0  0  0  0  0  0  0
   -1.9537    0.4605   -0.4882 H   0  0  0  0  0  0  0  0  0  0  0  0
   -2.2719    2.0696   -3.5403 H   0  0  0  0  0  0  0  0  0  0  0  0
   -4.0543    1.7443   -3.6538 H   0  0  0  0  0  0  0  0  0  0  0  0
   -2.8813    0.5799   -4.3681 H   0  0  0  0  0  0  0  0  0  0  0  0
   -4.8895   -0.5030   -3.7461 H   0  0  0  0  0  0  0  0  0  0  0  0
   -7.0414   -0.6486   -3.8929 H   0  0  0  0  0  0  0  0  0  0  0  0
   -8.1952   -1.3595   -2.7518 H   0  0  0  0  0  0  0  0  0  0  0  0
   -7.6035   -2.2592   -5.6321 H   0  0  0  0  0  0  0  0  0  0  0  0
   -9.0958   -1.4762   -5.0624 H   0  0  0  0  0  0  0  0  0  0  0  0
   -7.1105   -4.5500   -4.8703 H   0  0  0  0  0  0  0  0  0  0  0  0
   -8.2650   -5.3529   -3.7816 H   0  0  0  0  0  0  0  0  0  0  0  0
   -6.1974   -4.5291   -2.6217 H   0  0  0  0  0  0  0  0  0  0  0  0
   -7.6749   -3.8084   -1.9428 H   0  0  0  0  0  0  0  0  0  0  0  0
  -10.8168   -2.8358   -4.1709 H   0  0  0  0  0  0  0  0  0  0  0  0
   -9.9142   -3.0880   -2.6553 H   0  0  0  0  0  0  0  0  0  0  0  0
  -10.4598   -4.4855   -3.6173 H   0  0  0  0  0  0  0  0  0  0  0  0
   -5.7443   -3.4219   -0.6855 H   0  0  0  0  0  0  0  0  0  0  0  0
   -3.9143   -2.4955    0.6943 H   0  0  0  0  0  0  0  0  0  0  0  0
   -1.6270   -2.8840    3.5237 H   0  0  0  0  0  0  0  0  0  0  0  0
    4.0512   -1.5218    4.4366 H   0  0  0  0  0  0  0  0  0  0  0  0
    2.9515   -2.7617    5.0924 H   0  0  0  0  0  0  0  0  0  0  0  0
    2.3470   -2.6919    7.3957 H   0  0  0  0  0  0  0  0  0  0  0  0
    2.3531   -1.5485    9.5999 H   0  0  0  0  0  0  0  0  0  0  0  0
    3.1569    0.8026    9.7804 H   0  0  0  0  0  0  0  0  0  0  0  0
    3.9575    1.9944    7.7399 H   0  0  0  0  0  0  0  0  0  0  0  0
    3.9524    0.8482    5.5417 H   0  0  0  0  0  0  0  0  0  0  0  0
    6.8347    2.8280    2.5414 H   0  0  0  0  0  0  0  0  0  0  0  0
    5.6963    3.2923   -0.3146 H   0  0  0  0  0  0  0  0  0  0  0  0
    7.4560    3.0348    0.2175 H   0  0  0  0  0  0  0  0  0  0  0  0
    1.9067    3.7348   -3.2942 H   0  0  0  0  0  0  0  0  0  0  0  0
    0.9125    2.8079   -4.4333 H   0  0  0  0  0  0  0  0  0  0  0  0
    3.4513    0.9541   -4.5751 H   0  0  0  0  0  0  0  0  0  0  0  0
    6.5098    1.6455   -3.6830 H   0  0  0  0  0  0  0  0  0  0  0  0
    6.1106    3.1149   -4.5890 H   0  0  0  0  0  0  0  0  0  0  0  0
    5.5541    1.5218   -5.1951 H   0  0  0  0  0  0  0  0  0  0  0  0
   -0.0724    0.8458   -2.3067 H   0  0  0  0  0  0  0  0  0  0  0  0
   -1.1586   -1.0509   -3.7813 H   0  0  0  0  0  0  0  0  0  0  0  0
   -0.9059   -1.4816   -2.0708 H   0  0  0  0  0  0  0  0  0  0  0  0
    0.2845   -1.9808   -3.3146 H   0  0  0  0  0  0  0  0  0  0  0  0
  2  1  2  0  0  0  0
  3  2  1  0  0  0  0
  3  8  1  0  0  0  0
  4 57  1  0  0  0  0
  4  3  1  0  0  0  0
  5  4  1  0  0  0  0
  5  6  1  0  0  0  0
  6  7  1  6  0  0  0
  6  8  1  0  0  0  0
  6  9  1  0  0  0  0
  8 61  1  0  0  0  0
  9 10  1  0  0  0  0
 10 11  1  0  0  0  0
 11 12  1  0  0  0  0
 11 35  1  0  0  0  0
 12 64  1  0  0  0  0
 12 63  1  0  0  0  0
 13 12  1  0  0  0  0
 14  9  1  0  0  0  0
 14 13  2  0  0  0  0
 15 14  1  0  0  0  0
 16 15  2  0  0  0  0
 16 33  1  0  0  0  0
 17 16  1  0  0  0  0
 18 32  1  0  0  0  0
 18 17  1  0  0  0  0
 19 18  2  0  0  0  0
 20 19  1  0  0  0  0
 21 66  1  0  0  0  0
 21 20  1  0  0  0  0
 22 23  2  0  0  0  0
 22 19  1  0  0  0  0
 23 31  1  0  0  0  0
 24 29  1  0  0  0  0
 24 23  1  0  0  0  0
 25 24  1  0  0  0  0
 25 71  1  0  0  0  0
 26 27  1  0  0  0  0
 26 25  1  0  0  0  0
 27 28  1  0  0  0  0
 27 30  1  0  0  0  0
 28 75  1  0  0  0  0
 28 29  1  0  0  0  0
 29 76  1  0  0  0  0
 29 77  1  0  0  0  0
 30 80  1  0  0  0  0
 30 79  1  0  0  0  0
 31 81  1  0  0  0  0
 31 32  2  0  0  0  0
 32 82  1  0  0  0  0
 33 34  2  0  0  0  0
 34 13  1  0  0  0  0
 34 83  1  0  0  0  0
 35 85  1  0  0  0  0
 35 36  1  0  0  0  0
 36 41  2  0  0  0  0
 36 37  1  0  0  0  0
 37 38  2  0  0  0  0
 38 39  1  0  0  0  0
 38 87  1  0  0  0  0
 39 88  1  0  0  0  0
 40 89  1  0  0  0  0
 40 39  2  0  0  0  0
 41 40  1  0  0  0  0
 42 10  2  0  0  0  0
 43  2  1  0  0  0  0
 43 91  1  0  0  0  0
 44 43  2  0  0  0  0
 46 94  1  0  0  0  0
 46 47  1  0  0  0  0
 46 45  1  0  0  0  0
 47 48  1  1  0  0  0
 49 50  1  0  0  0  0
 49 47  1  0  0  0  0
 50 52  2  0  0  0  0
 51 97  1  0  0  0  0
 51 50  1  0  0  0  0
 53 47  1  0  0  0  0
 53 54  1  0  0  0  0
 54100  1  0  0  0  0
 55 54  1  0  0  0  0
 55102  1  0  0  0  0
 56 53  2  0  0  0  0
 58  4  1  0  0  0  0
 59  5  1  0  0  0  0
 60  5  1  0  0  0  0
 62  8  1  0  0  0  0
 65 17  1  0  0  0  0
 67 21  1  0  0  0  0
 68 21  1  0  0  0  0
 69 22  1  0  0  0  0
 70 25  1  0  0  0  0
 72 26  1  0  0  0  0
 73 26  1  0  0  0  0
 74 28  1  0  0  0  0
 78 30  1  0  0  0  0
 84 35  1  0  0  0  0
 86 37  1  0  0  0  0
 90 41  1  0  0  0  0
 92 44  1  0  0  0  0
 93 44  1  0  0  0  0
 95 46  1  0  0  0  0
 96 49  1  0  0  0  0
 98 51  1  0  0  0  0
 99 51  1  0  0  0  0
101 55  1  0  0  0  0
103 55  1  0  0  0  0
M  END
