-1 1
 OpenBabel05232414493D

103108  0  0  1  0  0  0  0  0999 V2000
    3.5054    9.2123    6.9103 O   0  0  0  0  0  0  0  0  0  0  0  0
    4.7239    9.1999    6.6788 C   0  0  0  0  0  0  0  0  0  0  0  0
    5.5427    8.2570    7.4169 N   0  0  0  0  0  0  0  0  0  0  0  0
    6.2751    7.2647    6.6429 C   0  0  0  0  0  0  0  0  0  0  0  0
    5.3085    6.0719    6.4754 C   0  0  0  0  0  0  0  0  0  0  0  0
    4.3108    6.2583    7.6405 C   0  0  2  0  0  0  0  0  0  0  0  0
    3.3373    6.5402    7.2330 H   0  0  0  0  0  0  0  0  0  0  0  0
    4.8336    7.4914    8.4150 C   0  0  0  0  0  0  0  0  0  0  0  0
    4.0545    5.0708    8.4738 N   0  0  0  0  0  0  0  0  0  0  0  0
    5.1266    4.4748    9.1465 C   0  0  0  0  0  0  0  0  0  0  0  0
    4.8279    3.4130    9.9766 N   0  0  0  0  0  0  0  0  0  0  0  0
    3.4883    3.2057   10.4885 C   0  0  0  0  0  0  0  0  0  0  0  0
    2.4976    3.4781    9.4059 C   0  0  0  0  0  0  0  0  0  0  0  0
    2.8092    4.4675    8.4470 C   0  0  0  0  0  0  0  0  0  0  0  0
    1.9391    4.8205    7.5203 N   0  0  0  0  0  0  0  0  0  0  0  0
    0.7465    4.2058    7.5139 C   0  0  0  0  0  0  0  0  0  0  0  0
   -0.0995    4.6656    6.5470 N   0  0  0  0  0  0  0  0  0  0  0  0
   -1.4064    4.3137    6.2180 C   0  0  0  0  0  0  0  0  0  0  0  0
   -1.9997    5.0683    5.1720 C   0  0  0  0  0  0  0  0  0  0  0  0
   -1.1975    6.0183    4.6363 O   0  0  0  0  0  0  0  0  0  0  0  0
   -1.6889    6.8608    3.6327 C   0  0  0  0  0  0  0  0  0  0  0  0
   -3.2939    4.8067    4.7510 C   0  0  0  0  0  0  0  0  0  0  0  0
   -4.0646    3.7976    5.3643 C   0  0  0  0  0  0  0  0  0  0  0  0
   -5.3787    3.5667    4.8966 N   0  0  0  0  0  0  0  0  0  0  0  0
   -6.2896    4.7034    4.9439 C   0  0  0  0  0  0  0  0  0  0  0  0
   -7.5292    4.4251    4.0935 C   0  0  0  0  0  0  0  0  0  0  0  0
   -8.2096    3.1933    4.4524 N   0  0  0  0  0  0  0  0  0  0  0  0
   -7.2670    2.0891    4.4401 C   0  0  0  0  0  0  0  0  0  0  0  0
   -6.0228    2.3325    5.2986 C   0  0  0  0  0  0  0  0  0  0  0  0
   -9.0229    3.2797    5.6444 C   0  0  0  0  0  0  0  0  0  0  0  0
   -3.4793    3.0582    6.3904 C   0  0  0  0  0  0  0  0  0  0  0  0
   -2.1645    3.3071    6.8051 C   0  0  0  0  0  0  0  0  0  0  0  0
    0.3680    3.2279    8.3387 N   0  0  0  0  0  0  0  0  0  0  0  0
    1.2588    2.8869    9.2730 C   0  0  0  0  0  0  0  0  0  0  0  0
    5.9182    2.8268   10.7358 C   0  0  0  0  0  0  0  0  0  0  0  0
    6.0666    3.4222   12.1218 C   0  0  0  0  0  0  0  0  0  0  0  0
    5.7322    2.6889   13.2627 C   0  0  0  0  0  0  0  0  0  0  0  0
    5.8369    3.2572   14.5334 C   0  0  0  0  0  0  0  0  0  0  0  0
    6.2752    4.5719   14.6725 C   0  0  0  0  0  0  0  0  0  0  0  0
    6.6109    5.3133   13.5378 C   0  0  0  0  0  0  0  0  0  0  0  0
    6.5097    4.7437   12.2715 C   0  0  0  0  0  0  0  0  0  0  0  0
    6.2692    4.8564    8.9807 O   0  0  0  0  0  0  0  0  0  0  0  0
    5.3888   10.0782    5.7863 C   0  0  0  0  0  3  0  0  0  0  0  0
    6.7994   10.2783    5.6894 C   0  0  0  0  0  0  0  0  0  0  0  0
    7.7318    9.3895    4.0491 S   0  0  0  0  0  0  0  0  0  0  0  0
    9.4661    9.4032    4.6049 C   0  0  0  0  0  0  0  0  0  0  0  0
    9.8438    8.3035    5.6210 C   0  0  2  0  0  0  0  0  0  0  0  0
    9.0708    8.2976    6.4099 H   0  0  0  0  0  0  0  0  0  0  0  0
   11.1379    8.5451    6.2169 N   0  0  0  0  0  0  0  0  0  0  0  0
   11.3713    9.5081    7.1378 C   0  0  0  0  0  0  0  0  0  0  0  0
   12.7620    9.4843    7.7531 C   0  0  0  0  0  0  0  0  0  0  0  0
   10.5456   10.3395    7.4712 O   0  0  0  0  0  0  0  0  0  0  0  0
    9.9205    6.8832    5.0302 C   0  0  0  0  0  0  0  0  0  0  0  0
    8.8051    6.4578    4.4135 N   0  0  0  0  0  0  0  0  0  0  0  0
    8.6842    5.1506    3.8253 C   0  0  0  0  0  0  0  0  0  0  0  0
   10.9362    6.2057    5.1527 O   0  0  0  0  0  0  0  0  0  0  0  0
    7.1688    6.9368    7.2020 H   0  0  0  0  0  0  0  0  0  0  0  0
    6.5981    7.6884    5.6867 H   0  0  0  0  0  0  0  0  0  0  0  0
    5.8283    5.1052    6.5168 H   0  0  0  0  0  0  0  0  0  0  0  0
    4.7756    6.1374    5.5154 H   0  0  0  0  0  0  0  0  0  0  0  0
    5.5278    7.1883    9.2147 H   0  0  0  0  0  0  0  0  0  0  0  0
    4.0078    8.0818    8.8266 H   0  0  0  0  0  0  0  0  0  0  0  0
    3.3023    3.8512   11.3719 H   0  0  0  0  0  0  0  0  0  0  0  0
    3.4039    2.1637   10.8379 H   0  0  0  0  0  0  0  0  0  0  0  0
    0.2910    5.4229    5.9967 H   0  0  0  0  0  0  0  0  0  0  0  0
   -0.8843    7.5661    3.3931 H   0  0  0  0  0  0  0  0  0  0  0  0
   -2.5728    7.4262    3.9761 H   0  0  0  0  0  0  0  0  0  0  0  0
   -1.9567    6.2960    2.7225 H   0  0  0  0  0  0  0  0  0  0  0  0
   -3.7192    5.3630    3.9163 H   0  0  0  0  0  0  0  0  0  0  0  0
   -5.7845    5.6018    4.5648 H   0  0  0  0  0  0  0  0  0  0  0  0
   -6.5850    4.9259    5.9934 H   0  0  0  0  0  0  0  0  0  0  0  0
   -7.2130    4.3504    3.0383 H   0  0  0  0  0  0  0  0  0  0  0  0
   -8.2347    5.2676    4.1696 H   0  0  0  0  0  0  0  0  0  0  0  0
   -6.9381    1.9276    3.3989 H   0  0  0  0  0  0  0  0  0  0  0  0
   -7.7767    1.1709    4.7723 H   0  0  0  0  0  0  0  0  0  0  0  0
   -5.3188    1.4989    5.1582 H   0  0  0  0  0  0  0  0  0  0  0  0
   -6.3034    2.3422    6.3760 H   0  0  0  0  0  0  0  0  0  0  0  0
   -9.7711    4.0787    5.5228 H   0  0  0  0  0  0  0  0  0  0  0  0
   -8.4679    3.4863    6.5841 H   0  0  0  0  0  0  0  0  0  0  0  0
   -9.5690    2.3340    5.7866 H   0  0  0  0  0  0  0  0  0  0  0  0
   -4.0386    2.2745    6.9012 H   0  0  0  0  0  0  0  0  0  0  0  0
   -1.7155    2.7277    7.6087 H   0  0  0  0  0  0  0  0  0  0  0  0
    0.9544    2.0938    9.9674 H   0  0  0  0  0  0  0  0  0  0  0  0
    6.8366    2.9836   10.1571 H   0  0  0  0  0  0  0  0  0  0  0  0
    5.7378    1.7419   10.8129 H   0  0  0  0  0  0  0  0  0  0  0  0
    5.3841    1.6570   13.1563 H   0  0  0  0  0  0  0  0  0  0  0  0
    5.5716    2.6703   15.4161 H   0  0  0  0  0  0  0  0  0  0  0  0
    6.3560    5.0215   15.6649 H   0  0  0  0  0  0  0  0  0  0  0  0
    6.9570    6.3443   13.6396 H   0  0  0  0  0  0  0  0  0  0  0  0
    6.7746    5.3173   11.3796 H   0  0  0  0  0  0  0  0  0  0  0  0
    4.7214   10.7254    5.2116 H   0  0  0  0  0  0  0  0  0  0  0  0
    7.3930    9.8559    6.5106 H   0  0  0  0  0  0  0  0  0  0  0  0
    7.1212   11.3021    5.4644 H   0  0  0  0  0  0  0  0  0  0  0  0
    9.6522   10.3664    5.1027 H   0  0  0  0  0  0  0  0  0  0  0  0
   10.1327    9.3434    3.7300 H   0  0  0  0  0  0  0  0  0  0  0  0
   11.7956    7.7840    6.0647 H   0  0  0  0  0  0  0  0  0  0  0  0
   12.6736    9.1734    8.8046 H   0  0  0  0  0  0  0  0  0  0  0  0
   13.1651   10.5060    7.7445 H   0  0  0  0  0  0  0  0  0  0  0  0
   13.4591    8.8091    7.2378 H   0  0  0  0  0  0  0  0  0  0  0  0
    8.0708    7.1598    4.2626 H   0  0  0  0  0  0  0  0  0  0  0  0
    8.6938    5.1950    2.7234 H   0  0  0  0  0  0  0  0  0  0  0  0
    7.7465    4.6713    4.1455 H   0  0  0  0  0  0  0  0  0  0  0  0
    9.5328    4.5391    4.1569 H   0  0  0  0  0  0  0  0  0  0  0  0
  2  1  2  0  0  0  0
  2  3  1  0  0  0  0
  3  8  1  0  0  0  0
  4 57  1  0  0  0  0
  4  3  1  0  0  0  0
  5 59  1  0  0  0  0
  5  4  1  0  0  0  0
  5  6  1  0  0  0  0
  6  7  1  6  0  0  0
  6  8  1  0  0  0  0
  6  9  1  0  0  0  0
  8 62  1  0  0  0  0
  8 61  1  0  0  0  0
  9 10  1  0  0  0  0
 10 11  1  0  0  0  0
 11 12  1  0  0  0  0
 11 35  1  0  0  0  0
 12 64  1  0  0  0  0
 12 63  1  0  0  0  0
 13 12  1  0  0  0  0
 14  9  1  0  0  0  0
 14 13  2  0  0  0  0
 15 14  1  0  0  0  0
 16 15  2  0  0  0  0
 16 33  1  0  0  0  0
 17 16  1  0  0  0  0
 18 17  1  0  0  0  0
 18 32  1  0  0  0  0
 19 18  2  0  0  0  0
 20 19  1  0  0  0  0
 21 67  1  0  0  0  0
 21 20  1  0  0  0  0
 22 19  1  0  0  0  0
 22 23  2  0  0  0  0
 23 31  1  0  0  0  0
 24 25  1  0  0  0  0
 24 29  1  0  0  0  0
 24 23  1  0  0  0  0
 25 71  1  0  0  0  0
 26 73  1  0  0  0  0
 26 27  1  0  0  0  0
 26 25  1  0  0  0  0
 27 30  1  0  0  0  0
 28 27  1  0  0  0  0
 28 75  1  0  0  0  0
 28 29  1  0  0  0  0
 29 77  1  0  0  0  0
 30 80  1  0  0  0  0
 30 79  1  0  0  0  0
 31 32  2  0  0  0  0
 31 81  1  0  0  0  0
 32 82  1  0  0  0  0
 33 34  2  0  0  0  0
 34 13  1  0  0  0  0
 34 83  1  0  0  0  0
 35 85  1  0  0  0  0
 35 36  1  0  0  0  0
 36 41  2  0  0  0  0
 36 37  1  0  0  0  0
 37 38  2  0  0  0  0
 38 39  1  0  0  0  0
 38 87  1  0  0  0  0
 39 88  1  0  0  0  0
 40 89  1  0  0  0  0
 40 39  2  0  0  0  0
 41 40  1  0  0  0  0
 42 10  2  0  0  0  0
 43  2  1  0  0  0  0
 44 43  1  0  0  0  0
 44 92  1  0  0  0  0
 45 46  1  0  0  0  0
 45 44  1  0  0  0  0
 46 94  1  0  0  0  0
 46 47  1  0  0  0  0
 47 49  1  0  0  0  0
 47 48  1  1  0  0  0
 49 50  1  0  0  0  0
 50 52  2  0  0  0  0
 50 51  1  0  0  0  0
 51 97  1  0  0  0  0
 53 56  2  0  0  0  0
 53 47  1  0  0  0  0
 54 53  1  0  0  0  0
 55102  1  0  0  0  0
 55103  1  0  0  0  0
 55 54  1  0  0  0  0
 58  4  1  0  0  0  0
 60  5  1  0  0  0  0
 65 17  1  0  0  0  0
 66 21  1  0  0  0  0
 68 21  1  0  0  0  0
 69 22  1  0  0  0  0
 70 25  1  0  0  0  0
 72 26  1  0  0  0  0
 74 28  1  0  0  0  0
 76 29  1  0  0  0  0
 78 30  1  0  0  0  0
 84 35  1  0  0  0  0
 86 37  1  0  0  0  0
 90 41  1  0  0  0  0
 91 43  1  0  0  0  0
 93 44  1  0  0  0  0
 95 46  1  0  0  0  0
 96 49  1  0  0  0  0
 98 51  1  0  0  0  0
 99 51  1  0  0  0  0
100 54  1  0  0  0  0
101 55  1  0  0  0  0
M  END
