-1 1
 OpenBabel05192410563D

103108  0  0  1  0  0  0  0  0999 V2000
    0.5094    2.6996   -1.3851 O   0  0  0  0  0  0  0  0  0  0  0  0
    1.7495    2.8014   -1.3284 C   0  0  0  0  0  0  0  0  0  0  0  0
    2.4654    1.8956   -0.4129 N   0  0  0  0  0  0  0  0  0  0  0  0
    3.0899    0.7585   -1.0813 C   0  0  0  0  0  0  0  0  0  0  0  0
    1.9709   -0.2881   -1.2545 C   0  0  0  0  0  0  0  0  0  0  0  0
    1.0016    0.0374   -0.0986 C   0  0  2  0  0  0  0  0  0  0  0  0
    0.0390    0.3352   -0.5167 H   0  0  0  0  0  0  0  0  0  0  0  0
    1.6095    1.2901    0.5831 C   0  0  0  0  0  0  0  0  0  0  0  0
    0.7066   -1.0683    0.8337 N   0  0  0  0  0  0  0  0  0  0  0  0
    1.7638   -1.6914    1.5028 C   0  0  0  0  0  0  0  0  0  0  0  0
    1.4333   -2.6593    2.4304 N   0  0  0  0  0  0  0  0  0  0  0  0
    0.1137   -2.7190    3.0256 C   0  0  0  0  0  0  0  0  0  0  0  0
   -0.9144   -2.4458    1.9789 C   0  0  0  0  0  0  0  0  0  0  0  0
   -0.5830   -1.5621    0.9274 C   0  0  0  0  0  0  0  0  0  0  0  0
   -1.4796   -1.2057    0.0277 N   0  0  0  0  0  0  0  0  0  0  0  0
   -2.7161   -1.7135    0.1379 C   0  0  0  0  0  0  0  0  0  0  0  0
   -3.5811   -1.2542   -0.8128 N   0  0  0  0  0  0  0  0  0  0  0  0
   -4.9310   -1.5132   -1.0370 C   0  0  0  0  0  0  0  0  0  0  0  0
   -5.5257   -0.7891   -2.1037 C   0  0  0  0  0  0  0  0  0  0  0  0
   -4.6835    0.0443   -2.7584 O   0  0  0  0  0  0  0  0  0  0  0  0
   -5.1662    0.8506   -3.7953 C   0  0  0  0  0  0  0  0  0  0  0  0
   -6.8617   -0.9666   -2.4272 C   0  0  0  0  0  0  0  0  0  0  0  0
   -7.6725   -1.8557   -1.6921 C   0  0  0  0  0  0  0  0  0  0  0  0
   -9.0286   -2.0052   -2.0633 N   0  0  0  0  0  0  0  0  0  0  0  0
   -9.8376   -0.7930   -2.0561 C   0  0  0  0  0  0  0  0  0  0  0  0
  -11.1485   -1.0259   -2.8075 C   0  0  0  0  0  0  0  0  0  0  0  0
  -11.9037   -2.1626   -2.3108 N   0  0  0  0  0  0  0  0  0  0  0  0
  -11.0580   -3.3426   -2.2876 C   0  0  0  0  0  0  0  0  0  0  0  0
   -9.7452   -3.1439   -1.5254 C   0  0  0  0  0  0  0  0  0  0  0  0
  -12.6282   -1.9150   -1.0845 C   0  0  0  0  0  0  0  0  0  0  0  0
   -7.0859   -2.5652   -0.6459 C   0  0  0  0  0  0  0  0  0  0  0  0
   -5.7311   -2.4027   -0.3288 C   0  0  0  0  0  0  0  0  0  0  0  0
   -3.1209   -2.5910    1.0578 N   0  0  0  0  0  0  0  0  0  0  0  0
   -2.2033   -2.9361    1.9644 C   0  0  0  0  0  0  0  0  0  0  0  0
    2.5172   -3.2659    3.1829 C   0  0  0  0  0  0  0  0  0  0  0  0
    2.7881   -2.5728    4.5035 C   0  0  0  0  0  0  0  0  0  0  0  0
    2.4731   -3.1856    5.7185 C   0  0  0  0  0  0  0  0  0  0  0  0
    2.6931   -2.5267    6.9292 C   0  0  0  0  0  0  0  0  0  0  0  0
    3.2287   -1.2409    6.9332 C   0  0  0  0  0  0  0  0  0  0  0  0
    3.5456   -0.6195    5.7235 C   0  0  0  0  0  0  0  0  0  0  0  0
    3.3294   -1.2796    4.5170 C   0  0  0  0  0  0  0  0  0  0  0  0
    2.9229   -1.4155    1.2557 O   0  0  0  0  0  0  0  0  0  0  0  0
    2.5593    3.7009   -2.0328 C   0  0  0  0  0  3  0  0  0  0  0  0
    3.9653    3.9605   -1.7284 C   0  0  0  0  0  0  0  0  0  0  0  0
    5.1983    3.1244   -2.9575 S   0  0  0  0  0  0  0  0  0  0  0  0
    6.8097    3.7334   -2.3636 C   0  0  0  0  0  0  0  0  0  0  0  0
    7.2422    3.2944   -0.9474 C   0  0  2  0  0  0  0  0  0  0  0  0
    6.4200    3.5401   -0.2536 H   0  0  0  0  0  0  0  0  0  0  0  0
    8.4397    3.9885   -0.5312 N   0  0  0  0  0  0  0  0  0  0  0  0
    8.4660    5.2867   -0.1532 C   0  0  0  0  0  0  0  0  0  0  0  0
    9.8069    5.7772    0.3703 C   0  0  0  0  0  0  0  0  0  0  0  0
    7.5025    6.0298   -0.2192 O   0  0  0  0  0  0  0  0  0  0  0  0
    7.5635    1.7946   -0.8001 C   0  0  0  0  0  0  0  0  0  0  0  0
    6.5546    0.9575   -1.0887 N   0  0  0  0  0  0  0  0  0  0  0  0
    6.6739   -0.4757   -0.9990 C   0  0  0  0  0  0  0  0  0  0  0  0
    8.6695    1.4289   -0.4131 O   0  0  0  0  0  0  0  0  0  0  0  0
    3.8778    0.3425   -0.4322 H   0  0  0  0  0  0  0  0  0  0  0  0
    3.5356    1.0734   -2.0336 H   0  0  0  0  0  0  0  0  0  0  0  0
    2.3435   -1.3211   -1.2207 H   0  0  0  0  0  0  0  0  0  0  0  0
    1.4552   -0.1336   -2.2125 H   0  0  0  0  0  0  0  0  0  0  0  0
    2.2104    0.9977    1.4606 H   0  0  0  0  0  0  0  0  0  0  0  0
    0.8239    1.9920    0.8867 H   0  0  0  0  0  0  0  0  0  0  0  0
    0.0303   -1.9980    3.8652 H   0  0  0  0  0  0  0  0  0  0  0  0
   -0.0308   -3.7224    3.4585 H   0  0  0  0  0  0  0  0  0  0  0  0
   -3.1639   -0.5773   -1.4428 H   0  0  0  0  0  0  0  0  0  0  0  0
   -4.3225    1.4627   -4.1354 H   0  0  0  0  0  0  0  0  0  0  0  0
   -5.9762    1.5152   -3.4472 H   0  0  0  0  0  0  0  0  0  0  0  0
   -5.5380    0.2461   -4.6413 H   0  0  0  0  0  0  0  0  0  0  0  0
   -7.2916   -0.4385   -3.2778 H   0  0  0  0  0  0  0  0  0  0  0  0
   -9.2857    0.0261   -2.5362 H   0  0  0  0  0  0  0  0  0  0  0  0
  -10.0448   -0.4659   -1.0129 H   0  0  0  0  0  0  0  0  0  0  0  0
  -10.9085   -1.2082   -3.8696 H   0  0  0  0  0  0  0  0  0  0  0  0
  -11.7756   -0.1216   -2.7596 H   0  0  0  0  0  0  0  0  0  0  0  0
  -10.8117   -3.6112   -3.3295 H   0  0  0  0  0  0  0  0  0  0  0  0
  -11.6192   -4.1848   -1.8527 H   0  0  0  0  0  0  0  0  0  0  0  0
   -9.1227   -4.0441   -1.6375 H   0  0  0  0  0  0  0  0  0  0  0  0
   -9.9539   -3.0275   -0.4379 H   0  0  0  0  0  0  0  0  0  0  0  0
  -13.3135   -1.0647   -1.2268 H   0  0  0  0  0  0  0  0  0  0  0  0
  -11.9983   -1.6876   -0.1984 H   0  0  0  0  0  0  0  0  0  0  0  0
  -13.2408   -2.7954   -0.8347 H   0  0  0  0  0  0  0  0  0  0  0  0
   -7.6745   -3.2565   -0.0429 H   0  0  0  0  0  0  0  0  0  0  0  0
   -5.2810   -2.9581    0.4909 H   0  0  0  0  0  0  0  0  0  0  0  0
   -2.5268   -3.6450    2.7367 H   0  0  0  0  0  0  0  0  0  0  0  0
    3.4110   -3.2317    2.5486 H   0  0  0  0  0  0  0  0  0  0  0  0
    2.2597   -4.3228    3.3625 H   0  0  0  0  0  0  0  0  0  0  0  0
    2.0488   -4.1943    5.7185 H   0  0  0  0  0  0  0  0  0  0  0  0
    2.4416   -3.0198    7.8713 H   0  0  0  0  0  0  0  0  0  0  0  0
    3.4000   -0.7205    7.8784 H   0  0  0  0  0  0  0  0  0  0  0  0
    3.9677    0.3879    5.7192 H   0  0  0  0  0  0  0  0  0  0  0  0
    3.5789   -0.8001    3.5670 H   0  0  0  0  0  0  0  0  0  0  0  0
    2.0531    4.3252   -2.7736 H   0  0  0  0  0  0  0  0  0  0  0  0
    4.2339    3.5565   -0.7421 H   0  0  0  0  0  0  0  0  0  0  0  0
    4.2593    5.0201   -1.7922 H   0  0  0  0  0  0  0  0  0  0  0  0
    6.7812    4.8328   -2.3528 H   0  0  0  0  0  0  0  0  0  0  0  0
    7.5726    3.4212   -3.0938 H   0  0  0  0  0  0  0  0  0  0  0  0
    9.2166    3.3596   -0.3407 H   0  0  0  0  0  0  0  0  0  0  0  0
    9.6825    6.0780    1.4206 H   0  0  0  0  0  0  0  0  0  0  0  0
   10.0948    6.6741   -0.1954 H   0  0  0  0  0  0  0  0  0  0  0  0
   10.6087    5.0291    0.3011 H   0  0  0  0  0  0  0  0  0  0  0  0
    5.7341    1.3636   -1.5475 H   0  0  0  0  0  0  0  0  0  0  0  0
    6.7435   -0.9404   -1.9966 H   0  0  0  0  0  0  0  0  0  0  0  0
    5.8027   -0.8998   -0.4773 H   0  0  0  0  0  0  0  0  0  0  0  0
    7.5861   -0.7151   -0.4383 H   0  0  0  0  0  0  0  0  0  0  0  0
  1  2  2  0  0  0  0
  2  3  1  0  0  0  0
  3  8  1  0  0  0  0
  4 57  1  0  0  0  0
  4  3  1  0  0  0  0
  5 59  1  0  0  0  0
  5  4  1  0  0  0  0
  5  6  1  0  0  0  0
  6  7  1  6  0  0  0
  6  8  1  0  0  0  0
  6  9  1  0  0  0  0
  8 62  1  0  0  0  0
  8 61  1  0  0  0  0
  9 14  1  0  0  0  0
  9 10  1  0  0  0  0
 10 11  1  0  0  0  0
 11 12  1  0  0  0  0
 11 35  1  0  0  0  0
 12 64  1  0  0  0  0
 12 63  1  0  0  0  0
 13 12  1  0  0  0  0
 14 13  2  0  0  0  0
 15 16  2  0  0  0  0
 15 14  1  0  0  0  0
 16 33  1  0  0  0  0
 17 16  1  0  0  0  0
 18 17  1  0  0  0  0
 18 32  1  0  0  0  0
 19 18  2  0  0  0  0
 20 19  1  0  0  0  0
 21 67  1  0  0  0  0
 21 20  1  0  0  0  0
 22 19  1  0  0  0  0
 22 23  2  0  0  0  0
 23 31  1  0  0  0  0
 24 25  1  0  0  0  0
 24 23  1  0  0  0  0
 24 29  1  0  0  0  0
 25 71  1  0  0  0  0
 26 73  1  0  0  0  0
 26 27  1  0  0  0  0
 26 25  1  0  0  0  0
 27 28  1  0  0  0  0
 27 30  1  0  0  0  0
 28 75  1  0  0  0  0
 28 29  1  0  0  0  0
 29 77  1  0  0  0  0
 30 80  1  0  0  0  0
 30 79  1  0  0  0  0
 31 32  2  0  0  0  0
 31 81  1  0  0  0  0
 32 82  1  0  0  0  0
 33 34  2  0  0  0  0
 34 13  1  0  0  0  0
 34 83  1  0  0  0  0
 35 85  1  0  0  0  0
 35 36  1  0  0  0  0
 36 41  2  0  0  0  0
 36 37  1  0  0  0  0
 37 38  2  0  0  0  0
 38 39  1  0  0  0  0
 38 87  1  0  0  0  0
 39 88  1  0  0  0  0
 40 39  2  0  0  0  0
 41 40  1  0  0  0  0
 42 10  2  0  0  0  0
 43 44  1  0  0  0  0
 43  2  1  0  0  0  0
 44 92  1  0  0  0  0
 45 46  1  0  0  0  0
 45 44  1  0  0  0  0
 46 94  1  0  0  0  0
 46 47  1  0  0  0  0
 47 53  1  0  0  0  0
 47 49  1  0  0  0  0
 47 48  1  1  0  0  0
 49 96  1  0  0  0  0
 49 50  1  0  0  0  0
 50 51  1  0  0  0  0
 51 97  1  0  0  0  0
 52 50  2  0  0  0  0
 53 56  2  0  0  0  0
 54 55  1  0  0  0  0
 54 53  1  0  0  0  0
 55102  1  0  0  0  0
 55103  1  0  0  0  0
 58  4  1  0  0  0  0
 60  5  1  0  0  0  0
 65 17  1  0  0  0  0
 66 21  1  0  0  0  0
 68 21  1  0  0  0  0
 69 22  1  0  0  0  0
 70 25  1  0  0  0  0
 72 26  1  0  0  0  0
 74 28  1  0  0  0  0
 76 29  1  0  0  0  0
 78 30  1  0  0  0  0
 84 35  1  0  0  0  0
 86 37  1  0  0  0  0
 89 40  1  0  0  0  0
 90 41  1  0  0  0  0
 91 43  1  0  0  0  0
 93 44  1  0  0  0  0
 95 46  1  0  0  0  0
 98 51  1  0  0  0  0
 99 51  1  0  0  0  0
100 54  1  0  0  0  0
101 55  1  0  0  0  0
M  END
