103
-1 1
O        -3.005934   -2.989970   -2.574592
C        -2.234418   -2.186804   -3.102100
N        -2.580289   -0.894582   -3.289295
C        -1.714366    0.218060   -3.687216
C        -2.674457    1.403080   -3.733328
C        -3.688434    1.085698   -2.620973
H        -4.633833    1.608474   -2.792121
C        -3.869957   -0.421059   -2.795681
N        -3.214814    1.583155   -1.313938
C        -3.563017    2.924965   -1.058552
N        -2.898951    3.564230   -0.051073
C        -1.662746    3.035547    0.510068
C        -1.767619    1.552960    0.617000
C        -2.461536    0.860002   -0.388775
N        -2.437192   -0.453159   -0.462015
C        -1.708695   -1.117065    0.440322
N        -1.627584   -2.473369    0.256455
C        -0.480002   -3.202886    0.673591
C        -0.503797   -4.110679    1.747652
O        -1.587144   -4.392057    2.506542
C        -2.517213   -3.379022    2.829434
C         0.651531   -4.831417    2.066445
C         1.851645   -4.666047    1.363215
N         2.995192   -5.399132    1.740985
C         3.341265   -5.387833    3.156807
C         4.367572   -6.476317    3.468923
N         5.558331   -6.406689    2.640554
C         5.172628   -6.397156    1.240770
C         4.161714   -5.305128    0.884015
C         6.488084   -5.363504    3.014179
C         1.868551   -3.748030    0.300762
C         0.719987   -3.037748   -0.019877
N        -1.112671   -0.574292    1.501786
C        -1.145807    0.757377    1.560509
C        -3.178854    4.984232    0.114232
C        -2.521207    5.866577   -0.929925
C        -3.256304    6.338295   -2.023429
C        -2.648958    7.127074   -2.998888
C        -1.294483    7.444914   -2.898346
C        -0.554459    6.969908   -1.816625
C        -1.162948    6.189696   -0.833981
O        -4.434049    3.476774   -1.711737
C        -0.913633   -2.703445   -3.583267
C         0.290808   -2.128983   -3.548473
S         1.201887    0.557588   -1.319922
C         2.316467    1.855003   -0.674770
C         2.154288    2.158717    0.829807
H         1.078548    2.304111    1.013529
N         2.851129    3.363311    1.231853
C         2.282422    4.581120    1.233809
C         3.125476    5.700238    1.818325
O         1.164547    4.808013    0.787363
C         2.660289    1.055969    1.776261
N         2.050864   -0.127857    1.648662
C         2.334345   -1.240640    2.514889
O         3.532614    1.296961    2.610801
H        -1.226501    0.019740   -4.652894
H        -0.926744    0.402980   -2.935183
H        -3.207446    1.441864   -4.697247
H        -2.169563    2.366447   -3.583327
H        -4.645443   -0.582179   -3.566273
H        -4.160314   -0.964956   -1.895015
H        -1.497964    3.495457    1.496179
H        -0.788027    3.313414   -0.108993
H        -2.099157   -2.799650   -0.587956
H        -3.306977   -3.293703    2.068663
H        -2.024464   -2.399627    2.935200
H        -2.968784   -3.670226    3.789356
H         0.570233   -5.539757    2.891254
H         2.444156   -5.562676    3.762972
H         3.735146   -4.391322    3.453860
H         3.890542   -7.458411    3.304179
H         4.657241   -6.422272    4.530539
H         4.720475   -7.375778    1.002648
H         6.072384   -6.287742    0.614727
H         3.850884   -5.441567   -0.161781
H         4.641587   -4.303773    0.949402
H         6.794757   -5.502326    4.062977
H         6.102896   -4.326991    2.916200
H         7.393424   -5.437500    2.391376
H         2.778079   -3.538714   -0.260011
H         0.756250   -2.290938   -0.816884
H        -0.616498    1.218294    2.403086
H        -2.824218    5.265228    1.117193
H        -4.267508    5.123220    0.085309
H        -4.306666    6.055364   -2.116061
H        -3.235087    7.486296   -3.848602
H        -0.815150    8.055929   -3.667550
H         0.510625    7.197621   -1.731060
H        -0.551490    5.817212   -0.007795
H        -1.002103   -3.751855   -3.886925
H         0.494354   -1.118529   -3.180974
H         1.167762   -2.708307   -3.851603
H         2.112672    2.803734   -1.194472
H         3.373245    1.599610   -0.865692
H         3.661928    3.173406    1.817695
H         3.312768    6.443239    1.029793
H         4.086335    5.358409    2.226312
H         2.547384    6.199141    2.608742
H         1.473867   -0.256493    0.801815
H         1.438334   -1.872217    2.589222
H         2.609320   -0.864893    3.510451
H         3.167403   -1.862037    2.143281
