67
-1 1
O         2.748255   -5.450497   -4.501709
C         3.355125   -5.994751   -3.566923
N         3.420768   -7.389658   -3.475582
C         2.653058   -8.326267   -4.146175
C         1.436894   -8.019293   -4.784591
C         0.665302   -9.034210   -5.339707
C         1.088395  -10.358170   -5.278530
N         0.262015  -11.415916   -5.802067
C        -0.945970  -11.721351   -5.151520
O        -1.363073  -11.091808   -4.208526
C        -1.673168  -12.891672   -5.706088
N        -1.289945  -13.610236   -6.696714
C         0.673125  -12.156437   -6.886639
C        -0.109270  -13.255458   -7.306552
C         0.401697  -13.981931   -8.390988
N         1.523369  -13.671683   -9.003247
C         2.174431  -12.579586   -8.531540
N         3.312741  -12.285599   -9.216097
C         4.205708  -11.207295   -9.136674
C         4.122861  -10.166020   -8.202296
C         5.040757   -9.118829   -8.249039
C         6.052302   -9.113217   -9.204139
Cl         7.201505   -7.801803   -9.249580
C         6.162586  -10.155384  -10.122229
C         5.239734  -11.190561  -10.087095
N         1.798479  -11.825042   -7.508044
C         2.313191  -10.667341   -4.687197
C         3.094233   -9.663535   -4.139622
C         4.121806   -5.306574   -2.564324
C         4.723927   -5.961742   -1.500045
S         6.564523   -7.340785   -2.307455
C         6.738003   -6.411457   -3.840338
C         6.335675   -7.128578   -5.143943
H         5.380235   -7.649206   -4.998746
N         7.293143   -8.111937   -5.591243
C         7.043869   -9.441985   -5.661579
C         8.131780  -10.263740   -6.328046
O         6.018211   -9.966554   -5.263169
C         6.215327   -6.060792   -6.234554
N         4.975067   -5.570380   -6.443632
C         4.746526   -4.443185   -7.313379
O         7.207495   -5.666498   -6.834429
H         4.250221   -7.749986   -2.988678
H         1.114318   -6.981660   -4.834151
H        -0.289077   -8.791943   -5.810996
H        -2.606957  -13.133290   -5.185720
H        -0.160530  -14.853366   -8.745290
H         3.481308  -12.946782   -9.963781
H         3.351555  -10.171521   -7.435828
H         4.961288   -8.303899   -7.528404
H         6.962300  -10.149799  -10.863920
H         5.319108  -12.002967  -10.814982
H         2.668471  -11.699273   -4.669245
H         4.075115   -9.901058   -3.724340
H         4.323186   -4.254029   -2.772202
H         4.274634   -6.864586   -1.084579
H         5.304118   -5.377365   -0.783829
H         7.764522   -6.029822   -3.959056
H         6.071617   -5.529405   -3.753671
H         8.112072   -7.728837   -6.049529
H         7.764810  -10.570321   -7.319690
H         8.297795  -11.172089   -5.734313
H         9.079371   -9.721538   -6.451026
H         4.199537   -5.830723   -5.830661
H         5.627300   -3.785126   -7.314261
H         3.871037   -3.890019   -6.947984
H         4.561401   -4.757735   -8.354235
