-1 1
 OpenBabel05192410563D

 67 70  0  0  1  0  0  0  0  0999 V2000
   -0.6488    3.2129    0.8460 O   0  0  0  0  0  0  0  0  0  0  0  0
   -0.2197    2.8954    1.9930 C   0  0  0  0  0  0  0  0  0  0  0  0
   -0.2535    1.5098    2.3570 N   0  0  0  0  0  0  0  0  0  0  0  0
   -1.0812    0.5405    1.8578 C   0  0  0  0  0  0  0  0  0  0  0  0
   -2.2595    0.8310    1.1341 C   0  0  0  0  0  0  0  0  0  0  0  0
   -3.1028   -0.1942    0.7271 C   0  0  0  0  0  0  0  0  0  0  0  0
   -2.8035   -1.5217    1.0228 C   0  0  0  0  0  0  0  0  0  0  0  0
   -3.6255   -2.5901    0.5137 N   0  0  0  0  0  0  0  0  0  0  0  0
   -4.7563   -3.0252    1.2167 C   0  0  0  0  0  0  0  0  0  0  0  0
   -5.1239   -2.5244    2.2528 O   0  0  0  0  0  0  0  0  0  0  0  0
   -5.4729   -4.1677    0.5853 C   0  0  0  0  0  0  0  0  0  0  0  0
   -5.1395   -4.7554   -0.5056 N   0  0  0  0  0  0  0  0  0  0  0  0
   -3.2639   -3.1962   -0.6659 C   0  0  0  0  0  0  0  0  0  0  0  0
   -4.0234   -4.2801   -1.1564 C   0  0  0  0  0  0  0  0  0  0  0  0
   -3.5582   -4.8465   -2.3522 C   0  0  0  0  0  0  0  0  0  0  0  0
   -2.4960   -4.4087   -2.9966 N   0  0  0  0  0  0  0  0  0  0  0  0
   -1.8597   -3.3508   -2.4366 C   0  0  0  0  0  0  0  0  0  0  0  0
   -0.7767   -2.9093   -3.1313 N   0  0  0  0  0  0  0  0  0  0  0  0
    0.0828   -1.8186   -2.9188 C   0  0  0  0  0  0  0  0  0  0  0  0
   -0.0322   -0.8918   -1.8706 C   0  0  0  0  0  0  0  0  0  0  0  0
    0.8569    0.1792   -1.7822 C   0  0  0  0  0  0  0  0  0  0  0  0
    1.8677    0.3225   -2.7288 C   0  0  0  0  0  0  0  0  0  0  0  0
    2.9828    1.6616   -2.6298 Cl  0  0  0  0  0  0  0  0  0  0  0  0
    2.0073   -0.6003   -3.7634 C   0  0  0  0  0  0  0  0  0  0  0  0
    1.1174   -1.6605   -3.8548 C   0  0  0  0  0  0  0  0  0  0  0  0
   -2.1991   -2.7431   -1.3107 N   0  0  0  0  0  0  0  0  0  0  0  0
   -1.6320   -1.8262    1.7139 C   0  0  0  0  0  0  0  0  0  0  0  0
   -0.7786   -0.8144    2.1192 C   0  0  0  0  0  0  0  0  0  0  0  0
    0.3817    3.7421    2.9098 C   0  0  0  0  0  3  0  0  0  0  0  0
    1.0129    3.3023    4.1663 C   0  0  0  0  0  0  0  0  0  0  0  0
    2.6875    2.3795    3.9751 S   0  0  0  0  0  0  0  0  0  0  0  0
    3.2887    3.1630    2.4520 C   0  0  0  0  0  0  0  0  0  0  0  0
    2.8712    2.4741    1.1375 C   0  0  2  0  0  0  0  0  0  0  0  0
    1.8666    2.0542    1.2390 H   0  0  0  0  0  0  0  0  0  0  0  0
    3.7463    1.3846    0.7652 N   0  0  0  0  0  0  0  0  0  0  0  0
    3.3447    0.0871    0.7541 C   0  0  0  0  0  0  0  0  0  0  0  0
    4.2711   -0.8662    0.0232 C   0  0  0  0  0  0  0  0  0  0  0  0
    2.3083   -0.3039    1.2610 O   0  0  0  0  0  0  0  0  0  0  0  0
    2.9101    3.5105    0.0105 C   0  0  0  0  0  0  0  0  0  0  0  0
    1.7319    4.0550   -0.3186 N   0  0  0  0  0  0  0  0  0  0  0  0
    1.6513    5.0658   -1.3405 C   0  0  0  0  0  0  0  0  0  0  0  0
    3.9836    3.8111   -0.5097 O   0  0  0  0  0  0  0  0  0  0  0  0
    0.5496    1.1728    2.8817 H   0  0  0  0  0  0  0  0  0  0  0  0
   -2.4722    1.8685    0.8832 H   0  0  0  0  0  0  0  0  0  0  0  0
   -4.0064    0.0402    0.1594 H   0  0  0  0  0  0  0  0  0  0  0  0
   -6.3547   -4.5102    1.1392 H   0  0  0  0  0  0  0  0  0  0  0  0
   -4.1049   -5.6980   -2.7733 H   0  0  0  0  0  0  0  0  0  0  0  0
   -0.6059   -3.4561   -3.9656 H   0  0  0  0  0  0  0  0  0  0  0  0
   -0.8120   -0.9981   -1.1202 H   0  0  0  0  0  0  0  0  0  0  0  0
    0.7392    0.9024   -0.9714 H   0  0  0  0  0  0  0  0  0  0  0  0
    2.8059   -0.4820   -4.4971 H   0  0  0  0  0  0  0  0  0  0  0  0
    1.2234   -2.3791   -4.6725 H   0  0  0  0  0  0  0  0  0  0  0  0
   -1.3744   -2.8696    1.9097 H   0  0  0  0  0  0  0  0  0  0  0  0
    0.1616   -1.0574    2.6168 H   0  0  0  0  0  0  0  0  0  0  0  0
    0.5201    4.7751    2.5840 H   0  0  0  0  0  0  0  0  0  0  0  0
    0.4177    2.5691    4.7334 H   0  0  0  0  0  0  0  0  0  0  0  0
    1.2297    4.1504    4.8293 H   0  0  0  0  0  0  0  0  0  0  0  0
    4.3864    3.2036    2.5042 H   0  0  0  0  0  0  0  0  0  0  0  0
    2.9151    4.1960    2.4508 H   0  0  0  0  0  0  0  0  0  0  0  0
    4.5450    1.6680    0.2065 H   0  0  0  0  0  0  0  0  0  0  0  0
    3.8317   -1.0695   -0.9660 H   0  0  0  0  0  0  0  0  0  0  0  0
    4.3135   -1.8138    0.5750 H   0  0  0  0  0  0  0  0  0  0  0  0
    5.2852   -0.4669   -0.1169 H   0  0  0  0  0  0  0  0  0  0  0  0
    0.8391    3.7291    0.1111 H   0  0  0  0  0  0  0  0  0  0  0  0
    2.4317    5.8290   -1.1987 H   0  0  0  0  0  0  0  0  0  0  0  0
    0.6627    5.5405   -1.2871 H   0  0  0  0  0  0  0  0  0  0  0  0
    1.7851    4.6381   -2.3492 H   0  0  0  0  0  0  0  0  0  0  0  0
  1  2  2  0  0  0  0
  2  3  1  0  0  0  0
  2 29  1  0  0  0  0
  3 43  1  0  0  0  0
  4 28  1  0  0  0  0
  4  3  1  0  0  0  0
  5  4  2  0  0  0  0
  6  7  2  0  0  0  0
  6  5  1  0  0  0  0
  7 27  1  0  0  0  0
  8  7  1  0  0  0  0
  8  9  1  0  0  0  0
  9 10  2  0  0  0  0
 11 46  1  0  0  0  0
 11  9  1  0  0  0  0
 12 11  2  0  0  0  0
 13  8  1  0  0  0  0
 14 13  1  0  0  0  0
 14 12  1  0  0  0  0
 15 14  2  0  0  0  0
 16 17  2  0  0  0  0
 16 15  1  0  0  0  0
 17 26  1  0  0  0  0
 18 19  1  0  0  0  0
 18 17  1  0  0  0  0
 19 20  1  0  0  0  0
 20 21  2  0  0  0  0
 20 49  1  0  0  0  0
 21 50  1  0  0  0  0
 22 23  1  0  0  0  0
 22 21  1  0  0  0  0
 24 22  2  0  0  0  0
 25 24  1  0  0  0  0
 25 19  2  0  0  0  0
 26 13  2  0  0  0  0
 27 53  1  0  0  0  0
 27 28  2  0  0  0  0
 28 54  1  0  0  0  0
 29 30  1  0  0  0  0
 30 56  1  0  0  0  0
 30 57  1  0  0  0  0
 31 30  1  0  0  0  0
 32 58  1  0  0  0  0
 32 31  1  0  0  0  0
 33 34  1  1  0  0  0
 33 32  1  0  0  0  0
 35 33  1  0  0  0  0
 36 35  1  0  0  0  0
 36 38  2  0  0  0  0
 37 62  1  0  0  0  0
 37 36  1  0  0  0  0
 39 33  1  0  0  0  0
 40 39  1  0  0  0  0
 40 64  1  0  0  0  0
 41 66  1  0  0  0  0
 41 65  1  0  0  0  0
 41 40  1  0  0  0  0
 42 39  2  0  0  0  0
 44  5  1  0  0  0  0
 45  6  1  0  0  0  0
 47 15  1  0  0  0  0
 48 18  1  0  0  0  0
 51 24  1  0  0  0  0
 52 25  1  0  0  0  0
 55 29  1  0  0  0  0
 59 32  1  0  0  0  0
 60 35  1  0  0  0  0
 61 37  1  0  0  0  0
 63 37  1  0  0  0  0
 67 41  1  0  0  0  0
M  END
