67
-1 1
O         0.120681   -2.247491    3.698247
C        -0.212530   -1.104400    3.426367
N         0.654333   -0.059011    3.499848
C         0.398207    1.275356    3.093767
C         0.835518    1.703572    1.843138
C         0.491561    2.973042    1.394780
N         0.850721    3.326729    0.052514
C         1.845360    4.288195   -0.158097
O         2.302249    4.957734    0.740063
C         2.262756    4.448244   -1.574158
N         1.791420    3.797297   -2.570589
C         0.361968    2.577607   -0.996936
C         0.836179    2.843297   -2.301444
C         0.293413    2.051503   -3.309125
N        -0.607797    1.106110   -3.084187
C        -0.982948    0.947236   -1.811267
N        -1.887784   -0.032671   -1.476993
C        -2.537331   -1.004033   -2.231952
C        -3.306318   -1.947104   -1.526959
C        -4.000146   -2.949705   -2.190284
C        -3.930537   -3.021884   -3.579010
Cl        -4.806336   -4.283341   -4.427671
C        -3.168998   -2.104838   -4.294858
C        -2.472638   -1.098834   -3.630336
N        -0.570629    1.667144   -0.768027
C        -0.229423    3.850740    2.198197
C        -0.618231    3.435133    3.470872
C        -0.313698    2.151075    3.917219
C        -1.645358   -0.884991    3.016292
C        -2.138119   -0.065603    2.083752
S         2.901667    0.505412   -0.923495
C         3.685304   -0.158363    0.590004
C         3.196349   -1.565236    1.002176
H         3.780342   -2.339830    0.473812
N         1.795526   -1.723738    0.649557
C         1.212641   -2.933789    0.505787
C        -0.202626   -2.896820   -0.024570
O         1.745978   -3.994966    0.820893
C         3.344137   -1.797619    2.519659
N         3.380240   -3.091408    2.888658
C         3.233879   -3.453435    4.278961
O         3.386223   -0.876001    3.334284
H         1.645034   -0.332826    3.587203
H         1.387302    1.042110    1.169568
H         3.039023    5.204874   -1.733902
H         0.630688    2.207642   -4.338544
H        -2.027453   -0.088316   -0.475152
H        -3.346617   -1.898956   -0.435586
H        -4.588156   -3.676890   -1.629001
H        -3.112485   -2.174379   -5.382211
H        -1.862994   -0.384584   -4.178729
H        -0.480444    4.845563    1.828397
H        -1.175961    4.117010    4.116415
H        -0.638767    1.806031    4.900506
H        -2.305934   -1.608813    3.504550
H        -1.528498    0.657867    1.534328
H        -3.205871   -0.101639    1.843183
H         3.507715    0.515556    1.441487
H         4.777180   -0.213564    0.467524
H         1.507305   -0.956903    0.013809
H        -0.396270   -3.801042   -0.614660
H        -0.394613   -2.002970   -0.632612
H        -0.884571   -2.891255    0.840114
H         3.025613   -3.738006    2.176425
H         2.198080   -3.289588    4.618629
H         3.902249   -2.834805    4.893082
H         3.501163   -4.511172    4.410272
