80
-1 1
O         2.023756    7.776567   -1.504137
C         1.527842    8.384722   -0.540185
N         1.042698    7.563193    0.485428
C         0.570793    7.791456    1.776931
C         1.114045    8.767061    2.622078
C         0.563717    8.973852    3.882213
N         1.060147   10.055085    4.692210
C         1.863946    9.768791    5.802635
O         2.153787    8.638812    6.126156
C         2.334017   10.962579    6.548372
N         2.058048   12.181388    6.255394
C         0.733893   11.360421    4.363644
C         1.258668   12.405398    5.160801
C         0.898570   13.697128    4.754744
N         0.145581   13.945098    3.705344
C        -0.288177   12.871828    3.005075
N        -1.020698   13.063222    1.887677
C        -1.199088   14.253222    1.142752
C        -1.160123   14.151215   -0.249229
C        -1.339927   15.268981   -1.053938
C        -1.560740   16.537829   -0.497098
N        -1.700466   17.697935   -1.285463
C        -1.491283   17.618521   -2.719917
C        -2.781752   17.274159   -3.459853
O        -3.798085   18.198040   -3.139571
C        -4.044018   18.252034   -1.755780
C        -2.779883   18.624759   -0.983199
C        -1.593037   16.626768    0.906549
C        -1.424684   15.508357    1.716337
N        -0.040468   11.589938    3.323626
C        -0.467849    8.177612    4.367965
C        -0.960220    7.160624    3.554834
C        -0.462358    6.979677    2.270343
C         1.392492    9.817322   -0.543477
C         0.567433   10.634285    0.209038
S        -1.808192   10.521662   -0.422809
C        -1.453315    9.432864   -1.812258
C        -0.880392   10.123976   -3.067446
H         0.031353   10.668672   -2.788996
N        -1.799420   11.077270   -3.630414
C        -1.632750   12.415638   -3.602062
C        -2.816144   13.219085   -4.109166
O        -0.634295   12.974605   -3.171858
C        -0.570961    9.057225   -4.124979
N         0.516758    8.298231   -3.883943
C         0.836363    7.163115   -4.710373
O        -1.313594    8.880541   -5.083212
H         0.984887    6.606171    0.157676
H         1.940604    9.387052    2.275550
H         2.969123   10.738776    7.412995
H         1.265427   14.548400    5.340178
H        -1.246860   12.203628    1.386571
H        -1.010268   13.180627   -0.730934
H        -1.282034   15.098981   -2.128959
H        -0.694238   16.900185   -2.951941
H        -1.149163   18.610059   -3.067454
H        -3.102596   16.246698   -3.198886
H        -2.636631   17.320713   -4.549276
H        -4.413991   17.271665   -1.390603
H        -4.836744   18.999282   -1.598852
H        -2.988279   18.638533    0.093942
H        -2.468537   19.644102   -1.274213
H        -1.724268   17.599200    1.385855
H        -1.435176   15.614380    2.799504
H        -0.874845    8.357545    5.363365
H        -1.769649    6.521709    3.913985
H        -0.892397    6.216777    1.617429
H         1.881541   10.251728   -1.419593
H         0.637893   11.705630    0.011656
H         0.228436   10.378093    1.207930
H        -2.371861    8.893036   -2.096277
H        -0.728728    8.668361   -1.492071
H        -2.585753   10.679813   -4.128147
H        -3.373580   13.580806   -3.231249
H        -3.502331   12.639955   -4.743138
H        -2.446555   14.091022   -4.664864
H         1.079104    8.408797   -3.032880
H         1.373533    7.453893   -5.629872
H        -0.081923    6.640015   -5.017243
H         1.473720    6.481497   -4.131594
