-1 1
 OpenBabel05232413483D

 80 83  0  0  1  0  0  0  0  0999 V2000
    3.1588   -3.6507   -1.9542 O   0  0  0  0  0  0  0  0  0  0  0  0
    2.6015   -3.2320   -0.9515 C   0  0  0  0  0  0  0  0  0  0  0  0
    1.9161   -4.1119   -0.1486 N   0  0  0  0  0  0  0  0  0  0  0  0
    1.2530   -3.9793    1.0904 C   0  0  0  0  0  0  0  0  0  0  0  0
    1.7377   -3.1683    2.1166 C   0  0  0  0  0  0  0  0  0  0  0  0
    1.0018   -3.0299    3.2884 C   0  0  0  0  0  0  0  0  0  0  0  0
    1.4067   -2.0199    4.2288 N   0  0  0  0  0  0  0  0  0  0  0  0
    2.1113   -2.3462    5.3886 C   0  0  0  0  0  0  0  0  0  0  0  0
    2.3861   -3.4870    5.6895 O   0  0  0  0  0  0  0  0  0  0  0  0
    2.5059   -1.1731    6.2121 C   0  0  0  0  0  0  0  0  0  0  0  0
    2.2608    0.0571    5.9322 N   0  0  0  0  0  0  0  0  0  0  0  0
    1.0972   -0.7033    3.9224 C   0  0  0  0  0  0  0  0  0  0  0  0
    1.5566    0.3197    4.7822 C   0  0  0  0  0  0  0  0  0  0  0  0
    1.2514    1.6214    4.3547 C   0  0  0  0  0  0  0  0  0  0  0  0
    0.5810    1.8896    3.2539 N   0  0  0  0  0  0  0  0  0  0  0  0
    0.1676    0.8256    2.5196 C   0  0  0  0  0  0  0  0  0  0  0  0
   -0.5188    1.0072    1.3785 N   0  0  0  0  0  0  0  0  0  0  0  0
   -0.6255    2.1681    0.5898 C   0  0  0  0  0  0  0  0  0  0  0  0
   -0.5518    1.9914   -0.7939 C   0  0  0  0  0  0  0  0  0  0  0  0
   -0.6576    3.0615   -1.6720 C   0  0  0  0  0  0  0  0  0  0  0  0
   -0.8462    4.3646   -1.1919 C   0  0  0  0  0  0  0  0  0  0  0  0
   -0.9445    5.4829   -2.0467 N   0  0  0  0  0  0  0  0  0  0  0  0
   -0.5668    5.3481   -3.4443 C   0  0  0  0  0  0  0  0  0  0  0  0
   -1.7321    4.9074   -4.3290 C   0  0  0  0  0  0  0  0  0  0  0  0
   -2.8402    5.7651   -4.1540 O   0  0  0  0  0  0  0  0  0  0  0  0
   -3.2498    5.8332   -2.8115 C   0  0  0  0  0  0  0  0  0  0  0  0
   -2.1184    6.3342   -1.9157 C   0  0  0  0  0  0  0  0  0  0  0  0
   -0.9068    4.5383    0.2026 C   0  0  0  0  0  0  0  0  0  0  0  0
   -0.8072    3.4653    1.0834 C   0  0  0  0  0  0  0  0  0  0  0  0
    0.4112   -0.4582    2.8325 N   0  0  0  0  0  0  0  0  0  0  0  0
   -0.1628   -3.7563    3.5011 C   0  0  0  0  0  0  0  0  0  0  0  0
   -0.6093   -4.6126    2.4995 C   0  0  0  0  0  0  0  0  0  0  0  0
    0.0765   -4.7068    1.2950 C   0  0  0  0  0  0  0  0  0  0  0  0
    2.6462   -1.7679   -0.6619 C   0  0  0  0  0  0  0  0  0  0  0  0
    1.6675   -1.0165   -0.1508 C   0  0  0  0  0  0  0  0  0  0  0  0
   -1.9534   -1.6514    0.0551 S   0  0  0  0  0  1  0  0  0  0  0  0
   -1.2344   -2.3481   -1.4692 C   0  0  0  0  0  0  0  0  0  0  0  0
   -0.9674   -1.3023   -2.5730 C   0  0  2  0  0  0  0  0  0  0  0  0
   -0.1367   -0.6454   -2.2529 H   0  0  0  0  0  0  0  0  0  0  0  0
   -2.1569   -0.5210   -2.7650 N   0  0  0  0  0  0  0  0  0  0  0  0
   -2.1753    0.6304   -3.4657 C   0  0  0  0  0  0  0  0  0  0  0  0
   -3.4503    1.4403   -3.3319 C   0  0  0  0  0  0  0  0  0  0  0  0
   -1.2271    1.0335   -4.1296 O   0  0  0  0  0  0  0  0  0  0  0  0
   -0.5209   -2.0246   -3.8470 C   0  0  0  0  0  0  0  0  0  0  0  0
    0.8176   -2.2754   -3.8668 N   0  0  0  0  0  0  0  0  0  0  0  0
    1.4515   -3.0877   -4.8708 C   0  0  0  0  0  0  0  0  0  0  0  0
   -1.2886   -2.4176   -4.7030 O   0  0  0  0  0  0  0  0  0  0  0  0
    1.8381   -5.0195   -0.5954 H   0  0  0  0  0  0  0  0  0  0  0  0
    2.6511   -2.5902    1.9859 H   0  0  0  0  0  0  0  0  0  0  0  0
    3.0634   -1.4237    7.1218 H   0  0  0  0  0  0  0  0  0  0  0  0
    1.5921    2.4642    4.9680 H   0  0  0  0  0  0  0  0  0  0  0  0
   -0.8510    0.1239    0.9228 H   0  0  0  0  0  0  0  0  0  0  0  0
   -0.4294    0.9839   -1.1906 H   0  0  0  0  0  0  0  0  0  0  0  0
   -0.6092    2.8360   -2.7376 H   0  0  0  0  0  0  0  0  0  0  0  0
    0.2813    4.6566   -3.5404 H   0  0  0  0  0  0  0  0  0  0  0  0
   -0.2238    6.3392   -3.7935 H   0  0  0  0  0  0  0  0  0  0  0  0
   -2.0102    3.8597   -4.1104 H   0  0  0  0  0  0  0  0  0  0  0  0
   -1.4517    4.9601   -5.3909 H   0  0  0  0  0  0  0  0  0  0  0  0
   -3.5782    4.8350   -2.4548 H   0  0  0  0  0  0  0  0  0  0  0  0
   -4.1146    6.5131   -2.7715 H   0  0  0  0  0  0  0  0  0  0  0  0
   -2.4496    6.3684   -0.8692 H   0  0  0  0  0  0  0  0  0  0  0  0
   -1.8521    7.3635   -2.2171 H   0  0  0  0  0  0  0  0  0  0  0  0
   -1.0148    5.5461    0.6110 H   0  0  0  0  0  0  0  0  0  0  0  0
   -0.8405    3.6318    2.1588 H   0  0  0  0  0  0  0  0  0  0  0  0
   -0.7280   -3.6201    4.4235 H   0  0  0  0  0  0  0  0  0  0  0  0
   -1.5374   -5.1700    2.6340 H   0  0  0  0  0  0  0  0  0  0  0  0
   -0.3234   -5.3185    0.4836 H   0  0  0  0  0  0  0  0  0  0  0  0
    3.5528   -1.3066   -1.0651 H   0  0  0  0  0  0  0  0  0  0  0  0
    1.7845    0.0704   -0.1067 H   0  0  0  0  0  0  0  0  0  0  0  0
    0.7160   -1.4142    0.2277 H   0  0  0  0  0  0  0  0  0  0  0  0
   -1.9172   -3.1053   -1.8896 H   0  0  0  0  0  0  0  0  0  0  0  0
   -0.2824   -2.8651   -1.2673 H   0  0  0  0  0  0  0  0  0  0  0  0
   -2.8381   -0.6550   -2.0135 H   0  0  0  0  0  0  0  0  0  0  0  0
   -3.2759    2.2272   -2.5807 H   0  0  0  0  0  0  0  0  0  0  0  0
   -4.3097    0.8363   -3.0108 H   0  0  0  0  0  0  0  0  0  0  0  0
   -3.6725    1.9226   -4.2926 H   0  0  0  0  0  0  0  0  0  0  0  0
    1.3918   -1.9118   -3.1170 H   0  0  0  0  0  0  0  0  0  0  0  0
    1.9908   -2.4797   -5.6179 H   0  0  0  0  0  0  0  0  0  0  0  0
    0.6705   -3.6544   -5.3950 H   0  0  0  0  0  0  0  0  0  0  0  0
    2.1644   -3.7776   -4.3965 H   0  0  0  0  0  0  0  0  0  0  0  0
  1  2  2  0  0  0  0
  2 34  1  0  0  0  0
  2  3  1  0  0  0  0
  3  4  1  0  0  0  0
  4 33  2  0  0  0  0
  4  5  1  0  0  0  0
  5  6  2  0  0  0  0
  6 31  1  0  0  0  0
  6  7  1  0  0  0  0
  7  8  1  0  0  0  0
  8  9  2  0  0  0  0
  8 10  1  0  0  0  0
 10 50  1  0  0  0  0
 11 10  2  0  0  0  0
 12  7  1  0  0  0  0
 12 13  1  0  0  0  0
 13 11  1  0  0  0  0
 14 13  2  0  0  0  0
 14 51  1  0  0  0  0
 15 14  1  0  0  0  0
 16 30  1  0  0  0  0
 16 15  2  0  0  0  0
 17 16  1  0  0  0  0
 18 29  1  0  0  0  0
 18 17  1  0  0  0  0
 19 18  2  0  0  0  0
 20 21  2  0  0  0  0
 20 19  1  0  0  0  0
 21 28  1  0  0  0  0
 22 27  1  0  0  0  0
 22 21  1  0  0  0  0
 23 22  1  0  0  0  0
 24 25  1  0  0  0  0
 24 57  1  0  0  0  0
 24 23  1  0  0  0  0
 25 26  1  0  0  0  0
 26 60  1  0  0  0  0
 26 59  1  0  0  0  0
 26 27  1  0  0  0  0
 27 61  1  0  0  0  0
 28 63  1  0  0  0  0
 28 29  2  0  0  0  0
 29 64  1  0  0  0  0
 30 12  2  0  0  0  0
 31 65  1  0  0  0  0
 32 66  1  0  0  0  0
 32 31  2  0  0  0  0
 33 32  1  0  0  0  0
 34 35  2  0  0  0  0
 35 69  1  0  0  0  0
 35 70  1  0  0  0  0
 37 72  1  0  0  0  0
 37 36  1  0  0  0  0
 38 39  1  1  0  0  0
 38 37  1  0  0  0  0
 40 38  1  0  0  0  0
 40 73  1  0  0  0  0
 41 42  1  0  0  0  0
 41 40  1  0  0  0  0
 42 75  1  0  0  0  0
 42 74  1  0  0  0  0
 43 41  2  0  0  0  0
 44 38  1  0  0  0  0
 45 44  1  0  0  0  0
 45 77  1  0  0  0  0
 46 80  1  0  0  0  0
 46 45  1  0  0  0  0
 47 44  2  0  0  0  0
 48  3  1  0  0  0  0
 49  5  1  0  0  0  0
 52 17  1  0  0  0  0
 53 19  1  0  0  0  0
 54 20  1  0  0  0  0
 55 23  1  0  0  0  0
 56 23  1  0  0  0  0
 58 24  1  0  0  0  0
 62 27  1  0  0  0  0
 67 33  1  0  0  0  0
 68 34  1  0  0  0  0
 71 37  1  0  0  0  0
 76 42  1  0  0  0  0
 78 46  1  0  0  0  0
 79 46  1  0  0  0  0
M  END
