80
-1 1
O         3.158822   -3.650722   -1.954192
C         2.601460   -3.232033   -0.951503
N         1.916123   -4.111890   -0.148600
C         1.253012   -3.979332    1.090447
C         1.737701   -3.168338    2.116650
C         1.001766   -3.029920    3.288369
N         1.406660   -2.019949    4.228771
C         2.111336   -2.346171    5.388623
O         2.386075   -3.486975    5.689496
C         2.505923   -1.173067    6.212079
N         2.260846    0.057078    5.932202
C         1.097231   -0.703262    3.922366
C         1.556633    0.319738    4.782239
C         1.251374    1.621412    4.354679
N         0.581038    1.889624    3.253926
C         0.167576    0.825590    2.519565
N        -0.518810    1.007167    1.378545
C        -0.625505    2.168062    0.589817
C        -0.551803    1.991380   -0.793864
C        -0.657590    3.061461   -1.672004
C        -0.846196    4.364638   -1.191873
N        -0.944533    5.482945   -2.046720
C        -0.566753    5.348089   -3.444285
C        -1.732139    4.907362   -4.328995
O        -2.840162    5.765148   -4.154006
C        -3.249761    5.833229   -2.811500
C        -2.118360    6.334235   -1.915710
C        -0.906831    4.538293    0.202574
C        -0.807183    3.465259    1.083406
N         0.411168   -0.458170    2.832536
C        -0.162813   -3.756331    3.501093
C        -0.609283   -4.612633    2.499482
C         0.076457   -4.706767    1.294950
C         2.646150   -1.767912   -0.661861
C         1.667480   -1.016537   -0.150826
S        -1.953411   -1.651413    0.055100
C        -1.234448   -2.348119   -1.469242
C        -0.967377   -1.302349   -2.573019
H        -0.136674   -0.645381   -2.252943
N        -2.156913   -0.521033   -2.765035
C        -2.175259    0.630379   -3.465748
C        -3.450323    1.440292   -3.331854
O        -1.227119    1.033457   -4.129571
C        -0.520935   -2.024550   -3.846979
N         0.817563   -2.275427   -3.866750
C         1.451480   -3.087659   -4.870805
O        -1.288613   -2.417595   -4.703043
H         1.838113   -5.019499   -0.595393
H         2.651140   -2.590194    1.985900
H         3.063447   -1.423680    7.121801
H         1.592114    2.464214    4.967975
H        -0.851002    0.123874    0.922768
H        -0.429385    0.983934   -1.190579
H        -0.609166    2.836011   -2.737574
H         0.281297    4.656582   -3.540407
H        -0.223821    6.339152   -3.793489
H        -2.010200    3.859654   -4.110372
H        -1.451656    4.960065   -5.390878
H        -3.578235    4.835033   -2.454778
H        -4.114568    6.513081   -2.771472
H        -2.449598    6.368438   -0.869235
H        -1.852102    7.363463   -2.217105
H        -1.014763    5.546054    0.610951
H        -0.840549    3.631848    2.158784
H        -0.727992   -3.620076    4.423474
H        -1.537353   -5.169984    2.634013
H        -0.323403   -5.318493    0.483647
H         3.552827   -1.306556   -1.065136
H         1.784523    0.070407   -0.106688
H         0.716040   -1.414211    0.227692
H        -1.917232   -3.105338   -1.889586
H        -0.282442   -2.865080   -1.267349
H        -2.838088   -0.655048   -2.013521
H        -3.275943    2.227239   -2.580680
H        -4.309701    0.836279   -3.010833
H        -3.672485    1.922555   -4.292605
H         1.391789   -1.911832   -3.116969
H         1.990764   -2.479723   -5.617920
H         0.670481   -3.654425   -5.395047
H         2.164443   -3.777572   -4.396459
