-1 1
 OpenBabel05232413483D

 84 87  0  0  1  0  0  0  0  0999 V2000
    4.5030    1.4399   -4.4314 O   0  0  0  0  0  0  0  0  0  0  0  0
    4.5852    1.7120   -3.2460 C   0  0  0  0  0  0  0  0  0  0  0  0
    5.2765    0.8684   -2.3897 N   0  0  0  0  0  0  0  0  0  0  0  0
    4.9068    0.5423   -1.0514 C   0  0  0  0  0  0  0  0  0  0  0  0
    5.0765    1.4251    0.0141 C   0  0  0  0  0  0  0  0  0  0  0  0
    4.5936    1.1001    1.2764 C   0  0  0  0  0  0  0  0  0  0  0  0
    3.9940   -0.1353    1.4976 C   0  0  0  0  0  0  0  0  0  0  0  0
    3.4420   -0.4304    2.7904 N   0  0  0  0  0  0  0  0  0  0  0  0
    4.2763   -0.4139    3.9153 C   0  0  0  0  0  0  0  0  0  0  0  0
    5.4732   -0.2398    3.8410 O   0  0  0  0  0  0  0  0  0  0  0  0
    3.5809   -0.6211    5.2091 C   0  0  0  0  0  0  0  0  0  0  0  0
    2.3185   -0.7979    5.3595 N   0  0  0  0  0  0  0  0  0  0  0  0
    2.0775   -0.6527    2.9248 C   0  0  0  0  0  0  0  0  0  0  0  0
    1.5446   -0.8176    4.2255 C   0  0  0  0  0  0  0  0  0  0  0  0
    0.1560   -0.9956    4.2752 C   0  0  0  0  0  0  0  0  0  0  0  0
   -0.6138   -1.0338    3.2085 N   0  0  0  0  0  0  0  0  0  0  0  0
    0.0058   -0.9018    2.0114 C   0  0  0  0  0  0  0  0  0  0  0  0
   -0.6900   -0.9779    0.8631 N   0  0  0  0  0  0  0  0  0  0  0  0
   -2.0630   -1.1037    0.6212 C   0  0  0  0  0  0  0  0  0  0  0  0
   -2.4386   -1.3802   -0.7057 C   0  0  0  0  0  0  0  0  0  0  0  0
   -3.7715   -1.4465   -1.0695 C   0  0  0  0  0  0  0  0  0  0  0  0
   -4.7965   -1.2660   -0.1250 C   0  0  0  0  0  0  0  0  0  0  0  0
   -6.1472   -1.3068   -0.5400 N   0  0  0  0  0  0  0  0  0  0  0  0
   -7.1501   -0.8058    0.3756 C   0  0  0  0  0  0  0  0  0  0  0  0
   -8.4718   -0.5859   -0.3653 C   0  0  0  0  0  0  0  0  0  0  0  0
   -8.9494   -1.7622   -1.0710 N   0  0  0  0  0  0  0  0  0  0  0  0
   -7.9066   -2.2642   -1.9498 C   0  0  0  0  0  0  0  0  0  0  0  0
   -6.5778   -2.5103   -1.2357 C   0  0  0  0  0  0  0  0  0  0  0  0
   -9.5579   -2.7647   -0.2265 C   0  0  0  0  0  0  0  0  0  0  0  0
   -4.4152   -1.0145    1.1979 C   0  0  0  0  0  0  0  0  0  0  0  0
   -3.0721   -0.9228    1.5704 C   0  0  0  0  0  0  0  0  0  0  0  0
    1.3270   -0.7111    1.8505 N   0  0  0  0  0  0  0  0  0  0  0  0
    3.8874   -1.0556    0.4574 C   0  0  0  0  0  0  0  0  0  0  0  0
    4.3297   -0.7099   -0.8120 C   0  0  0  0  0  0  0  0  0  0  0  0
    3.9660    2.9541   -2.7028 C   0  0  0  0  0  0  0  0  0  0  0  0
    4.6075    3.9047   -2.0258 C   0  0  0  0  0  0  0  0  0  0  0  0
    1.3383    3.4816    0.2895 S   0  0  0  0  0  1  0  0  0  0  0  0
    1.6562    1.8800   -0.5035 C   0  0  0  0  0  0  0  0  0  0  0  0
    0.6602    1.5339   -1.6279 C   0  0  2  0  0  0  0  0  0  0  0  0
    0.7854    2.2650   -2.4505 H   0  0  0  0  0  0  0  0  0  0  0  0
   -0.6785    1.6168   -1.1121 N   0  0  0  0  0  0  0  0  0  0  0  0
   -1.7581    1.4530   -1.9131 C   0  0  0  0  0  0  0  0  0  0  0  0
   -3.0751    1.8892   -1.3016 C   0  0  0  0  0  0  0  0  0  0  0  0
   -1.6730    0.9904   -3.0420 O   0  0  0  0  0  0  0  0  0  0  0  0
    0.9851    0.1478   -2.1641 C   0  0  0  0  0  0  0  0  0  0  0  0
    1.7632    0.1393   -3.2702 N   0  0  0  0  0  0  0  0  0  0  0  0
    2.2406   -1.0697   -3.8873 C   0  0  0  0  0  0  0  0  0  0  0  0
    0.6766   -0.8943   -1.5898 O   0  0  0  0  0  0  0  0  0  0  0  0
    5.6029    0.0659   -2.9211 H   0  0  0  0  0  0  0  0  0  0  0  0
    5.5406    2.3946   -0.1454 H   0  0  0  0  0  0  0  0  0  0  0  0
    4.6704    1.8226    2.0880 H   0  0  0  0  0  0  0  0  0  0  0  0
    4.2389   -0.6033    6.0852 H   0  0  0  0  0  0  0  0  0  0  0  0
   -0.3175   -1.1089    5.2575 H   0  0  0  0  0  0  0  0  0  0  0  0
   -0.1103   -0.8837    0.0097 H   0  0  0  0  0  0  0  0  0  0  0  0
   -1.6609   -1.4824   -1.4650 H   0  0  0  0  0  0  0  0  0  0  0  0
   -4.0198   -1.5935   -2.1224 H   0  0  0  0  0  0  0  0  0  0  0  0
   -6.8088    0.1541    0.7909 H   0  0  0  0  0  0  0  0  0  0  0  0
   -7.3091   -1.4933    1.2378 H   0  0  0  0  0  0  0  0  0  0  0  0
   -8.3193    0.2201   -1.1036 H   0  0  0  0  0  0  0  0  0  0  0  0
   -9.2454   -0.2458    0.3415 H   0  0  0  0  0  0  0  0  0  0  0  0
   -7.7366   -1.5175   -2.7447 H   0  0  0  0  0  0  0  0  0  0  0  0
   -8.2526   -3.1916   -2.4335 H   0  0  0  0  0  0  0  0  0  0  0  0
   -5.8194   -2.8030   -1.9736 H   0  0  0  0  0  0  0  0  0  0  0  0
   -6.6755   -3.3623   -0.5256 H   0  0  0  0  0  0  0  0  0  0  0  0
  -10.3926   -2.3159    0.3350 H   0  0  0  0  0  0  0  0  0  0  0  0
   -8.8787   -3.2389    0.5136 H   0  0  0  0  0  0  0  0  0  0  0  0
   -9.9747   -3.5700   -0.8521 H   0  0  0  0  0  0  0  0  0  0  0  0
   -5.1694   -0.8782    1.9740 H   0  0  0  0  0  0  0  0  0  0  0  0
   -2.8022   -0.7200    2.6041 H   0  0  0  0  0  0  0  0  0  0  0  0
    3.4028   -2.0169    0.6242 H   0  0  0  0  0  0  0  0  0  0  0  0
    4.1850   -1.4035   -1.6428 H   0  0  0  0  0  0  0  0  0  0  0  0
    2.9188    3.1091   -2.9783 H   0  0  0  0  0  0  0  0  0  0  0  0
    4.0771    4.8026   -1.7019 H   0  0  0  0  0  0  0  0  0  0  0  0
    5.6668    3.8134   -1.7698 H   0  0  0  0  0  0  0  0  0  0  0  0
    1.6262    1.0589    0.2297 H   0  0  0  0  0  0  0  0  0  0  0  0
    2.6572    1.8600   -0.9547 H   0  0  0  0  0  0  0  0  0  0  0  0
   -0.7285    2.2279   -0.2902 H   0  0  0  0  0  0  0  0  0  0  0  0
   -3.1104    2.9891   -1.2546 H   0  0  0  0  0  0  0  0  0  0  0  0
   -3.1852    1.4994   -0.2790 H   0  0  0  0  0  0  0  0  0  0  0  0
   -3.8993    1.5225   -1.9241 H   0  0  0  0  0  0  0  0  0  0  0  0
    1.8966    1.0085   -3.7695 H   0  0  0  0  0  0  0  0  0  0  0  0
    1.5551   -1.4333   -4.6717 H   0  0  0  0  0  0  0  0  0  0  0  0
    2.3138   -1.8496   -3.1178 H   0  0  0  0  0  0  0  0  0  0  0  0
    3.2269   -0.8827   -4.3364 H   0  0  0  0  0  0  0  0  0  0  0  0
  1  2  2  0  0  0  0
  2 35  1  0  0  0  0
  2  3  1  0  0  0  0
  3  4  1  0  0  0  0
  4 34  2  0  0  0  0
  4  5  1  0  0  0  0
  5  6  2  0  0  0  0
  6  7  1  0  0  0  0
  6 51  1  0  0  0  0
  7  8  1  0  0  0  0
  8 13  1  0  0  0  0
  8  9  1  0  0  0  0
  9 11  1  0  0  0  0
 10  9  2  0  0  0  0
 11 12  2  0  0  0  0
 11 52  1  0  0  0  0
 13 14  1  0  0  0  0
 14 15  2  0  0  0  0
 14 12  1  0  0  0  0
 15 53  1  0  0  0  0
 16 15  1  0  0  0  0
 17 16  2  0  0  0  0
 18 17  1  0  0  0  0
 19 18  1  0  0  0  0
 19 31  1  0  0  0  0
 20 19  2  0  0  0  0
 21 20  1  0  0  0  0
 21 22  2  0  0  0  0
 22 30  1  0  0  0  0
 23 22  1  0  0  0  0
 23 24  1  0  0  0  0
 24 57  1  0  0  0  0
 24 58  1  0  0  0  0
 25 60  1  0  0  0  0
 25 24  1  0  0  0  0
 26 25  1  0  0  0  0
 26 29  1  0  0  0  0
 27 28  1  0  0  0  0
 27 26  1  0  0  0  0
 28 23  1  0  0  0  0
 28 64  1  0  0  0  0
 29 65  1  0  0  0  0
 29 66  1  0  0  0  0
 30 31  2  0  0  0  0
 30 68  1  0  0  0  0
 31 69  1  0  0  0  0
 32 17  1  0  0  0  0
 32 13  2  0  0  0  0
 33 70  1  0  0  0  0
 33  7  2  0  0  0  0
 34 33  1  0  0  0  0
 35 36  2  0  0  0  0
 36 74  1  0  0  0  0
 36 73  1  0  0  0  0
 38 75  1  0  0  0  0
 38 37  1  0  0  0  0
 39 40  1  6  0  0  0
 39 41  1  0  0  0  0
 39 38  1  0  0  0  0
 41 77  1  0  0  0  0
 42 43  1  0  0  0  0
 42 41  1  0  0  0  0
 43 78  1  0  0  0  0
 43 79  1  0  0  0  0
 44 42  2  0  0  0  0
 45 39  1  0  0  0  0
 45 48  2  0  0  0  0
 46 45  1  0  0  0  0
 47 46  1  0  0  0  0
 47 83  1  0  0  0  0
 49  3  1  0  0  0  0
 50  5  1  0  0  0  0
 54 18  1  0  0  0  0
 55 20  1  0  0  0  0
 56 21  1  0  0  0  0
 59 25  1  0  0  0  0
 61 27  1  0  0  0  0
 62 27  1  0  0  0  0
 63 28  1  0  0  0  0
 67 29  1  0  0  0  0
 71 34  1  0  0  0  0
 72 35  1  0  0  0  0
 76 38  1  0  0  0  0
 80 43  1  0  0  0  0
 81 46  1  0  0  0  0
 82 47  1  0  0  0  0
 84 47  1  0  0  0  0
M  END
