-1 1
 OpenBabel05232414493D

 84 87  0  0  1  0  0  0  0  0999 V2000
    7.4137   -3.4090    8.3604 O   0  0  0  0  0  0  0  0  0  0  0  0
    7.4154   -2.7353    9.3965 C   0  0  0  0  0  0  0  0  0  0  0  0
    8.3735   -3.1039   10.3973 N   0  0  0  0  0  0  0  0  0  0  0  0
    7.9216   -3.5997   11.6584 C   0  0  0  0  0  0  0  0  0  0  0  0
    7.8887   -2.7877   12.7905 C   0  0  0  0  0  0  0  0  0  0  0  0
    7.3612   -3.2644   13.9856 C   0  0  0  0  0  0  0  0  0  0  0  0
    6.9011   -4.5736   14.0701 C   0  0  0  0  0  0  0  0  0  0  0  0
    6.3357   -5.0351   15.3104 N   0  0  0  0  0  0  0  0  0  0  0  0
    7.1687   -5.1303   16.4339 C   0  0  0  0  0  0  0  0  0  0  0  0
    8.3599   -4.9180   16.3862 O   0  0  0  0  0  0  0  0  0  0  0  0
    6.4775   -5.4975   17.6937 C   0  0  0  0  0  0  0  0  0  0  0  0
    5.2188   -5.7139   17.8172 N   0  0  0  0  0  0  0  0  0  0  0  0
    4.9803   -5.3108   15.4076 C   0  0  0  0  0  0  0  0  0  0  0  0
    4.4494   -5.6262   16.6829 C   0  0  0  0  0  0  0  0  0  0  0  0
    3.0634   -5.8194   16.7162 C   0  0  0  0  0  0  0  0  0  0  0  0
    2.2940   -5.7596   15.6511 N   0  0  0  0  0  0  0  0  0  0  0  0
    2.9123   -5.5156   14.4705 C   0  0  0  0  0  0  0  0  0  0  0  0
    2.2051   -5.5219   13.3260 N   0  0  0  0  0  0  0  0  0  0  0  0
    0.8261   -5.6472   13.1045 C   0  0  0  0  0  0  0  0  0  0  0  0
    0.4266   -5.9441   11.7891 C   0  0  0  0  0  0  0  0  0  0  0  0
   -0.9130   -5.9959   11.4467 C   0  0  0  0  0  0  0  0  0  0  0  0
   -1.9218   -5.7797   12.4012 C   0  0  0  0  0  0  0  0  0  0  0  0
   -3.2785   -5.8094   12.0085 N   0  0  0  0  0  0  0  0  0  0  0  0
   -4.2616   -5.2892   12.9350 C   0  0  0  0  0  0  0  0  0  0  0  0
   -5.5930   -5.0620   12.2138 C   0  0  0  0  0  0  0  0  0  0  0  0
   -6.0943   -6.2387   11.5262 N   0  0  0  0  0  0  0  0  0  0  0  0
   -5.0715   -6.7580   10.6341 C   0  0  0  0  0  0  0  0  0  0  0  0
   -3.7338   -7.0132   11.3280 C   0  0  0  0  0  0  0  0  0  0  0  0
   -6.6991   -7.2281   12.3886 C   0  0  0  0  0  0  0  0  0  0  0  0
   -1.5166   -5.5071   13.7133 C   0  0  0  0  0  0  0  0  0  0  0  0
   -0.1666   -5.4300   14.0634 C   0  0  0  0  0  0  0  0  0  0  0  0
    4.2283   -5.2684   14.3289 N   0  0  0  0  0  0  0  0  0  0  0  0
    6.9787   -5.4184   12.9646 C   0  0  0  0  0  0  0  0  0  0  0  0
    7.4822   -4.9285   11.7671 C   0  0  0  0  0  0  0  0  0  0  0  0
    6.5435   -1.6043    9.5635 C   0  0  0  0  0  3  0  0  0  0  0  0
    6.5108   -0.6440   10.5553 C   0  0  0  0  0  3  0  0  0  0  0  0
    4.7358   -1.0676   12.2385 S   0  0  0  0  0  1  0  0  0  0  0  0
    4.6484   -2.8014   11.7664 C   0  0  0  0  0  0  0  0  0  0  0  0
    3.6004   -3.1525   10.7026 C   0  0  2  0  0  0  0  0  0  0  0  0
    3.7379   -2.4831    9.8365 H   0  0  0  0  0  0  0  0  0  0  0  0
    2.2729   -2.9986   11.2396 N   0  0  0  0  0  0  0  0  0  0  0  0
    1.1618   -3.1393   10.4714 C   0  0  0  0  0  0  0  0  0  0  0  0
   -0.1275   -2.6803   11.1265 C   0  0  0  0  0  0  0  0  0  0  0  0
    1.2047   -3.5930    9.3407 O   0  0  0  0  0  0  0  0  0  0  0  0
    3.8841   -4.5842   10.2527 C   0  0  0  0  0  0  0  0  0  0  0  0
    4.7577   -4.6951    9.2385 N   0  0  0  0  0  0  0  0  0  0  0  0
    5.3243   -5.9551    8.8303 C   0  0  0  0  0  0  0  0  0  0  0  0
    3.4447   -5.5725   10.8420 O   0  0  0  0  0  0  0  0  0  0  0  0
    8.9404   -3.8145    9.9407 H   0  0  0  0  0  0  0  0  0  0  0  0
    8.2504   -1.7628   12.7257 H   0  0  0  0  0  0  0  0  0  0  0  0
    7.2968   -2.6083   14.8537 H   0  0  0  0  0  0  0  0  0  0  0  0
    7.1327   -5.5634   18.5696 H   0  0  0  0  0  0  0  0  0  0  0  0
    2.5919   -6.0300   17.6834 H   0  0  0  0  0  0  0  0  0  0  0  0
    2.7675   -5.4400   12.4582 H   0  0  0  0  0  0  0  0  0  0  0  0
    1.1923   -6.0772   11.0227 H   0  0  0  0  0  0  0  0  0  0  0  0
   -1.1780   -6.1639   10.4011 H   0  0  0  0  0  0  0  0  0  0  0  0
   -3.9043   -4.3286   13.3353 H   0  0  0  0  0  0  0  0  0  0  0  0
   -4.4131   -5.9665   13.8063 H   0  0  0  0  0  0  0  0  0  0  0  0
   -5.4446   -4.2636   11.4663 H   0  0  0  0  0  0  0  0  0  0  0  0
   -6.3511   -4.7078   12.9305 H   0  0  0  0  0  0  0  0  0  0  0  0
   -4.9071   -6.0193    9.8306 H   0  0  0  0  0  0  0  0  0  0  0  0
   -5.4347   -7.6854   10.1633 H   0  0  0  0  0  0  0  0  0  0  0  0
   -2.9915   -7.3196   10.5799 H   0  0  0  0  0  0  0  0  0  0  0  0
   -3.8288   -7.8584   12.0462 H   0  0  0  0  0  0  0  0  0  0  0  0
   -7.5200   -6.7664   12.9598 H   0  0  0  0  0  0  0  0  0  0  0  0
   -6.0126   -7.7034   13.1214 H   0  0  0  0  0  0  0  0  0  0  0  0
   -7.1340   -8.0340   11.7765 H   0  0  0  0  0  0  0  0  0  0  0  0
   -2.2565   -5.3456   14.4982 H   0  0  0  0  0  0  0  0  0  0  0  0
    0.1182   -5.2169   15.0910 H   0  0  0  0  0  0  0  0  0  0  0  0
    6.6048   -6.4407   13.0324 H   0  0  0  0  0  0  0  0  0  0  0  0
    7.4991   -5.5665   10.8807 H   0  0  0  0  0  0  0  0  0  0  0  0
    5.8507   -1.4970    8.7231 H   0  0  0  0  0  0  0  0  0  0  0  0
    6.0067    0.2981   10.3484 H   0  0  0  0  0  0  0  0  0  0  0  0
    7.3006   -0.5934   11.3036 H   0  0  0  0  0  0  0  0  0  0  0  0
    4.5088   -3.4552   12.6415 H   0  0  0  0  0  0  0  0  0  0  0  0
    5.6136   -3.0756   11.3226 H   0  0  0  0  0  0  0  0  0  0  0  0
    2.2163   -2.4663   12.1011 H   0  0  0  0  0  0  0  0  0  0  0  0
   -0.1564   -1.5794   11.1498 H   0  0  0  0  0  0  0  0  0  0  0  0
   -0.2083   -3.0523   12.1587 H   0  0  0  0  0  0  0  0  0  0  0  0
   -0.9757   -3.0525   10.5408 H   0  0  0  0  0  0  0  0  0  0  0  0
    5.1637   -3.8581    8.8326 H   0  0  0  0  0  0  0  0  0  0  0  0
    4.7180   -6.4475    8.0517 H   0  0  0  0  0  0  0  0  0  0  0  0
    5.3764   -6.6321    9.6951 H   0  0  0  0  0  0  0  0  0  0  0  0
    6.3318   -5.7635    8.4370 H   0  0  0  0  0  0  0  0  0  0  0  0
  1  2  2  0  0  0  0
  2 35  1  0  0  0  0
  2  3  1  0  0  0  0
  3  4  1  0  0  0  0
  4 34  2  0  0  0  0
  4  5  1  0  0  0  0
  5  6  2  0  0  0  0
  6  7  1  0  0  0  0
  6 51  1  0  0  0  0
  7  8  1  0  0  0  0
  8 13  1  0  0  0  0
  8  9  1  0  0  0  0
  9 11  1  0  0  0  0
 10  9  2  0  0  0  0
 11 12  2  0  0  0  0
 11 52  1  0  0  0  0
 13 14  1  0  0  0  0
 14 15  2  0  0  0  0
 14 12  1  0  0  0  0
 15 53  1  0  0  0  0
 16 15  1  0  0  0  0
 17 16  2  0  0  0  0
 18 17  1  0  0  0  0
 19 18  1  0  0  0  0
 19 31  1  0  0  0  0
 20 19  2  0  0  0  0
 21 20  1  0  0  0  0
 21 22  2  0  0  0  0
 22 30  1  0  0  0  0
 23 22  1  0  0  0  0
 23 24  1  0  0  0  0
 24 57  1  0  0  0  0
 24 58  1  0  0  0  0
 25 60  1  0  0  0  0
 25 24  1  0  0  0  0
 26 25  1  0  0  0  0
 26 29  1  0  0  0  0
 27 28  1  0  0  0  0
 27 26  1  0  0  0  0
 28 23  1  0  0  0  0
 28 64  1  0  0  0  0
 29 65  1  0  0  0  0
 29 66  1  0  0  0  0
 30 31  2  0  0  0  0
 30 68  1  0  0  0  0
 31 69  1  0  0  0  0
 32 17  1  0  0  0  0
 32 13  2  0  0  0  0
 33 70  1  0  0  0  0
 33  7  2  0  0  0  0
 34 33  1  0  0  0  0
 35 36  1  0  0  0  0
 36 74  1  0  0  0  0
 38 37  1  0  0  0  0
 38 75  1  0  0  0  0
 39 40  1  6  0  0  0
 39 41  1  0  0  0  0
 39 38  1  0  0  0  0
 41 77  1  0  0  0  0
 42 43  1  0  0  0  0
 42 41  1  0  0  0  0
 43 78  1  0  0  0  0
 43 79  1  0  0  0  0
 44 42  2  0  0  0  0
 45 39  1  0  0  0  0
 45 48  2  0  0  0  0
 46 45  1  0  0  0  0
 47 46  1  0  0  0  0
 47 83  1  0  0  0  0
 49  3  1  0  0  0  0
 50  5  1  0  0  0  0
 54 18  1  0  0  0  0
 55 20  1  0  0  0  0
 56 21  1  0  0  0  0
 59 25  1  0  0  0  0
 61 27  1  0  0  0  0
 62 27  1  0  0  0  0
 63 28  1  0  0  0  0
 67 29  1  0  0  0  0
 71 34  1  0  0  0  0
 72 35  1  0  0  0  0
 73 36  1  0  0  0  0
 76 38  1  0  0  0  0
 80 43  1  0  0  0  0
 81 46  1  0  0  0  0
 82 47  1  0  0  0  0
 84 47  1  0  0  0  0
M  END
