84
-1 1
O         7.413745   -3.409036    8.360443
C         7.415354   -2.735310    9.396498
N         8.373470   -3.103912   10.397319
C         7.921646   -3.599701   11.658379
C         7.888697   -2.787677   12.790487
C         7.361174   -3.264444   13.985615
C         6.901062   -4.573619   14.070148
N         6.335682   -5.035059   15.310379
C         7.168696   -5.130332   16.433948
O         8.359882   -4.918004   16.386191
C         6.477469   -5.497509   17.693665
N         5.218780   -5.713902   17.817231
C         4.980271   -5.310810   15.407626
C         4.449443   -5.626241   16.682855
C         3.063370   -5.819417   16.716213
N         2.294048   -5.759597   15.651133
C         2.912345   -5.515573   14.470485
N         2.205057   -5.521889   13.326021
C         0.826066   -5.647199   13.104474
C         0.426572   -5.944088   11.789054
C        -0.913019   -5.995893   11.446718
C        -1.921793   -5.779666   12.401233
N        -3.278544   -5.809370   12.008463
C        -4.261629   -5.289166   12.934975
C        -5.593030   -5.061989   12.213757
N        -6.094273   -6.238709   11.526167
C        -5.071545   -6.757979   10.634101
C        -3.733822   -7.013159   11.328037
C        -6.699061   -7.228122   12.388624
C        -1.516637   -5.507052   13.713252
C        -0.166649   -5.430026   14.063352
N         4.228255   -5.268444   14.328866
C         6.978664   -5.418450   12.964605
C         7.482248   -4.928457   11.767071
C         6.543474   -1.604276    9.563503
C         6.510793   -0.644003   10.555272
S         4.735822   -1.067626   12.238483
C         4.648385   -2.801433   11.766418
C         3.600446   -3.152523   10.702603
H         3.737885   -2.483138    9.836516
N         2.272943   -2.998592   11.239600
C         1.161766   -3.139308   10.471378
C        -0.127486   -2.680267   11.126475
O         1.204749   -3.592970    9.340746
C         3.884123   -4.584166   10.252681
N         4.757666   -4.695076    9.238522
C         5.324317   -5.955115    8.830330
O         3.444718   -5.572485   10.842036
H         8.940351   -3.814539    9.940701
H         8.250435   -1.762795   12.725726
H         7.296845   -2.608300   14.853727
H         7.132712   -5.563443   18.569594
H         2.591931   -6.030030   17.683403
H         2.767531   -5.440033   12.458156
H         1.192307   -6.077240   11.022684
H        -1.178042   -6.163927   10.401075
H        -3.904260   -4.328649   13.335250
H        -4.413053   -5.966547   13.806291
H        -5.444612   -4.263649   11.466309
H        -6.351062   -4.707848   12.930475
H        -4.907079   -6.019290    9.830619
H        -5.434749   -7.685377   10.163310
H        -2.991456   -7.319649   10.579868
H        -3.828758   -7.858397   12.046177
H        -7.519985   -6.766366   12.959789
H        -6.012639   -7.703391   13.121429
H        -7.134041   -8.034021   11.776487
H        -2.256498   -5.345558   14.498181
H         0.118177   -5.216861   15.090998
H         6.604850   -6.440721   13.032420
H         7.499093   -5.566523   10.880674
H         5.850691   -1.496952    8.723083
H         6.006706    0.298109   10.348367
H         7.300611   -0.593366   11.303605
H         4.508829   -3.455246   12.641529
H         5.613550   -3.075598   11.322619
H         2.216328   -2.466334   12.101146
H        -0.156392   -1.579376   11.149759
H        -0.208263   -3.052289   12.158739
H        -0.975659   -3.052524   10.540809
H         5.163736   -3.858138    8.832601
H         4.718030   -6.447475    8.051695
H         5.376414   -6.632080    9.695143
H         6.331784   -5.763514    8.436959
