-1 1
 OpenBabel05192410563D

 84 88  0  0  1  0  0  0  0  0999 V2000
    4.3701    1.0794   -3.8680 O   0  0  0  0  0  0  0  0  0  0  0  0
    4.3700    1.9717   -2.9741 C   0  0  0  0  0  0  0  0  0  0  0  0
    5.4457    1.8459   -1.9707 N   0  0  0  0  0  0  0  0  0  0  0  0
    5.0386    1.1839   -0.7760 C   0  0  0  0  0  0  0  0  0  0  0  0
    4.9153    1.9028    0.4167 C   0  0  0  0  0  0  0  0  0  0  0  0
    4.3981    1.3044    1.5593 C   0  0  0  0  0  0  0  0  0  0  0  0
    4.0222   -0.0353    1.5324 C   0  0  0  0  0  0  0  0  0  0  0  0
    3.4614   -0.6169    2.7250 N   0  0  0  0  0  0  0  0  0  0  0  0
    4.3071   -0.8415    3.8203 C   0  0  0  0  0  0  0  0  0  0  0  0
    5.5023   -0.6565    3.7733 O   0  0  0  0  0  0  0  0  0  0  0  0
    3.6222   -1.3034    5.0530 C   0  0  0  0  0  0  0  0  0  0  0  0
    2.3587   -1.4864    5.1789 N   0  0  0  0  0  0  0  0  0  0  0  0
    2.1016   -0.8622    2.8185 C   0  0  0  0  0  0  0  0  0  0  0  0
    1.5767   -1.2718    4.0695 C   0  0  0  0  0  0  0  0  0  0  0  0
    0.1844   -1.4081    4.1135 C   0  0  0  0  0  0  0  0  0  0  0  0
   -0.5972   -1.2345    3.0691 N   0  0  0  0  0  0  0  0  0  0  0  0
    0.0172   -0.9325    1.9013 C   0  0  0  0  0  0  0  0  0  0  0  0
   -0.7024   -0.8562    0.7641 N   0  0  0  0  0  0  0  0  0  0  0  0
   -2.0832   -0.9927    0.5577 C   0  0  0  0  0  0  0  0  0  0  0  0
   -2.4958   -1.3763   -0.7307 C   0  0  0  0  0  0  0  0  0  0  0  0
   -3.8401   -1.4491   -1.0526 C   0  0  0  0  0  0  0  0  0  0  0  0
   -4.8375   -1.1611   -0.1049 C   0  0  0  0  0  0  0  0  0  0  0  0
   -6.1983   -1.2190   -0.4777 N   0  0  0  0  0  0  0  0  0  0  0  0
   -7.1703   -0.6270    0.4173 C   0  0  0  0  0  0  0  0  0  0  0  0
   -8.5093   -0.4526   -0.3048 C   0  0  0  0  0  0  0  0  0  0  0  0
   -9.0198   -1.6773   -0.8944 N   0  0  0  0  0  0  0  0  0  0  0  0
   -8.0084   -2.2661   -1.7553 C   0  0  0  0  0  0  0  0  0  0  0  0
   -6.6635   -2.4708   -1.0584 C   0  0  0  0  0  0  0  0  0  0  0  0
   -9.6183   -2.5960    0.0471 C   0  0  0  0  0  0  0  0  0  0  0  0
   -4.4175   -0.7935    1.1796 C   0  0  0  0  0  0  0  0  0  0  0  0
   -3.0636   -0.6996    1.5082 C   0  0  0  0  0  0  0  0  0  0  0  0
    1.3352   -0.7006    1.7593 N   0  0  0  0  0  0  0  0  0  0  0  0
    4.1862   -0.7866    0.3711 C   0  0  0  0  0  0  0  0  0  0  0  0
    4.6930   -0.1782   -0.7726 C   0  0  0  0  0  0  0  0  0  0  0  0
    3.4574    3.0060   -2.8771 C   0  0  0  0  0  3  0  0  0  0  0  0
    3.3178    3.9756   -1.7845 C   0  0  0  0  0  0  0  0  0  0  0  0
    1.8718    3.6382   -0.5687 S   0  0  0  0  0  0  0  0  0  0  0  0
    1.6955    1.8450   -0.7307 C   0  0  0  0  0  0  0  0  0  0  0  0
    0.7690    1.3678   -1.8556 C   0  0  2  0  0  0  0  0  0  0  0  0
    0.9485    1.9734   -2.7538 H   0  0  0  0  0  0  0  0  0  0  0  0
   -0.6093    1.5164   -1.4573 N   0  0  0  0  0  0  0  0  0  0  0  0
   -1.6391    1.4839   -2.3433 C   0  0  0  0  0  0  0  0  0  0  0  0
   -2.9997    1.8151   -1.7572 C   0  0  0  0  0  0  0  0  0  0  0  0
   -1.4753    1.2538   -3.5268 O   0  0  0  0  0  0  0  0  0  0  0  0
    1.1090   -0.0890   -2.2054 C   0  0  0  0  0  0  0  0  0  0  0  0
    2.0986   -0.2807   -3.0772 N   0  0  0  0  0  0  0  0  0  0  0  0
    2.5809   -1.6086   -3.3625 C   0  0  0  0  0  0  0  0  0  0  0  0
    0.5286   -1.0381   -1.6631 O   0  0  0  0  0  0  0  0  0  0  0  0
    6.1132    1.2450   -2.4510 H   0  0  0  0  0  0  0  0  0  0  0  0
    5.1992    2.9551    0.4269 H   0  0  0  0  0  0  0  0  0  0  0  0
    4.2755    1.8827    2.4766 H   0  0  0  0  0  0  0  0  0  0  0  0
    4.2871   -1.4704    5.9080 H   0  0  0  0  0  0  0  0  0  0  0  0
   -0.2816   -1.6722    5.0701 H   0  0  0  0  0  0  0  0  0  0  0  0
   -0.1425   -0.8353   -0.1138 H   0  0  0  0  0  0  0  0  0  0  0  0
   -1.7343   -1.5713   -1.4887 H   0  0  0  0  0  0  0  0  0  0  0  0
   -4.1216   -1.7004   -2.0772 H   0  0  0  0  0  0  0  0  0  0  0  0
   -6.8072    0.3605    0.7391 H   0  0  0  0  0  0  0  0  0  0  0  0
   -7.3131   -1.2358    1.3391 H   0  0  0  0  0  0  0  0  0  0  0  0
   -8.3679    0.2859   -1.1127 H   0  0  0  0  0  0  0  0  0  0  0  0
   -9.2586   -0.0427    0.3910 H   0  0  0  0  0  0  0  0  0  0  0  0
   -7.8517   -1.5919   -2.6151 H   0  0  0  0  0  0  0  0  0  0  0  0
   -8.3783   -3.2260   -2.1493 H   0  0  0  0  0  0  0  0  0  0  0  0
   -5.9305   -2.8372   -1.7886 H   0  0  0  0  0  0  0  0  0  0  0  0
   -6.7522   -3.2572   -0.2758 H   0  0  0  0  0  0  0  0  0  0  0  0
  -10.4318   -2.0891    0.5898 H   0  0  0  0  0  0  0  0  0  0  0  0
   -8.9256   -3.0167    0.8068 H   0  0  0  0  0  0  0  0  0  0  0  0
  -10.0621   -3.4444   -0.4974 H   0  0  0  0  0  0  0  0  0  0  0  0
   -5.1488   -0.5732    1.9581 H   0  0  0  0  0  0  0  0  0  0  0  0
   -2.7677   -0.4183    2.5167 H   0  0  0  0  0  0  0  0  0  0  0  0
    3.8828   -1.8348    0.3559 H   0  0  0  0  0  0  0  0  0  0  0  0
    4.7796   -0.7372   -1.7060 H   0  0  0  0  0  0  0  0  0  0  0  0
    2.7177    3.0372   -3.6827 H   0  0  0  0  0  0  0  0  0  0  0  0
    3.0634    4.9886   -2.1311 H   0  0  0  0  0  0  0  0  0  0  0  0
    4.2286    4.0354   -1.1755 H   0  0  0  0  0  0  0  0  0  0  0  0
    1.3684    1.4323    0.2364 H   0  0  0  0  0  0  0  0  0  0  0  0
    2.6906    1.4357   -0.9134 H   0  0  0  0  0  0  0  0  0  0  0  0
   -0.8064    1.6605   -0.4765 H   0  0  0  0  0  0  0  0  0  0  0  0
   -3.1685    2.8986   -1.8574 H   0  0  0  0  0  0  0  0  0  0  0  0
   -3.0895    1.5393   -0.6964 H   0  0  0  0  0  0  0  0  0  0  0  0
   -3.7710    1.2885   -2.3314 H   0  0  0  0  0  0  0  0  0  0  0  0
    2.6917    0.4774   -3.4562 H   0  0  0  0  0  0  0  0  0  0  0  0
    1.8601   -2.1827   -3.9670 H   0  0  0  0  0  0  0  0  0  0  0  0
    2.7562   -2.1731   -2.4325 H   0  0  0  0  0  0  0  0  0  0  0  0
    3.5227   -1.5032   -3.9158 H   0  0  0  0  0  0  0  0  0  0  0  0
  1  2  2  0  0  0  0
  2 35  1  0  0  0  0
  2  3  1  0  0  0  0
  3  4  1  0  0  0  0
  4 34  2  0  0  0  0
  4  5  1  0  0  0  0
  5 50  1  0  0  0  0
  5  6  2  0  0  0  0
  6 51  1  0  0  0  0
  7  6  1  0  0  0  0
  7  8  1  0  0  0  0
  8 13  1  0  0  0  0
  8  9  1  0  0  0  0
  9 11  1  0  0  0  0
 10  9  2  0  0  0  0
 11 12  2  0  0  0  0
 11 52  1  0  0  0  0
 13 14  1  0  0  0  0
 14 15  2  0  0  0  0
 14 12  1  0  0  0  0
 15 53  1  0  0  0  0
 16 15  1  0  0  0  0
 17 16  2  0  0  0  0
 18 17  1  0  0  0  0
 19 18  1  0  0  0  0
 19 31  1  0  0  0  0
 20 19  2  0  0  0  0
 21 20  1  0  0  0  0
 21 22  2  0  0  0  0
 22 30  1  0  0  0  0
 23 22  1  0  0  0  0
 23 24  1  0  0  0  0
 24 57  1  0  0  0  0
 24 58  1  0  0  0  0
 25 60  1  0  0  0  0
 25 24  1  0  0  0  0
 26 25  1  0  0  0  0
 26 29  1  0  0  0  0
 27 28  1  0  0  0  0
 27 26  1  0  0  0  0
 28 23  1  0  0  0  0
 28 64  1  0  0  0  0
 29 65  1  0  0  0  0
 29 66  1  0  0  0  0
 30 31  2  0  0  0  0
 30 68  1  0  0  0  0
 31 69  1  0  0  0  0
 32 17  1  0  0  0  0
 32 13  2  0  0  0  0
 33  7  2  0  0  0  0
 34 33  1  0  0  0  0
 35 36  1  0  0  0  0
 36 74  1  0  0  0  0
 36 37  1  0  0  0  0
 38 37  1  0  0  0  0
 38 75  1  0  0  0  0
 39 40  1  6  0  0  0
 39 41  1  0  0  0  0
 39 38  1  0  0  0  0
 41 77  1  0  0  0  0
 42 43  1  0  0  0  0
 42 41  1  0  0  0  0
 43 79  1  0  0  0  0
 44 42  2  0  0  0  0
 45 39  1  0  0  0  0
 45 48  2  0  0  0  0
 46 45  1  0  0  0  0
 47 46  1  0  0  0  0
 47 83  1  0  0  0  0
 49  3  1  0  0  0  0
 54 18  1  0  0  0  0
 55 20  1  0  0  0  0
 56 21  1  0  0  0  0
 59 25  1  0  0  0  0
 61 27  1  0  0  0  0
 62 27  1  0  0  0  0
 63 28  1  0  0  0  0
 67 29  1  0  0  0  0
 70 33  1  0  0  0  0
 71 34  1  0  0  0  0
 72 35  1  0  0  0  0
 73 36  1  0  0  0  0
 76 38  1  0  0  0  0
 78 43  1  0  0  0  0
 80 43  1  0  0  0  0
 81 46  1  0  0  0  0
 82 47  1  0  0  0  0
 84 47  1  0  0  0  0
M  END
