-1 1
 OpenBabel05232413483D

 81 83  0  0  1  0  0  0  0  0999 V2000
   -2.6496    0.3217    3.8481 O   0  0  0  0  0  0  0  0  0  0  0  0
   -1.5410    0.4423    3.3421 C   0  0  0  0  0  0  0  0  0  0  0  0
   -1.2651   -0.2613    2.1803 N   0  0  0  0  0  0  0  0  0  0  0  0
   -0.4204    0.0314    1.0896 C   0  0  0  0  0  0  0  0  0  0  0  0
   -0.0774   -1.0269    0.2389 C   0  0  0  0  0  0  0  0  0  0  0  0
    0.6292   -0.7715   -0.9293 C   0  0  0  0  0  0  0  0  0  0  0  0
    0.8997   -1.8484   -1.8476 N   0  0  0  0  0  0  0  0  0  0  0  0
    2.2206   -2.2625   -2.0477 C   0  0  0  0  0  0  0  0  0  0  0  0
    3.1556   -1.7901   -1.4384 O   0  0  0  0  0  0  0  0  0  0  0  0
    2.3939   -3.3208   -3.0721 C   0  0  0  0  0  0  0  0  0  0  0  0
    1.4487   -3.8509   -3.7603 N   0  0  0  0  0  0  0  0  0  0  0  0
   -0.1332   -2.4252   -2.5587 C   0  0  0  0  0  0  0  0  0  0  0  0
    0.1688   -3.4151   -3.5167 C   0  0  0  0  0  0  0  0  0  0  0  0
   -0.9358   -3.9199   -4.2241 C   0  0  0  0  0  0  0  0  0  0  0  0
   -2.1727   -3.5377   -4.0010 N   0  0  0  0  0  0  0  0  0  0  0  0
   -2.3456   -2.6080   -3.0250 C   0  0  0  0  0  0  0  0  0  0  0  0
   -3.6377   -2.2828   -2.7831 N   0  0  0  0  0  0  0  0  0  0  0  0
   -4.2261   -1.5211   -1.7512 C   0  0  0  0  0  0  0  0  0  0  0  0
   -5.6214   -1.5355   -1.6540 C   0  0  0  0  0  0  0  0  0  0  0  0
   -6.2913   -0.8497   -0.6488 C   0  0  0  0  0  0  0  0  0  0  0  0
   -5.5904   -0.1197    0.3364 C   0  0  0  0  0  0  0  0  0  0  0  0
   -6.2388    0.5098    1.3827 N   0  0  0  0  0  0  0  0  0  0  0  0
   -5.4855    1.1186    2.4674 C   0  0  0  0  0  0  0  0  0  0  0  0
   -5.0409    2.5593    2.2236 C   0  0  0  0  0  0  0  0  0  0  0  0
   -7.6700    0.7142    1.3444 C   0  0  0  0  0  0  0  0  0  0  0  0
   -8.1375    1.7702    0.3417 C   0  0  0  0  0  0  0  0  0  0  0  0
   -4.1861   -0.0813    0.1995 C   0  0  0  0  0  0  0  0  0  0  0  0
   -3.5181   -0.7582   -0.8144 C   0  0  0  0  0  0  0  0  0  0  0  0
   -1.3748   -2.0290   -2.3243 N   0  0  0  0  0  0  0  0  0  0  0  0
    1.0624    0.5130   -1.2429 C   0  0  0  0  0  0  0  0  0  0  0  0
    0.7760    1.5495   -0.3612 C   0  0  0  0  0  0  0  0  0  0  0  0
    0.0188    1.3236    0.7837 C   0  0  0  0  0  0  0  0  0  0  0  0
   -0.4924    1.2451    4.0012 C   0  0  0  0  0  0  0  0  0  0  0  0
    0.8307    1.0831    3.8639 C   0  0  0  0  0  0  0  0  0  0  0  0
    2.7664    2.9133    2.1120 S   0  0  0  0  0  1  0  0  0  0  0  0
    3.5215    1.2793    1.8143 C   0  0  0  0  0  0  0  0  0  0  0  0
    4.9520    1.3426    1.2409 C   0  0  2  0  0  0  0  0  0  0  0  0
    5.4080    0.3383    1.2765 H   0  0  0  0  0  0  0  0  0  0  0  0
    5.7495    2.2227    2.0436 N   0  0  0  0  0  0  0  0  0  0  0  0
    7.0997    2.1803    2.0588 C   0  0  0  0  0  0  0  0  0  0  0  0
    7.7577    3.3915    2.6981 C   0  0  0  0  0  0  0  0  0  0  0  0
    7.7562    1.2597    1.5986 O   0  0  0  0  0  0  0  0  0  0  0  0
    4.9960    1.7869   -0.2337 C   0  0  0  0  0  0  0  0  0  0  0  0
    4.3822    0.9348   -1.0987 N   0  0  0  0  0  0  0  0  0  0  0  0
    4.3661    1.1946   -2.5110 C   0  0  0  0  0  0  0  0  0  0  0  0
    5.5668    2.7921   -0.6121 O   0  0  0  0  0  0  0  0  0  0  0  0
   -2.0131   -0.9161    1.9711 H   0  0  0  0  0  0  0  0  0  0  0  0
   -0.4036   -2.0421    0.4708 H   0  0  0  0  0  0  0  0  0  0  0  0
    3.4301   -3.6405   -3.2279 H   0  0  0  0  0  0  0  0  0  0  0  0
   -0.7567   -4.6728   -5.0001 H   0  0  0  0  0  0  0  0  0  0  0  0
   -4.2781   -2.7894   -3.3816 H   0  0  0  0  0  0  0  0  0  0  0  0
   -6.2085   -2.1059   -2.3805 H   0  0  0  0  0  0  0  0  0  0  0  0
   -7.3793   -0.9074   -0.6299 H   0  0  0  0  0  0  0  0  0  0  0  0
   -4.6076    0.5005    2.7054 H   0  0  0  0  0  0  0  0  0  0  0  0
   -6.1165    1.0790    3.3698 H   0  0  0  0  0  0  0  0  0  0  0  0
   -4.4405    2.6405    1.3050 H   0  0  0  0  0  0  0  0  0  0  0  0
   -4.4192    2.9036    3.0631 H   0  0  0  0  0  0  0  0  0  0  0  0
   -5.9007    3.2406    2.1257 H   0  0  0  0  0  0  0  0  0  0  0  0
   -7.9836    1.0096    2.3568 H   0  0  0  0  0  0  0  0  0  0  0  0
   -8.1858   -0.2426    1.1458 H   0  0  0  0  0  0  0  0  0  0  0  0
   -7.7039    2.7523    0.5793 H   0  0  0  0  0  0  0  0  0  0  0  0
   -9.2347    1.8629    0.3567 H   0  0  0  0  0  0  0  0  0  0  0  0
   -7.8306    1.5090   -0.6819 H   0  0  0  0  0  0  0  0  0  0  0  0
   -3.5832    0.5019    0.8946 H   0  0  0  0  0  0  0  0  0  0  0  0
   -2.4354   -0.6861   -0.8803 H   0  0  0  0  0  0  0  0  0  0  0  0
    1.6309    0.6943   -2.1552 H   0  0  0  0  0  0  0  0  0  0  0  0
    1.1645    2.5526   -0.5399 H   0  0  0  0  0  0  0  0  0  0  0  0
   -0.1880    2.1576    1.4523 H   0  0  0  0  0  0  0  0  0  0  0  0
   -0.8975    1.9585    4.7230 H   0  0  0  0  0  0  0  0  0  0  0  0
    1.2594    0.3504    3.1767 H   0  0  0  0  0  0  0  0  0  0  0  0
    1.5443    1.6730    4.4394 H   0  0  0  0  0  0  0  0  0  0  0  0
    2.8966    0.6785    1.1295 H   0  0  0  0  0  0  0  0  0  0  0  0
    3.5871    0.7097    2.7587 H   0  0  0  0  0  0  0  0  0  0  0  0
    5.2363    3.0564    2.3362 H   0  0  0  0  0  0  0  0  0  0  0  0
    8.7508    3.1080    3.0684 H   0  0  0  0  0  0  0  0  0  0  0  0
    7.1540    3.8130    3.5148 H   0  0  0  0  0  0  0  0  0  0  0  0
    7.8762    4.1658    1.9247 H   0  0  0  0  0  0  0  0  0  0  0  0
    3.9244    0.0934   -0.7658 H   0  0  0  0  0  0  0  0  0  0  0  0
    5.3386    1.5968   -2.8314 H   0  0  0  0  0  0  0  0  0  0  0  0
    3.5992    1.9386   -2.7963 H   0  0  0  0  0  0  0  0  0  0  0  0
    4.1667    0.2566   -3.0486 H   0  0  0  0  0  0  0  0  0  0  0  0
  2  1  2  0  0  0  0
  2 33  1  0  0  0  0
  3  2  1  0  0  0  0
  4  3  1  0  0  0  0
  5 48  1  0  0  0  0
  5  4  2  0  0  0  0
  6  5  1  0  0  0  0
  7  6  1  0  0  0  0
  8  7  1  0  0  0  0
  8  9  2  0  0  0  0
 10  8  1  0  0  0  0
 11 13  1  0  0  0  0
 11 10  2  0  0  0  0
 12 29  2  0  0  0  0
 12  7  1  0  0  0  0
 13 12  1  0  0  0  0
 14 15  1  0  0  0  0
 14 13  2  0  0  0  0
 15 16  2  0  0  0  0
 16 17  1  0  0  0  0
 16 29  1  0  0  0  0
 17 18  1  0  0  0  0
 18 19  2  0  0  0  0
 18 28  1  0  0  0  0
 19 20  1  0  0  0  0
 20 53  1  0  0  0  0
 20 21  2  0  0  0  0
 21 22  1  0  0  0  0
 22 23  1  0  0  0  0
 23 54  1  0  0  0  0
 23 55  1  0  0  0  0
 24 23  1  0  0  0  0
 24 57  1  0  0  0  0
 25 22  1  0  0  0  0
 25 59  1  0  0  0  0
 26 62  1  0  0  0  0
 26 61  1  0  0  0  0
 26 25  1  0  0  0  0
 27 21  1  0  0  0  0
 27 64  1  0  0  0  0
 28 27  2  0  0  0  0
 30  6  2  0  0  0  0
 30 31  1  0  0  0  0
 31 32  2  0  0  0  0
 32  4  1  0  0  0  0
 32 68  1  0  0  0  0
 33 69  1  0  0  0  0
 34 33  2  0  0  0  0
 34 71  1  0  0  0  0
 36 35  1  0  0  0  0
 36 73  1  0  0  0  0
 37 38  1  1  0  0  0
 37 36  1  0  0  0  0
 37 39  1  0  0  0  0
 39 40  1  0  0  0  0
 39 74  1  0  0  0  0
 40 41  1  0  0  0  0
 41 75  1  0  0  0  0
 41 76  1  0  0  0  0
 42 40  2  0  0  0  0
 43 37  1  0  0  0  0
 44 78  1  0  0  0  0
 44 43  1  0  0  0  0
 45 44  1  0  0  0  0
 46 43  2  0  0  0  0
 47  3  1  0  0  0  0
 49 10  1  0  0  0  0
 50 14  1  0  0  0  0
 51 17  1  0  0  0  0
 52 19  1  0  0  0  0
 56 24  1  0  0  0  0
 58 24  1  0  0  0  0
 60 25  1  0  0  0  0
 63 26  1  0  0  0  0
 65 28  1  0  0  0  0
 66 30  1  0  0  0  0
 67 31  1  0  0  0  0
 70 34  1  0  0  0  0
 72 36  1  0  0  0  0
 77 41  1  0  0  0  0
 79 45  1  0  0  0  0
 80 45  1  0  0  0  0
 81 45  1  0  0  0  0
M  END
