-1 1
 OpenBabel05192410563D

 88 92  0  0  1  0  0  0  0  0999 V2000
   -1.5630    2.9092    1.6869 O   0  0  0  0  0  0  0  0  0  0  0  0
   -0.3218    3.0149    1.5444 C   0  0  0  0  0  0  0  0  0  0  0  0
    0.0643    3.9754    0.4758 N   0  0  0  0  0  0  0  0  0  0  0  0
    0.1419    3.4652   -0.8159 C   0  0  0  0  0  0  0  0  0  0  0  0
    1.0914    2.4816   -1.1532 C   0  0  0  0  0  0  0  0  0  0  0  0
    1.1283    1.9416   -2.4284 C   0  0  0  0  0  0  0  0  0  0  0  0
    0.2133    2.3466   -3.3986 C   0  0  0  0  0  0  0  0  0  0  0  0
    0.1736    1.6638   -4.6636 N   0  0  0  0  0  0  0  0  0  0  0  0
    0.5364    2.3329   -5.8407 C   0  0  0  0  0  0  0  0  0  0  0  0
    0.8605    3.4989   -5.8590 O   0  0  0  0  0  0  0  0  0  0  0  0
    0.4964    1.4948   -7.0647 C   0  0  0  0  0  0  0  0  0  0  0  0
    0.1557    0.2572   -7.1137 N   0  0  0  0  0  0  0  0  0  0  0  0
   -0.2235    0.3410   -4.6991 C   0  0  0  0  0  0  0  0  0  0  0  0
   -0.2107   -0.3429   -5.9344 C   0  0  0  0  0  0  0  0  0  0  0  0
   -0.5922   -1.6947   -5.8734 C   0  0  0  0  0  0  0  0  0  0  0  0
   -0.9436   -2.3001   -4.7632 N   0  0  0  0  0  0  0  0  0  0  0  0
   -0.9341   -1.5372   -3.6355 C   0  0  0  0  0  0  0  0  0  0  0  0
   -1.2920   -2.1839   -2.5087 N   0  0  0  0  0  0  0  0  0  0  0  0
   -1.3593   -1.7322   -1.1738 C   0  0  0  0  0  0  0  0  0  0  0  0
   -1.1631   -2.7035   -0.1802 C   0  0  0  0  0  0  0  0  0  0  0  0
   -0.8694   -3.9543   -0.6347 O   0  0  0  0  0  0  0  0  0  0  0  0
   -0.2818   -4.8707    0.2539 C   0  0  0  0  0  0  0  0  0  0  0  0
   -1.2777   -2.3857    1.1697 C   0  0  0  0  0  0  0  0  0  0  0  0
   -1.5526   -1.0659    1.5856 C   0  0  0  0  0  0  0  0  0  0  0  0
   -1.6878   -0.7485    2.9378 N   0  0  0  0  0  0  0  0  0  0  0  0
   -1.7616   -1.8557    3.8745 C   0  0  0  0  0  0  0  0  0  0  0  0
   -1.7905   -1.3935    5.3369 C   0  0  0  0  0  0  0  0  0  0  0  0
   -2.7601   -0.3568    5.6198 N   0  0  0  0  0  0  0  0  0  0  0  0
   -2.4807    0.7631    4.7330 C   0  0  0  0  0  0  0  0  0  0  0  0
   -2.5276    0.4098    3.2531 C   0  0  0  0  0  0  0  0  0  0  0  0
   -4.1342   -0.7976    5.6155 C   0  0  0  0  0  0  0  0  0  0  0  0
   -1.6913   -0.0838    0.5825 C   0  0  0  0  0  0  0  0  0  0  0  0
   -1.6040   -0.4196   -0.7637 C   0  0  0  0  0  0  0  0  0  0  0  0
   -0.5945   -0.2492   -3.5742 N   0  0  0  0  0  0  0  0  0  0  0  0
   -0.7043    3.3481   -3.1007 C   0  0  0  0  0  0  0  0  0  0  0  0
   -0.7295    3.9084   -1.8286 C   0  0  0  0  0  0  0  0  0  0  0  0
    0.6783    2.3790    2.2534 C   0  0  0  0  0  3  0  0  0  0  0  0
    2.1158    2.7305    2.2286 C   0  0  0  0  0  0  0  0  0  0  0  0
    3.3303    1.4742    1.5484 S   0  0  0  0  0  0  0  0  0  0  0  0
    3.1061    0.0888    2.6952 C   0  0  0  0  0  0  0  0  0  0  0  0
    1.8952   -0.8531    2.4816 C   0  0  2  0  0  0  0  0  0  0  0  0
    0.9657   -0.2640    2.5142 H   0  0  0  0  0  0  0  0  0  0  0  0
    1.8760   -1.8688    3.5114 N   0  0  0  0  0  0  0  0  0  0  0  0
    1.6617   -1.6313    4.8219 C   0  0  0  0  0  0  0  0  0  0  0  0
    1.6455   -2.8667    5.7052 C   0  0  0  0  0  0  0  0  0  0  0  0
    1.4486   -0.5206    5.2828 O   0  0  0  0  0  0  0  0  0  0  0  0
    1.9777   -1.6252    1.1614 C   0  0  0  0  0  0  0  0  0  0  0  0
    1.6713   -0.9391    0.0572 N   0  0  0  0  0  0  0  0  0  0  0  0
    1.8173   -1.5054   -1.2596 C   0  0  0  0  0  0  0  0  0  0  0  0
    2.3328   -2.8050    1.1463 O   0  0  0  0  0  0  0  0  0  0  0  0
   -0.6708    4.6773    0.5088 H   0  0  0  0  0  0  0  0  0  0  0  0
    1.8052    2.1443   -0.4017 H   0  0  0  0  0  0  0  0  0  0  0  0
    1.8700    1.1785   -2.6721 H   0  0  0  0  0  0  0  0  0  0  0  0
    0.7965    2.0141   -7.9819 H   0  0  0  0  0  0  0  0  0  0  0  0
   -0.5908   -2.2760   -6.8031 H   0  0  0  0  0  0  0  0  0  0  0  0
   -1.4002   -3.1843   -2.6277 H   0  0  0  0  0  0  0  0  0  0  0  0
    0.0227   -5.7372   -0.3476 H   0  0  0  0  0  0  0  0  0  0  0  0
   -0.9979   -5.2140    1.0218 H   0  0  0  0  0  0  0  0  0  0  0  0
    0.6062   -4.4306    0.7386 H   0  0  0  0  0  0  0  0  0  0  0  0
   -1.1380   -3.1772    1.8993 H   0  0  0  0  0  0  0  0  0  0  0  0
   -0.8694   -2.4893    3.7533 H   0  0  0  0  0  0  0  0  0  0  0  0
   -2.6433   -2.4996    3.6555 H   0  0  0  0  0  0  0  0  0  0  0  0
   -0.7982   -0.9974    5.6010 H   0  0  0  0  0  0  0  0  0  0  0  0
   -1.9844   -2.2709    5.9776 H   0  0  0  0  0  0  0  0  0  0  0  0
   -1.4757    1.1455    4.9765 H   0  0  0  0  0  0  0  0  0  0  0  0
   -3.1951    1.5789    4.9249 H   0  0  0  0  0  0  0  0  0  0  0  0
   -2.1816    1.2964    2.6993 H   0  0  0  0  0  0  0  0  0  0  0  0
   -3.5739    0.2082    2.9372 H   0  0  0  0  0  0  0  0  0  0  0  0
   -4.2691   -1.5961    6.3637 H   0  0  0  0  0  0  0  0  0  0  0  0
   -4.5062   -1.1883    4.6435 H   0  0  0  0  0  0  0  0  0  0  0  0
   -4.7904    0.0403    5.9006 H   0  0  0  0  0  0  0  0  0  0  0  0
   -1.8517    0.9656    0.8425 H   0  0  0  0  0  0  0  0  0  0  0  0
   -1.7022    0.3658   -1.5115 H   0  0  0  0  0  0  0  0  0  0  0  0
   -1.4188    3.6736   -3.8591 H   0  0  0  0  0  0  0  0  0  0  0  0
   -1.4739    4.6722   -1.5910 H   0  0  0  0  0  0  0  0  0  0  0  0
    0.3357    1.7092    3.0478 H   0  0  0  0  0  0  0  0  0  0  0  0
    2.5127    2.9577    3.2322 H   0  0  0  0  0  0  0  0  0  0  0  0
    2.2944    3.6075    1.5871 H   0  0  0  0  0  0  0  0  0  0  0  0
    3.0212    0.4942    3.7136 H   0  0  0  0  0  0  0  0  0  0  0  0
    4.0276   -0.5119    2.6447 H   0  0  0  0  0  0  0  0  0  0  0  0
    2.1162   -2.7938    3.1620 H   0  0  0  0  0  0  0  0  0  0  0  0
    2.1366   -2.6264    6.6567 H   0  0  0  0  0  0  0  0  0  0  0  0
    2.1288   -3.7397    5.2450 H   0  0  0  0  0  0  0  0  0  0  0  0
    0.5973   -3.1197    5.9269 H   0  0  0  0  0  0  0  0  0  0  0  0
    1.3592    0.0225    0.1577 H   0  0  0  0  0  0  0  0  0  0  0  0
    2.8764   -1.5526   -1.5642 H   0  0  0  0  0  0  0  0  0  0  0  0
    1.2595   -0.8855   -1.9702 H   0  0  0  0  0  0  0  0  0  0  0  0
    1.4043   -2.5234   -1.2853 H   0  0  0  0  0  0  0  0  0  0  0  0
  2  1  2  0  0  0  0
  2 37  1  0  0  0  0
  3 51  1  0  0  0  0
  3  2  1  0  0  0  0
  4  3  1  0  0  0  0
  5  4  1  0  0  0  0
  5 52  1  0  0  0  0
  6  5  2  0  0  0  0
  7 35  2  0  0  0  0
  7  6  1  0  0  0  0
  8  7  1  0  0  0  0
  9  8  1  0  0  0  0
 10  9  2  0  0  0  0
 11  9  1  0  0  0  0
 12 11  2  0  0  0  0
 12 14  1  0  0  0  0
 13  8  1  0  0  0  0
 13 34  2  0  0  0  0
 14 15  2  0  0  0  0
 14 13  1  0  0  0  0
 15 16  1  0  0  0  0
 16 17  2  0  0  0  0
 17 34  1  0  0  0  0
 17 18  1  0  0  0  0
 18 19  1  0  0  0  0
 19 33  2  0  0  0  0
 19 20  1  0  0  0  0
 20 23  2  0  0  0  0
 21 20  1  0  0  0  0
 21 22  1  0  0  0  0
 22 59  1  0  0  0  0
 22 58  1  0  0  0  0
 23 24  1  0  0  0  0
 23 60  1  0  0  0  0
 24 25  1  0  0  0  0
 25 30  1  0  0  0  0
 25 26  1  0  0  0  0
 26 27  1  0  0  0  0
 27 63  1  0  0  0  0
 27 28  1  0  0  0  0
 27 64  1  0  0  0  0
 29 66  1  0  0  0  0
 29 65  1  0  0  0  0
 29 28  1  0  0  0  0
 30 29  1  0  0  0  0
 31 28  1  0  0  0  0
 31 71  1  0  0  0  0
 31 69  1  0  0  0  0
 32 72  1  0  0  0  0
 32 24  2  0  0  0  0
 33 32  1  0  0  0  0
 35 36  1  0  0  0  0
 36 75  1  0  0  0  0
 36  4  2  0  0  0  0
 37 76  1  0  0  0  0
 38 37  1  0  0  0  0
 38 77  1  0  0  0  0
 39 38  1  0  0  0  0
 39 40  1  0  0  0  0
 40 79  1  0  0  0  0
 41 42  1  1  0  0  0
 41 40  1  0  0  0  0
 41 43  1  0  0  0  0
 43 44  1  0  0  0  0
 44 46  2  0  0  0  0
 44 45  1  0  0  0  0
 45 84  1  0  0  0  0
 45 82  1  0  0  0  0
 47 41  1  0  0  0  0
 48 85  1  0  0  0  0
 48 47  1  0  0  0  0
 49 48  1  0  0  0  0
 50 47  2  0  0  0  0
 53  6  1  0  0  0  0
 54 11  1  0  0  0  0
 55 15  1  0  0  0  0
 56 18  1  0  0  0  0
 57 22  1  0  0  0  0
 61 26  1  0  0  0  0
 62 26  1  0  0  0  0
 67 30  1  0  0  0  0
 68 30  1  0  0  0  0
 70 31  1  0  0  0  0
 73 33  1  0  0  0  0
 74 35  1  0  0  0  0
 78 38  1  0  0  0  0
 80 40  1  0  0  0  0
 81 43  1  0  0  0  0
 83 45  1  0  0  0  0
 86 49  1  0  0  0  0
 87 49  1  0  0  0  0
 88 49  1  0  0  0  0
M  END
