88
-1 1
O         5.412489   -1.072223   -8.312672
C         6.531826   -1.055454   -8.835694
N         6.617499   -0.255424  -10.034841
C         6.854994   -0.742654  -11.315768
C         7.747671   -1.793719  -11.571609
C         7.918460   -2.274362  -12.858272
C         7.185311   -1.753149  -13.922151
N         7.253902   -2.394878  -15.208191
C         7.706065   -1.698991  -16.336848
O         8.021096   -0.530645  -16.306352
C         7.769619   -2.511312  -17.578799
N         7.431823   -3.745868  -17.688059
C         6.858440   -3.715141  -15.313369
C         6.967080   -4.372118  -16.557275
C         6.567818   -5.720988  -16.555931
N         6.125257   -6.349243  -15.490046
C         6.056989   -5.611367  -14.349381
N         5.616894   -6.265005  -13.254384
C         5.526034   -5.812617  -11.920724
C         5.640264   -6.791572  -10.919988
O         5.851827   -8.058142  -11.370129
C         6.229703   -9.050769  -10.447325
C         5.529205   -6.458578   -9.572387
C         5.328016   -5.123721   -9.172060
N         5.207177   -4.771149   -7.824852
C         5.356325   -5.817860   -6.833472
C         5.449745   -5.234213   -5.418338
N         4.374046   -4.325366   -5.077373
C         4.329088   -3.268755   -6.075843
C         4.179615   -3.780996   -7.502757
C         3.105352   -4.961354   -4.818169
C         5.244904   -4.146973  -10.180307
C         5.334433   -4.487772  -11.522729
N         6.394862   -4.328780  -14.239278
C         6.317956   -0.688689  -13.694518
C         6.168259   -0.179195  -12.409229
C         7.684886   -1.668585   -8.266103
C         9.015748   -1.362182   -8.545552
S        10.352568   -2.942441   -9.684806
C        10.252310   -4.224888   -8.398780
C         8.973701   -5.097620   -8.382452
H         8.091852   -4.433572   -8.366125
N         8.962420   -5.962495   -7.221841
C         8.853534   -5.543095   -5.945029
C         8.819920   -6.651364   -4.905749
O         8.756890   -4.369970   -5.618430
C         8.850843   -6.045102   -9.587904
N         8.827048   -5.450916  -10.785568
C         8.824368   -6.190787  -12.020609
O         8.784242   -7.265231   -9.426890
H         5.801455    0.348798  -10.018980
H         8.307246   -2.253121  -10.759461
H         8.611503   -3.100790  -13.026122
H         8.146525   -1.970660  -18.454456
H         6.634799   -6.281311  -17.496005
H         5.501153   -7.263777  -13.379142
H         6.461391   -9.948016  -11.035639
H         5.405808   -9.290019   -9.751568
H         7.123145   -8.734131   -9.885183
H         5.615791   -7.246815   -8.830843
H         6.287488   -6.368987   -7.035338
H         4.520407   -6.552631   -6.891647
H         6.399332   -4.683150   -5.330275
H         5.473353   -6.063360   -4.690873
H         5.260168   -2.683003   -6.022258
H         3.500799   -2.578877   -5.850623
H         4.280510   -2.908979   -8.155632
H         3.170915   -4.223077   -7.658734
H         3.217417   -5.692226   -4.000446
H         2.654789   -5.499020   -5.681164
H         2.374212   -4.205104   -4.489831
H         5.132557   -3.097017   -9.913939
H         5.288406   -3.703142  -12.274055
H         5.746503   -0.263668  -14.521258
H         5.476105    0.649864  -12.238787
H         7.466895   -2.308510   -7.407279
H         9.738381   -1.459760   -7.733908
H         9.235431   -0.557872   -9.254182
H        10.299962   -3.739796   -7.412794
H        11.127681   -4.889655   -8.480624
H         8.988100   -6.950964   -7.461699
H         9.445075   -6.351683   -4.054595
H         9.158016   -7.623574   -5.290527
H         7.788113   -6.752464   -4.537805
H         9.090495   -4.457432  -10.791446
H         9.828322   -6.567898  -12.281763
H         8.470468   -5.533026  -12.825728
H         8.141951   -7.047184  -11.948299
