88
-1 1
O        -1.562980    2.909200    1.686875
C        -0.321792    3.014904    1.544367
N         0.064275    3.975376    0.475754
C         0.141895    3.465214   -0.815920
C         1.091376    2.481581   -1.153197
C         1.128350    1.941568   -2.428366
C         0.213322    2.346552   -3.398583
N         0.173594    1.663764   -4.663565
C         0.536425    2.332908   -5.840712
O         0.860503    3.498896   -5.859030
C         0.496393    1.494777   -7.064699
N         0.155735    0.257238   -7.113725
C        -0.223516    0.341039   -4.699064
C        -0.210662   -0.342892   -5.934379
C        -0.592173   -1.694700   -5.873365
N        -0.943628   -2.300116   -4.763226
C        -0.934100   -1.537198   -3.635456
N        -1.292046   -2.183938   -2.508748
C        -1.359306   -1.732153   -1.173764
C        -1.163144   -2.703549   -0.180173
O        -0.869377   -3.954324   -0.634708
C        -0.281783   -4.870692    0.253880
C        -1.277653   -2.385699    1.169731
C        -1.552633   -1.065921    1.585583
N        -1.687756   -0.748460    2.937836
C        -1.761603   -1.855691    3.874547
C        -1.790476   -1.393499    5.336915
N        -2.760123   -0.356845    5.619811
C        -2.480694    0.763090    4.733021
C        -2.527598    0.409843    3.253057
C        -4.134248   -0.797609    5.615454
C        -1.691311   -0.083807    0.582549
C        -1.603964   -0.419649   -0.763701
N        -0.594549   -0.249215   -3.574209
C        -0.704314    3.348106   -3.100714
C        -0.729506    3.908384   -1.828585
C         0.678331    2.379034    2.253435
C         2.115829    2.730517    2.228566
S         3.330304    1.474207    1.548411
C         3.106092    0.088787    2.695200
C         1.895198   -0.853083    2.481617
H         0.965709   -0.264047    2.514161
N         1.876015   -1.868805    3.511386
C         1.661669   -1.631329    4.821925
C         1.645462   -2.866680    5.705196
O         1.448628   -0.520602    5.282822
C         1.977682   -1.625210    1.161357
N         1.671286   -0.939124    0.057204
C         1.817329   -1.505425   -1.259580
O         2.332831   -2.804957    1.146330
H        -0.670817    4.677319    0.508834
H         1.805230    2.144342   -0.401695
H         1.870049    1.178522   -2.672124
H         0.796495    2.014108   -7.981939
H        -0.590832   -2.276021   -6.803073
H        -1.400205   -3.184310   -2.627676
H         0.022671   -5.737172   -0.347586
H        -0.997869   -5.214006    1.021757
H         0.606208   -4.430579    0.738622
H        -1.138048   -3.177227    1.899251
H        -0.869366   -2.489285    3.753254
H        -2.643307   -2.499577    3.655462
H        -0.798248   -0.997359    5.600958
H        -1.984406   -2.270890    5.977563
H        -1.475731    1.145488    4.976481
H        -3.195058    1.578937    4.924868
H        -2.181562    1.296415    2.699302
H        -3.573913    0.208249    2.937174
H        -4.269124   -1.596090    6.363652
H        -4.506151   -1.188324    4.643497
H        -4.790439    0.040318    5.900567
H        -1.851678    0.965575    0.842545
H        -1.702199    0.365812   -1.511483
H        -1.418827    3.673584   -3.859063
H        -1.473927    4.672217   -1.590957
H         0.335704    1.709201    3.047813
H         2.512729    2.957747    3.232235
H         2.294422    3.607473    1.587119
H         3.021220    0.494158    3.713591
H         4.027582   -0.511909    2.644704
H         2.116169   -2.793791    3.161953
H         2.136633   -2.626430    6.656735
H         2.128825   -3.739744    5.244950
H         0.597256   -3.119745    5.926940
H         1.359221    0.022518    0.157717
H         2.876410   -1.552638   -1.564153
H         1.259492   -0.885478   -1.970246
H         1.404341   -2.523389   -1.285313
