88
-1 1
O         0.530639    5.843062   -4.006099
C         0.507822    4.752913   -3.459205
N         0.927164    4.661333   -2.144383
C         1.407262    3.610386   -1.340915
C         1.375679    3.815895    0.040751
C         1.946104    2.893548    0.909077
N         1.905967    3.203140    2.317301
C         2.542727    4.377942    2.755655
O         3.253835    5.045869    2.040059
C         2.247484    4.764904    4.155368
N         1.474630    4.126976    4.956198
C         1.160604    2.442581    3.199470
C         0.922227    2.957390    4.495716
C         0.041458    2.205487    5.288120
N        -0.476695    1.062184    4.905872
C        -0.083348    0.609690    3.686336
N        -0.541531   -0.621595    3.378860
C        -0.177410   -1.490745    2.334928
C        -1.153520   -2.394668    1.884480
O        -2.395089   -2.221364    2.407436
C        -3.439373   -3.064596    1.974103
C        -0.834267   -3.382633    0.959574
C         0.470083   -3.495609    0.443763
N         0.810558   -4.515777   -0.438731
C        -0.012633   -5.702257   -0.557403
C        -0.920527   -5.635914   -1.788393
N        -0.159220   -5.420154   -3.008032
C         0.692616   -4.241417   -2.882128
C         1.594590   -4.251692   -1.640487
C         0.504167   -6.595135   -3.519571
C         1.428743   -2.558476    0.866667
C         1.104087   -1.577743    1.794473
N         0.680177    1.270344    2.814985
C         2.519606    1.722631    0.426672
C         2.498886    1.492852   -0.947142
C         1.965866    2.425146   -1.833081
C        -0.032752    3.562844   -4.158417
C        -0.725262    2.577130   -3.582213
S         0.530525   -0.644392   -3.419091
C        -0.161286   -0.561355   -1.728936
C        -1.698742   -0.435705   -1.630988
H        -2.014558    0.357390   -2.327498
N        -2.128864   -0.077429   -0.298949
C        -2.066991    1.176989    0.195109
C        -2.648788    1.349281    1.586366
O        -1.623405    2.130377   -0.427668
C        -2.423530   -1.730214   -2.015091
N        -2.217662   -2.111320   -3.284724
C        -2.765467   -3.322204   -3.841808
O        -3.129753   -2.346571   -1.212408
H         1.088296    5.588015   -1.764398
H         0.910312    4.718881    0.438654
H         2.725826    5.695495    4.480850
H        -0.229039    2.595997    6.276135
H        -1.241237   -0.970443    4.022998
H        -4.343121   -2.725325    2.495577
H        -3.241207   -4.115559    2.249339
H        -3.585597   -2.984753    0.884417
H        -1.625537   -4.016721    0.570023
H        -0.590477   -5.851588    0.364809
H         0.660235   -6.576750   -0.647184
H        -1.628712   -4.796853   -1.667725
H        -1.514296   -6.560374   -1.886136
H         0.062391   -3.340082   -2.836488
H         1.301286   -4.127719   -3.791140
H         2.081712   -3.270671   -1.568793
H         2.389712   -5.016545   -1.729481
H        -0.233038   -7.398298   -3.682145
H         1.306874   -7.010446   -2.870847
H         0.962687   -6.361861   -4.493048
H         2.446906   -2.609566    0.479995
H         1.864140   -0.871410    2.124382
H         2.953161    0.996985    1.114074
H         2.889848    0.559226   -1.356552
H         1.961551    2.196641   -2.898337
H         0.080394    3.616043   -5.244708
H        -1.142712    1.771480   -4.188721
H        -0.892950    2.514414   -2.500334
H         0.238206    0.320832   -1.209531
H         0.135798   -1.437442   -1.131407
H        -2.564654   -0.820408    0.234661
H        -2.008464    2.044643    2.143993
H        -2.734090    0.401725    2.134540
H        -3.644713    1.809421    1.496892
H        -1.411409   -1.645453   -3.751036
H        -3.195063   -3.123482   -4.836448
H        -3.562122   -3.684850   -3.178578
H        -1.999096   -4.110145   -3.940315
