-1 1
 OpenBabel05192410563D

 74 77  0  0  1  0  0  0  0  0999 V2000
   -4.0706    0.2914   -2.6012 O   0  0  0  0  0  0  0  0  0  0  0  0
   -3.2425    0.3880   -1.6924 C   0  0  0  0  0  0  0  0  0  0  0  0
   -2.1852   -0.6371   -1.7151 N   0  0  0  0  0  0  0  0  0  0  0  0
   -1.8923   -1.5850   -0.7749 C   0  0  0  0  0  0  0  0  0  0  0  0
   -1.0016   -2.6328   -1.1005 C   0  0  0  0  0  0  0  0  0  0  0  0
   -0.6561   -3.5908   -0.1608 C   0  0  0  0  0  0  0  0  0  0  0  0
    0.2960   -4.6091   -0.5402 N   0  0  0  0  0  0  0  0  0  0  0  0
   -0.1628   -5.8400   -1.0145 C   0  0  0  0  0  0  0  0  0  0  0  0
   -1.3391   -6.1126   -1.0903 O   0  0  0  0  0  0  0  0  0  0  0  0
    0.9063   -6.8042   -1.4322 C   0  0  0  0  0  0  0  0  0  0  0  0
    0.4152   -8.1173   -1.9539 C   0  0  0  0  0  0  0  0  0  0  0  0
    2.1659   -6.5503   -1.3651 N   0  0  0  0  0  0  0  0  0  0  0  0
    1.6432   -4.3433   -0.4491 C   0  0  0  0  0  0  0  0  0  0  0  0
    2.5584   -5.3263   -0.8753 C   0  0  0  0  0  0  0  0  0  0  0  0
    3.9101   -4.9672   -0.7705 C   0  0  0  0  0  0  0  0  0  0  0  0
    4.3166   -3.8060   -0.3028 N   0  0  0  0  0  0  0  0  0  0  0  0
    3.3430   -2.9474    0.0909 C   0  0  0  0  0  0  0  0  0  0  0  0
    3.8032   -1.7667    0.5786 N   0  0  0  0  0  0  0  0  0  0  0  0
    3.1320   -0.6497    1.1105 C   0  0  0  0  0  0  0  0  0  0  0  0
    3.9243    0.4636    1.4346 C   0  0  0  0  0  0  0  0  0  0  0  0
    3.3664    1.6057    1.9859 C   0  0  0  0  0  0  0  0  0  0  0  0
    1.9902    1.6698    2.2323 C   0  0  0  0  0  0  0  0  0  0  0  0
    1.5290    2.8255    2.7676 O   0  0  0  0  0  0  0  0  0  0  0  0
    0.1675    2.9199    3.1026 C   0  0  0  0  0  0  0  0  0  0  0  0
    1.1962    0.5677    1.9121 C   0  0  0  0  0  0  0  0  0  0  0  0
    1.7550   -0.5810    1.3499 C   0  0  0  0  0  0  0  0  0  0  0  0
    2.0360   -3.1735    0.0336 N   0  0  0  0  0  0  0  0  0  0  0  0
   -1.1640   -3.5721    1.1348 C   0  0  0  0  0  0  0  0  0  0  0  0
   -2.0570   -2.5499    1.4586 C   0  0  0  0  0  0  0  0  0  0  0  0
   -2.4221   -1.5762    0.5370 C   0  0  0  0  0  0  0  0  0  0  0  0
   -3.1469    1.3566   -0.6832 C   0  0  0  0  0  3  0  0  0  0  0  0
   -1.9634    1.5965    0.1352 C   0  0  0  0  0  0  0  0  0  0  0  0
   -0.4783    2.5016   -0.7235 S   0  0  0  0  0  0  0  0  0  0  0  0
   -1.3251    4.0380   -1.1686 C   0  0  0  0  0  0  0  0  0  0  0  0
   -1.3752    5.1030   -0.0528 C   0  0  2  0  0  0  0  0  0  0  0  0
   -1.6808    4.5971    0.8782 H   0  0  0  0  0  0  0  0  0  0  0  0
   -2.3415    6.1333   -0.3399 N   0  0  0  0  0  0  0  0  0  0  0  0
   -3.6399    6.0266    0.0406 C   0  0  0  0  0  0  0  0  0  0  0  0
   -4.5085    7.2275   -0.2901 C   0  0  0  0  0  0  0  0  0  0  0  0
   -4.0969    5.0343    0.5768 O   0  0  0  0  0  0  0  0  0  0  0  0
   -0.0296    5.8096    0.1828 C   0  0  0  0  0  0  0  0  0  0  0  0
    0.9709    5.0063    0.5901 N   0  0  0  0  0  0  0  0  0  0  0  0
    2.3060    5.4787    0.8479 C   0  0  0  0  0  0  0  0  0  0  0  0
    0.0866    7.0186    0.0208 O   0  0  0  0  0  0  0  0  0  0  0  0
   -2.0362   -0.9388   -2.6714 H   0  0  0  0  0  0  0  0  0  0  0  0
   -0.5602   -2.6768   -2.0987 H   0  0  0  0  0  0  0  0  0  0  0  0
   -0.1951   -8.6291   -1.1942 H   0  0  0  0  0  0  0  0  0  0  0  0
    1.2704   -8.7440   -2.2342 H   0  0  0  0  0  0  0  0  0  0  0  0
   -0.2416   -7.9635   -2.8235 H   0  0  0  0  0  0  0  0  0  0  0  0
    4.6680   -5.6893   -1.0954 H   0  0  0  0  0  0  0  0  0  0  0  0
    4.8128   -1.7068    0.5455 H   0  0  0  0  0  0  0  0  0  0  0  0
    5.0019    0.4322    1.2485 H   0  0  0  0  0  0  0  0  0  0  0  0
    3.9872    2.4683    2.2342 H   0  0  0  0  0  0  0  0  0  0  0  0
    0.0143    3.9294    3.5032 H   0  0  0  0  0  0  0  0  0  0  0  0
   -0.1107    2.1760    3.8699 H   0  0  0  0  0  0  0  0  0  0  0  0
   -0.4778    2.7850    2.2199 H   0  0  0  0  0  0  0  0  0  0  0  0
    0.1183    0.5857    2.0716 H   0  0  0  0  0  0  0  0  0  0  0  0
    1.1096   -1.4173    1.0892 H   0  0  0  0  0  0  0  0  0  0  0  0
   -0.8697   -4.3336    1.8577 H   0  0  0  0  0  0  0  0  0  0  0  0
   -2.4893   -2.5132    2.4619 H   0  0  0  0  0  0  0  0  0  0  0  0
   -3.1375   -0.7944    0.7983 H   0  0  0  0  0  0  0  0  0  0  0  0
   -3.9432    2.1040   -0.6657 H   0  0  0  0  0  0  0  0  0  0  0  0
   -1.4336    0.7015    0.4915 H   0  0  0  0  0  0  0  0  0  0  0  0
   -2.1962    2.2283    1.0056 H   0  0  0  0  0  0  0  0  0  0  0  0
   -2.3580    3.7537   -1.4295 H   0  0  0  0  0  0  0  0  0  0  0  0
   -0.8532    4.4567   -2.0703 H   0  0  0  0  0  0  0  0  0  0  0  0
   -1.9354    7.0328   -0.5797 H   0  0  0  0  0  0  0  0  0  0  0  0
   -3.9310    8.1353   -0.5143 H   0  0  0  0  0  0  0  0  0  0  0  0
   -5.1854    7.4152    0.5535 H   0  0  0  0  0  0  0  0  0  0  0  0
   -5.1277    6.9782   -1.1647 H   0  0  0  0  0  0  0  0  0  0  0  0
    0.7994    3.9980    0.5534 H   0  0  0  0  0  0  0  0  0  0  0  0
    2.2731    6.5660    0.9945 H   0  0  0  0  0  0  0  0  0  0  0  0
    2.9887    5.2622    0.0090 H   0  0  0  0  0  0  0  0  0  0  0  0
    2.6958    4.9919    1.7532 H   0  0  0  0  0  0  0  0  0  0  0  0
  1  2  2  0  0  0  0
  2 31  1  0  0  0  0
  3  2  1  0  0  0  0
  3  4  1  0  0  0  0
  4 30  1  0  0  0  0
  5  4  2  0  0  0  0
  5  6  1  0  0  0  0
  6 28  2  0  0  0  0
  7 13  1  0  0  0  0
  7  6  1  0  0  0  0
  8  7  1  0  0  0  0
  9  8  2  0  0  0  0
 10 12  2  0  0  0  0
 10  8  1  0  0  0  0
 11 10  1  0  0  0  0
 11 47  1  0  0  0  0
 12 14  1  0  0  0  0
 13 27  2  0  0  0  0
 14 15  2  0  0  0  0
 14 13  1  0  0  0  0
 15 16  1  0  0  0  0
 16 17  2  0  0  0  0
 17 18  1  0  0  0  0
 18 19  1  0  0  0  0
 19 26  2  0  0  0  0
 19 20  1  0  0  0  0
 20 21  2  0  0  0  0
 21 22  1  0  0  0  0
 21 53  1  0  0  0  0
 22 23  1  0  0  0  0
 23 24  1  0  0  0  0
 24 54  1  0  0  0  0
 24 55  1  0  0  0  0
 25 57  1  0  0  0  0
 25 22  2  0  0  0  0
 26 25  1  0  0  0  0
 27 17  1  0  0  0  0
 28 29  1  0  0  0  0
 28 59  1  0  0  0  0
 29 60  1  0  0  0  0
 30 61  1  0  0  0  0
 30 29  2  0  0  0  0
 31 62  1  0  0  0  0
 31 32  1  0  0  0  0
 32 63  1  0  0  0  0
 32 64  1  0  0  0  0
 33 32  1  0  0  0  0
 34 33  1  0  0  0  0
 34 35  1  0  0  0  0
 35 41  1  0  0  0  0
 35 36  1  1  0  0  0
 37 35  1  0  0  0  0
 37 38  1  0  0  0  0
 38 40  2  0  0  0  0
 39 38  1  0  0  0  0
 39 69  1  0  0  0  0
 41 42  1  0  0  0  0
 42 43  1  0  0  0  0
 43 72  1  0  0  0  0
 43 74  1  0  0  0  0
 44 41  2  0  0  0  0
 45  3  1  0  0  0  0
 46  5  1  0  0  0  0
 48 11  1  0  0  0  0
 49 11  1  0  0  0  0
 50 15  1  0  0  0  0
 51 18  1  0  0  0  0
 52 20  1  0  0  0  0
 56 24  1  0  0  0  0
 58 26  1  0  0  0  0
 65 34  1  0  0  0  0
 66 34  1  0  0  0  0
 67 37  1  0  0  0  0
 68 39  1  0  0  0  0
 70 39  1  0  0  0  0
 71 42  1  0  0  0  0
 73 43  1  0  0  0  0
M  END
