74
-1 1
O        -4.070605    0.291353   -2.601210
C        -3.242511    0.388018   -1.692400
N        -2.185198   -0.637084   -1.715081
C        -1.892272   -1.585030   -0.774920
C        -1.001588   -2.632829   -1.100454
C        -0.656082   -3.590841   -0.160796
N         0.296023   -4.609122   -0.540238
C        -0.162798   -5.839976   -1.014498
O        -1.339137   -6.112559   -1.090326
C         0.906270   -6.804228   -1.432215
C         0.415193   -8.117295   -1.953851
N         2.165927   -6.550271   -1.365079
C         1.643216   -4.343284   -0.449135
C         2.558430   -5.326289   -0.875344
C         3.910068   -4.967241   -0.770453
N         4.316648   -3.806012   -0.302771
C         3.343012   -2.947377    0.090934
N         3.803195   -1.766740    0.578555
C         3.131958   -0.649679    1.110482
C         3.924312    0.463594    1.434605
C         3.366437    1.605652    1.985852
C         1.990200    1.669771    2.232270
O         1.528958    2.825475    2.767644
C         0.167541    2.919895    3.102622
C         1.196191    0.567674    1.912132
C         1.755050   -0.580983    1.349916
N         2.035999   -3.173536    0.033618
C        -1.163980   -3.572112    1.134814
C        -2.057006   -2.549911    1.458604
C        -2.422083   -1.576227    0.537003
C        -3.146854    1.356590   -0.683242
C        -1.963358    1.596512    0.135176
S        -0.478300    2.501552   -0.723534
C        -1.325081    4.037995   -1.168629
C        -1.375208    5.103032   -0.052838
H        -1.680808    4.597091    0.878160
N        -2.341492    6.133348   -0.339867
C        -3.639943    6.026647    0.040614
C        -4.508490    7.227469   -0.290068
O        -4.096901    5.034350    0.576772
C        -0.029625    5.809642    0.182822
N         0.970941    5.006270    0.590060
C         2.305956    5.478732    0.847918
O         0.086614    7.018578    0.020758
H        -2.036197   -0.938833   -2.671383
H        -0.560170   -2.676828   -2.098656
H        -0.195139   -8.629072   -1.194242
H         1.270374   -8.743979   -2.234230
H        -0.241596   -7.963506   -2.823539
H         4.668004   -5.689264   -1.095420
H         4.812753   -1.706800    0.545476
H         5.001941    0.432201    1.248533
H         3.987151    2.468314    2.234199
H         0.014287    3.929396    3.503224
H        -0.110652    2.175983    3.869916
H        -0.477786    2.785000    2.219875
H         0.118350    0.585679    2.071613
H         1.109571   -1.417292    1.089193
H        -0.869661   -4.333637    1.857712
H        -2.489251   -2.513155    2.461935
H        -3.137494   -0.794381    0.798310
H        -3.943163    2.104001   -0.665736
H        -1.433572    0.701493    0.491462
H        -2.196247    2.228336    1.005612
H        -2.358017    3.753681   -1.429458
H        -0.853179    4.456679   -2.070301
H        -1.935445    7.032755   -0.579656
H        -3.931002    8.135348   -0.514277
H        -5.185352    7.415169    0.553533
H        -5.127657    6.978216   -1.164660
H         0.799434    3.997966    0.553436
H         2.273101    6.565995    0.994503
H         2.988718    5.262196    0.008960
H         2.695801    4.991859    1.753213
