-1 1
 OpenBabel05192410563D

 71 74  0  0  1  0  0  0  0  0999 V2000
    2.8178   -2.8431   -2.4656 O   0  0  0  0  0  0  0  0  0  0  0  0
    2.1037   -2.5979   -1.4562 C   0  0  0  0  0  0  0  0  0  0  0  0
    1.7848   -1.2067   -1.2706 N   0  0  0  0  0  0  0  0  0  0  0  0
    2.0193   -0.4287   -0.1556 C   0  0  0  0  0  0  0  0  0  0  0  0
    2.5309   -0.9431    1.0525 C   0  0  0  0  0  0  0  0  0  0  0  0
    2.7307   -0.1129    2.1482 C   0  0  0  0  0  0  0  0  0  0  0  0
    2.4449    1.2529    2.0893 C   0  0  0  0  0  0  0  0  0  0  0  0
    2.6533    2.0604    3.2433 N   0  0  0  0  0  0  0  0  0  0  0  0
    1.7508    2.8957    3.8017 C   0  0  0  0  0  0  0  0  0  0  0  0
    2.1018    3.4724    4.9810 N   0  0  0  0  0  0  0  0  0  0  0  0
    1.2039    4.2670    5.5238 C   0  0  0  0  0  0  0  0  0  0  0  0
    0.6003    3.0853    3.1608 N   0  0  0  0  0  0  0  0  0  0  0  0
   -0.2904    3.8773    3.7211 C   0  0  0  0  0  0  0  0  0  0  0  0
   -0.0530    4.5280    4.9500 C   0  0  0  0  0  0  0  0  0  0  0  0
   -0.9793    5.3585    5.5347 N   0  0  0  0  0  0  0  0  0  0  0  0
   -2.0910    5.5323    4.9146 C   0  0  0  0  0  0  0  0  0  0  0  0
   -2.4679    4.9192    3.6126 C   0  0  0  0  0  0  0  0  0  0  0  0
   -3.5248    5.1388    3.0655 O   0  0  0  0  0  0  0  0  0  0  0  0
   -1.4959    4.0713    3.0733 N   0  0  0  0  0  0  0  0  0  0  0  0
   -1.6876    3.4095    1.8103 C   0  0  0  0  0  0  0  0  0  0  0  0
   -1.5376    4.1203    0.6199 C   0  0  0  0  0  0  0  0  0  0  0  0
   -1.5233    3.4453   -0.5906 C   0  0  0  0  0  0  0  0  0  0  0  0
   -1.6338    2.0448   -0.6280 C   0  0  0  0  0  0  0  0  0  0  0  0
   -1.5249    1.4707   -1.8311 O   0  0  0  0  0  0  0  0  0  0  0  0
   -1.5314    0.0561   -1.9217 C   0  0  0  0  0  0  0  0  0  0  0  0
   -1.8274    1.3407    0.5686 C   0  0  0  0  0  0  0  0  0  0  0  0
   -1.8510    2.0301    1.7765 C   0  0  0  0  0  0  0  0  0  0  0  0
    1.9488    1.7775    0.8913 C   0  0  0  0  0  0  0  0  0  0  0  0
    1.7354    0.9526   -0.2033 C   0  0  0  0  0  0  0  0  0  0  0  0
    1.5550   -3.5182   -0.5753 C   0  0  0  0  0  3  0  0  0  0  0  0
    0.3314   -3.2959    0.2201 C   0  0  0  0  0  0  0  0  0  0  0  0
   -1.3105   -3.4491   -0.7470 S   0  0  0  0  0  0  0  0  0  0  0  0
   -0.8268   -4.6560   -2.0110 C   0  0  0  0  0  0  0  0  0  0  0  0
   -0.3126   -4.0644   -3.3380 C   0  0  2  0  0  0  0  0  0  0  0  0
    0.2714   -3.1555   -3.1537 H   0  0  0  0  0  0  0  0  0  0  0  0
   -1.4077   -3.7193   -4.2173 N   0  0  0  0  0  0  0  0  0  0  0  0
   -1.5327   -2.5184   -4.8346 C   0  0  0  0  0  0  0  0  0  0  0  0
   -2.6840   -2.4226   -5.8205 C   0  0  0  0  0  0  0  0  0  0  0  0
   -0.8236   -1.5546   -4.6026 O   0  0  0  0  0  0  0  0  0  0  0  0
    0.5507   -5.1219   -4.0380 C   0  0  0  0  0  0  0  0  0  0  0  0
    1.8635   -5.0359   -3.7893 N   0  0  0  0  0  0  0  0  0  0  0  0
    2.7799   -6.0084   -4.3214 C   0  0  0  0  0  0  0  0  0  0  0  0
    0.0207   -5.9948   -4.7218 O   0  0  0  0  0  0  0  0  0  0  0  0
    1.8102   -0.7102   -2.1546 H   0  0  0  0  0  0  0  0  0  0  0  0
    2.7551   -2.0089    1.1130 H   0  0  0  0  0  0  0  0  0  0  0  0
    3.1127   -0.5419    3.0793 H   0  0  0  0  0  0  0  0  0  0  0  0
    3.4772    1.8945    3.8072 H   0  0  0  0  0  0  0  0  0  0  0  0
    1.4503    4.7496    6.4769 H   0  0  0  0  0  0  0  0  0  0  0  0
   -2.8576    6.1861    5.3461 H   0  0  0  0  0  0  0  0  0  0  0  0
   -1.4071    5.2038    0.6492 H   0  0  0  0  0  0  0  0  0  0  0  0
   -1.3900    3.9769   -1.5341 H   0  0  0  0  0  0  0  0  0  0  0  0
   -1.3645   -0.2008   -2.9733 H   0  0  0  0  0  0  0  0  0  0  0  0
   -2.4963   -0.3611   -1.5888 H   0  0  0  0  0  0  0  0  0  0  0  0
   -0.7226   -0.3950   -1.3248 H   0  0  0  0  0  0  0  0  0  0  0  0
   -1.9137    0.2547    0.5694 H   0  0  0  0  0  0  0  0  0  0  0  0
   -1.9453    1.4760    2.7120 H   0  0  0  0  0  0  0  0  0  0  0  0
    1.6931    2.8348    0.8230 H   0  0  0  0  0  0  0  0  0  0  0  0
    1.3176    1.3782   -1.1199 H   0  0  0  0  0  0  0  0  0  0  0  0
    1.8876   -4.5494   -0.7195 H   0  0  0  0  0  0  0  0  0  0  0  0
    0.2469   -2.2877    0.6517 H   0  0  0  0  0  0  0  0  0  0  0  0
    0.2395   -4.0199    1.0422 H   0  0  0  0  0  0  0  0  0  0  0  0
   -1.6987   -5.2951   -2.2163 H   0  0  0  0  0  0  0  0  0  0  0  0
   -0.0490   -5.2969   -1.5766 H   0  0  0  0  0  0  0  0  0  0  0  0
   -1.8614   -4.5248   -4.6354 H   0  0  0  0  0  0  0  0  0  0  0  0
   -2.3435   -1.8680   -6.7045 H   0  0  0  0  0  0  0  0  0  0  0  0
   -3.4927   -1.8417   -5.3524 H   0  0  0  0  0  0  0  0  0  0  0  0
   -3.0837   -3.3995   -6.1265 H   0  0  0  0  0  0  0  0  0  0  0  0
    2.2514   -4.2100   -3.2696 H   0  0  0  0  0  0  0  0  0  0  0  0
    3.7373   -5.9219   -3.7898 H   0  0  0  0  0  0  0  0  0  0  0  0
    2.9658   -5.8621   -5.4003 H   0  0  0  0  0  0  0  0  0  0  0  0
    2.3843   -7.0279   -4.1945 H   0  0  0  0  0  0  0  0  0  0  0  0
  1  2  2  0  0  0  0
  2  3  1  0  0  0  0
  2 30  1  0  0  0  0
  3  4  1  0  0  0  0
  4  5  1  0  0  0  0
  5 45  1  0  0  0  0
  5  6  2  0  0  0  0
  6 46  1  0  0  0  0
  7  6  1  0  0  0  0
  7  8  1  0  0  0  0
  8  9  1  0  0  0  0
  8 47  1  0  0  0  0
  9 10  2  0  0  0  0
 10 11  1  0  0  0  0
 11 48  1  0  0  0  0
 12 13  2  0  0  0  0
 12  9  1  0  0  0  0
 13 14  1  0  0  0  0
 14 11  2  0  0  0  0
 14 15  1  0  0  0  0
 16 49  1  0  0  0  0
 16 15  2  0  0  0  0
 17 16  1  0  0  0  0
 18 17  2  0  0  0  0
 19 17  1  0  0  0  0
 19 13  1  0  0  0  0
 20 19  1  0  0  0  0
 21 50  1  0  0  0  0
 21 20  2  0  0  0  0
 22 21  1  0  0  0  0
 23 22  2  0  0  0  0
 23 26  1  0  0  0  0
 24 23  1  0  0  0  0
 25 24  1  0  0  0  0
 25 53  1  0  0  0  0
 25 54  1  0  0  0  0
 26 55  1  0  0  0  0
 26 27  2  0  0  0  0
 27 20  1  0  0  0  0
 27 56  1  0  0  0  0
 28  7  2  0  0  0  0
 29  4  2  0  0  0  0
 29 28  1  0  0  0  0
 30 31  1  0  0  0  0
 31 60  1  0  0  0  0
 31 61  1  0  0  0  0
 32 31  1  0  0  0  0
 33 63  1  0  0  0  0
 33 32  1  0  0  0  0
 34 35  1  1  0  0  0
 34 33  1  0  0  0  0
 36 34  1  0  0  0  0
 37 39  2  0  0  0  0
 37 36  1  0  0  0  0
 38 66  1  0  0  0  0
 38 37  1  0  0  0  0
 40 41  1  0  0  0  0
 40 34  1  0  0  0  0
 41 68  1  0  0  0  0
 42 71  1  0  0  0  0
 42 69  1  0  0  0  0
 42 41  1  0  0  0  0
 43 40  2  0  0  0  0
 44  3  1  0  0  0  0
 51 22  1  0  0  0  0
 52 25  1  0  0  0  0
 57 28  1  0  0  0  0
 58 29  1  0  0  0  0
 59 30  1  0  0  0  0
 62 33  1  0  0  0  0
 64 36  1  0  0  0  0
 65 38  1  0  0  0  0
 67 38  1  0  0  0  0
 70 42  1  0  0  0  0
M  END
