71
-1 1
O         0.846739    2.463665   -4.763172
C         0.780066    1.334084   -4.286014
N         0.578197    1.133953   -2.957300
C         0.677629   -0.074837   -2.242950
C         1.834153   -0.858886   -2.311804
C         1.946313   -2.015152   -1.548055
C         0.901385   -2.383492   -0.706073
N         1.030533   -3.552304    0.126897
C         1.060951   -4.824025   -0.465738
O         1.019098   -4.994324   -1.660332
C         1.151626   -5.957168    0.494153
N         1.233983   -5.854248    1.768718
C         1.133467   -3.416244    1.495343
C         1.232901   -4.581732    2.296129
C         1.333445   -4.358669    3.670026
N         1.336217   -3.154168    4.215271
C         1.235891   -2.120597    3.361104
N         1.223203   -0.840869    3.826968
C         1.293167   -0.303197    5.119934
C         1.447547   -1.062105    6.291809
C         1.509549   -0.431207    7.526600
C         1.421453    0.960415    7.639802
O         1.493007    1.474153    8.892935
C         1.399415    2.859203    9.055291
C         1.267710    1.720806    6.477848
C         1.204980    1.088041    5.237638
N         1.140965   -2.209289    2.030191
C        -0.258990   -1.615228   -0.642782
C        -0.375388   -0.461747   -1.407239
C         0.833415    0.145208   -5.191642
C        -0.138885   -0.768577   -5.203425
S        -3.205298    0.473255   -3.311438
C        -3.045602    1.944430   -4.375161
C        -2.253070    3.114854   -3.748145
H        -1.211831    2.815172   -3.616857
N        -2.747271    3.463783   -2.438964
C        -2.085525    3.162128   -1.307117
C        -2.916881    3.209566   -0.043668
O        -0.894529    2.859650   -1.259828
C        -2.297125    4.330277   -4.667987
N        -1.227943    4.418968   -5.498271
C        -1.112815    5.441061   -6.500595
O        -3.239738    5.108071   -4.679077
H         0.160534    1.919730   -2.430917
H         2.655671   -0.549236   -2.960238
H         2.849330   -2.625736   -1.597067
H         1.147262   -6.947917    0.025531
H         1.414020   -5.225378    4.335103
H         1.126608   -0.171651    3.071555
H         1.513713   -2.144817    6.216811
H         1.628275   -1.017448    8.439708
H         1.474599    3.058655   10.131787
H         0.435121    3.254536    8.688085
H         2.217421    3.392772    8.538224
H         1.192712    2.807666    6.514305
H         1.081780    1.698805    4.339162
H        -1.080513   -1.923783    0.006213
H        -1.295439    0.128956   -1.423123
H         1.624396    0.165107   -5.948012
H        -0.982532   -0.721348   -4.495743
H        -0.149716   -1.559638   -5.958636
H        -4.040398    2.334913   -4.655025
H        -2.531358    1.696316   -5.320383
H        -3.746706    3.612125   -2.378550
H        -3.724422    3.953763   -0.096569
H        -2.264545    3.421869    0.812056
H        -3.370306    2.215060    0.088134
H        -0.460843    3.758990   -5.361526
H        -2.031514    6.042168   -6.476540
H        -0.995546    5.008831   -7.508402
H        -0.252749    6.105594   -6.310624
