-1 1
 OpenBabel05232414493D

 71 73  0  0  1  0  0  0  0  0999 V2000
    8.3660  -10.5995   -0.1380 O   0  0  0  0  0  0  0  0  0  0  0  0
    8.1049  -11.7995   -0.0170 C   0  0  0  0  0  0  0  0  0  0  0  0
    7.5576  -12.2135    1.2074 N   0  0  0  0  0  0  0  0  0  0  0  0
    7.6461  -13.4222    1.8710 C   0  0  0  0  0  0  0  0  0  0  0  0
    8.7491  -14.2840    1.7304 C   0  0  0  0  0  0  0  0  0  0  0  0
    8.8305  -15.4512    2.4767 C   0  0  0  0  0  0  0  0  0  0  0  0
    7.8237  -15.7787    3.3810 C   0  0  0  0  0  0  0  0  0  0  0  0
    7.9328  -16.9681    4.1855 N   0  0  0  0  0  0  0  0  0  0  0  0
    7.7415  -18.2236    3.5873 C   0  0  0  0  0  0  0  0  0  0  0  0
    7.5095  -18.3624    2.4112 O   0  0  0  0  0  0  0  0  0  0  0  0
    7.8467  -19.3808    4.5173 C   0  0  0  0  0  0  0  0  0  0  0  0
    8.1096  -19.3134    5.7694 N   0  0  0  0  0  0  0  0  0  0  0  0
    8.2299  -16.8720    5.5276 C   0  0  0  0  0  0  0  0  0  0  0  0
    8.3109  -18.0581    6.3008 C   0  0  0  0  0  0  0  0  0  0  0  0
    8.6120  -17.8758    7.6505 C   0  0  0  0  0  0  0  0  0  0  0  0
    8.8141  -16.6894    8.1990 N   0  0  0  0  0  0  0  0  0  0  0  0
    8.7148  -15.6343    7.3723 C   0  0  0  0  0  0  0  0  0  0  0  0
    8.9069  -14.3705    7.8450 N   0  0  0  0  0  0  0  0  0  0  0  0
    9.2130  -13.8727    9.1192 C   0  0  0  0  0  0  0  0  0  0  0  0
    9.4112  -14.6686   10.2598 C   0  0  0  0  0  0  0  0  0  0  0  0
    9.7120  -14.0763   11.4785 C   0  0  0  0  0  0  0  0  0  0  0  0
    9.8256  -12.6878   11.6066 C   0  0  0  0  0  0  0  0  0  0  0  0
   10.1226  -12.2133   12.8419 O   0  0  0  0  0  0  0  0  0  0  0  0
   10.2427  -10.8320   13.0178 C   0  0  0  0  0  0  0  0  0  0  0  0
    9.6296  -11.8906   10.4761 C   0  0  0  0  0  0  0  0  0  0  0  0
    9.3274  -12.4847    9.2519 C   0  0  0  0  0  0  0  0  0  0  0  0
    8.4329  -15.6829    6.0661 N   0  0  0  0  0  0  0  0  0  0  0  0
    6.7219  -14.9386    3.5249 C   0  0  0  0  0  0  0  0  0  0  0  0
    6.6286  -13.7733    2.7785 C   0  0  0  0  0  0  0  0  0  0  0  0
    8.1981  -12.7375   -1.1179 C   0  0  0  0  0  3  0  0  0  0  0  0
    7.4366  -13.8713   -1.2237 C   0  0  0  0  0  3  0  0  0  0  0  0
    4.9194  -13.3063   -1.7670 S   0  0  0  0  0  1  0  0  0  0  0  0
    5.2676  -11.5639   -2.1069 C   0  0  0  0  0  0  0  0  0  0  0  0
    5.1370  -10.6039   -0.9017 C   0  0  2  0  0  0  0  0  0  0  0  0
    5.9400  -10.8088   -0.1929 H   0  0  0  0  0  0  0  0  0  0  0  0
    3.9116  -10.7889   -0.1694 N   0  0  0  0  0  0  0  0  0  0  0  0
    3.8864  -11.1700    1.1216 C   0  0  0  0  0  0  0  0  0  0  0  0
    2.5458  -11.6627    1.6232 C   0  0  0  0  0  0  0  0  0  0  0  0
    4.8665  -11.1535    1.8625 O   0  0  0  0  0  0  0  0  0  0  0  0
    5.2759   -9.1631   -1.3912 C   0  0  0  0  0  0  0  0  0  0  0  0
    6.5606   -8.7334   -1.4336 N   0  0  0  0  0  0  0  0  0  0  0  0
    6.9227   -7.4417   -1.9468 C   0  0  0  0  0  0  0  0  0  0  0  0
    4.3162   -8.5039   -1.7618 O   0  0  0  0  0  0  0  0  0  0  0  0
    6.8729  -11.5549    1.5844 H   0  0  0  0  0  0  0  0  0  0  0  0
    9.5395  -14.0308    1.0234 H   0  0  0  0  0  0  0  0  0  0  0  0
    9.6916  -16.1127    2.3624 H   0  0  0  0  0  0  0  0  0  0  0  0
    7.6773  -20.3562    4.0468 H   0  0  0  0  0  0  0  0  0  0  0  0
    8.6856  -18.7598    8.2933 H   0  0  0  0  0  0  0  0  0  0  0  0
    8.7958  -13.6795    7.1120 H   0  0  0  0  0  0  0  0  0  0  0  0
    9.3244  -15.7489   10.1728 H   0  0  0  0  0  0  0  0  0  0  0  0
    9.8663  -14.6915   12.3669 H   0  0  0  0  0  0  0  0  0  0  0  0
   10.4814  -10.6661   14.0760 H   0  0  0  0  0  0  0  0  0  0  0  0
    9.3034  -10.3012   12.7791 H   0  0  0  0  0  0  0  0  0  0  0  0
   11.0539  -10.4052   12.4006 H   0  0  0  0  0  0  0  0  0  0  0  0
    9.7067  -10.8044   10.5252 H   0  0  0  0  0  0  0  0  0  0  0  0
    9.1764  -11.8450    8.3782 H   0  0  0  0  0  0  0  0  0  0  0  0
    5.9298  -15.2007    4.2294 H   0  0  0  0  0  0  0  0  0  0  0  0
    5.7651  -13.1105    2.8695 H   0  0  0  0  0  0  0  0  0  0  0  0
    8.7143  -12.3350   -1.9933 H   0  0  0  0  0  0  0  0  0  0  0  0
    6.9814  -14.3502   -0.3609 H   0  0  0  0  0  0  0  0  0  0  0  0
    7.4979  -14.4830   -2.1237 H   0  0  0  0  0  0  0  0  0  0  0  0
    4.6095  -11.1955   -2.9123 H   0  0  0  0  0  0  0  0  0  0  0  0
    6.3060  -11.4550   -2.4697 H   0  0  0  0  0  0  0  0  0  0  0  0
    3.0694  -10.8951   -0.7190 H   0  0  0  0  0  0  0  0  0  0  0  0
    1.6987  -11.2240    1.0771 H   0  0  0  0  0  0  0  0  0  0  0  0
    2.4566  -11.4402    2.6937 H   0  0  0  0  0  0  0  0  0  0  0  0
    2.5192  -12.7543    1.4846 H   0  0  0  0  0  0  0  0  0  0  0  0
    7.2893   -9.3439   -1.0511 H   0  0  0  0  0  0  0  0  0  0  0  0
    6.0082   -6.9499   -2.3041 H   0  0  0  0  0  0  0  0  0  0  0  0
    7.6345   -7.5245   -2.7851 H   0  0  0  0  0  0  0  0  0  0  0  0
    7.3826   -6.8084   -1.1693 H   0  0  0  0  0  0  0  0  0  0  0  0
  1  2  2  0  0  0  0
  2  3  1  0  0  0  0
  3 44  1  0  0  0  0
  3  4  1  0  0  0  0
  4 29  1  0  0  0  0
  5  4  2  0  0  0  0
  5  6  1  0  0  0  0
  6  7  2  0  0  0  0
  7 28  1  0  0  0  0
  7  8  1  0  0  0  0
  8 13  1  0  0  0  0
  9  8  1  0  0  0  0
  9 11  1  0  0  0  0
 10  9  2  0  0  0  0
 11 12  2  0  0  0  0
 12 14  1  0  0  0  0
 13 27  2  0  0  0  0
 13 14  1  0  0  0  0
 14 15  2  0  0  0  0
 15 16  1  0  0  0  0
 15 48  1  0  0  0  0
 17 18  1  0  0  0  0
 17 16  2  0  0  0  0
 18 19  1  0  0  0  0
 19 26  2  0  0  0  0
 19 20  1  0  0  0  0
 20 21  2  0  0  0  0
 21 22  1  0  0  0  0
 21 51  1  0  0  0  0
 22 23  1  0  0  0  0
 23 24  1  0  0  0  0
 24 52  1  0  0  0  0
 25 55  1  0  0  0  0
 25 22  2  0  0  0  0
 26 25  1  0  0  0  0
 27 17  1  0  0  0  0
 28 57  1  0  0  0  0
 29 58  1  0  0  0  0
 29 28  2  0  0  0  0
 30  2  1  0  0  0  0
 31 30  1  0  0  0  0
 31 60  1  0  0  0  0
 33 32  1  0  0  0  0
 33 34  1  0  0  0  0
 34 35  1  1  0  0  0
 34 36  1  0  0  0  0
 36 37  1  0  0  0  0
 37 38  1  0  0  0  0
 37 39  2  0  0  0  0
 38 66  1  0  0  0  0
 40 34  1  0  0  0  0
 41 40  1  0  0  0  0
 41 68  1  0  0  0  0
 42 41  1  0  0  0  0
 42 71  1  0  0  0  0
 43 40  2  0  0  0  0
 45  5  1  0  0  0  0
 46  6  1  0  0  0  0
 47 11  1  0  0  0  0
 49 18  1  0  0  0  0
 50 20  1  0  0  0  0
 53 24  1  0  0  0  0
 54 24  1  0  0  0  0
 56 26  1  0  0  0  0
 59 30  1  0  0  0  0
 61 31  1  0  0  0  0
 62 33  1  0  0  0  0
 63 33  1  0  0  0  0
 64 36  1  0  0  0  0
 65 38  1  0  0  0  0
 67 38  1  0  0  0  0
 69 42  1  0  0  0  0
 70 42  1  0  0  0  0
M  END
