-1 1
 OpenBabel05192410563D

 71 74  0  0  1  0  0  0  0  0999 V2000
    1.4134    2.8640   -3.5363 O   0  0  0  0  0  0  0  0  0  0  0  0
    1.4134    3.2101   -2.3447 C   0  0  0  0  0  0  0  0  0  0  0  0
    2.2984    2.4047   -1.5013 N   0  0  0  0  0  0  0  0  0  0  0  0
    1.9892    1.5488   -0.4630 C   0  0  0  0  0  0  0  0  0  0  0  0
    2.8139    0.4259   -0.2433 C   0  0  0  0  0  0  0  0  0  0  0  0
    2.5538   -0.4583    0.7939 C   0  0  0  0  0  0  0  0  0  0  0  0
    3.4582   -1.5675    0.9829 N   0  0  0  0  0  0  0  0  0  0  0  0
    4.7486   -1.2971    1.4710 C   0  0  0  0  0  0  0  0  0  0  0  0
    5.1136   -0.1877    1.7814 O   0  0  0  0  0  0  0  0  0  0  0  0
    5.6366   -2.4809    1.5680 C   0  0  0  0  0  0  0  0  0  0  0  0
    5.3122   -3.6825    1.2580 N   0  0  0  0  0  0  0  0  0  0  0  0
    3.0769   -2.8565    0.6772 C   0  0  0  0  0  0  0  0  0  0  0  0
    4.0295   -3.8923    0.8125 C   0  0  0  0  0  0  0  0  0  0  0  0
    3.5863   -5.1717    0.4457 C   0  0  0  0  0  0  0  0  0  0  0  0
    2.3654   -5.4205    0.0344 N   0  0  0  0  0  0  0  0  0  0  0  0
    1.5215   -4.3547   -0.0184 C   0  0  0  0  0  0  0  0  0  0  0  0
    0.2645   -4.6871   -0.3966 N   0  0  0  0  0  0  0  0  0  0  0  0
   -0.9429   -3.9624   -0.4493 C   0  0  0  0  0  0  0  0  0  0  0  0
   -2.1013   -4.7049   -0.7318 C   0  0  0  0  0  0  0  0  0  0  0  0
   -3.3442   -4.0969   -0.7877 C   0  0  0  0  0  0  0  0  0  0  0  0
   -3.4691   -2.7189   -0.5607 C   0  0  0  0  0  0  0  0  0  0  0  0
   -4.7194   -2.2153   -0.6235 O   0  0  0  0  0  0  0  0  0  0  0  0
   -4.9044   -0.8360   -0.4005 C   0  0  0  0  0  0  0  0  0  0  0  0
   -2.3193   -1.9701   -0.2882 C   0  0  0  0  0  0  0  0  0  0  0  0
   -1.0658   -2.5870   -0.2349 C   0  0  0  0  0  0  0  0  0  0  0  0
    1.8377   -3.0928    0.2635 N   0  0  0  0  0  0  0  0  0  0  0  0
    1.4648   -0.2900    1.6445 C   0  0  0  0  0  0  0  0  0  0  0  0
    0.6371    0.8083    1.4201 C   0  0  0  0  0  0  0  0  0  0  0  0
    0.8948    1.7195    0.4031 C   0  0  0  0  0  0  0  0  0  0  0  0
    0.7135    4.3027   -1.8102 C   0  0  0  0  0  3  0  0  0  0  0  0
    0.8785    4.9074   -0.4854 C   0  0  0  0  0  0  0  0  0  0  0  0
   -0.6459    4.8838    0.7160 S   0  0  0  0  0  0  0  0  0  0  0  0
   -2.0522    4.7799   -0.4277 C   0  0  0  0  0  0  0  0  0  0  0  0
   -2.9296    3.5434   -0.2289 C   0  0  2  0  0  0  0  0  0  0  0  0
   -3.8124    3.6398   -0.8826 H   0  0  0  0  0  0  0  0  0  0  0  0
   -3.4370    3.4681    1.1182 N   0  0  0  0  0  0  0  0  0  0  0  0
   -4.6265    2.8483    1.3780 C   0  0  0  0  0  0  0  0  0  0  0  0
   -4.8032    2.4101    2.8178 C   0  0  0  0  0  0  0  0  0  0  0  0
   -5.4790    2.6589    0.5317 O   0  0  0  0  0  0  0  0  0  0  0  0
   -2.3171    2.1756   -0.6106 C   0  0  0  0  0  0  0  0  0  0  0  0
   -1.5721    2.1276   -1.7271 N   0  0  0  0  0  0  0  0  0  0  0  0
   -1.0254    0.8733   -2.2049 C   0  0  0  0  0  0  0  0  0  0  0  0
   -2.6113    1.1849    0.0478 O   0  0  0  0  0  0  0  0  0  0  0  0
    2.9594    1.9834   -2.1461 H   0  0  0  0  0  0  0  0  0  0  0  0
    3.6778    0.2531   -0.8891 H   0  0  0  0  0  0  0  0  0  0  0  0
    6.6463   -2.2643    1.9347 H   0  0  0  0  0  0  0  0  0  0  0  0
    4.2953   -6.0053    0.5083 H   0  0  0  0  0  0  0  0  0  0  0  0
    0.1855   -5.6796   -0.5795 H   0  0  0  0  0  0  0  0  0  0  0  0
   -2.0240   -5.7825   -0.9064 H   0  0  0  0  0  0  0  0  0  0  0  0
   -4.2439   -4.6757   -1.0046 H   0  0  0  0  0  0  0  0  0  0  0  0
   -5.9811   -0.6445   -0.4784 H   0  0  0  0  0  0  0  0  0  0  0  0
   -4.3683   -0.2229   -1.1409 H   0  0  0  0  0  0  0  0  0  0  0  0
   -4.5507   -0.5276    0.5958 H   0  0  0  0  0  0  0  0  0  0  0  0
   -2.3733   -0.8903   -0.1243 H   0  0  0  0  0  0  0  0  0  0  0  0
   -0.1829   -1.9864   -0.0195 H   0  0  0  0  0  0  0  0  0  0  0  0
    1.2665   -1.0066    2.4418 H   0  0  0  0  0  0  0  0  0  0  0  0
   -0.2451    0.9640    2.0444 H   0  0  0  0  0  0  0  0  0  0  0  0
    0.2259    2.5656    0.2727 H   0  0  0  0  0  0  0  0  0  0  0  0
    0.2342    4.9049   -2.5889 H   0  0  0  0  0  0  0  0  0  0  0  0
    1.1078    5.9814   -0.5270 H   0  0  0  0  0  0  0  0  0  0  0  0
    1.6528    4.4094    0.1161 H   0  0  0  0  0  0  0  0  0  0  0  0
   -1.6448    4.7981   -1.4496 H   0  0  0  0  0  0  0  0  0  0  0  0
   -2.6810    5.6727   -0.3035 H   0  0  0  0  0  0  0  0  0  0  0  0
   -2.7173    3.4056    1.8315 H   0  0  0  0  0  0  0  0  0  0  0  0
   -4.3778    3.1341    3.5278 H   0  0  0  0  0  0  0  0  0  0  0  0
   -4.2799    1.4503    2.9489 H   0  0  0  0  0  0  0  0  0  0  0  0
   -5.8702    2.2642    3.0228 H   0  0  0  0  0  0  0  0  0  0  0  0
   -1.0527    2.9696   -1.9939 H   0  0  0  0  0  0  0  0  0  0  0  0
   -0.2928    1.1011   -2.9893 H   0  0  0  0  0  0  0  0  0  0  0  0
   -1.8222    0.2305   -2.6113 H   0  0  0  0  0  0  0  0  0  0  0  0
   -0.5245    0.3190   -1.3964 H   0  0  0  0  0  0  0  0  0  0  0  0
  1  2  2  0  0  0  0
  2 30  1  0  0  0  0
  2  3  1  0  0  0  0
  3  4  1  0  0  0  0
  4  5  2  0  0  0  0
  4 29  1  0  0  0  0
  5  6  1  0  0  0  0
  6  7  1  0  0  0  0
  6 27  2  0  0  0  0
  7  8  1  0  0  0  0
  8 10  1  0  0  0  0
  8  9  2  0  0  0  0
 10 46  1  0  0  0  0
 11 10  2  0  0  0  0
 12 13  1  0  0  0  0
 12  7  1  0  0  0  0
 13 11  1  0  0  0  0
 14 47  1  0  0  0  0
 14 13  2  0  0  0  0
 15 14  1  0  0  0  0
 16 15  2  0  0  0  0
 16 26  1  0  0  0  0
 17 16  1  0  0  0  0
 18 17  1  0  0  0  0
 18 25  1  0  0  0  0
 19 18  2  0  0  0  0
 20 19  1  0  0  0  0
 20 21  2  0  0  0  0
 21 24  1  0  0  0  0
 22 21  1  0  0  0  0
 22 23  1  0  0  0  0
 23 53  1  0  0  0  0
 24 25  2  0  0  0  0
 24 54  1  0  0  0  0
 25 55  1  0  0  0  0
 26 12  2  0  0  0  0
 27 56  1  0  0  0  0
 28 27  1  0  0  0  0
 28 57  1  0  0  0  0
 29 28  2  0  0  0  0
 30 31  1  0  0  0  0
 31 61  1  0  0  0  0
 31 32  1  0  0  0  0
 33 63  1  0  0  0  0
 33 34  1  0  0  0  0
 33 32  1  0  0  0  0
 34 35  1  6  0  0  0
 34 36  1  0  0  0  0
 36 37  1  0  0  0  0
 36 64  1  0  0  0  0
 37 38  1  0  0  0  0
 38 66  1  0  0  0  0
 38 67  1  0  0  0  0
 38 65  1  0  0  0  0
 39 37  2  0  0  0  0
 40 34  1  0  0  0  0
 40 43  2  0  0  0  0
 41 40  1  0  0  0  0
 42 41  1  0  0  0  0
 42 71  1  0  0  0  0
 44  3  1  0  0  0  0
 45  5  1  0  0  0  0
 48 17  1  0  0  0  0
 49 19  1  0  0  0  0
 50 20  1  0  0  0  0
 51 23  1  0  0  0  0
 52 23  1  0  0  0  0
 58 29  1  0  0  0  0
 59 30  1  0  0  0  0
 60 31  1  0  0  0  0
 62 33  1  0  0  0  0
 68 41  1  0  0  0  0
 69 42  1  0  0  0  0
 70 42  1  0  0  0  0
M  END
