-1 1
 OpenBabel05232414493D

 71 73  0  0  1  0  0  0  0  0999 V2000
    5.6771   -9.7512    0.5684 O   0  0  0  0  0  0  0  0  0  0  0  0
    5.9590   -9.6314    1.7687 C   0  0  0  0  0  0  0  0  0  0  0  0
    6.6957  -10.7328    2.3033 N   0  0  0  0  0  0  0  0  0  0  0  0
    6.6291  -11.4773    3.4697 C   0  0  0  0  0  0  0  0  0  0  0  0
    7.5083  -12.5694    3.5991 C   0  0  0  0  0  0  0  0  0  0  0  0
    7.4541  -13.3910    4.7158 C   0  0  0  0  0  0  0  0  0  0  0  0
    8.3912  -14.4838    4.8107 N   0  0  0  0  0  0  0  0  0  0  0  0
    9.7226  -14.1949    5.1543 C   0  0  0  0  0  0  0  0  0  0  0  0
   10.1090  -13.0750    5.3922 O   0  0  0  0  0  0  0  0  0  0  0  0
   10.6203  -15.3753    5.1973 C   0  0  0  0  0  0  0  0  0  0  0  0
   10.2711  -16.5856    4.9542 N   0  0  0  0  0  0  0  0  0  0  0  0
    7.9899  -15.7785    4.5633 C   0  0  0  0  0  0  0  0  0  0  0  0
    8.9534  -16.8098    4.6352 C   0  0  0  0  0  0  0  0  0  0  0  0
    8.4782  -18.0985    4.3484 C   0  0  0  0  0  0  0  0  0  0  0  0
    7.2262  -18.3547    4.0505 N   0  0  0  0  0  0  0  0  0  0  0  0
    6.3821  -17.2877    4.0330 C   0  0  0  0  0  0  0  0  0  0  0  0
    5.1013  -17.6198    3.7504 N   0  0  0  0  0  0  0  0  0  0  0  0
    3.9060  -16.8735    3.7074 C   0  0  0  0  0  0  0  0  0  0  0  0
    2.7338  -17.5930    3.4225 C   0  0  0  0  0  0  0  0  0  0  0  0
    1.5023  -16.9618    3.3718 C   0  0  0  0  0  0  0  0  0  0  0  0
    1.4023  -15.5825    3.6058 C   0  0  0  0  0  0  0  0  0  0  0  0
    0.1638  -15.0546    3.5424 O   0  0  0  0  0  0  0  0  0  0  0  0
    0.0065  -13.6683    3.7527 C   0  0  0  0  0  0  0  0  0  0  0  0
    2.5659  -14.8579    3.8861 C   0  0  0  0  0  0  0  0  0  0  0  0
    3.8075  -15.4980    3.9347 C   0  0  0  0  0  0  0  0  0  0  0  0
    6.7205  -16.0207    4.2632 N   0  0  0  0  0  0  0  0  0  0  0  0
    6.5379  -13.1702    5.7398 C   0  0  0  0  0  0  0  0  0  0  0  0
    5.6647  -12.0929    5.6088 C   0  0  0  0  0  0  0  0  0  0  0  0
    5.7042  -11.2553    4.5003 C   0  0  0  0  0  0  0  0  0  0  0  0
    5.6994   -8.4363    2.5046 C   0  0  0  0  0  3  0  0  0  0  0  0
    5.9366   -8.1232    3.8506 C   0  0  0  0  0  3  0  0  0  0  0  0
    4.0700   -8.2027    5.1399 S   0  0  0  0  0  1  0  0  0  0  0  0
    2.8658   -8.2120    3.7941 C   0  0  0  0  0  0  0  0  0  0  0  0
    1.8867   -9.3915    3.8077 C   0  0  2  0  0  0  0  0  0  0  0  0
    1.1253   -9.2297    3.0266 H   0  0  0  0  0  0  0  0  0  0  0  0
    1.1986   -9.4721    5.0684 N   0  0  0  0  0  0  0  0  0  0  0  0
    0.0633  -10.2076    5.1996 C   0  0  0  0  0  0  0  0  0  0  0  0
   -0.3018  -10.5599    6.6278 C   0  0  0  0  0  0  0  0  0  0  0  0
   -0.6126  -10.5665    4.2501 O   0  0  0  0  0  0  0  0  0  0  0  0
    2.5227  -10.7613    3.4879 C   0  0  0  0  0  0  0  0  0  0  0  0
    3.1396  -10.8668    2.2937 N   0  0  0  0  0  0  0  0  0  0  0  0
    3.6912  -12.1145    1.8148 C   0  0  0  0  0  0  0  0  0  0  0  0
    2.4048  -11.7042    4.2569 O   0  0  0  0  0  0  0  0  0  0  0  0
    7.0512  -11.2586    1.5123 H   0  0  0  0  0  0  0  0  0  0  0  0
    8.2487  -12.7683    2.8213 H   0  0  0  0  0  0  0  0  0  0  0  0
   11.6598  -15.1485    5.4597 H   0  0  0  0  0  0  0  0  0  0  0  0
    9.1884  -18.9332    4.3760 H   0  0  0  0  0  0  0  0  0  0  0  0
    5.0019  -18.6148    3.5926 H   0  0  0  0  0  0  0  0  0  0  0  0
    2.7912  -18.6705    3.2393 H   0  0  0  0  0  0  0  0  0  0  0  0
    0.5920  -17.5224    3.1513 H   0  0  0  0  0  0  0  0  0  0  0  0
   -1.0654  -13.4528    3.6833 H   0  0  0  0  0  0  0  0  0  0  0  0
    0.5443  -13.0733    2.9987 H   0  0  0  0  0  0  0  0  0  0  0  0
    0.3765  -13.3567    4.7419 H   0  0  0  0  0  0  0  0  0  0  0  0
    2.5335  -13.7794    4.0636 H   0  0  0  0  0  0  0  0  0  0  0  0
    4.7006  -14.9147    4.1546 H   0  0  0  0  0  0  0  0  0  0  0  0
    6.5045  -13.8350    6.6037 H   0  0  0  0  0  0  0  0  0  0  0  0
    4.9128  -11.8967    6.3755 H   0  0  0  0  0  0  0  0  0  0  0  0
    4.9962  -10.4297    4.4452 H   0  0  0  0  0  0  0  0  0  0  0  0
    5.2788   -7.6619    1.8577 H   0  0  0  0  0  0  0  0  0  0  0  0
    6.0982   -7.0713    4.0906 H   0  0  0  0  0  0  0  0  0  0  0  0
    6.5452   -8.8002    4.4559 H   0  0  0  0  0  0  0  0  0  0  0  0
    3.4471   -8.2327    2.8515 H   0  0  0  0  0  0  0  0  0  0  0  0
    2.2806   -7.2803    3.7986 H   0  0  0  0  0  0  0  0  0  0  0  0
    1.8108   -9.3724    5.8743 H   0  0  0  0  0  0  0  0  0  0  0  0
   -0.0532   -9.7536    7.3328 H   0  0  0  0  0  0  0  0  0  0  0  0
    0.2697  -11.4559    6.9154 H   0  0  0  0  0  0  0  0  0  0  0  0
   -1.3725  -10.7904    6.6804 H   0  0  0  0  0  0  0  0  0  0  0  0
    3.3420  -10.0327    1.7552 H   0  0  0  0  0  0  0  0  0  0  0  0
    4.3723  -11.8858    0.9858 H   0  0  0  0  0  0  0  0  0  0  0  0
    2.8987  -12.7987    1.4688 H   0  0  0  0  0  0  0  0  0  0  0  0
    4.2492  -12.6236    2.6137 H   0  0  0  0  0  0  0  0  0  0  0  0
  1  2  2  0  0  0  0
  2  3  1  0  0  0  0
  2 30  1  0  0  0  0
  3  4  1  0  0  0  0
  4  5  2  0  0  0  0
  4 29  1  0  0  0  0
  5  6  1  0  0  0  0
  6  7  1  0  0  0  0
  6 27  2  0  0  0  0
  7  8  1  0  0  0  0
  8 10  1  0  0  0  0
  8  9  2  0  0  0  0
 10 46  1  0  0  0  0
 11 10  2  0  0  0  0
 12 13  1  0  0  0  0
 12  7  1  0  0  0  0
 13 11  1  0  0  0  0
 14 47  1  0  0  0  0
 14 13  2  0  0  0  0
 15 14  1  0  0  0  0
 16 15  2  0  0  0  0
 16 26  1  0  0  0  0
 17 16  1  0  0  0  0
 18 17  1  0  0  0  0
 18 25  1  0  0  0  0
 19 18  2  0  0  0  0
 20 19  1  0  0  0  0
 20 21  2  0  0  0  0
 21 24  1  0  0  0  0
 22 21  1  0  0  0  0
 22 23  1  0  0  0  0
 23 53  1  0  0  0  0
 24 25  2  0  0  0  0
 24 54  1  0  0  0  0
 25 55  1  0  0  0  0
 26 12  2  0  0  0  0
 27 56  1  0  0  0  0
 28 27  1  0  0  0  0
 28 57  1  0  0  0  0
 29 28  2  0  0  0  0
 30 31  1  0  0  0  0
 31 60  1  0  0  0  0
 31 61  1  0  0  0  0
 33 63  1  0  0  0  0
 33 34  1  0  0  0  0
 33 32  1  0  0  0  0
 34 35  1  6  0  0  0
 34 36  1  0  0  0  0
 36 37  1  0  0  0  0
 36 64  1  0  0  0  0
 37 38  1  0  0  0  0
 38 67  1  0  0  0  0
 38 66  1  0  0  0  0
 38 65  1  0  0  0  0
 39 37  2  0  0  0  0
 40 34  1  0  0  0  0
 40 43  2  0  0  0  0
 41 40  1  0  0  0  0
 42 41  1  0  0  0  0
 42 71  1  0  0  0  0
 44  3  1  0  0  0  0
 45  5  1  0  0  0  0
 48 17  1  0  0  0  0
 49 19  1  0  0  0  0
 50 20  1  0  0  0  0
 51 23  1  0  0  0  0
 52 23  1  0  0  0  0
 58 29  1  0  0  0  0
 59 30  1  0  0  0  0
 62 33  1  0  0  0  0
 68 41  1  0  0  0  0
 69 42  1  0  0  0  0
 70 42  1  0  0  0  0
M  END
