-1 1
 OpenBabel05232413483D

 78 80  0  0  1  0  0  0  0  0999 V2000
    2.6950   -1.0073    0.3007 C   0  0  0  0  0  0  0  0  0  0  0  0
    2.2492   -2.3676    0.0733 N   0  0  0  0  0  0  0  0  0  0  0  0
    1.6142   -2.5559   -1.2169 C   0  0  0  0  0  0  0  0  0  0  0  0
    0.3461   -1.7740   -1.4351 C   0  0  0  0  0  0  0  0  0  0  0  0
   -0.6611    3.6685   -2.6271 S   0  0  0  0  0  1  0  0  0  0  0  0
    0.4916    2.2520   -2.6985 C   0  0  0  0  0  0  0  0  0  0  0  0
    0.3975    1.4409   -4.0059 C   0  0  2  0  0  0  0  0  0  0  0  0
    0.8310    2.0407   -4.8299 H   0  0  0  0  0  0  0  0  0  0  0  0
   -1.0194    1.2287   -4.2709 N   0  0  0  0  0  0  0  0  0  0  0  0
   -1.6000    0.8070   -5.4109 C   0  0  0  0  0  0  0  0  0  0  0  0
   -3.1068    0.9443   -5.4311 C   0  0  0  0  0  0  0  0  0  0  0  0
   -1.0021    0.2800   -6.3492 O   0  0  0  0  0  0  0  0  0  0  0  0
    1.2496    0.1583   -3.9073 C   0  0  0  0  0  0  0  0  0  0  0  0
    1.0084   -0.7778   -4.8452 N   0  0  0  0  0  0  0  0  0  0  0  0
    1.7300   -2.0198   -4.8855 C   0  0  0  0  0  0  0  0  0  0  0  0
    2.1215    0.0331   -3.0541 O   0  0  0  0  0  0  0  0  0  0  0  0
   -0.7864   -2.2689   -1.9417 C   0  0  0  0  0  0  0  0  0  0  0  0
   -1.9272   -1.4308   -2.3978 C   0  0  0  0  0  0  0  0  0  0  0  0
   -2.2541   -0.2743   -1.7206 N   0  0  0  0  0  0  0  0  0  0  0  0
   -2.0417    0.1765   -0.4090 C   0  0  0  0  0  0  0  0  0  0  0  0
   -1.8193   -0.6833    0.6732 C   0  0  0  0  0  0  0  0  0  0  0  0
   -1.6690   -0.1498    1.9491 C   0  0  0  0  0  0  0  0  0  0  0  0
   -1.2897   -1.0243    3.0296 N   0  0  0  0  0  0  0  0  0  0  0  0
   -2.1768   -2.0074    3.4887 C   0  0  0  0  0  0  0  0  0  0  0  0
   -3.2933   -2.1407    3.0444 O   0  0  0  0  0  0  0  0  0  0  0  0
   -1.6311   -2.8749    4.5641 C   0  0  0  0  0  0  0  0  0  0  0  0
   -0.4521   -2.7944    5.0648 N   0  0  0  0  0  0  0  0  0  0  0  0
   -0.0183   -0.9191    3.5578 C   0  0  0  0  0  0  0  0  0  0  0  0
    0.3781   -1.8173    4.5690 C   0  0  0  0  0  0  0  0  0  0  0  0
    1.6951   -1.6550    5.0289 C   0  0  0  0  0  0  0  0  0  0  0  0
    2.5175   -0.7421    4.5618 N   0  0  0  0  0  0  0  0  0  0  0  0
    2.0232    0.0686    3.5901 C   0  0  0  0  0  0  0  0  0  0  0  0
    2.9014    0.9944    3.1319 N   0  0  0  0  0  0  0  0  0  0  0  0
    2.8106    1.9307    2.0807 C   0  0  0  0  0  0  0  0  0  0  0  0
    4.0069    2.5434    1.6810 C   0  0  0  0  0  0  0  0  0  0  0  0
    4.0113    3.4663    0.6392 C   0  0  0  0  0  0  0  0  0  0  0  0
    2.8266    3.7892   -0.0208 C   0  0  0  0  0  0  0  0  0  0  0  0
    1.6355    3.1874    0.3801 C   0  0  0  0  0  0  0  0  0  0  0  0
    1.6181    2.2668    1.4261 C   0  0  0  0  0  0  0  0  0  0  0  0
    0.7951    0.0119    3.0876 N   0  0  0  0  0  0  0  0  0  0  0  0
   -1.8029    1.2134    2.1912 C   0  0  0  0  0  0  0  0  0  0  0  0
   -2.0140    2.0622    1.1084 C   0  0  0  0  0  0  0  0  0  0  0  0
   -2.1069    1.5585   -0.1832 C   0  0  0  0  0  0  0  0  0  0  0  0
   -2.5284   -1.7233   -3.4161 O   0  0  0  0  0  0  0  0  0  0  0  0
    1.4827   -2.8984    1.1722 C   0  0  0  0  0  0  0  0  0  0  0  0
    1.8711   -0.3064    0.5407 H   0  0  0  0  0  0  0  0  0  0  0  0
    3.1960   -0.6185   -0.5968 H   0  0  0  0  0  0  0  0  0  0  0  0
    3.4047   -0.9810    1.1442 H   0  0  0  0  0  0  0  0  0  0  0  0
    1.4264   -3.6321   -1.3770 H   0  0  0  0  0  0  0  0  0  0  0  0
    2.3182   -2.2159   -1.9942 H   0  0  0  0  0  0  0  0  0  0  0  0
    0.4132   -0.7030   -1.2178 H   0  0  0  0  0  0  0  0  0  0  0  0
    0.2947    1.5599   -1.8591 H   0  0  0  0  0  0  0  0  0  0  0  0
    1.5352    2.5713   -2.5807 H   0  0  0  0  0  0  0  0  0  0  0  0
   -1.5409    1.9398   -3.7278 H   0  0  0  0  0  0  0  0  0  0  0  0
   -3.4504    0.9896   -6.4717 H   0  0  0  0  0  0  0  0  0  0  0  0
   -3.4530    1.8306   -4.8793 H   0  0  0  0  0  0  0  0  0  0  0  0
   -3.5199    0.0402   -4.9564 H   0  0  0  0  0  0  0  0  0  0  0  0
    0.3062   -0.5587   -5.5630 H   0  0  0  0  0  0  0  0  0  0  0  0
    1.2691   -2.7875   -4.2391 H   0  0  0  0  0  0  0  0  0  0  0  0
    2.7645   -1.8666   -4.5444 H   0  0  0  0  0  0  0  0  0  0  0  0
    1.7445   -2.4047   -5.9151 H   0  0  0  0  0  0  0  0  0  0  0  0
   -0.8652   -3.3208   -2.2355 H   0  0  0  0  0  0  0  0  0  0  0  0
   -2.7964    0.3534   -2.3037 H   0  0  0  0  0  0  0  0  0  0  0  0
   -1.7526   -1.7600    0.5286 H   0  0  0  0  0  0  0  0  0  0  0  0
   -2.3269   -3.6393    4.9278 H   0  0  0  0  0  0  0  0  0  0  0  0
    2.0595   -2.3285    5.8130 H   0  0  0  0  0  0  0  0  0  0  0  0
    3.8102    0.9063    3.5694 H   0  0  0  0  0  0  0  0  0  0  0  0
    4.9433    2.2820    2.1831 H   0  0  0  0  0  0  0  0  0  0  0  0
    4.9554    3.9252    0.3356 H   0  0  0  0  0  0  0  0  0  0  0  0
    2.8205    4.4962   -0.8526 H   0  0  0  0  0  0  0  0  0  0  0  0
    0.7075    3.4277   -0.1515 H   0  0  0  0  0  0  0  0  0  0  0  0
    0.6864    1.7902    1.7135 H   0  0  0  0  0  0  0  0  0  0  0  0
   -1.6834    1.6031    3.2028 H   0  0  0  0  0  0  0  0  0  0  0  0
   -2.0642    3.1426    1.2578 H   0  0  0  0  0  0  0  0  0  0  0  0
   -2.1647    2.2540   -1.0321 H   0  0  0  0  0  0  0  0  0  0  0  0
    2.0503   -2.7897    2.1113 H   0  0  0  0  0  0  0  0  0  0  0  0
    1.2867   -3.9722    1.0198 H   0  0  0  0  0  0  0  0  0  0  0  0
    0.5001   -2.3975    1.3175 H   0  0  0  0  0  0  0  0  0  0  0  0
  1 46  1  0  0  0  0
  1 48  1  0  0  0  0
  2  1  1  0  0  0  0
  2 45  1  0  0  0  0
  3  2  1  0  0  0  0
  4 51  1  0  0  0  0
  4  3  1  0  0  0  0
  6  5  1  0  0  0  0
  6 53  1  0  0  0  0
  6 52  1  0  0  0  0
  7  8  1  6  0  0  0
  7 13  1  0  0  0  0
  7  6  1  0  0  0  0
  9  7  1  0  0  0  0
  9 54  1  0  0  0  0
 10  9  1  0  0  0  0
 11 10  1  0  0  0  0
 11 57  1  0  0  0  0
 11 56  1  0  0  0  0
 12 10  2  0  0  0  0
 13 16  2  0  0  0  0
 14 13  1  0  0  0  0
 15 14  1  0  0  0  0
 15 60  1  0  0  0  0
 15 59  1  0  0  0  0
 17  4  2  0  0  0  0
 18 17  1  0  0  0  0
 18 19  1  0  0  0  0
 19 20  1  0  0  0  0
 20 43  2  0  0  0  0
 20 21  1  0  0  0  0
 21 22  2  0  0  0  0
 22 41  1  0  0  0  0
 22 23  1  0  0  0  0
 23 24  1  0  0  0  0
 23 28  1  0  0  0  0
 24 26  1  0  0  0  0
 25 24  2  0  0  0  0
 26 65  1  0  0  0  0
 26 27  2  0  0  0  0
 28 29  1  0  0  0  0
 29 30  2  0  0  0  0
 29 27  1  0  0  0  0
 30 66  1  0  0  0  0
 31 30  1  0  0  0  0
 32 31  2  0  0  0  0
 33 67  1  0  0  0  0
 33 32  1  0  0  0  0
 34 33  1  0  0  0  0
 35 34  1  0  0  0  0
 35 68  1  0  0  0  0
 36 35  2  0  0  0  0
 37 38  2  0  0  0  0
 37 36  1  0  0  0  0
 38 39  1  0  0  0  0
 39 72  1  0  0  0  0
 39 34  2  0  0  0  0
 40 28  2  0  0  0  0
 40 32  1  0  0  0  0
 41 73  1  0  0  0  0
 42 74  1  0  0  0  0
 42 41  2  0  0  0  0
 43 42  1  0  0  0  0
 44 18  2  0  0  0  0
 45 78  1  0  0  0  0
 45 76  1  0  0  0  0
 47  1  1  0  0  0  0
 49  3  1  0  0  0  0
 50  3  1  0  0  0  0
 55 11  1  0  0  0  0
 58 14  1  0  0  0  0
 61 15  1  0  0  0  0
 62 17  1  0  0  0  0
 63 19  1  0  0  0  0
 64 21  1  0  0  0  0
 69 36  1  0  0  0  0
 70 37  1  0  0  0  0
 71 38  1  0  0  0  0
 75 43  1  0  0  0  0
 77 45  1  0  0  0  0
M  END
