78
-1 1
C         2.694972   -1.007336    0.300687
N         2.249234   -2.367599    0.073334
C         1.614165   -2.555869   -1.216873
C         0.346149   -1.774039   -1.435125
S        -0.661083    3.668484   -2.627134
C         0.491555    2.251982   -2.698525
C         0.397512    1.440939   -4.005878
H         0.831043    2.040716   -4.829936
N        -1.019386    1.228709   -4.270923
C        -1.599955    0.807038   -5.410918
C        -3.106766    0.944281   -5.431148
O        -1.002101    0.279955   -6.349247
C         1.249637    0.158291   -3.907273
N         1.008415   -0.777836   -4.845229
C         1.729993   -2.019836   -4.885539
O         2.121489    0.033082   -3.054063
C        -0.786385   -2.268924   -1.941654
C        -1.927183   -1.430789   -2.397758
N        -2.254099   -0.274299   -1.720565
C        -2.041655    0.176540   -0.408962
C        -1.819316   -0.683296    0.673167
C        -1.668960   -0.149766    1.949125
N        -1.289668   -1.024301    3.029570
C        -2.176762   -2.007352    3.488692
O        -3.293328   -2.140691    3.044415
C        -1.631057   -2.874860    4.564051
N        -0.452134   -2.794430    5.064756
C        -0.018269   -0.919091    3.557804
C         0.378070   -1.817346    4.569005
C         1.695120   -1.655031    5.028900
N         2.517509   -0.742097    4.561758
C         2.023240    0.068569    3.590103
N         2.901360    0.994363    3.131906
C         2.810635    1.930680    2.080730
C         4.006882    2.543445    1.681029
C         4.011340    3.466308    0.639229
C         2.826641    3.789219   -0.020800
C         1.635508    3.187359    0.380070
C         1.618144    2.266750    1.426060
N         0.795107    0.011909    3.087637
C        -1.802871    1.213446    2.191175
C        -2.014046    2.062183    1.108435
C        -2.106944    1.558459   -0.183244
O        -2.528440   -1.723258   -3.416117
C         1.482700   -2.898356    1.172221
H         1.871114   -0.306438    0.540675
H         3.196025   -0.618548   -0.596845
H         3.404691   -0.981027    1.144217
H         1.426438   -3.632061   -1.376973
H         2.318157   -2.215862   -1.994166
H         0.413175   -0.702967   -1.217808
H         0.294689    1.559862   -1.859101
H         1.535241    2.571341   -2.580746
H        -1.540913    1.939777   -3.727838
H        -3.450400    0.989600   -6.471668
H        -3.452955    1.830602   -4.879305
H        -3.519906    0.040208   -4.956441
H         0.306215   -0.558663   -5.563041
H         1.269056   -2.787541   -4.239109
H         2.764537   -1.866635   -4.544368
H         1.744453   -2.404681   -5.915077
H        -0.865171   -3.320822   -2.235526
H        -2.796421    0.353422   -2.303692
H        -1.752635   -1.760014    0.528648
H        -2.326899   -3.639304    4.927820
H         2.059536   -2.328487    5.813040
H         3.810163    0.906256    3.569380
H         4.943271    2.281963    2.183145
H         4.955365    3.925176    0.335563
H         2.820514    4.496247   -0.852649
H         0.707512    3.427665   -0.151519
H         0.686357    1.790243    1.713515
H        -1.683387    1.603138    3.202847
H        -2.064246    3.142563    1.257790
H        -2.164725    2.253999   -1.032060
H         2.050290   -2.789711    2.111339
H         1.286694   -3.972191    1.019775
H         0.500060   -2.397521    1.317496
