78
-1 1
C         0.304358   -1.190935    1.397459
N        -0.449640   -2.367719    1.751556
C        -1.547939   -2.784759    0.919399
C        -2.976239   -2.378782    1.263328
S        -2.728214    0.149885    0.618110
C        -2.685535   -0.178123   -1.163088
C        -3.975043    0.172520   -1.901475
H        -4.220669    1.234224   -1.731324
N        -5.084231   -0.619074   -1.388321
C        -6.372655   -0.222444   -1.436782
C        -7.352458   -1.065784   -0.652746
O        -6.738323    0.769656   -2.067068
C        -3.819660   -0.028688   -3.425539
N        -4.851885    0.485515   -4.142544
C        -4.955769    0.322199   -5.566349
O        -2.855329   -0.580728   -3.927680
C        -3.996021   -2.967776    0.546867
C        -5.324978   -3.361154    0.967857
N        -5.861373   -2.994426    2.217680
C        -5.838625   -1.804785    2.943255
C        -6.275735   -1.838397    4.277344
C        -6.357458   -0.665733    5.015720
N        -6.764168   -0.745139    6.397088
C        -8.103559   -1.015884    6.713992
O        -8.958871   -1.165710    5.873662
C        -8.385395   -1.109521    8.170172
N        -7.521379   -0.979046    9.109657
C        -5.823134   -0.590782    7.392080
C        -6.222703   -0.718445    8.739210
C        -5.195821   -0.571655    9.684817
N        -3.948053   -0.310891    9.362369
C        -3.687406   -0.184944    8.036000
N        -2.396584    0.120996    7.748719
C        -1.757372    0.450443    6.538513
C        -0.405679    0.818474    6.629549
C         0.304757    1.186381    5.492053
C        -0.319265    1.194149    4.245567
C        -1.658130    0.820245    4.151334
C        -2.381558    0.444594    5.282829
N        -4.568958   -0.331996    7.054100
C        -5.995751    0.562157    4.468062
C        -5.521019    0.585273    3.159204
C        -5.447660   -0.576025    2.396624
O        -6.007282   -4.135427    0.298230
C        -0.615640   -2.585586    3.162132
H        -0.174802   -0.237269    1.679510
H         0.447813   -1.158677    0.306741
H         1.303063   -1.245764    1.869457
H        -1.571588   -3.894272    0.935985
H        -1.333976   -2.511946   -0.126403
H        -3.158441   -2.053903    2.290525
H        -2.472030   -1.245282   -1.358150
H        -1.864449    0.376998   -1.637593
H        -4.831004   -1.419945   -0.808566
H        -8.350359   -0.939409   -1.089782
H        -7.382283   -0.703896    0.387079
H        -7.076753   -2.129682   -0.633306
H        -5.645950    0.839310   -3.601847
H        -5.792141   -0.341940   -5.844567
H        -4.020177   -0.125769   -5.926207
H        -5.104034    1.290297   -6.072705
H        -3.745307   -3.431871   -0.413679
H        -6.654495   -3.593743    2.419666
H        -6.552616   -2.789635    4.735957
H        -9.433004   -1.315307    8.417537
H        -5.446144   -0.677908   10.746542
H        -1.829085    0.195326    8.583825
H         0.089476    0.818851    7.605368
H         1.355997    1.469409    5.585143
H         0.231319    1.477390    3.347045
H        -2.146742    0.802331    3.172602
H        -3.422914    0.148747    5.190151
H        -6.051526    1.470308    5.069583
H        -5.193123    1.522526    2.704311
H        -5.046037   -0.508241    1.384339
H         0.364289   -2.540993    3.668318
H        -1.039380   -3.588667    3.340651
H        -1.271766   -1.848198    3.670020
