70
-1 1
O         8.064758   -1.790430   10.666344
C         8.161612   -3.003526   10.840416
N         7.874998   -3.845855    9.719226
C         6.838017   -4.852241    9.859718
C         5.584369   -4.289631   10.389440
C         4.645022   -3.722002   10.906321
C         3.618635   -3.097589   11.672892
C         3.864267   -2.711872   13.031850
N         5.100105   -2.897789   13.559548
C         5.550349   -2.788082   14.885123
C         4.817169   -2.197330   15.923245
C         5.352546   -2.161844   17.204444
Cl         4.422779   -1.424961   18.491770
C         6.611134   -2.697945   17.504303
O         7.036832   -2.617588   18.785054
C         8.276480   -3.161517   19.132457
C         8.508848   -2.965787   20.609513
N         9.676174   -3.422752   21.064935
C         9.944852   -3.285722   22.359562
C         9.069986   -2.688357   23.266288
C         7.852825   -2.212530   22.784769
C         7.560073   -2.350811   21.431103
C         7.334226   -3.277851   16.459136
C         6.812775   -3.320821   15.172315
N         2.877775   -2.184447   13.760994
C         1.694009   -2.020936   13.179991
N         1.361470   -2.315356   11.933037
C         2.338723   -2.854964   11.194832
C         8.606432   -3.601658   12.069175
C         9.239175   -4.856893   12.183639
S         8.333889   -6.371303   13.526436
C         6.555110   -6.166619   13.277242
C         5.829113   -7.387859   12.674079
H         6.410498   -7.752868   11.813654
N         4.512403   -7.055133   12.188794
C         4.191529   -7.085690   10.870548
C         2.740370   -6.787664   10.557037
O         5.006763   -7.284602    9.984906
C         5.670495   -8.516095   13.706759
N         6.825349   -9.114764   14.075219
C         6.886187  -10.070731   15.150317
O         4.572834   -8.817789   14.151925
H         7.647903   -3.207833    8.960087
H         7.159795   -5.665920   10.526596
H         6.645771   -5.336263    8.891499
H         5.805009   -3.235917   12.903623
H         3.833219   -1.781074   15.725923
H         9.100538   -2.678465   18.575652
H         8.320650   -4.242714   18.904882
H        10.912438   -3.672593   22.699104
H         9.340038   -2.600772   24.320284
H         7.134830   -1.736877   23.457116
H         6.623291   -1.996828   21.000740
H         8.315039   -3.720869   16.631852
H         7.403663   -3.786905   14.380612
H         0.908290   -1.589319   13.812040
H         2.096561   -3.120620   10.160088
H         8.785535   -2.857883   12.850598
H        10.142981   -4.906849   12.798594
H         9.326045   -5.452204   11.269506
H         6.424675   -5.310114   12.593192
H         6.064430   -5.886493   14.224500
H         3.771646   -7.130246   12.876740
H         2.679754   -5.737443   10.234964
H         2.068069   -6.931117   11.414127
H         2.420765   -7.419159    9.718354
H         7.684281   -8.645442   13.779265
H         7.493070  -10.943914   14.864766
H         5.864244  -10.402821   15.372834
H         7.317856   -9.629781   16.064427
