70
-1 1
O         0.935197    0.338655   -8.301698
C         1.003051    0.251452   -7.082967
N         0.110837   -0.531892   -6.411042
C        -0.102354   -0.725875   -4.992544
C        -0.630218    0.445639   -4.283086
C        -1.015867    1.399263   -3.642540
C        -1.498923    2.509395   -2.888458
C        -1.259968    2.660907   -1.483635
N        -0.486436    1.767282   -0.812315
C        -0.242961    1.664411    0.570965
C        -0.901148    2.420414    1.553370
C        -0.613540    2.207556    2.895558
Cl        -1.448172    3.164544    4.102792
C         0.321511    1.256886    3.319488
O         0.527877    1.126972    4.650810
C         1.445654    0.181509    5.113195
C         1.484220    0.219633    6.620198
N         2.346828   -0.625379    7.186671
C         2.429350   -0.646153    8.513300
C         1.661654    0.170146    9.343195
C         0.763370    1.051050    8.745680
C         0.667609    1.081467    7.357456
C         0.975607    0.514827    2.333186
C         0.701949    0.715417    0.985379
N        -1.811390    3.693936   -0.837012
C        -2.535336    4.563325   -1.529968
N        -2.791668    4.540801   -2.828361
C        -2.269410    3.500577   -3.486459
C         2.081687    1.016803   -6.379074
C         2.475416    1.044663   -5.102482
S         1.584983   -0.924786   -1.934451
C        -0.022325   -1.744260   -1.626451
C        -0.009045   -3.277774   -1.796964
H         0.526596   -3.500530   -2.736463
N        -1.340748   -3.839688   -1.857109
C        -2.140962   -3.788568   -2.939019
C        -3.470285   -4.510203   -2.797901
O        -1.858216   -3.199997   -3.972953
C         0.691660   -4.008343   -0.636642
N         1.944392   -3.597464   -0.379497
C         2.703603   -4.097597    0.735109
O         0.114320   -4.894440   -0.011963
H        -0.576117   -0.936036   -7.036186
H         0.814908   -1.043002   -4.466162
H        -0.799248   -1.567808   -4.855841
H         0.027968    1.080281   -1.380923
H        -1.623535    3.178167    1.266081
H         2.462598    0.381131    4.727300
H         1.170762   -0.840105    4.790592
H         3.147621   -1.352473    8.945009
H         1.768693    0.113220   10.428003
H         0.140510    1.710473    9.354779
H        -0.017581    1.750365    6.836587
H         1.716029   -0.238315    2.604559
H         1.231438    0.124677    0.225142
H        -2.965336    5.392794   -0.954791
H        -2.473742    3.431897   -4.560104
H         2.615322    1.628837   -7.112840
H         3.319593    1.686173   -4.832227
H         2.036960    0.476465   -4.277130
H        -0.772679   -1.359719   -2.332805
H        -0.395687   -1.509135   -0.611965
H        -1.544843   -4.464752   -1.080362
H        -4.276867   -3.764916   -2.853331
H        -3.567838   -5.075374   -1.860974
H        -3.591889   -5.190115   -3.652387
H         2.241305   -2.731682   -0.863921
H         3.736688   -4.326036    0.430622
H         2.226140   -5.014202    1.104704
H         2.742937   -3.369004    1.563133
