75
-1 1
O         4.076428   -7.058188    1.238680
C         3.340827   -7.491969    0.348928
N         3.883521   -7.486884   -0.946272
C         3.347740   -7.457971   -2.230131
C         2.003565   -7.176081   -2.514007
C         1.527843   -7.181264   -3.831302
C         0.079100   -6.957685   -4.081518
C        -0.917585   -7.866940   -3.611062
N        -0.529825   -9.014072   -2.991567
C        -1.256296   -9.975956   -2.266296
C        -2.613337   -9.861298   -1.945712
C        -3.201510  -10.812994   -1.120414
Cl        -4.891072  -10.638107   -0.708302
C        -2.482726  -11.893736   -0.588771
O        -3.133643  -12.719403    0.257603
C        -2.479466  -13.850522    0.776943
C        -1.425577  -13.562258    1.828620
N        -0.725219  -14.632787    2.202806
C         0.238051  -14.464272    3.108000
C         0.565513  -13.229390    3.660840
C        -0.169685  -12.116836    3.262564
C        -1.203890  -12.286133    2.348179
C        -1.138914  -12.017323   -0.954699
C        -0.541753  -11.078224   -1.784310
N        -2.212934   -7.605752   -3.799537
C        -2.527059   -6.501974   -4.470454
N        -1.695518   -5.617049   -4.994795
C        -0.394576   -5.863216   -4.781343
C         2.408106   -7.415690   -4.892929
C         3.754726   -7.652114   -4.620048
C         4.218571   -7.686738   -3.311440
C         2.026153   -8.039619    0.626299
C         1.394847   -9.025661   -0.076046
S         2.219823  -11.428968    0.432576
C         3.837061  -10.898822    1.053953
C         4.078419  -11.222949    2.539683
H         5.133825  -11.023607    2.790797
N         3.841681  -12.618700    2.774643
C         4.504319  -13.337364    3.709147
C         3.958710  -14.736718    3.938694
O         5.465400  -12.917188    4.331272
C         3.241486  -10.368336    3.514464
N         3.408303   -9.030839    3.407800
C         2.642416   -8.125978    4.224794
O         2.517828  -10.860209    4.367437
H         4.881430   -7.315054   -0.894523
H         1.317246   -6.962882   -1.694878
H         0.474136   -9.143382   -2.949224
H        -3.198474   -9.030227   -2.330582
H        -2.019722  -14.450866   -0.027732
H        -3.273782  -14.464620    1.225323
H         0.793295  -15.364437    3.397084
H         1.401179  -13.100936    4.349753
H         0.098038  -11.134360    3.653432
H        -1.802211  -11.439573    2.009051
H        -0.515854  -12.816242   -0.551542
H         0.525865  -11.188107   -1.992848
H        -3.599305   -6.313996   -4.604448
H         0.320554   -5.133481   -5.178758
H         2.033671   -7.428367   -5.918489
H         4.452271   -7.838092   -5.439949
H         5.269683   -7.907689   -3.109518
H         1.653930   -7.769485    1.615864
H         1.713083   -9.299192   -1.079148
H         0.402932   -9.363779    0.219498
H         3.938381   -9.811224    0.903164
H         4.643231  -11.372397    0.472254
H         2.996406  -12.976544    2.334090
H         3.334173  -14.722673    4.845273
H         4.798677  -15.419628    4.120318
H         3.351343  -15.104178    3.099759
H         3.903657   -8.612864    2.624048
H         1.557746   -8.285850    4.100141
H         2.887708   -7.100154    3.921038
H         2.872547   -8.257961    5.293834
