-1 1
 OpenBabel05232414493D

 76 78  0  0  1  0  0  0  0  0999 V2000
    2.0992   -7.8435   10.1088 O   0  0  0  0  0  0  0  0  0  0  0  0
    2.4797   -6.6726    9.9181 C   0  0  0  0  0  0  0  0  0  0  0  0
    2.7366   -5.9095   11.0688 N   0  0  0  0  0  0  0  0  0  0  0  0
    3.8809   -5.0470   11.2706 C   0  0  0  0  0  0  0  0  0  0  0  0
    3.5465   -3.6654   11.7179 C   0  0  0  0  0  0  0  0  0  0  0  0
    4.5106   -2.8689   12.3027 N   0  0  0  0  0  0  0  0  0  0  0  0
    3.9511   -1.7188   12.5321 C   0  0  0  0  0  0  0  0  0  0  0  0
    4.5728   -0.5660   13.1646 C   0  0  0  0  0  0  0  0  0  0  0  0
    5.8867   -0.6620   13.7297 C   0  0  0  0  0  0  0  0  0  0  0  0
    6.5729   -1.8278   13.6469 N   0  0  0  0  0  0  0  0  0  0  0  0
    7.7583   -2.2396   14.2730 C   0  0  0  0  0  0  0  0  0  0  0  0
    8.0863   -3.6048   14.1468 C   0  0  0  0  0  0  0  0  0  0  0  0
    9.2086   -4.1071   14.7845 C   0  0  0  0  0  0  0  0  0  0  0  0
    9.5725   -5.8123   14.6862 Cl  0  0  0  0  0  0  0  0  0  0  0  0
   10.0627   -3.2840   15.5373 C   0  0  0  0  0  0  0  0  0  0  0  0
   11.1354   -3.8680   16.1179 O   0  0  0  0  0  0  0  0  0  0  0  0
   12.0188   -3.0923   16.8699 C   0  0  0  0  0  0  0  0  0  0  0  0
   13.1277   -3.9673   17.3985 C   0  0  0  0  0  0  0  0  0  0  0  0
   14.0358   -3.3382   18.1461 N   0  0  0  0  0  0  0  0  0  0  0  0
   15.0432   -4.0493   18.6433 C   0  0  0  0  0  0  0  0  0  0  0  0
   15.1989   -5.4175   18.4237 C   0  0  0  0  0  0  0  0  0  0  0  0
   14.2470   -6.0681   17.6424 C   0  0  0  0  0  0  0  0  0  0  0  0
   13.1877   -5.3344   17.1161 C   0  0  0  0  0  0  0  0  0  0  0  0
    9.7432   -1.9318   15.6323 C   0  0  0  0  0  0  0  0  0  0  0  0
    8.6056   -1.4104   15.0141 C   0  0  0  0  0  0  0  0  0  0  0  0
    6.4408    0.3943   14.3480 N   0  0  0  0  0  0  0  0  0  0  0  0
    5.7328    1.5104   14.3927 C   0  0  0  0  0  0  0  0  0  0  0  0
    4.5290    1.7321   13.9007 N   0  0  0  0  0  0  0  0  0  0  0  0
    3.9343    0.6922   13.2849 C   0  0  0  0  0  0  0  0  0  0  0  0
    2.6991    0.9419   12.7986 N   0  0  0  0  0  0  0  0  0  0  0  0
    2.6621   -1.6888   12.1364 O   0  0  0  0  0  0  0  0  0  0  0  0
    2.4087   -2.9358   11.6180 C   0  0  0  0  0  0  0  0  0  0  0  0
    2.6129   -6.1135    8.6035 C   0  0  0  0  0  3  0  0  0  0  0  0
    3.1352   -4.8717    8.2433 C   0  0  0  0  0  3  0  0  0  0  0  0
    5.4679   -4.9379    8.0413 S   0  0  0  0  0  1  0  0  0  0  0  0
    5.5664   -6.7284    8.2114 C   0  0  0  0  0  0  0  0  0  0  0  0
    6.0042   -7.2632    9.5913 C   0  0  2  0  0  0  0  0  0  0  0  0
    5.3302   -6.8902   10.3698 H   0  0  0  0  0  0  0  0  0  0  0  0
    7.3332   -6.8233    9.9298 N   0  0  0  0  0  0  0  0  0  0  0  0
    7.6654   -6.0691   10.9982 C   0  0  0  0  0  0  0  0  0  0  0  0
    9.0859   -5.5429   10.9966 C   0  0  0  0  0  0  0  0  0  0  0  0
    6.8949   -5.7963   11.9116 O   0  0  0  0  0  0  0  0  0  0  0  0
    5.9383   -8.7945    9.5601 C   0  0  0  0  0  0  0  0  0  0  0  0
    4.7006   -9.3107    9.7467 N   0  0  0  0  0  0  0  0  0  0  0  0
    4.4333  -10.7195    9.6236 C   0  0  0  0  0  0  0  0  0  0  0  0
    6.9313   -9.4661    9.3203 O   0  0  0  0  0  0  0  0  0  0  0  0
    2.5242   -6.4890   11.8737 H   0  0  0  0  0  0  0  0  0  0  0  0
    4.4768   -4.9524   10.3461 H   0  0  0  0  0  0  0  0  0  0  0  0
    4.5895   -5.4735   11.9977 H   0  0  0  0  0  0  0  0  0  0  0  0
    6.0746   -2.5574   13.1160 H   0  0  0  0  0  0  0  0  0  0  0  0
    7.4745   -4.2833   13.5390 H   0  0  0  0  0  0  0  0  0  0  0  0
   11.5078   -2.6114   17.7251 H   0  0  0  0  0  0  0  0  0  0  0  0
   12.4650   -2.2836   16.2612 H   0  0  0  0  0  0  0  0  0  0  0  0
   15.7713   -3.5018   19.2526 H   0  0  0  0  0  0  0  0  0  0  0  0
   16.0454   -5.9543   18.8557 H   0  0  0  0  0  0  0  0  0  0  0  0
   14.3269   -7.1392   17.4426 H   0  0  0  0  0  0  0  0  0  0  0  0
   12.4155   -5.7930   16.4983 H   0  0  0  0  0  0  0  0  0  0  0  0
   10.3801   -1.2550   16.2026 H   0  0  0  0  0  0  0  0  0  0  0  0
    8.3612   -0.3563   15.1086 H   0  0  0  0  0  0  0  0  0  0  0  0
    6.2089    2.3586   14.9017 H   0  0  0  0  0  0  0  0  0  0  0  0
    2.3326    1.8702   12.9468 H   0  0  0  0  0  0  0  0  0  0  0  0
    2.1528    0.2223   12.3502 H   0  0  0  0  0  0  0  0  0  0  0  0
    1.4150   -3.1322   11.2332 H   0  0  0  0  0  0  0  0  0  0  0  0
    2.3634   -6.8327    7.8197 H   0  0  0  0  0  0  0  0  0  0  0  0
    3.1452   -4.0481    8.9603 H   0  0  0  0  0  0  0  0  0  0  0  0
    2.9872   -4.5458    7.2125 H   0  0  0  0  0  0  0  0  0  0  0  0
    6.2364   -7.1525    7.4453 H   0  0  0  0  0  0  0  0  0  0  0  0
    4.5548   -7.1335    8.0236 H   0  0  0  0  0  0  0  0  0  0  0  0
    8.0539   -7.0604    9.2619 H   0  0  0  0  0  0  0  0  0  0  0  0
    9.5550   -5.7647   11.9639 H   0  0  0  0  0  0  0  0  0  0  0  0
    9.0366   -4.4494   10.8900 H   0  0  0  0  0  0  0  0  0  0  0  0
    9.7032   -5.9482   10.1832 H   0  0  0  0  0  0  0  0  0  0  0  0
    3.8907   -8.7045    9.9130 H   0  0  0  0  0  0  0  0  0  0  0  0
    3.6594  -10.9077    8.8626 H   0  0  0  0  0  0  0  0  0  0  0  0
    4.0853  -11.1491   10.5775 H   0  0  0  0  0  0  0  0  0  0  0  0
    5.3632  -11.2223    9.3283 H   0  0  0  0  0  0  0  0  0  0  0  0
  2  1  2  0  0  0  0
  2  3  1  0  0  0  0
  3  4  1  0  0  0  0
  3 47  1  0  0  0  0
  4  5  1  0  0  0  0
  4 49  1  0  0  0  0
  5  6  1  0  0  0  0
  6  7  2  0  0  0  0
  7  8  1  0  0  0  0
  8 29  1  0  0  0  0
  8  9  2  0  0  0  0
  9 26  1  0  0  0  0
 10  9  1  0  0  0  0
 10 11  1  0  0  0  0
 11 25  1  0  0  0  0
 12 11  2  0  0  0  0
 12 13  1  0  0  0  0
 13 15  2  0  0  0  0
 14 13  1  0  0  0  0
 15 24  1  0  0  0  0
 15 16  1  0  0  0  0
 16 17  1  0  0  0  0
 17 18  1  0  0  0  0
 17 52  1  0  0  0  0
 18 19  1  0  0  0  0
 19 20  2  0  0  0  0
 20 54  1  0  0  0  0
 21 20  1  0  0  0  0
 21 55  1  0  0  0  0
 22 21  2  0  0  0  0
 23 18  2  0  0  0  0
 23 22  1  0  0  0  0
 24 58  1  0  0  0  0
 25 59  1  0  0  0  0
 25 24  2  0  0  0  0
 26 27  2  0  0  0  0
 27 60  1  0  0  0  0
 28 27  1  0  0  0  0
 29 28  2  0  0  0  0
 30 61  1  0  0  0  0
 30 29  1  0  0  0  0
 31  7  1  0  0  0  0
 32  5  2  0  0  0  0
 32 31  1  0  0  0  0
 33  2  1  0  0  0  0
 34 33  1  0  0  0  0
 34 65  1  0  0  0  0
 35 36  1  0  0  0  0
 36 37  1  0  0  0  0
 37 39  1  0  0  0  0
 37 38  1  1  0  0  0
 39 40  1  0  0  0  0
 40 42  2  0  0  0  0
 41 40  1  0  0  0  0
 41 70  1  0  0  0  0
 43 37  1  0  0  0  0
 43 44  1  0  0  0  0
 44 73  1  0  0  0  0
 45 44  1  0  0  0  0
 45 75  1  0  0  0  0
 46 43  2  0  0  0  0
 48  4  1  0  0  0  0
 50 10  1  0  0  0  0
 51 12  1  0  0  0  0
 53 17  1  0  0  0  0
 56 22  1  0  0  0  0
 57 23  1  0  0  0  0
 62 30  1  0  0  0  0
 63 32  1  0  0  0  0
 64 33  1  0  0  0  0
 66 34  1  0  0  0  0
 67 36  1  0  0  0  0
 68 36  1  0  0  0  0
 69 39  1  0  0  0  0
 71 41  1  0  0  0  0
 72 41  1  0  0  0  0
 74 45  1  0  0  0  0
 76 45  1  0  0  0  0
M  END
