76
-1 1
O        -4.981674   -3.522693   -2.514863
C        -4.552015   -2.390655   -2.742373
N        -4.071148   -1.642625   -1.695420
C        -2.987872   -0.677375   -1.691185
C        -3.362901    0.681400   -1.208785
N        -2.419027    1.471038   -0.584038
C        -3.001041    2.599831   -0.309501
C        -2.409635    3.731037    0.386010
C        -1.112060    3.622529    0.987385
N        -0.412474    2.468020    0.879644
C         0.763600    2.043716    1.517404
C         1.102141    0.685193    1.355711
C         2.221946    0.172238    1.989459
Cl         2.607347   -1.522420    1.830739
C         3.058720    0.978964    2.778954
O         4.130004    0.386335    3.352429
C         5.000579    1.144473    4.136653
C         6.113781    0.261321    4.642379
N         7.002871    0.867506    5.430534
C         8.013191    0.147446    5.908699
C         8.190367   -1.207065    5.629223
C         7.258069   -1.833701    4.805816
C         6.196014   -1.090532    4.298694
C         2.725319    2.324388    2.914429
C         1.592338    2.856092    2.296433
N        -0.588668    4.657435    1.665740
C        -1.308517    5.764368    1.733726
N        -2.499305    5.995880    1.214511
C        -3.064601    4.977134    0.539139
N        -4.287301    5.236166    0.026388
O        -4.287972    2.622371   -0.714361
C        -4.513547    1.395368   -1.287011
C        -4.583719   -1.857597   -4.119883
C        -4.288331   -0.619200   -4.546558
S        -1.221872   -0.737806   -4.796860
C        -1.396171   -2.521186   -4.522879
C        -0.940532   -3.041046   -3.133232
H        -1.609162   -2.663413   -2.351333
N         0.384370   -2.574872   -2.814734
C         0.678459   -1.766250   -1.776199
C         2.010867   -1.055822   -1.873614
O        -0.068559   -1.583845   -0.817916
C        -1.000281   -4.569953   -3.131653
N        -2.240129   -5.081451   -2.899802
C        -2.517886   -6.490160   -2.987697
O        -0.026301   -5.260667   -3.378910
H        -4.177369   -2.162383   -0.830228
H        -2.520672   -0.588215   -2.695392
H        -2.165536   -1.037463   -1.054214
H        -0.882515    1.757413    0.301343
H         0.501823    0.016571    0.725330
H         4.479591    1.591303    5.004041
H         5.443193    1.977284    3.558430
H         8.725578    0.675827    6.552518
H         9.038285   -1.752066    6.048079
H         7.355196   -2.893360    4.558398
H         5.438073   -1.529859    3.649957
H         3.348531    2.987541    3.515047
H         1.338246    3.904754    2.420607
H        -0.856633    6.595158    2.291094
H        -4.666926    6.154365    0.202050
H        -4.815957    4.530481   -0.462935
H        -5.504802    1.200865   -1.680084
H        -4.872314   -2.628672   -4.838222
H        -4.036762    0.206908   -3.883079
H        -4.345200   -0.377253   -5.608547
H        -0.831005   -3.086734   -5.284826
H        -2.453582   -2.826636   -4.638277
H         1.037997   -2.589998   -3.586455
H         2.488057   -1.030497   -0.886097
H         1.808640   -0.022866   -2.194038
H         2.691754   -1.516334   -2.602509
H        -3.027823   -4.461746   -2.725201
H        -3.255567   -6.707272   -3.777565
H        -2.908212   -6.885269   -2.035477
H        -1.576977   -7.002995   -3.225604
