-1 1
 OpenBabel05192410563D

 76 79  0  0  1  0  0  0  0  0999 V2000
   -4.6095   -3.7215   -2.2697 O   0  0  0  0  0  0  0  0  0  0  0  0
   -4.4457   -2.5263   -2.6472 C   0  0  0  0  0  0  0  0  0  0  0  0
   -4.4954   -1.5300   -1.6055 N   0  0  0  0  0  0  0  0  0  0  0  0
   -3.2813   -0.8060   -1.2863 C   0  0  0  0  0  0  0  0  0  0  0  0
   -3.5347    0.6060   -0.8831 C   0  0  0  0  0  0  0  0  0  0  0  0
   -2.5439    1.3929   -0.3293 N   0  0  0  0  0  0  0  0  0  0  0  0
   -3.0612    2.5735   -0.1626 C   0  0  0  0  0  0  0  0  0  0  0  0
   -2.3983    3.7389    0.4036 C   0  0  0  0  0  0  0  0  0  0  0  0
   -1.0735    3.6383    0.9394 C   0  0  0  0  0  0  0  0  0  0  0  0
   -0.4157    2.4542    0.8876 N   0  0  0  0  0  0  0  0  0  0  0  0
    0.7745    2.0412    1.5007 C   0  0  0  0  0  0  0  0  0  0  0  0
    1.0855    0.6711    1.3870 C   0  0  0  0  0  0  0  0  0  0  0  0
    2.2074    0.1616    2.0191 C   0  0  0  0  0  0  0  0  0  0  0  0
    2.5462   -1.5498    1.9394 Cl  0  0  0  0  0  0  0  0  0  0  0  0
    3.0795    0.9826    2.7535 C   0  0  0  0  0  0  0  0  0  0  0  0
    4.1507    0.3916    3.3306 O   0  0  0  0  0  0  0  0  0  0  0  0
    5.0466    1.1638    4.0711 C   0  0  0  0  0  0  0  0  0  0  0  0
    6.1450    0.2801    4.6071 C   0  0  0  0  0  0  0  0  0  0  0  0
    7.0701    0.9075    5.3350 N   0  0  0  0  0  0  0  0  0  0  0  0
    8.0687    0.1886    5.8386 C   0  0  0  0  0  0  0  0  0  0  0  0
    8.1985   -1.1862    5.6452 C   0  0  0  0  0  0  0  0  0  0  0  0
    7.2291   -1.8351    4.8843 C   0  0  0  0  0  0  0  0  0  0  0  0
    6.1787   -1.0932    4.3516 C   0  0  0  0  0  0  0  0  0  0  0  0
    2.7784    2.3401    2.8339 C   0  0  0  0  0  0  0  0  0  0  0  0
    1.6406    2.8688    2.2219 C   0  0  0  0  0  0  0  0  0  0  0  0
   -0.4794    4.7064    1.4976 N   0  0  0  0  0  0  0  0  0  0  0  0
   -1.1609    5.8397    1.5103 C   0  0  0  0  0  0  0  0  0  0  0  0
   -2.3707    6.0680    1.0370 N   0  0  0  0  0  0  0  0  0  0  0  0
   -3.0041    5.0165    0.4816 C   0  0  0  0  0  0  0  0  0  0  0  0
   -4.2448    5.2746    0.0140 N   0  0  0  0  0  0  0  0  0  0  0  0
   -4.3463    2.6325   -0.5667 O   0  0  0  0  0  0  0  0  0  0  0  0
   -4.6439    1.3716   -1.0252 C   0  0  0  0  0  0  0  0  0  0  0  0
   -4.2481   -2.1335   -3.9673 C   0  0  0  0  0  3  0  0  0  0  0  0
   -3.8705   -0.8046   -4.4452 C   0  0  0  0  0  0  0  0  0  0  0  0
   -1.9513   -0.5071   -4.6534 S   0  0  0  0  0  0  0  0  0  0  0  0
   -1.3807   -2.2268   -4.6719 C   0  0  0  0  0  0  0  0  0  0  0  0
   -0.9989   -2.8279   -3.3028 C   0  0  2  0  0  0  0  0  0  0  0  0
   -1.6952   -2.4912   -2.5294 H   0  0  0  0  0  0  0  0  0  0  0  0
    0.3349   -2.4298   -2.9175 N   0  0  0  0  0  0  0  0  0  0  0  0
    0.6697   -1.7133   -1.8199 C   0  0  0  0  0  0  0  0  0  0  0  0
    2.1609   -1.4934   -1.6460 C   0  0  0  0  0  0  0  0  0  0  0  0
   -0.1372   -1.2775   -1.0117 O   0  0  0  0  0  0  0  0  0  0  0  0
   -1.0452   -4.3570   -3.4158 C   0  0  0  0  0  0  0  0  0  0  0  0
   -2.2348   -4.9239   -3.1645 N   0  0  0  0  0  0  0  0  0  0  0  0
   -2.4238   -6.3399   -3.3418 C   0  0  0  0  0  0  0  0  0  0  0  0
   -0.0490   -4.9777   -3.7774 O   0  0  0  0  0  0  0  0  0  0  0  0
   -4.8302   -2.0275   -0.7851 H   0  0  0  0  0  0  0  0  0  0  0  0
   -2.6186   -0.7522   -2.1636 H   0  0  0  0  0  0  0  0  0  0  0  0
   -2.6643   -1.2887   -0.5083 H   0  0  0  0  0  0  0  0  0  0  0  0
   -0.9464    1.7137    0.4034 H   0  0  0  0  0  0  0  0  0  0  0  0
    0.4591    0.0008    0.7860 H   0  0  0  0  0  0  0  0  0  0  0  0
    4.5444    1.6613    4.9219 H   0  0  0  0  0  0  0  0  0  0  0  0
    5.5023    1.9594    3.4522 H   0  0  0  0  0  0  0  0  0  0  0  0
    8.8112    0.7350    6.4313 H   0  0  0  0  0  0  0  0  0  0  0  0
    9.0388   -1.7294    6.0813 H   0  0  0  0  0  0  0  0  0  0  0  0
    7.2884   -2.9112    4.7053 H   0  0  0  0  0  0  0  0  0  0  0  0
    5.3936   -1.5501    3.7490 H   0  0  0  0  0  0  0  0  0  0  0  0
    3.4304    3.0156    3.3885 H   0  0  0  0  0  0  0  0  0  0  0  0
    1.4112    3.9274    2.3043 H   0  0  0  0  0  0  0  0  0  0  0  0
   -0.6539    6.6977    1.9709 H   0  0  0  0  0  0  0  0  0  0  0  0
   -4.5835    6.2185    0.1237 H   0  0  0  0  0  0  0  0  0  0  0  0
   -4.8126    4.5515   -0.4010 H   0  0  0  0  0  0  0  0  0  0  0  0
   -5.6407    1.1888   -1.4076 H   0  0  0  0  0  0  0  0  0  0  0  0
   -4.2776   -2.9536   -4.6890 H   0  0  0  0  0  0  0  0  0  0  0  0
   -4.1678    0.0065   -3.7643 H   0  0  0  0  0  0  0  0  0  0  0  0
   -4.2552   -0.5818   -5.4498 H   0  0  0  0  0  0  0  0  0  0  0  0
   -0.5076   -2.2851   -5.3394 H   0  0  0  0  0  0  0  0  0  0  0  0
   -2.1802   -2.8346   -5.1129 H   0  0  0  0  0  0  0  0  0  0  0  0
    1.0676   -2.9131   -3.4258 H   0  0  0  0  0  0  0  0  0  0  0  0
    2.5499   -2.2255   -0.9237 H   0  0  0  0  0  0  0  0  0  0  0  0
    2.3219   -0.4940   -1.2218 H   0  0  0  0  0  0  0  0  0  0  0  0
    2.7191   -1.5885   -2.5877 H   0  0  0  0  0  0  0  0  0  0  0  0
   -3.0615   -4.3904   -2.8222 H   0  0  0  0  0  0  0  0  0  0  0  0
   -3.4963   -6.5558   -3.2502 H   0  0  0  0  0  0  0  0  0  0  0  0
   -1.8754   -6.9297   -2.5870 H   0  0  0  0  0  0  0  0  0  0  0  0
   -2.0691   -6.6676   -4.3321 H   0  0  0  0  0  0  0  0  0  0  0  0
  2  1  2  0  0  0  0
  2  3  1  0  0  0  0
  3  4  1  0  0  0  0
  3 47  1  0  0  0  0
  4  5  1  0  0  0  0
  4 49  1  0  0  0  0
  5  6  1  0  0  0  0
  6  7  2  0  0  0  0
  7  8  1  0  0  0  0
  8 29  1  0  0  0  0
  8  9  2  0  0  0  0
  9 26  1  0  0  0  0
 10  9  1  0  0  0  0
 10 11  1  0  0  0  0
 11 25  1  0  0  0  0
 12 11  2  0  0  0  0
 12 13  1  0  0  0  0
 13 15  2  0  0  0  0
 14 13  1  0  0  0  0
 15 24  1  0  0  0  0
 15 16  1  0  0  0  0
 16 17  1  0  0  0  0
 17 18  1  0  0  0  0
 17 52  1  0  0  0  0
 18 19  1  0  0  0  0
 19 20  2  0  0  0  0
 20 54  1  0  0  0  0
 21 20  1  0  0  0  0
 21 55  1  0  0  0  0
 22 21  2  0  0  0  0
 23 18  2  0  0  0  0
 23 22  1  0  0  0  0
 24 58  1  0  0  0  0
 25 59  1  0  0  0  0
 25 24  2  0  0  0  0
 26 27  2  0  0  0  0
 27 60  1  0  0  0  0
 28 27  1  0  0  0  0
 29 28  2  0  0  0  0
 30 61  1  0  0  0  0
 30 29  1  0  0  0  0
 31  7  1  0  0  0  0
 32  5  2  0  0  0  0
 32 31  1  0  0  0  0
 33  2  1  0  0  0  0
 34 33  1  0  0  0  0
 34 65  1  0  0  0  0
 35 34  1  0  0  0  0
 36 35  1  0  0  0  0
 36 37  1  0  0  0  0
 37 39  1  0  0  0  0
 37 38  1  1  0  0  0
 39 40  1  0  0  0  0
 40 41  1  0  0  0  0
 40 42  2  0  0  0  0
 41 71  1  0  0  0  0
 41 70  1  0  0  0  0
 43 37  1  0  0  0  0
 43 44  1  0  0  0  0
 44 73  1  0  0  0  0
 45 74  1  0  0  0  0
 45 44  1  0  0  0  0
 45 75  1  0  0  0  0
 46 43  2  0  0  0  0
 48  4  1  0  0  0  0
 50 10  1  0  0  0  0
 51 12  1  0  0  0  0
 53 17  1  0  0  0  0
 56 22  1  0  0  0  0
 57 23  1  0  0  0  0
 62 30  1  0  0  0  0
 63 32  1  0  0  0  0
 64 33  1  0  0  0  0
 66 34  1  0  0  0  0
 67 36  1  0  0  0  0
 68 36  1  0  0  0  0
 69 39  1  0  0  0  0
 72 41  1  0  0  0  0
 76 45  1  0  0  0  0
M  END
