76
-1 1
O         2.099211   -7.843457   10.108792
C         2.479655   -6.672641    9.918076
N         2.736622   -5.909519   11.068759
C         3.880933   -5.046973   11.270604
C         3.546488   -3.665363   11.717889
N         4.510646   -2.868949   12.302667
C         3.951146   -1.718846   12.532137
C         4.572781   -0.566021   13.164635
C         5.886665   -0.661959   13.729694
N         6.572853   -1.827789   13.646914
C         7.758327   -2.239576   14.273020
C         8.086306   -3.604778   14.146787
C         9.208619   -4.107148   14.784479
Cl         9.572523   -5.812256   14.686250
C        10.062697   -3.284002   15.537347
O        11.135425   -3.868019   16.117876
C        12.018787   -3.092270   16.869937
C        13.127715   -3.967283   17.398524
N        14.035759   -3.338194   18.146148
C        15.043193   -4.049319   18.643271
C        15.198896   -5.417453   18.423724
C        14.247039   -6.068069   17.642440
C        13.187679   -5.334386   17.116089
C         9.743175   -1.931770   15.632302
C         8.605629   -1.410381   15.014064
N         6.440750    0.394300   14.347999
C         5.732843    1.510375   14.392676
N         4.529000    1.732098   13.900702
C         3.934283    0.692154   13.284880
N         2.699063    0.941918   12.798562
O         2.662093   -1.688778   12.136430
C         2.408727   -2.935790   11.618003
C         2.612908   -6.113530    8.603458
C         3.135194   -4.871684    8.243341
S         5.467905   -4.937908    8.041314
C         5.566380   -6.728427    8.211443
C         6.004168   -7.263203    9.591335
H         5.330199   -6.890178   10.369780
N         7.333181   -6.823323    9.929802
C         7.665387   -6.069150   10.998182
C         9.085895   -5.542867   10.996564
O         6.894891   -5.796297   11.911553
C         5.938262   -8.794481    9.560061
N         4.700614   -9.310674    9.746654
C         4.433304  -10.719513    9.623590
O         6.931330   -9.466056    9.320294
H         2.524189   -6.489005   11.873703
H         4.476808   -4.952367   10.346063
H         4.589473   -5.473528   11.997651
H         6.074594   -2.557359   13.116015
H         7.474524   -4.283257   13.538984
H        11.507837   -2.611383   17.725068
H        12.465033   -2.283601   16.261162
H        15.771304   -3.501820   19.252586
H        16.045427   -5.954324   18.855659
H        14.326880   -7.139160   17.442576
H        12.415508   -5.792968   16.498302
H        10.380145   -1.255031   16.202585
H         8.361190   -0.356312   15.108644
H         6.208873    2.358592   14.901665
H         2.332606    1.870191   12.946786
H         2.152758    0.222316   12.350153
H         1.414992   -3.132222   11.233174
H         2.363440   -6.832673    7.819729
H         3.145218   -4.048095    8.960264
H         2.987175   -4.545811    7.212499
H         6.236381   -7.152484    7.445303
H         4.554815   -7.133535    8.023581
H         8.053900   -7.060369    9.261881
H         9.555010   -5.764708   11.963928
H         9.036627   -4.449376   10.890048
H         9.703180   -5.948201   10.183233
H         3.890667   -8.704488    9.912974
H         3.659424  -10.907710    8.862642
H         4.085261  -11.149113   10.577516
H         5.363205  -11.222311    9.328305
