77
-1 1
O         4.568407    3.363979   -0.490088
C         3.702739    3.187971    0.432176
N         3.464744    1.821286    0.826208
C         2.190135    1.228897    0.507278
C         1.930675    1.103833   -0.969819
N         0.846363    0.431858   -1.509165
C         0.957349    0.551732   -2.802546
C         0.066307    0.017830   -3.826256
C        -1.091555   -0.738329   -3.473816
N        -1.358641   -0.961844   -2.158285
C        -2.400894   -1.643285   -1.535273
C        -3.460035   -2.278321   -2.200900
C        -4.446742   -2.921717   -1.460504
Cl        -5.756520   -3.714572   -2.306270
C        -4.420874   -2.962959   -0.064037
O        -5.378331   -3.619118    0.653572
C        -6.519274   -2.855301    0.961849
C        -7.524464   -3.693656    1.707987
C        -7.275347   -5.037191    1.983771
C        -8.232122   -5.771628    2.675047
F        -7.989349   -7.058798    2.936998
C        -9.429145   -5.213934    3.102464
C        -9.668250   -3.868447    2.821475
C        -8.726298   -3.112122    2.130864
C        -3.360223   -2.333245    0.588222
C        -2.366132   -1.685198   -0.128687
N        -1.915597   -1.229362   -4.409133
C        -1.604883   -0.979521   -5.672439
N        -0.574670   -0.299471   -6.132257
C         0.274482    0.208984   -5.216597
N         1.316811    0.899112   -5.721481
O         2.045386    1.260259   -3.157853
C         2.665847    1.612551   -1.989322
C         3.050035    4.183228    1.125751
C         2.567974    4.031854    2.517498
S         3.820049    4.545847    3.808612
C         5.069453    3.231458    3.714120
C         6.067012    3.189323    2.535143
H         5.605474    2.727801    1.659430
N         7.199425    2.360984    2.905883
C         7.332567    1.060208    2.558769
C         8.624239    0.401234    3.018178
O         6.501321    0.435865    1.922903
C         6.632299    4.564200    2.179234
N         6.252095    5.045680    0.988237
C         6.621186    6.363696    0.551423
O         7.407548    5.116706    2.957650
H         4.239497    1.248598    0.497901
H         1.381520    1.831844    0.951265
H         2.117179    0.225769    0.962478
H        -0.660296   -0.538865   -1.529106
H        -3.496646   -2.260805   -3.286985
H        -6.982140   -2.464982    0.036558
H        -6.234027   -1.981797    1.579040
H        -6.346620   -5.507247    1.661412
H       -10.149889   -5.829680    3.642298
H       -10.603245   -3.408095    3.148053
H        -8.924174   -2.058703    1.916381
H        -3.327027   -2.370629    1.678827
H        -1.542814   -1.200178    0.400788
H        -2.290586   -1.389565   -6.424635
H         1.362229    0.982312   -6.726132
H         2.004335    1.330444   -5.121346
H         3.565543    2.232550   -1.999412
H         3.225894    5.203581    0.772231
H         2.288447    2.998340    2.766353
H         1.710991    4.679499    2.767473
H         4.571217    2.251503    3.765303
H         5.653388    3.364465    4.637467
H         7.932800    2.848784    3.408838
H         9.259291    1.051949    3.635388
H         9.188503    0.084227    2.129373
H         8.370151   -0.504648    3.585979
H         5.624536    4.476205    0.380761
H         7.307436    6.799220    1.289606
H         5.734602    7.013360    0.462335
H         7.121636    6.331192   -0.430273
