-1 1
 OpenBabel05232414493D

 77 79  0  0  1  0  0  0  0  0999 V2000
    7.6325   10.2164   -6.1426 O   0  0  0  0  0  0  0  0  0  0  0  0
    6.6449    9.8604   -5.4796 C   0  0  0  0  0  0  0  0  0  0  0  0
    6.4906    8.5031   -5.2011 N   0  0  0  0  0  0  0  0  0  0  0  0
    5.2576    7.7901   -5.3807 C   0  0  0  0  0  0  0  0  0  0  0  0
    4.9973    7.5106   -6.8335 C   0  0  0  0  0  0  0  0  0  0  0  0
    3.9439    6.7519   -7.3088 N   0  0  0  0  0  0  0  0  0  0  0  0
    4.0501    6.7631   -8.6088 C   0  0  0  0  0  0  0  0  0  0  0  0
    3.1812    6.1099   -9.5787 C   0  0  0  0  0  0  0  0  0  0  0  0
    2.0474    5.3489   -9.1577 C   0  0  0  0  0  0  0  0  0  0  0  0
    1.7828    5.2325   -7.8296 N   0  0  0  0  0  0  0  0  0  0  0  0
    0.7591    4.5732   -7.1497 C   0  0  0  0  0  0  0  0  0  0  0  0
   -0.2785    3.8530   -7.7591 C   0  0  0  0  0  0  0  0  0  0  0  0
   -1.2462    3.2443   -6.9661 C   0  0  0  0  0  0  0  0  0  0  0  0
   -2.5307    2.3447   -7.7393 Cl  0  0  0  0  0  0  0  0  0  0  0  0
   -1.2206    3.3209   -5.5709 C   0  0  0  0  0  0  0  0  0  0  0  0
   -2.1576    2.6961   -4.8024 O   0  0  0  0  0  0  0  0  0  0  0  0
   -3.3191    3.4500   -4.5453 C   0  0  0  0  0  0  0  0  0  0  0  0
   -4.3468    2.6001   -3.8444 C   0  0  0  0  0  0  0  0  0  0  0  0
   -4.2088    1.2135   -3.7906 C   0  0  0  0  0  0  0  0  0  0  0  0
   -5.1927    0.4630   -3.1580 C   0  0  0  0  0  0  0  0  0  0  0  0
   -5.0559   -0.8646   -3.1061 F   0  0  0  0  0  0  0  0  0  0  0  0
   -6.3117    1.0455   -2.5782 C   0  0  0  0  0  0  0  0  0  0  0  0
   -6.4398    2.4331   -2.6374 C   0  0  0  0  0  0  0  0  0  0  0  0
   -5.4658    3.2071   -3.2618 C   0  0  0  0  0  0  0  0  0  0  0  0
   -0.1812    4.0358   -4.9749 C   0  0  0  0  0  0  0  0  0  0  0  0
    0.7934    4.6515   -5.7452 C   0  0  0  0  0  0  0  0  0  0  0  0
    1.2434    4.7502  -10.0461 N   0  0  0  0  0  0  0  0  0  0  0  0
    1.5487    4.8956  -11.3267 C   0  0  0  0  0  0  0  0  0  0  0  0
    2.5573    5.5649  -11.8465 N   0  0  0  0  0  0  0  0  0  0  0  0
    3.3867    6.1815  -10.9813 C   0  0  0  0  0  0  0  0  0  0  0  0
    4.4058    6.8563  -11.5497 N   0  0  0  0  0  0  0  0  0  0  0  0
    5.1091    7.4821   -9.0277 O   0  0  0  0  0  0  0  0  0  0  0  0
    5.7117    7.9577   -7.8952 C   0  0  0  0  0  0  0  0  0  0  0  0
    5.7157   10.7869   -4.8816 C   0  0  0  0  0  3  0  0  0  0  0  0
    5.2268   10.5867   -3.6082 C   0  0  0  0  0  3  0  0  0  0  0  0
    6.8757   11.0951   -1.7896 S   0  0  0  0  0  1  0  0  0  0  0  0
    7.9358    9.6152   -1.8436 C   0  0  0  0  0  0  0  0  0  0  0  0
    8.9144    9.5019   -3.0293 C   0  0  2  0  0  0  0  0  0  0  0  0
    8.3643    9.3303   -3.9548 H   0  0  0  0  0  0  0  0  0  0  0  0
    9.8060    8.3678   -2.8492 N   0  0  0  0  0  0  0  0  0  0  0  0
    9.7574    7.2200   -3.5520 C   0  0  0  0  0  0  0  0  0  0  0  0
   10.8359    6.2056   -3.2077 C   0  0  0  0  0  0  0  0  0  0  0  0
    8.9256    6.9636   -4.4128 O   0  0  0  0  0  0  0  0  0  0  0  0
    9.7997   10.7379   -3.1688 C   0  0  0  0  0  0  0  0  0  0  0  0
    9.5127   11.5332   -4.2159 N   0  0  0  0  0  0  0  0  0  0  0  0
   10.1571   12.8015   -4.4161 C   0  0  0  0  0  0  0  0  0  0  0  0
   10.7187   10.9267   -2.3794 O   0  0  0  0  0  0  0  0  0  0  0  0
    7.3424    7.9585   -5.3431 H   0  0  0  0  0  0  0  0  0  0  0  0
    4.4158    8.3721   -4.9772 H   0  0  0  0  0  0  0  0  0  0  0  0
    5.2869    6.8391   -4.8243 H   0  0  0  0  0  0  0  0  0  0  0  0
    2.4625    5.7283   -7.2370 H   0  0  0  0  0  0  0  0  0  0  0  0
   -0.3144    3.7774   -8.8425 H   0  0  0  0  0  0  0  0  0  0  0  0
   -3.7449    3.8288   -5.4935 H   0  0  0  0  0  0  0  0  0  0  0  0
   -3.0718    4.3304   -3.9226 H   0  0  0  0  0  0  0  0  0  0  0  0
   -3.3420    0.7241   -4.2341 H   0  0  0  0  0  0  0  0  0  0  0  0
   -7.0575    0.4156   -2.0911 H   0  0  0  0  0  0  0  0  0  0  0  0
   -7.3097    2.9135   -2.1845 H   0  0  0  0  0  0  0  0  0  0  0  0
   -5.5733    4.2943   -3.2960 H   0  0  0  0  0  0  0  0  0  0  0  0
   -0.1479    4.0909   -3.8851 H   0  0  0  0  0  0  0  0  0  0  0  0
    1.6003    5.2043   -5.2586 H   0  0  0  0  0  0  0  0  0  0  0  0
    0.8786    4.3976  -12.0387 H   0  0  0  0  0  0  0  0  0  0  0  0
    4.4495    6.8453  -12.5580 H   0  0  0  0  0  0  0  0  0  0  0  0
    5.0804    7.3629  -10.9966 H   0  0  0  0  0  0  0  0  0  0  0  0
    6.5909    8.5887   -7.9939 H   0  0  0  0  0  0  0  0  0  0  0  0
    5.7555   11.7999   -5.2898 H   0  0  0  0  0  0  0  0  0  0  0  0
    5.1639    9.5849   -3.1805 H   0  0  0  0  0  0  0  0  0  0  0  0
    4.5608   11.3211   -3.1531 H   0  0  0  0  0  0  0  0  0  0  0  0
    7.3257    8.6956   -1.8518 H   0  0  0  0  0  0  0  0  0  0  0  0
    8.5397    9.5925   -0.9209 H   0  0  0  0  0  0  0  0  0  0  0  0
   10.5754    8.5434   -2.2121 H   0  0  0  0  0  0  0  0  0  0  0  0
   11.5055    6.5279   -2.3985 H   0  0  0  0  0  0  0  0  0  0  0  0
   11.4286    6.0068   -4.1120 H   0  0  0  0  0  0  0  0  0  0  0  0
   10.3478    5.2634   -2.9215 H   0  0  0  0  0  0  0  0  0  0  0  0
    8.7560   11.2580   -4.8463 H   0  0  0  0  0  0  0  0  0  0  0  0
   11.0016   12.8714   -3.7183 H   0  0  0  0  0  0  0  0  0  0  0  0
    9.4668   13.6380   -4.2166 H   0  0  0  0  0  0  0  0  0  0  0  0
   10.5325   12.8958   -5.4477 H   0  0  0  0  0  0  0  0  0  0  0  0
  1  2  2  0  0  0  0
  2  3  1  0  0  0  0
  2 34  1  0  0  0  0
  4  3  1  0  0  0  0
  4 49  1  0  0  0  0
  4 50  1  0  0  0  0
  5  4  1  0  0  0  0
  6  5  1  0  0  0  0
  7  6  2  0  0  0  0
  8  9  2  0  0  0  0
  8  7  1  0  0  0  0
  9 10  1  0  0  0  0
 10 51  1  0  0  0  0
 10 11  1  0  0  0  0
 11 26  1  0  0  0  0
 12 11  2  0  0  0  0
 12 13  1  0  0  0  0
 13 15  2  0  0  0  0
 14 13  1  0  0  0  0
 15 25  1  0  0  0  0
 15 16  1  0  0  0  0
 16 17  1  0  0  0  0
 17 54  1  0  0  0  0
 17 18  1  0  0  0  0
 18 19  2  0  0  0  0
 18 24  1  0  0  0  0
 19 20  1  0  0  0  0
 20 21  1  0  0  0  0
 20 22  2  0  0  0  0
 22 56  1  0  0  0  0
 23 22  1  0  0  0  0
 23 57  1  0  0  0  0
 24 23  2  0  0  0  0
 25 59  1  0  0  0  0
 26 60  1  0  0  0  0
 26 25  2  0  0  0  0
 27  9  1  0  0  0  0
 28 27  2  0  0  0  0
 29 28  1  0  0  0  0
 29 30  2  0  0  0  0
 30  8  1  0  0  0  0
 31 63  1  0  0  0  0
 31 30  1  0  0  0  0
 32  7  1  0  0  0  0
 32 33  1  0  0  0  0
 33  5  2  0  0  0  0
 34 35  1  0  0  0  0
 35 66  1  0  0  0  0
 35 67  1  0  0  0  0
 37 36  1  0  0  0  0
 37 69  1  0  0  0  0
 38 39  1  6  0  0  0
 38 40  1  0  0  0  0
 38 37  1  0  0  0  0
 40 70  1  0  0  0  0
 41 42  1  0  0  0  0
 41 40  1  0  0  0  0
 42 73  1  0  0  0  0
 42 71  1  0  0  0  0
 43 41  2  0  0  0  0
 44 38  1  0  0  0  0
 44 47  2  0  0  0  0
 45 44  1  0  0  0  0
 46 76  1  0  0  0  0
 46 45  1  0  0  0  0
 46 75  1  0  0  0  0
 48  3  1  0  0  0  0
 52 12  1  0  0  0  0
 53 17  1  0  0  0  0
 55 19  1  0  0  0  0
 58 24  1  0  0  0  0
 61 28  1  0  0  0  0
 62 31  1  0  0  0  0
 64 33  1  0  0  0  0
 65 34  1  0  0  0  0
 68 37  1  0  0  0  0
 72 42  1  0  0  0  0
 74 45  1  0  0  0  0
 77 46  1  0  0  0  0
M  END
