-1 1
 OpenBabel05192410563D

 73 76  0  0  1  0  0  0  0  0999 V2000
    5.4707    2.2085   -1.5022 O   0  0  0  0  0  0  0  0  0  0  0  0
    4.7628    3.0150   -2.1473 C   0  0  0  0  0  0  0  0  0  0  0  0
    4.3091    4.1634   -1.4387 N   0  0  0  0  0  0  0  0  0  0  0  0
    4.2301    4.0546   -0.0016 C   0  0  0  0  0  0  0  0  0  0  0  0
    3.1854    3.0824    0.4746 C   0  0  0  0  0  0  0  0  0  0  0  0
    1.9034    3.4540    0.8459 N   0  0  0  0  0  0  0  0  0  0  0  0
    1.2700    2.3423    1.1043 C   0  0  0  0  0  0  0  0  0  0  0  0
   -0.0920    2.1884    1.5979 C   0  0  0  0  0  0  0  0  0  0  0  0
   -0.7594    0.9495    1.7805 C   0  0  0  0  0  0  0  0  0  0  0  0
   -0.2191   -0.2197    1.3161 N   0  0  0  0  0  0  0  0  0  0  0  0
   -0.6691   -1.5353    1.4751 C   0  0  0  0  0  0  0  0  0  0  0  0
   -1.5602   -1.9480    2.4763 C   0  0  0  0  0  0  0  0  0  0  0  0
   -1.8973   -3.2930    2.5833 C   0  0  0  0  0  0  0  0  0  0  0  0
   -3.0056   -3.7984    3.8349 Cl  0  0  0  0  0  0  0  0  0  0  0  0
   -1.3729   -4.2492    1.7132 C   0  0  0  0  0  0  0  0  0  0  0  0
   -1.6691   -5.5829    1.8540 O   0  0  0  0  0  0  0  0  0  0  0  0
   -2.8062   -6.0819    1.3075 C   0  0  0  0  0  0  0  0  0  0  0  0
   -3.6865   -5.3428    0.5071 C   0  0  0  0  0  0  0  0  0  0  0  0
   -4.7876   -5.8716   -0.0201 N   0  0  0  0  0  0  0  0  0  0  0  0
   -5.0653   -7.1485    0.2207 C   0  0  0  0  0  0  0  0  0  0  0  0
   -4.2494   -7.9642    1.0066 C   0  0  0  0  0  0  0  0  0  0  0  0
   -3.0981   -7.4221    1.5622 C   0  0  0  0  0  0  0  0  0  0  0  0
   -0.4912   -3.8324    0.7193 C   0  0  0  0  0  0  0  0  0  0  0  0
   -0.1413   -2.4962    0.5934 C   0  0  0  0  0  0  0  0  0  0  0  0
   -1.9593    0.8901    2.3740 N   0  0  0  0  0  0  0  0  0  0  0  0
   -2.5260    2.0378    2.7140 C   0  0  0  0  0  0  0  0  0  0  0  0
   -2.0651    3.2552    2.5135 N   0  0  0  0  0  0  0  0  0  0  0  0
   -0.8418    3.3477    1.9519 C   0  0  0  0  0  0  0  0  0  0  0  0
   -0.3687    4.5850    1.7486 N   0  0  0  0  0  0  0  0  0  0  0  0
    2.0457    1.2586    0.9267 O   0  0  0  0  0  0  0  0  0  0  0  0
    3.2576    1.7294    0.5184 C   0  0  0  0  0  0  0  0  0  0  0  0
    4.3564    2.8642   -3.4871 C   0  0  0  0  0  3  0  0  0  0  0  0
    3.5071    3.8051   -4.2388 C   0  0  0  0  0  0  0  0  0  0  0  0
    1.6617    3.3692   -4.4243 S   0  0  0  0  0  0  0  0  0  0  0  0
    1.1552    2.9646   -2.7226 C   0  0  0  0  0  0  0  0  0  0  0  0
    0.5119    1.5656   -2.6009 C   0  0  2  0  0  0  0  0  0  0  0  0
    0.1586    1.2711   -3.6070 H   0  0  0  0  0  0  0  0  0  0  0  0
   -0.6034    1.5434   -1.6806 N   0  0  0  0  0  0  0  0  0  0  0  0
   -1.7710    2.1966   -1.9195 C   0  0  0  0  0  0  0  0  0  0  0  0
   -2.8578    1.9598   -0.8883 C   0  0  0  0  0  0  0  0  0  0  0  0
   -1.9299    2.9534   -2.8607 O   0  0  0  0  0  0  0  0  0  0  0  0
    1.4667    0.4495   -2.1359 C   0  0  0  0  0  0  0  0  0  0  0  0
    2.7238    0.5113   -2.5616 N   0  0  0  0  0  0  0  0  0  0  0  0
    3.7347   -0.4472   -2.1770 C   0  0  0  0  0  0  0  0  0  0  0  0
    1.0332   -0.4549   -1.4105 O   0  0  0  0  0  0  0  0  0  0  0  0
    3.5361    4.6620   -1.8597 H   0  0  0  0  0  0  0  0  0  0  0  0
    4.0128    5.0443    0.4277 H   0  0  0  0  0  0  0  0  0  0  0  0
    5.2111    3.7232    0.3618 H   0  0  0  0  0  0  0  0  0  0  0  0
    0.5817   -0.1342    0.6922 H   0  0  0  0  0  0  0  0  0  0  0  0
   -1.9969   -1.2190    3.1523 H   0  0  0  0  0  0  0  0  0  0  0  0
   -3.4846   -4.2885    0.2931 H   0  0  0  0  0  0  0  0  0  0  0  0
   -5.9800   -7.5474   -0.2307 H   0  0  0  0  0  0  0  0  0  0  0  0
   -4.5145   -9.0088    1.1817 H   0  0  0  0  0  0  0  0  0  0  0  0
   -2.4200   -8.0051    2.1881 H   0  0  0  0  0  0  0  0  0  0  0  0
   -0.0845   -4.5801    0.0361 H   0  0  0  0  0  0  0  0  0  0  0  0
    0.5297   -2.1686   -0.2035 H   0  0  0  0  0  0  0  0  0  0  0  0
   -3.5031    1.9617    3.2075 H   0  0  0  0  0  0  0  0  0  0  0  0
   -0.9571    5.3557    2.0280 H   0  0  0  0  0  0  0  0  0  0  0  0
    0.5561    4.6968    1.3296 H   0  0  0  0  0  0  0  0  0  0  0  0
    4.0351    1.0206    0.2591 H   0  0  0  0  0  0  0  0  0  0  0  0
    4.8523    2.0616   -4.0400 H   0  0  0  0  0  0  0  0  0  0  0  0
    3.7876    3.8731   -5.3016 H   0  0  0  0  0  0  0  0  0  0  0  0
    3.5261    4.8360   -3.8518 H   0  0  0  0  0  0  0  0  0  0  0  0
    0.4194    3.7084   -2.3969 H   0  0  0  0  0  0  0  0  0  0  0  0
    2.0356    3.0415   -2.0690 H   0  0  0  0  0  0  0  0  0  0  0  0
   -0.5969    0.7497   -1.0474 H   0  0  0  0  0  0  0  0  0  0  0  0
   -2.7367    1.0210   -0.3301 H   0  0  0  0  0  0  0  0  0  0  0  0
   -3.8305    1.9695   -1.3961 H   0  0  0  0  0  0  0  0  0  0  0  0
   -2.8476    2.7903   -0.1655 H   0  0  0  0  0  0  0  0  0  0  0  0
    3.0924    1.3689   -3.0173 H   0  0  0  0  0  0  0  0  0  0  0  0
    3.8637   -1.2275   -2.9455 H   0  0  0  0  0  0  0  0  0  0  0  0
    3.4420   -0.9396   -1.2388 H   0  0  0  0  0  0  0  0  0  0  0  0
    4.6777    0.1038   -2.0378 H   0  0  0  0  0  0  0  0  0  0  0  0
  2  1  2  0  0  0  0
  2  3  1  0  0  0  0
  3  4  1  0  0  0  0
  4 48  1  0  0  0  0
  4 47  1  0  0  0  0
  4  5  1  0  0  0  0
  5 31  2  0  0  0  0
  5  6  1  0  0  0  0
  6  7  2  0  0  0  0
  7  8  1  0  0  0  0
  8  9  2  0  0  0  0
  8 28  1  0  0  0  0
  9 25  1  0  0  0  0
 10 11  1  0  0  0  0
 10  9  1  0  0  0  0
 11 12  1  0  0  0  0
 12 13  2  0  0  0  0
 12 50  1  0  0  0  0
 13 14  1  0  0  0  0
 15 16  1  0  0  0  0
 15 13  1  0  0  0  0
 17 22  1  0  0  0  0
 17 16  1  0  0  0  0
 18 17  2  0  0  0  0
 19 20  2  0  0  0  0
 19 18  1  0  0  0  0
 20 21  1  0  0  0  0
 21 53  1  0  0  0  0
 21 22  2  0  0  0  0
 22 54  1  0  0  0  0
 23 15  2  0  0  0  0
 24 23  1  0  0  0  0
 24 11  2  0  0  0  0
 25 26  2  0  0  0  0
 26 57  1  0  0  0  0
 27 26  1  0  0  0  0
 28 27  2  0  0  0  0
 29 28  1  0  0  0  0
 29 58  1  0  0  0  0
 30  7  1  0  0  0  0
 31 30  1  0  0  0  0
 32  2  1  0  0  0  0
 33 63  1  0  0  0  0
 33 32  1  0  0  0  0
 34 33  1  0  0  0  0
 34 35  1  0  0  0  0
 35 36  1  0  0  0  0
 35 64  1  0  0  0  0
 35 65  1  0  0  0  0
 36 37  1  6  0  0  0
 36 42  1  0  0  0  0
 36 38  1  0  0  0  0
 38 66  1  0  0  0  0
 39 38  1  0  0  0  0
 39 40  1  0  0  0  0
 40 67  1  0  0  0  0
 40 69  1  0  0  0  0
 41 39  2  0  0  0  0
 42 45  2  0  0  0  0
 43 44  1  0  0  0  0
 43 42  1  0  0  0  0
 44 73  1  0  0  0  0
 44 72  1  0  0  0  0
 46  3  1  0  0  0  0
 49 10  1  0  0  0  0
 51 18  1  0  0  0  0
 52 20  1  0  0  0  0
 55 23  1  0  0  0  0
 56 24  1  0  0  0  0
 59 29  1  0  0  0  0
 60 31  1  0  0  0  0
 61 32  1  0  0  0  0
 62 33  1  0  0  0  0
 68 40  1  0  0  0  0
 70 43  1  0  0  0  0
 71 44  1  0  0  0  0
M  END
