76
-1 1
O         0.525873   -3.040779    4.380890
C         0.421021   -1.870278    4.729154
N         0.051885   -0.895008    3.865162
C        -0.290192    0.489749    4.105676
C        -1.700321    0.773260    3.692782
N        -2.175006    0.515261    2.418924
C        -3.426163    0.872910    2.413228
C        -4.365761    0.803454    1.304380
C        -3.940775    0.379311    0.002691
N        -2.648378    0.036317   -0.204501
C        -1.969734   -0.329038   -1.376978
C        -0.575036   -0.437023   -1.255093
C         0.201988   -0.792619   -2.349798
Cl         1.925213   -0.883415   -2.167078
C        -0.394623   -1.041452   -3.591196
O         0.346126   -1.419496   -4.682547
C         1.005222   -0.471293   -5.397781
C         1.759064   -0.914569   -6.491522
N         2.441347   -0.100312   -7.281295
C         2.427005    1.215014   -7.033277
C         3.237149    2.087133   -7.955185
C         1.700192    1.740874   -5.963354
C         0.973885    0.893636   -5.129386
C        -1.776246   -0.936893   -3.704824
C        -2.571955   -0.588295   -2.616651
N        -4.811519    0.324117   -1.017676
C        -6.061570    0.672426   -0.766841
N        -6.579142    1.076368    0.377252
C        -5.736123    1.148168    1.425054
N        -6.300609    1.565200    2.579072
O        -3.823772    1.360741    3.608575
C        -2.722708    1.288354    4.417079
C         0.747929   -1.516115    6.148899
C         1.560946   -0.525020    6.523142
S         3.004486    1.726970    3.934774
C         3.730773    0.153723    3.359141
C         3.607231   -0.122021    1.831522
H         4.431044   -0.785860    1.520535
N         3.728043    1.100098    1.095968
C         4.098682    1.133346   -0.196447
C         4.022631    2.493804   -0.860940
O         4.451638    0.137933   -0.819435
C         2.301193   -0.840660    1.482610
N         2.390362   -2.189593    1.481752
C         1.278215   -3.067533    1.200045
O         1.252069   -0.251731    1.248493
H         0.041393   -1.163247    2.884121
H         0.429424    1.139748    3.575057
H        -0.181325    0.719975    5.170141
H        -2.061252    0.102428    0.637099
H        -0.071924   -0.245519   -0.300254
H         1.788836   -1.988266   -6.706828
H         3.118666    3.153453   -7.717827
H         2.936166    1.921241   -9.000438
H         4.305052    1.830680   -7.880610
H         1.703026    2.816193   -5.772920
H         0.405786    1.286703   -4.284562
H        -2.229063   -1.138042   -4.677656
H        -3.649898   -0.503277   -2.715404
H        -6.753908    0.618138   -1.616880
H        -7.280413    1.803433    2.539526
H        -5.756982    1.695812    3.417694
H        -2.833214    1.632225    5.439467
H         0.392022   -2.259086    6.870345
H         1.850580   -0.422640    7.573754
H         1.985088    0.204876    5.812763
H         3.287367   -0.709191    3.887598
H         4.807441    0.142360    3.593503
H         3.414518    1.920145    1.628987
H         4.875694    2.605798   -1.542761
H         4.001673    3.323072   -0.140549
H         3.102323    2.524847   -1.463967
H         3.284244   -2.600949    1.709153
H         0.806869   -3.425468    2.129523
H         1.620546   -3.922813    0.599829
H         0.538179   -2.510977    0.609787
