76
-1 1
O         7.328669    7.900195    1.998658
C         7.141014    9.124584    2.067388
N         6.168965    9.657742    1.229676
C         5.453755   10.896142    1.389134
C         4.006879   10.730021    1.049624
N         3.590192   10.376325   -0.221353
C         2.289144   10.312050   -0.178262
C         1.378311    9.994811   -1.266345
C         1.871176    9.723475   -2.585285
N         3.204022    9.755240   -2.817536
C         3.950175    9.518963   -3.979441
C         5.343783    9.575149   -3.820859
C         6.197017    9.352911   -4.894169
Cl         7.907387    9.408880   -4.637661
C         5.667853    9.081238   -6.161712
O         6.477472    8.818397   -7.234285
C         7.045699    9.851959   -7.911164
C         7.875283    9.519870   -8.989179
N         8.480406   10.423766   -9.743042
C         8.308462   11.723501   -9.472355
C         9.036539   12.701223  -10.355555
C         7.497938   12.140316   -8.414619
C         6.851134   11.197593   -7.618034
C         4.286607    9.030502   -6.317374
C         3.421107    9.240436   -5.247342
N         1.029932    9.438948   -3.589710
C        -0.261904    9.415528   -3.306233
N        -0.842601    9.641302   -2.143852
C        -0.030886    9.934231   -1.110319
N        -0.661653   10.160681    0.060815
O         1.808734   10.601036    1.049761
C         2.904757   10.860916    1.824951
C         7.891213    9.996967    2.941870
C         8.229650   11.324488    2.697673
S        10.032253   11.586904    1.188437
C        10.680776    9.908308    1.373282
C        11.102399    9.239873    0.058568
H        11.569133    8.266949    0.284463
N        12.098061   10.030316   -0.615758
C        13.047931    9.477036   -1.411567
C        13.740882   10.463444   -2.334815
O        13.333159    8.292645   -1.401263
C         9.943492    8.943344   -0.917771
N         8.929211    8.205003   -0.414487
C         7.771158    7.901363   -1.211593
O         9.983267    9.298692   -2.084976
H         5.764000    8.966828    0.610293
H         5.864888   11.702646    0.752669
H         5.538949   11.231808    2.433436
H         3.758672    9.976068   -1.982201
H         5.779911    9.785622   -2.842392
H         8.034462    8.461537   -9.222586
H         8.794544   13.742002  -10.099709
H         8.779442   12.526594  -11.410989
H        10.124258   12.562664  -10.259831
H         7.372395   13.204565   -8.204729
H         6.218697   11.505916   -6.783797
H         3.890941    8.812400   -7.311119
H         2.343988    9.189478   -5.376510
H        -0.931840    9.178982   -4.142530
H        -1.667617   10.077609    0.053855
H        -0.156041   10.381748    0.904175
H         2.731116   11.108733    2.866159
H         8.454180    9.444840    3.699000
H         8.750292   11.869221    3.486138
H         7.621159   11.960836    2.057003
H         9.899623    9.302870    1.872164
H        11.557477    9.904688    2.039879
H        11.816392   10.991916   -0.781253
H        14.706235   10.047093   -2.647100
H        13.888043   11.444137   -1.859302
H        13.108185   10.604356   -3.224663
H         8.830914    8.045628    0.586079
H         7.129858    7.220608   -0.637105
H         8.058371    7.431458   -2.163953
H         7.198414    8.814274   -1.450920
