-1 1
 OpenBabel05232413483D

 76 78  0  0  1  0  0  0  0  0999 V2000
    0.5259   -3.0408    4.3809 O   0  0  0  0  0  0  0  0  0  0  0  0
    0.4210   -1.8703    4.7292 C   0  0  0  0  0  0  0  0  0  0  0  0
    0.0519   -0.8950    3.8652 N   0  0  0  0  0  0  0  0  0  0  0  0
   -0.2902    0.4897    4.1057 C   0  0  0  0  0  0  0  0  0  0  0  0
   -1.7003    0.7733    3.6928 C   0  0  0  0  0  0  0  0  0  0  0  0
   -2.1750    0.5153    2.4189 N   0  0  0  0  0  0  0  0  0  0  0  0
   -3.4262    0.8729    2.4132 C   0  0  0  0  0  0  0  0  0  0  0  0
   -4.3658    0.8035    1.3044 C   0  0  0  0  0  0  0  0  0  0  0  0
   -3.9408    0.3793    0.0027 C   0  0  0  0  0  0  0  0  0  0  0  0
   -2.6484    0.0363   -0.2045 N   0  0  0  0  0  0  0  0  0  0  0  0
   -1.9697   -0.3290   -1.3770 C   0  0  0  0  0  0  0  0  0  0  0  0
   -0.5750   -0.4370   -1.2551 C   0  0  0  0  0  0  0  0  0  0  0  0
    0.2020   -0.7926   -2.3498 C   0  0  0  0  0  0  0  0  0  0  0  0
    1.9252   -0.8834   -2.1671 Cl  0  0  0  0  0  0  0  0  0  0  0  0
   -0.3946   -1.0415   -3.5912 C   0  0  0  0  0  0  0  0  0  0  0  0
    0.3461   -1.4195   -4.6825 O   0  0  0  0  0  0  0  0  0  0  0  0
    1.0052   -0.4713   -5.3978 C   0  0  0  0  0  0  0  0  0  0  0  0
    1.7591   -0.9146   -6.4915 C   0  0  0  0  0  0  0  0  0  0  0  0
    2.4413   -0.1003   -7.2813 N   0  0  0  0  0  0  0  0  0  0  0  0
    2.4270    1.2150   -7.0333 C   0  0  0  0  0  0  0  0  0  0  0  0
    3.2371    2.0871   -7.9552 C   0  0  0  0  0  0  0  0  0  0  0  0
    1.7002    1.7409   -5.9634 C   0  0  0  0  0  0  0  0  0  0  0  0
    0.9739    0.8936   -5.1294 C   0  0  0  0  0  0  0  0  0  0  0  0
   -1.7762   -0.9369   -3.7048 C   0  0  0  0  0  0  0  0  0  0  0  0
   -2.5720   -0.5883   -2.6167 C   0  0  0  0  0  0  0  0  0  0  0  0
   -4.8115    0.3241   -1.0177 N   0  0  0  0  0  0  0  0  0  0  0  0
   -6.0616    0.6724   -0.7668 C   0  0  0  0  0  0  0  0  0  0  0  0
   -6.5791    1.0764    0.3773 N   0  0  0  0  0  0  0  0  0  0  0  0
   -5.7361    1.1482    1.4251 C   0  0  0  0  0  0  0  0  0  0  0  0
   -6.3006    1.5652    2.5791 N   0  0  0  0  0  0  0  0  0  0  0  0
   -3.8238    1.3607    3.6086 O   0  0  0  0  0  0  0  0  0  0  0  0
   -2.7227    1.2884    4.4171 C   0  0  0  0  0  0  0  0  0  0  0  0
    0.7479   -1.5161    6.1489 C   0  0  0  0  0  0  0  0  0  0  0  0
    1.5609   -0.5250    6.5231 C   0  0  0  0  0  0  0  0  0  0  0  0
    3.0045    1.7270    3.9348 S   0  0  0  0  0  1  0  0  0  0  0  0
    3.7308    0.1537    3.3591 C   0  0  0  0  0  0  0  0  0  0  0  0
    3.6072   -0.1220    1.8315 C   0  0  2  0  0  0  0  0  0  0  0  0
    4.4310   -0.7859    1.5205 H   0  0  0  0  0  0  0  0  0  0  0  0
    3.7280    1.1001    1.0960 N   0  0  0  0  0  0  0  0  0  0  0  0
    4.0987    1.1333   -0.1964 C   0  0  0  0  0  0  0  0  0  0  0  0
    4.0226    2.4938   -0.8609 C   0  0  0  0  0  0  0  0  0  0  0  0
    4.4516    0.1379   -0.8194 O   0  0  0  0  0  0  0  0  0  0  0  0
    2.3012   -0.8407    1.4826 C   0  0  0  0  0  0  0  0  0  0  0  0
    2.3904   -2.1896    1.4818 N   0  0  0  0  0  0  0  0  0  0  0  0
    1.2782   -3.0675    1.2000 C   0  0  0  0  0  0  0  0  0  0  0  0
    1.2521   -0.2517    1.2485 O   0  0  0  0  0  0  0  0  0  0  0  0
    0.0414   -1.1632    2.8841 H   0  0  0  0  0  0  0  0  0  0  0  0
    0.4294    1.1397    3.5751 H   0  0  0  0  0  0  0  0  0  0  0  0
   -0.1813    0.7200    5.1701 H   0  0  0  0  0  0  0  0  0  0  0  0
   -2.0613    0.1024    0.6371 H   0  0  0  0  0  0  0  0  0  0  0  0
   -0.0719   -0.2455   -0.3003 H   0  0  0  0  0  0  0  0  0  0  0  0
    1.7888   -1.9883   -6.7068 H   0  0  0  0  0  0  0  0  0  0  0  0
    3.1187    3.1535   -7.7178 H   0  0  0  0  0  0  0  0  0  0  0  0
    2.9362    1.9212   -9.0004 H   0  0  0  0  0  0  0  0  0  0  0  0
    4.3051    1.8307   -7.8806 H   0  0  0  0  0  0  0  0  0  0  0  0
    1.7030    2.8162   -5.7729 H   0  0  0  0  0  0  0  0  0  0  0  0
    0.4058    1.2867   -4.2846 H   0  0  0  0  0  0  0  0  0  0  0  0
   -2.2291   -1.1380   -4.6777 H   0  0  0  0  0  0  0  0  0  0  0  0
   -3.6499   -0.5033   -2.7154 H   0  0  0  0  0  0  0  0  0  0  0  0
   -6.7539    0.6181   -1.6169 H   0  0  0  0  0  0  0  0  0  0  0  0
   -7.2804    1.8034    2.5395 H   0  0  0  0  0  0  0  0  0  0  0  0
   -5.7570    1.6958    3.4177 H   0  0  0  0  0  0  0  0  0  0  0  0
   -2.8332    1.6322    5.4395 H   0  0  0  0  0  0  0  0  0  0  0  0
    0.3920   -2.2591    6.8703 H   0  0  0  0  0  0  0  0  0  0  0  0
    1.8506   -0.4226    7.5738 H   0  0  0  0  0  0  0  0  0  0  0  0
    1.9851    0.2049    5.8128 H   0  0  0  0  0  0  0  0  0  0  0  0
    3.2874   -0.7092    3.8876 H   0  0  0  0  0  0  0  0  0  0  0  0
    4.8074    0.1424    3.5935 H   0  0  0  0  0  0  0  0  0  0  0  0
    3.4145    1.9201    1.6290 H   0  0  0  0  0  0  0  0  0  0  0  0
    4.8757    2.6058   -1.5428 H   0  0  0  0  0  0  0  0  0  0  0  0
    4.0017    3.3231   -0.1405 H   0  0  0  0  0  0  0  0  0  0  0  0
    3.1023    2.5248   -1.4640 H   0  0  0  0  0  0  0  0  0  0  0  0
    3.2842   -2.6009    1.7092 H   0  0  0  0  0  0  0  0  0  0  0  0
    0.8069   -3.4255    2.1295 H   0  0  0  0  0  0  0  0  0  0  0  0
    1.6205   -3.9228    0.5998 H   0  0  0  0  0  0  0  0  0  0  0  0
    0.5382   -2.5110    0.6098 H   0  0  0  0  0  0  0  0  0  0  0  0
  1  2  2  0  0  0  0
  2 33  1  0  0  0  0
  3  4  1  0  0  0  0
  3  2  1  0  0  0  0
  4 49  1  0  0  0  0
  5  4  1  0  0  0  0
  5 32  2  0  0  0  0
  6  5  1  0  0  0  0
  7  6  2  0  0  0  0
  7 31  1  0  0  0  0
  8 29  1  0  0  0  0
  8  7  1  0  0  0  0
  9  8  2  0  0  0  0
 10  9  1  0  0  0  0
 10 50  1  0  0  0  0
 11 12  1  0  0  0  0
 11 10  1  0  0  0  0
 12 51  1  0  0  0  0
 13 14  1  0  0  0  0
 13 12  2  0  0  0  0
 15 13  1  0  0  0  0
 16 15  1  0  0  0  0
 17 23  1  0  0  0  0
 17 16  1  0  0  0  0
 18 17  2  0  0  0  0
 19 20  2  0  0  0  0
 19 18  1  0  0  0  0
 20 22  1  0  0  0  0
 21 55  1  0  0  0  0
 21 53  1  0  0  0  0
 21 20  1  0  0  0  0
 22 56  1  0  0  0  0
 22 23  2  0  0  0  0
 23 57  1  0  0  0  0
 24 15  2  0  0  0  0
 24 25  1  0  0  0  0
 25 11  2  0  0  0  0
 26 27  2  0  0  0  0
 26  9  1  0  0  0  0
 27 28  1  0  0  0  0
 28 29  2  0  0  0  0
 29 30  1  0  0  0  0
 30 62  1  0  0  0  0
 31 32  1  0  0  0  0
 32 63  1  0  0  0  0
 33 34  2  0  0  0  0
 33 64  1  0  0  0  0
 34 65  1  0  0  0  0
 36 68  1  0  0  0  0
 36 67  1  0  0  0  0
 36 35  1  0  0  0  0
 37 38  1  6  0  0  0
 37 36  1  0  0  0  0
 39 69  1  0  0  0  0
 39 37  1  0  0  0  0
 40 39  1  0  0  0  0
 41 40  1  0  0  0  0
 41 71  1  0  0  0  0
 42 40  2  0  0  0  0
 43 37  1  0  0  0  0
 44 43  1  0  0  0  0
 44 73  1  0  0  0  0
 45 44  1  0  0  0  0
 45 74  1  0  0  0  0
 46 43  2  0  0  0  0
 47  3  1  0  0  0  0
 48  4  1  0  0  0  0
 52 18  1  0  0  0  0
 54 21  1  0  0  0  0
 58 24  1  0  0  0  0
 59 25  1  0  0  0  0
 60 27  1  0  0  0  0
 61 30  1  0  0  0  0
 66 34  1  0  0  0  0
 70 41  1  0  0  0  0
 72 41  1  0  0  0  0
 75 45  1  0  0  0  0
 76 45  1  0  0  0  0
M  END
