-1 1
 OpenBabel05232413483D

 63 64  0  0  1  0  0  0  0  0999 V2000
    6.1328    2.3060   -1.0781 O   0  0  0  0  0  0  0  0  0  0  0  0
    5.0612    2.8258   -0.8158 C   0  0  0  0  0  0  0  0  0  0  0  0
    3.9073    2.3909   -1.4094 N   0  0  0  0  0  0  0  0  0  0  0  0
    2.6661    3.1080   -1.6520 C   0  0  0  0  0  0  0  0  0  0  0  0
    1.5738    2.1185   -1.9022 C   0  0  0  0  0  0  0  0  0  0  0  0
    1.7886    0.9676   -2.6432 N   0  0  0  0  0  0  0  0  0  0  0  0
    0.6770    0.2933   -2.5514 C   0  0  0  0  0  0  0  0  0  0  0  0
    0.3815   -1.0315   -3.0771 C   0  0  0  0  0  0  0  0  0  0  0  0
   -0.5010   -1.9478   -2.4473 C   0  0  0  0  0  0  0  0  0  0  0  0
   -1.0237   -1.6855   -1.2169 N   0  0  0  0  0  0  0  0  0  0  0  0
   -1.9255   -2.4664   -0.4898 C   0  0  0  0  0  0  0  0  0  0  0  0
   -2.8162   -1.7821    0.3523 C   0  0  0  0  0  0  0  0  0  0  0  0
   -2.8022   -0.4600    0.3574 F   0  0  0  0  0  0  0  0  0  0  0  0
   -3.7235   -2.4522    1.1723 C   0  0  0  0  0  0  0  0  0  0  0  0
   -4.7737   -1.5214    2.1803 Cl  0  0  0  0  0  0  0  0  0  0  0  0
   -3.7660   -3.8498    1.1339 C   0  0  0  0  0  0  0  0  0  0  0  0
   -4.8889   -4.7328    2.1277 Cl  0  0  0  0  0  0  0  0  0  0  0  0
   -2.9030   -4.5440    0.2922 C   0  0  0  0  0  0  0  0  0  0  0  0
   -1.9903   -3.8643   -0.5060 C   0  0  0  0  0  0  0  0  0  0  0  0
   -0.8242   -3.1032   -3.0486 N   0  0  0  0  0  0  0  0  0  0  0  0
   -0.2402   -3.3659   -4.2073 C   0  0  0  0  0  0  0  0  0  0  0  0
    0.6804   -2.6570   -4.8344 N   0  0  0  0  0  0  0  0  0  0  0  0
    1.0164   -1.4871   -4.2593 C   0  0  0  0  0  0  0  0  0  0  0  0
    1.9716   -0.7586   -4.8696 N   0  0  0  0  0  0  0  0  0  0  0  0
   -0.2681    0.9430   -1.8579 O   0  0  0  0  0  0  0  0  0  0  0  0
    0.3090    2.0863   -1.4182 C   0  0  0  0  0  0  0  0  0  0  0  0
    5.0029    3.9068    0.2165 C   0  0  0  0  0  0  0  0  0  0  0  0
    4.0518    4.0570    1.1402 C   0  0  0  0  0  0  0  0  0  0  0  0
   -0.0218    2.6487    5.5569 S   0  0  0  0  0  1  0  0  0  0  0  0
    1.1785    1.9841    4.3501 C   0  0  0  0  0  0  0  0  0  0  0  0
    0.6725    1.8534    2.8963 C   0  0  2  0  0  0  0  0  0  0  0  0
   -0.2903    1.3194    2.9073 H   0  0  0  0  0  0  0  0  0  0  0  0
    1.6019    1.0518    2.1257 N   0  0  0  0  0  0  0  0  0  0  0  0
    1.2529    0.2126    1.1317 C   0  0  0  0  0  0  0  0  0  0  0  0
    2.4122   -0.4580    0.4237 C   0  0  0  0  0  0  0  0  0  0  0  0
    0.0852    0.0016    0.8175 O   0  0  0  0  0  0  0  0  0  0  0  0
    0.4416    3.2055    2.1969 C   0  0  0  0  0  0  0  0  0  0  0  0
   -0.3386    4.0572    2.8656 N   0  0  0  0  0  0  0  0  0  0  0  0
   -0.5853    5.3853    2.3739 C   0  0  0  0  0  0  0  0  0  0  0  0
    0.9388    3.4719    1.0975 O   0  0  0  0  0  0  0  0  0  0  0  0
    4.0798    1.6310   -2.0621 H   0  0  0  0  0  0  0  0  0  0  0  0
    2.7750    3.7824   -2.5229 H   0  0  0  0  0  0  0  0  0  0  0  0
    2.3777    3.7142   -0.7867 H   0  0  0  0  0  0  0  0  0  0  0  0
   -0.6906   -0.8591   -0.7015 H   0  0  0  0  0  0  0  0  0  0  0  0
   -2.9439   -5.6332    0.2711 H   0  0  0  0  0  0  0  0  0  0  0  0
   -1.3248   -4.4111   -1.1679 H   0  0  0  0  0  0  0  0  0  0  0  0
   -0.5475   -4.2992   -4.6966 H   0  0  0  0  0  0  0  0  0  0  0  0
    2.4148   -1.1669   -5.6791 H   0  0  0  0  0  0  0  0  0  0  0  0
    2.3706    0.0371   -4.3803 H   0  0  0  0  0  0  0  0  0  0  0  0
   -0.2426    2.7174   -0.7316 H   0  0  0  0  0  0  0  0  0  0  0  0
    5.9172    4.5069    0.2497 H   0  0  0  0  0  0  0  0  0  0  0  0
    3.1342    3.4596    1.1602 H   0  0  0  0  0  0  0  0  0  0  0  0
    4.1560    4.8123    1.9243 H   0  0  0  0  0  0  0  0  0  0  0  0
    1.4807    0.9690    4.6531 H   0  0  0  0  0  0  0  0  0  0  0  0
    2.1001    2.5987    4.3342 H   0  0  0  0  0  0  0  0  0  0  0  0
    2.5883    1.2157    2.2834 H   0  0  0  0  0  0  0  0  0  0  0  0
    2.9716    0.2903   -0.1577 H   0  0  0  0  0  0  0  0  0  0  0  0
    2.0275   -1.2267   -0.2574 H   0  0  0  0  0  0  0  0  0  0  0  0
    3.1028   -0.9202    1.1445 H   0  0  0  0  0  0  0  0  0  0  0  0
   -0.5373    3.8012    3.8637 H   0  0  0  0  0  0  0  0  0  0  0  0
   -1.1751    5.9344    3.1197 H   0  0  0  0  0  0  0  0  0  0  0  0
   -1.1476    5.3656    1.4258 H   0  0  0  0  0  0  0  0  0  0  0  0
    0.3520    5.9362    2.1863 H   0  0  0  0  0  0  0  0  0  0  0  0
  1  2  2  0  0  0  0
  2 27  1  0  0  0  0
  3  2  1  0  0  0  0
  4  3  1  0  0  0  0
  4 43  1  0  0  0  0
  5  4  1  0  0  0  0
  5 26  2  0  0  0  0
  6  7  2  0  0  0  0
  6  5  1  0  0  0  0
  7 25  1  0  0  0  0
  8  7  1  0  0  0  0
  8  9  2  0  0  0  0
  9 10  1  0  0  0  0
 10 44  1  0  0  0  0
 10 11  1  0  0  0  0
 11 12  1  0  0  0  0
 12 13  1  0  0  0  0
 12 14  2  0  0  0  0
 14 15  1  0  0  0  0
 16 14  1  0  0  0  0
 16 17  1  0  0  0  0
 18 16  2  0  0  0  0
 19 11  2  0  0  0  0
 19 18  1  0  0  0  0
 20  9  1  0  0  0  0
 21 20  2  0  0  0  0
 22 23  2  0  0  0  0
 22 21  1  0  0  0  0
 23  8  1  0  0  0  0
 24 49  1  0  0  0  0
 24 23  1  0  0  0  0
 25 26  1  0  0  0  0
 26 50  1  0  0  0  0
 27 51  1  0  0  0  0
 27 28  2  0  0  0  0
 28 52  1  0  0  0  0
 28 53  1  0  0  0  0
 30 54  1  0  0  0  0
 30 29  1  0  0  0  0
 31 32  1  1  0  0  0
 31 30  1  0  0  0  0
 33 56  1  0  0  0  0
 33 31  1  0  0  0  0
 34 33  1  0  0  0  0
 35 34  1  0  0  0  0
 35 59  1  0  0  0  0
 36 34  2  0  0  0  0
 37 38  1  0  0  0  0
 37 31  1  0  0  0  0
 38 60  1  0  0  0  0
 39 38  1  0  0  0  0
 39 61  1  0  0  0  0
 40 37  2  0  0  0  0
 41  3  1  0  0  0  0
 42  4  1  0  0  0  0
 45 18  1  0  0  0  0
 46 19  1  0  0  0  0
 47 21  1  0  0  0  0
 48 24  1  0  0  0  0
 55 30  1  0  0  0  0
 57 35  1  0  0  0  0
 58 35  1  0  0  0  0
 62 39  1  0  0  0  0
 63 39  1  0  0  0  0
M  END
