63
-1 1
O         8.461872    6.756291  -10.217438
C         7.451686    7.351940   -9.841310
N         6.222663    6.606552   -9.967097
C         5.052998    7.177124  -10.625443
C         4.118287    6.063040  -10.966202
N         4.467652    5.063154  -11.860418
C         3.491291    4.203230  -11.833011
C         3.379750    2.958652  -12.582049
C         2.375017    1.976775  -12.381819
N         1.417585    2.156019  -11.415231
C         0.392562    1.316359  -10.998966
C        -0.349864    1.764636   -9.892046
F        -0.007315    2.930261   -9.344775
C        -1.414990    1.047290   -9.359582
Cl        -2.258950    1.699205   -8.000520
C        -1.760970   -0.177293   -9.944417
Cl        -3.084822   -1.117278   -9.320677
C        -1.036253   -0.641999  -11.035763
C         0.025320    0.087244  -11.562430
N         2.336865    0.857391  -13.111677
C         3.287553    0.700273  -14.024885
N         4.287383    1.509581  -14.295733
C         4.359731    2.645677  -13.570602
N         5.392192    3.457368  -13.829023
O         2.506435    4.577312  -10.990789
C         2.915712    5.751864  -10.426938
C         7.456374    8.689105   -9.329460
C         6.471944    9.407229   -8.630875
S         6.569397    9.187964   -6.396886
C         6.232804    7.415782   -6.495100
C         4.769826    6.886615   -6.638658
H         4.394487    6.589376   -5.646572
N         4.815845    5.696513   -7.446416
C         4.032635    4.617961   -7.214412
C         4.133792    3.516819   -8.258583
O         3.313837    4.497314   -6.236610
C         3.672393    7.836550   -7.172680
N         3.526489    8.997938   -6.499104
C         2.590305    9.987980   -6.967657
O         2.925618    7.519601   -8.091069
H         6.505727    5.756134  -10.452174
H         5.323950    7.733979  -11.542906
H         4.518599    7.864473   -9.959096
H         1.476328    3.031512  -10.904425
H        -1.310696   -1.597067  -11.484614
H         0.592458   -0.277720  -12.413935
H         3.230334   -0.219616  -14.620289
H         6.060989    3.149263  -14.519676
H         5.520443    4.296368  -13.261622
H         2.319723    6.203569   -9.639358
H         8.457091    9.127488   -9.370989
H         5.423081    9.107189   -8.706787
H         6.584066   10.494204   -8.595132
H         6.680781    6.915408   -5.625883
H         6.801050    7.066152   -7.372985
H         5.324523    5.796128   -8.330820
H         4.803667    3.765350   -9.094430
H         3.126032    3.311530   -8.646319
H         4.489911    2.598960   -7.769259
H         4.385902    9.330459   -6.040695
H         2.465906   10.763452   -6.199317
H         1.617236    9.517630   -7.164022
H         2.921898   10.470593   -7.904730
