63
-1 1
O         5.489367    2.730490   -0.868322
C         4.503107    3.255312   -0.331717
N         3.308794    2.399753   -0.327535
C         2.090409    2.875485   -0.972420
C         1.196709    1.707204   -1.234080
N         1.557708    0.694370   -2.108346
C         0.619107   -0.202815   -2.025986
C         0.543088   -1.475093   -2.731997
C        -0.490219   -2.434834   -2.576493
N        -1.528682   -2.200240   -1.708798
C        -2.635019   -2.981260   -1.402005
C        -3.539771   -2.425249   -0.479551
F        -3.265323   -1.217545    0.012380
C        -4.695985   -3.079725   -0.070385
Cl        -5.736290   -2.295999    1.065769
C        -4.975093   -4.347649   -0.594983
Cl        -6.407217   -5.212433   -0.118582
C        -4.093916   -4.916706   -1.506818
C        -2.940226   -4.251489   -1.909773
N        -0.485372   -3.584016   -3.259476
C         0.532998   -3.790999   -4.085751
N         1.555981   -2.999764   -4.318266
C         1.582868   -1.830157   -3.644130
N         2.628536   -1.029363   -3.877019
O        -0.352562    0.154461   -1.161379
C         0.025498    1.363487   -0.647435
C         4.449669    4.545652    0.226077
C         3.433540    5.173331    1.053831
S         3.715802    5.056656    3.001104
C         3.520630    3.265497    3.124512
C         2.104920    2.605612    3.052998
H         1.822605    2.250162    4.057240
N         2.203257    1.445658    2.212644
C         1.562248    0.288071    2.489154
C         1.679641   -0.775738    1.410060
O         0.951007    0.077987    3.524793
C         0.887471    3.459271    2.621660
N         0.689029    4.602469    3.320972
C        -0.372620    5.500824    2.940080
O         0.097401    3.076780    1.771416
H         3.640271    1.578538   -0.833805
H         2.301932    3.402009   -1.923341
H         1.545779    3.570326   -0.320678
H        -1.489902   -1.312566   -1.217083
H        -4.316138   -5.904734   -1.911014
H        -2.253540   -4.696735   -2.623841
H         0.514771   -4.739195   -4.637715
H         3.335542   -1.364450   -4.515064
H         2.702198   -0.143964   -3.372850
H        -0.566412    1.807887    0.146349
H         5.396952    5.083754    0.129258
H         2.413951    4.780142    0.943767
H         3.386489    6.267288    0.947290
H         4.017073    2.940056    4.048085
H         4.119446    2.868982    2.288877
H         2.626828    1.618898    1.287010
H         2.295021   -0.462632    0.554854
H         0.669237   -1.026058    1.055946
H         2.106025   -1.685869    1.855068
H         1.539304    5.019393    3.707788
H        -0.520007    6.248106    3.731927
H        -1.303630    4.934959    2.802808
H        -0.158561    6.026796    1.992519
