-1 1
 OpenBabel05232414493D

 63 65  0  0  1  0  0  0  0  0999 V2000
    8.4619    6.7563  -10.2174 O   0  0  0  0  0  0  0  0  0  0  0  0
    7.4517    7.3519   -9.8413 C   0  0  0  0  0  0  0  0  0  0  0  0
    6.2227    6.6066   -9.9671 N   0  0  0  0  0  0  0  0  0  0  0  0
    5.0530    7.1771  -10.6254 C   0  0  0  0  0  0  0  0  0  0  0  0
    4.1183    6.0630  -10.9662 C   0  0  0  0  0  0  0  0  0  0  0  0
    4.4677    5.0632  -11.8604 N   0  0  0  0  0  0  0  0  0  0  0  0
    3.4913    4.2032  -11.8330 C   0  0  0  0  0  0  0  0  0  0  0  0
    3.3798    2.9587  -12.5820 C   0  0  0  0  0  0  0  0  0  0  0  0
    2.3750    1.9768  -12.3818 C   0  0  0  0  0  0  0  0  0  0  0  0
    1.4176    2.1560  -11.4152 N   0  0  0  0  0  0  0  0  0  0  0  0
    0.3926    1.3164  -10.9990 C   0  0  0  0  0  0  0  0  0  0  0  0
   -0.3499    1.7646   -9.8920 C   0  0  0  0  0  0  0  0  0  0  0  0
   -0.0073    2.9303   -9.3448 F   0  0  0  0  0  0  0  0  0  0  0  0
   -1.4150    1.0473   -9.3596 C   0  0  0  0  0  0  0  0  0  0  0  0
   -2.2590    1.6992   -8.0005 Cl  0  0  0  0  0  0  0  0  0  0  0  0
   -1.7610   -0.1773   -9.9444 C   0  0  0  0  0  0  0  0  0  0  0  0
   -3.0848   -1.1173   -9.3207 Cl  0  0  0  0  0  0  0  0  0  0  0  0
   -1.0363   -0.6420  -11.0358 C   0  0  0  0  0  0  0  0  0  0  0  0
    0.0253    0.0872  -11.5624 C   0  0  0  0  0  0  0  0  0  0  0  0
    2.3369    0.8574  -13.1117 N   0  0  0  0  0  0  0  0  0  0  0  0
    3.2876    0.7003  -14.0249 C   0  0  0  0  0  0  0  0  0  0  0  0
    4.2874    1.5096  -14.2957 N   0  0  0  0  0  0  0  0  0  0  0  0
    4.3597    2.6457  -13.5706 C   0  0  0  0  0  0  0  0  0  0  0  0
    5.3922    3.4574  -13.8290 N   0  0  0  0  0  0  0  0  0  0  0  0
    2.5064    4.5773  -10.9908 O   0  0  0  0  0  0  0  0  0  0  0  0
    2.9157    5.7519  -10.4269 C   0  0  0  0  0  0  0  0  0  0  0  0
    7.4564    8.6891   -9.3295 C   0  0  0  0  0  3  0  0  0  0  0  0
    6.4719    9.4072   -8.6309 C   0  0  0  0  0  0  0  0  0  0  0  0
    6.5694    9.1880   -6.3969 S   0  0  0  0  0  0  0  0  0  0  0  0
    6.2328    7.4158   -6.4951 C   0  0  0  0  0  0  0  0  0  0  0  0
    4.7698    6.8866   -6.6387 C   0  0  2  0  0  0  0  0  0  0  0  0
    4.3945    6.5894   -5.6466 H   0  0  0  0  0  0  0  0  0  0  0  0
    4.8158    5.6965   -7.4464 N   0  0  0  0  0  0  0  0  0  0  0  0
    4.0326    4.6180   -7.2144 C   0  0  0  0  0  0  0  0  0  0  0  0
    4.1338    3.5168   -8.2586 C   0  0  0  0  0  0  0  0  0  0  0  0
    3.3138    4.4973   -6.2366 O   0  0  0  0  0  0  0  0  0  0  0  0
    3.6724    7.8365   -7.1727 C   0  0  0  0  0  0  0  0  0  0  0  0
    3.5265    8.9979   -6.4991 N   0  0  0  0  0  0  0  0  0  0  0  0
    2.5903    9.9880   -6.9677 C   0  0  0  0  0  0  0  0  0  0  0  0
    2.9256    7.5196   -8.0911 O   0  0  0  0  0  0  0  0  0  0  0  0
    6.5057    5.7561  -10.4522 H   0  0  0  0  0  0  0  0  0  0  0  0
    5.3239    7.7340  -11.5429 H   0  0  0  0  0  0  0  0  0  0  0  0
    4.5186    7.8645   -9.9591 H   0  0  0  0  0  0  0  0  0  0  0  0
    1.4763    3.0315  -10.9044 H   0  0  0  0  0  0  0  0  0  0  0  0
   -1.3107   -1.5971  -11.4846 H   0  0  0  0  0  0  0  0  0  0  0  0
    0.5925   -0.2777  -12.4139 H   0  0  0  0  0  0  0  0  0  0  0  0
    3.2303   -0.2196  -14.6203 H   0  0  0  0  0  0  0  0  0  0  0  0
    6.0610    3.1493  -14.5197 H   0  0  0  0  0  0  0  0  0  0  0  0
    5.5204    4.2964  -13.2616 H   0  0  0  0  0  0  0  0  0  0  0  0
    2.3197    6.2036   -9.6394 H   0  0  0  0  0  0  0  0  0  0  0  0
    8.4571    9.1275   -9.3710 H   0  0  0  0  0  0  0  0  0  0  0  0
    5.4231    9.1072   -8.7068 H   0  0  0  0  0  0  0  0  0  0  0  0
    6.5841   10.4942   -8.5951 H   0  0  0  0  0  0  0  0  0  0  0  0
    6.6808    6.9154   -5.6259 H   0  0  0  0  0  0  0  0  0  0  0  0
    6.8011    7.0662   -7.3730 H   0  0  0  0  0  0  0  0  0  0  0  0
    5.3245    5.7961   -8.3308 H   0  0  0  0  0  0  0  0  0  0  0  0
    4.8037    3.7654   -9.0944 H   0  0  0  0  0  0  0  0  0  0  0  0
    3.1260    3.3115   -8.6463 H   0  0  0  0  0  0  0  0  0  0  0  0
    4.4899    2.5990   -7.7693 H   0  0  0  0  0  0  0  0  0  0  0  0
    4.3859    9.3305   -6.0407 H   0  0  0  0  0  0  0  0  0  0  0  0
    2.4659   10.7635   -6.1993 H   0  0  0  0  0  0  0  0  0  0  0  0
    1.6172    9.5176   -7.1640 H   0  0  0  0  0  0  0  0  0  0  0  0
    2.9219   10.4706   -7.9047 H   0  0  0  0  0  0  0  0  0  0  0  0
  1  2  2  0  0  0  0
  2 27  1  0  0  0  0
  3  2  1  0  0  0  0
  4  3  1  0  0  0  0
  4 43  1  0  0  0  0
  5  4  1  0  0  0  0
  5 26  2  0  0  0  0
  6  7  2  0  0  0  0
  6  5  1  0  0  0  0
  7 25  1  0  0  0  0
  8  9  2  0  0  0  0
  8  7  1  0  0  0  0
  9 10  1  0  0  0  0
 10 11  1  0  0  0  0
 10 44  1  0  0  0  0
 11 12  1  0  0  0  0
 12 14  2  0  0  0  0
 12 13  1  0  0  0  0
 14 15  1  0  0  0  0
 16 14  1  0  0  0  0
 16 17  1  0  0  0  0
 18 16  2  0  0  0  0
 19 18  1  0  0  0  0
 19 11  2  0  0  0  0
 20  9  1  0  0  0  0
 21 20  2  0  0  0  0
 22 21  1  0  0  0  0
 22 23  2  0  0  0  0
 23  8  1  0  0  0  0
 24 23  1  0  0  0  0
 24 49  1  0  0  0  0
 25 26  1  0  0  0  0
 26 50  1  0  0  0  0
 27 28  1  0  0  0  0
 28 53  1  0  0  0  0
 28 29  1  0  0  0  0
 30 29  1  0  0  0  0
 30 54  1  0  0  0  0
 31 30  1  0  0  0  0
 31 32  1  1  0  0  0
 33 34  1  0  0  0  0
 33 31  1  0  0  0  0
 34 36  2  0  0  0  0
 35 59  1  0  0  0  0
 35 34  1  0  0  0  0
 37 31  1  0  0  0  0
 37 38  1  0  0  0  0
 38 60  1  0  0  0  0
 39 38  1  0  0  0  0
 39 61  1  0  0  0  0
 40 37  2  0  0  0  0
 41  3  1  0  0  0  0
 42  4  1  0  0  0  0
 45 18  1  0  0  0  0
 46 19  1  0  0  0  0
 47 21  1  0  0  0  0
 48 24  1  0  0  0  0
 51 27  1  0  0  0  0
 52 28  1  0  0  0  0
 55 30  1  0  0  0  0
 56 33  1  0  0  0  0
 57 35  1  0  0  0  0
 58 35  1  0  0  0  0
 62 39  1  0  0  0  0
 63 39  1  0  0  0  0
M  END
