-1 1
 OpenBabel05232414493D

 81 82  0  0  1  0  0  0  0  0999 V2000
    3.1304   -1.9464   -8.1782 O   0  0  0  0  0  0  0  0  0  0  0  0
    2.1729   -2.6625   -8.0061 C   0  0  0  0  0  0  0  0  0  0  0  0
    1.5228   -2.8144   -6.6280 C   0  0  1  0  0  0  0  0  0  0  0  0
    0.7335   -2.0487   -6.6781 H   0  0  0  0  0  0  0  0  0  0  0  0
    0.8953   -4.1077   -6.4933 N   0  0  0  0  0  0  0  0  0  0  0  0
   -0.2633   -4.4302   -5.8669 C   0  0  0  0  0  0  0  0  0  0  0  0
   -1.1327   -3.2625   -5.3284 C   0  0  1  0  0  0  0  0  0  0  0  0
   -0.4828   -2.6976   -4.6376 H   0  0  0  0  0  0  0  0  0  0  0  0
   -1.5291   -2.3236   -6.3616 N   0  0  0  0  0  0  0  0  0  0  0  0
   -1.6975   -2.6079   -7.7228 C   0  0  0  0  0  0  0  0  0  0  0  0
   -1.3792   -1.7217   -8.5264 O   0  0  0  0  0  0  0  0  0  0  0  0
   -2.2097   -3.8987   -8.0823 C   0  0  0  0  0  3  0  0  0  0  0  0
   -2.2252   -4.2364   -9.4194 C   0  0  0  0  0  3  0  0  0  0  0  0
    0.1351   -4.8443  -10.0424 S   0  0  0  0  0  1  0  0  0  0  0  0
    0.1482   -4.8910  -11.8564 C   0  0  0  0  0  0  0  0  0  0  0  0
   -0.4351   -3.6462  -12.5621 C   0  0  2  0  0  0  0  0  0  0  0  0
   -1.4748   -3.5117  -12.2303 H   0  0  0  0  0  0  0  0  0  0  0  0
   -0.4256   -3.8167  -14.0000 N   0  0  0  0  0  0  0  0  0  0  0  0
   -1.2686   -4.6145  -14.6860 C   0  0  0  0  0  0  0  0  0  0  0  0
   -1.0442   -4.6427  -16.1910 C   0  0  0  0  0  0  0  0  0  0  0  0
   -2.1529   -5.2817  -14.1731 O   0  0  0  0  0  0  0  0  0  0  0  0
    0.3647   -2.3620  -12.2968 C   0  0  0  0  0  0  0  0  0  0  0  0
    0.1452   -1.7487  -11.1247 N   0  0  0  0  0  0  0  0  0  0  0  0
    0.9074   -0.5953  -10.7172 C   0  0  0  0  0  0  0  0  0  0  0  0
    1.1404   -1.9286  -13.1470 O   0  0  0  0  0  0  0  0  0  0  0  0
   -2.8195   -5.4733   -9.9535 C   0  0  0  0  0  0  0  0  0  0  0  0
   -3.4929   -5.4505  -11.1769 C   0  0  0  0  0  0  0  0  0  0  0  0
   -3.6589   -4.2823  -11.8021 F   0  0  0  0  0  0  0  0  0  0  0  0
   -4.0165   -6.5893  -11.7766 C   0  0  0  0  0  0  0  0  0  0  0  0
   -3.8944   -7.7913  -11.0945 C   0  0  0  0  0  0  0  0  0  0  0  0
   -4.5447   -9.2532  -11.8194 Cl  0  0  0  0  0  0  0  0  0  0  0  0
   -3.2622   -7.8666   -9.8526 C   0  0  0  0  0  0  0  0  0  0  0  0
   -2.7267   -6.7103   -9.3005 C   0  0  0  0  0  0  0  0  0  0  0  0
   -2.3149   -3.7924   -4.4922 C   0  0  0  0  0  0  0  0  0  0  0  0
   -1.9297   -4.1656   -3.0797 C   0  0  0  0  0  0  0  0  0  0  0  0
   -1.4188   -5.4318   -2.7642 C   0  0  0  0  0  0  0  0  0  0  0  0
   -1.0380   -5.7401   -1.4591 C   0  0  0  0  0  0  0  0  0  0  0  0
   -1.1556   -4.7905   -0.4441 C   0  0  0  0  0  0  0  0  0  0  0  0
   -1.6595   -3.5261   -0.7450 C   0  0  0  0  0  0  0  0  0  0  0  0
   -2.0417   -3.2212   -2.0507 C   0  0  0  0  0  0  0  0  0  0  0  0
   -0.6064   -5.5900   -5.7185 O   0  0  0  0  0  0  0  0  0  0  0  0
    2.4810   -2.4466   -5.4923 C   0  0  0  0  0  0  0  0  0  0  0  0
    3.4774   -3.5490   -5.0866 C   0  0  2  0  0  0  0  0  0  0  0  0
    2.9429   -4.3235   -4.5187 H   0  0  0  0  0  0  0  0  0  0  0  0
    4.6866   -2.9776   -4.3340 C   0  0  0  0  0  0  0  0  0  0  0  0
    5.7005   -2.6856   -5.4527 C   0  0  0  0  0  0  0  0  0  0  0  0
    5.3900   -3.7220   -6.4132 N   0  0  0  0  0  0  0  0  0  0  0  0
    4.1252   -4.2118   -6.3058 C   0  0  0  0  0  0  0  0  0  0  0  0
    3.6066   -5.0091   -7.0596 O   0  0  0  0  0  0  0  0  0  0  0  0
    1.6584   -3.2126   -8.8315 H   0  0  0  0  0  0  0  0  0  0  0  0
    1.4321   -4.9014   -6.8439 H   0  0  0  0  0  0  0  0  0  0  0  0
   -1.2170   -1.3685   -6.2373 H   0  0  0  0  0  0  0  0  0  0  0  0
   -2.4417   -4.6357   -7.3144 H   0  0  0  0  0  0  0  0  0  0  0  0
   -2.1829   -3.4037  -10.1185 H   0  0  0  0  0  0  0  0  0  0  0  0
   -0.4461   -5.7483  -12.2094 H   0  0  0  0  0  0  0  0  0  0  0  0
    1.1810   -5.0331  -12.2162 H   0  0  0  0  0  0  0  0  0  0  0  0
    0.2940   -3.2652  -14.4609 H   0  0  0  0  0  0  0  0  0  0  0  0
   -1.9957   -4.4111  -16.6897 H   0  0  0  0  0  0  0  0  0  0  0  0
   -0.7621   -5.6652  -16.4814 H   0  0  0  0  0  0  0  0  0  0  0  0
   -0.2705   -3.9432  -16.5365 H   0  0  0  0  0  0  0  0  0  0  0  0
   -0.3998   -2.2120  -10.3966 H   0  0  0  0  0  0  0  0  0  0  0  0
    1.9385   -0.8607  -10.4279 H   0  0  0  0  0  0  0  0  0  0  0  0
    0.4030   -0.1468   -9.8516 H   0  0  0  0  0  0  0  0  0  0  0  0
    0.9613    0.1351  -11.5376 H   0  0  0  0  0  0  0  0  0  0  0  0
   -4.4805   -6.5142  -12.7585 H   0  0  0  0  0  0  0  0  0  0  0  0
   -3.1689   -8.8251   -9.3415 H   0  0  0  0  0  0  0  0  0  0  0  0
   -2.1772   -6.7596   -8.3579 H   0  0  0  0  0  0  0  0  0  0  0  0
   -2.7629   -4.6521   -5.0089 H   0  0  0  0  0  0  0  0  0  0  0  0
   -3.0618   -2.9867   -4.4675 H   0  0  0  0  0  0  0  0  0  0  0  0
   -1.3055   -6.1620   -3.5673 H   0  0  0  0  0  0  0  0  0  0  0  0
   -0.6427   -6.7338   -1.2343 H   0  0  0  0  0  0  0  0  0  0  0  0
   -0.8565   -5.0355    0.5780 H   0  0  0  0  0  0  0  0  0  0  0  0
   -1.7604   -2.7735    0.0412 H   0  0  0  0  0  0  0  0  0  0  0  0
   -2.4431   -2.2289   -2.2782 H   0  0  0  0  0  0  0  0  0  0  0  0
    1.9080   -2.1696   -4.5929 H   0  0  0  0  0  0  0  0  0  0  0  0
    3.0300   -1.5498   -5.8191 H   0  0  0  0  0  0  0  0  0  0  0  0
    5.1024   -3.7333   -3.6501 H   0  0  0  0  0  0  0  0  0  0  0  0
    4.4441   -2.0830   -3.7430 H   0  0  0  0  0  0  0  0  0  0  0  0
    6.7419   -2.7562   -5.1038 H   0  0  0  0  0  0  0  0  0  0  0  0
    5.5516   -1.6798   -5.8849 H   0  0  0  0  0  0  0  0  0  0  0  0
    5.8987   -3.8534   -7.2784 H   0  0  0  0  0  0  0  0  0  0  0  0
  1  2  2  0  0  0  0
  2  3  1  0  0  0  0
  3  4  1  1  0  0  0
  3  5  1  0  0  0  0
  3 42  1  0  0  0  0
  5  6  1  0  0  0  0
  6 41  2  0  0  0  0
  6  7  1  0  0  0  0
  7  8  1  1  0  0  0
  7 34  1  0  0  0  0
  9 52  1  0  0  0  0
  9  7  1  0  0  0  0
 10  9  1  0  0  0  0
 11 10  2  0  0  0  0
 12 10  1  0  0  0  0
 12 53  1  0  0  0  0
 13 12  1  0  0  0  0
 15 14  1  0  0  0  0
 16 22  1  0  0  0  0
 16 17  1  1  0  0  0
 16 15  1  0  0  0  0
 18 16  1  0  0  0  0
 19 21  2  0  0  0  0
 19 18  1  0  0  0  0
 20 19  1  0  0  0  0
 22 23  1  0  0  0  0
 23 24  1  0  0  0  0
 23 61  1  0  0  0  0
 24 62  1  0  0  0  0
 24 63  1  0  0  0  0
 25 22  2  0  0  0  0
 26 13  1  0  0  0  0
 26 33  1  0  0  0  0
 27 26  2  0  0  0  0
 28 27  1  0  0  0  0
 29 27  1  0  0  0  0
 29 30  2  0  0  0  0
 30 32  1  0  0  0  0
 31 30  1  0  0  0  0
 32 66  1  0  0  0  0
 32 33  2  0  0  0  0
 33 67  1  0  0  0  0
 34 69  1  0  0  0  0
 34 35  1  0  0  0  0
 35 36  2  0  0  0  0
 35 40  1  0  0  0  0
 36 37  1  0  0  0  0
 37 71  1  0  0  0  0
 37 38  2  0  0  0  0
 38 72  1  0  0  0  0
 39 38  1  0  0  0  0
 39 73  1  0  0  0  0
 40 39  2  0  0  0  0
 42 43  1  0  0  0  0
 42 75  1  0  0  0  0
 43 44  1  1  0  0  0
 43 45  1  0  0  0  0
 45 78  1  0  0  0  0
 45 77  1  0  0  0  0
 46 79  1  0  0  0  0
 46 45  1  0  0  0  0
 47 48  1  0  0  0  0
 47 46  1  0  0  0  0
 48 43  1  0  0  0  0
 49 48  2  0  0  0  0
 50  2  1  0  0  0  0
 51  5  1  0  0  0  0
 54 13  1  0  0  0  0
 55 15  1  0  0  0  0
 56 15  1  0  0  0  0
 57 18  1  0  0  0  0
 58 20  1  0  0  0  0
 59 20  1  0  0  0  0
 60 20  1  0  0  0  0
 64 24  1  0  0  0  0
 65 29  1  0  0  0  0
 68 34  1  0  0  0  0
 70 36  1  0  0  0  0
 74 40  1  0  0  0  0
 76 42  1  0  0  0  0
 80 46  1  0  0  0  0
 81 47  1  0  0  0  0
M  END
