-1 1
 OpenBabel05232413483D

 81 82  0  0  1  0  0  0  0  0999 V2000
    4.7466    2.0758    1.1646 O   0  0  0  0  0  0  0  0  0  0  0  0
    3.6849    1.5670    0.9080 C   0  0  0  0  0  0  0  0  0  0  0  0
    2.5231    1.5730    1.9126 C   0  0  1  0  0  0  0  0  0  0  0  0
    1.9723    2.4913    1.6361 H   0  0  0  0  0  0  0  0  0  0  0  0
    1.6697    0.4332    1.6689 N   0  0  0  0  0  0  0  0  0  0  0  0
    0.3764    0.2799    1.9980 C   0  0  0  0  0  0  0  0  0  0  0  0
   -0.3192    1.4732    2.6993 C   0  0  1  0  0  0  0  0  0  0  0  0
    0.4469    1.9779    3.3000 H   0  0  0  0  0  0  0  0  0  0  0  0
   -0.8109    2.5114    1.8114 N   0  0  0  0  0  0  0  0  0  0  0  0
   -1.6987    2.4934    0.7556 C   0  0  0  0  0  0  0  0  0  0  0  0
   -2.1571    3.5544    0.3582 O   0  0  0  0  0  0  0  0  0  0  0  0
   -1.9911    1.1890    0.1239 C   0  0  0  0  0  0  0  0  0  0  0  0
   -2.7464    1.1424   -0.9819 C   0  0  0  0  0  0  0  0  0  0  0  0
    1.3218    0.6196   -1.5525 S   0  0  0  0  0  1  0  0  0  0  0  0
    1.3613    0.2279   -3.3424 C   0  0  0  0  0  0  0  0  0  0  0  0
   -0.0334    0.1007   -3.9896 C   0  0  2  0  0  0  0  0  0  0  0  0
   -0.6335   -0.5151   -3.3038 H   0  0  0  0  0  0  0  0  0  0  0  0
   -0.0098   -0.5393   -5.2880 N   0  0  0  0  0  0  0  0  0  0  0  0
    0.0179   -1.8798   -5.4527 C   0  0  0  0  0  0  0  0  0  0  0  0
   -0.2067   -2.3530   -6.8805 C   0  0  0  0  0  0  0  0  0  0  0  0
    0.1852   -2.6756   -4.5420 O   0  0  0  0  0  0  0  0  0  0  0  0
   -0.7615    1.4374   -4.1974 C   0  0  0  0  0  0  0  0  0  0  0  0
   -0.8273    2.2258   -3.1163 N   0  0  0  0  0  0  0  0  0  0  0  0
   -1.4731    3.5116   -3.1456 C   0  0  0  0  0  0  0  0  0  0  0  0
   -1.2581    1.7300   -5.2850 O   0  0  0  0  0  0  0  0  0  0  0  0
   -2.9157   -0.0432   -1.8225 C   0  0  0  0  0  0  0  0  0  0  0  0
   -3.6377    0.0543   -3.0175 C   0  0  0  0  0  0  0  0  0  0  0  0
   -4.2466    1.2037   -3.3198 F   0  0  0  0  0  0  0  0  0  0  0  0
   -3.7407   -0.9889   -3.9265 C   0  0  0  0  0  0  0  0  0  0  0  0
   -3.1065   -2.1872   -3.6185 C   0  0  0  0  0  0  0  0  0  0  0  0
   -3.2265   -3.5172   -4.7463 Cl  0  0  0  0  0  0  0  0  0  0  0  0
   -2.3725   -2.3414   -2.4451 C   0  0  0  0  0  0  0  0  0  0  0  0
   -2.2790   -1.2696   -1.5655 C   0  0  0  0  0  0  0  0  0  0  0  0
   -1.3540    0.9339    3.7039 C   0  0  0  0  0  0  0  0  0  0  0  0
   -0.6431    0.2633    4.8570 C   0  0  0  0  0  0  0  0  0  0  0  0
   -0.3687   -1.1096    4.8523 C   0  0  0  0  0  0  0  0  0  0  0  0
    0.3810   -1.6889    5.8758 C   0  0  0  0  0  0  0  0  0  0  0  0
    0.8729   -0.9072    6.9203 C   0  0  0  0  0  0  0  0  0  0  0  0
    0.6077    0.4620    6.9365 C   0  0  0  0  0  0  0  0  0  0  0  0
   -0.1432    1.0372    5.9132 C   0  0  0  0  0  0  0  0  0  0  0  0
   -0.2279   -0.7658    1.8112 O   0  0  0  0  0  0  0  0  0  0  0  0
    3.0286    1.7042    3.3600 C   0  0  0  0  0  0  0  0  0  0  0  0
    3.3196    0.3679    4.0584 C   0  0  2  0  0  0  0  0  0  0  0  0
    2.3894   -0.2144    4.1276 H   0  0  0  0  0  0  0  0  0  0  0  0
    3.9863    0.5522    5.4272 C   0  0  0  0  0  0  0  0  0  0  0  0
    5.4920    0.5023    5.1216 C   0  0  0  0  0  0  0  0  0  0  0  0
    5.5348   -0.3587    3.9608 N   0  0  0  0  0  0  0  0  0  0  0  0
    4.3588   -0.4372    3.2730 C   0  0  0  0  0  0  0  0  0  0  0  0
    4.1996   -1.0109    2.2172 O   0  0  0  0  0  0  0  0  0  0  0  0
    3.4310    1.1201   -0.0828 H   0  0  0  0  0  0  0  0  0  0  0  0
    2.0786   -0.3633    1.1821 H   0  0  0  0  0  0  0  0  0  0  0  0
   -0.6746    3.4606    2.1393 H   0  0  0  0  0  0  0  0  0  0  0  0
   -1.5061    0.2968    0.5134 H   0  0  0  0  0  0  0  0  0  0  0  0
   -3.1998    2.0708   -1.3352 H   0  0  0  0  0  0  0  0  0  0  0  0
    1.8465   -0.7487   -3.4792 H   0  0  0  0  0  0  0  0  0  0  0  0
    1.9505    0.9741   -3.9034 H   0  0  0  0  0  0  0  0  0  0  0  0
   -0.3577    0.0612   -6.0323 H   0  0  0  0  0  0  0  0  0  0  0  0
   -1.2551   -2.6743   -6.9770 H   0  0  0  0  0  0  0  0  0  0  0  0
    0.4312   -3.2267   -7.0662 H   0  0  0  0  0  0  0  0  0  0  0  0
   -0.0020   -1.5761   -7.6307 H   0  0  0  0  0  0  0  0  0  0  0  0
   -0.2572    1.9314   -2.2999 H   0  0  0  0  0  0  0  0  0  0  0  0
   -0.8703    4.2706   -3.6747 H   0  0  0  0  0  0  0  0  0  0  0  0
   -1.6452    3.8464   -2.1131 H   0  0  0  0  0  0  0  0  0  0  0  0
   -2.4400    3.4343   -3.6648 H   0  0  0  0  0  0  0  0  0  0  0  0
   -4.2959   -0.8484   -4.8529 H   0  0  0  0  0  0  0  0  0  0  0  0
   -1.8326   -3.2673   -2.2535 H   0  0  0  0  0  0  0  0  0  0  0  0
   -1.6460   -1.3700   -0.6818 H   0  0  0  0  0  0  0  0  0  0  0  0
   -2.0286    0.2359    3.1892 H   0  0  0  0  0  0  0  0  0  0  0  0
   -1.9475    1.7856    4.0693 H   0  0  0  0  0  0  0  0  0  0  0  0
   -0.7180   -1.7133    4.0129 H   0  0  0  0  0  0  0  0  0  0  0  0
    0.5899   -2.7608    5.8489 H   0  0  0  0  0  0  0  0  0  0  0  0
    1.4628   -1.3630    7.7191 H   0  0  0  0  0  0  0  0  0  0  0  0
    0.9873    1.0853    7.7499 H   0  0  0  0  0  0  0  0  0  0  0  0
   -0.3459    2.1126    5.9312 H   0  0  0  0  0  0  0  0  0  0  0  0
    2.3011    2.2470    3.9837 H   0  0  0  0  0  0  0  0  0  0  0  0
    3.9401    2.3220    3.3185 H   0  0  0  0  0  0  0  0  0  0  0  0
    3.7117   -0.2836    6.0877 H   0  0  0  0  0  0  0  0  0  0  0  0
    3.6877    1.4834    5.9293 H   0  0  0  0  0  0  0  0  0  0  0  0
    6.0753    0.0851    5.9570 H   0  0  0  0  0  0  0  0  0  0  0  0
    5.8958    1.5068    4.8973 H   0  0  0  0  0  0  0  0  0  0  0  0
    6.3924   -0.6531    3.5117 H   0  0  0  0  0  0  0  0  0  0  0  0
  2  1  2  0  0  0  0
  2  3  1  0  0  0  0
  3  4  1  6  0  0  0
  3 42  1  0  0  0  0
  5  3  1  0  0  0  0
  5  6  1  0  0  0  0
  6  7  1  0  0  0  0
  7  8  1  1  0  0  0
  7 34  1  0  0  0  0
  9 52  1  0  0  0  0
  9  7  1  0  0  0  0
 10  9  1  0  0  0  0
 11 10  2  0  0  0  0
 12 53  1  0  0  0  0
 12 10  1  0  0  0  0
 13 12  2  0  0  0  0
 15 14  1  0  0  0  0
 16 15  1  0  0  0  0
 16 17  1  1  0  0  0
 18 16  1  0  0  0  0
 19 18  1  0  0  0  0
 19 21  2  0  0  0  0
 20 19  1  0  0  0  0
 22 16  1  0  0  0  0
 22 23  1  0  0  0  0
 23 61  1  0  0  0  0
 24 23  1  0  0  0  0
 24 63  1  0  0  0  0
 25 22  2  0  0  0  0
 26 33  1  0  0  0  0
 26 13  1  0  0  0  0
 27 26  2  0  0  0  0
 28 27  1  0  0  0  0
 29 30  2  0  0  0  0
 29 27  1  0  0  0  0
 30 32  1  0  0  0  0
 31 30  1  0  0  0  0
 32 66  1  0  0  0  0
 32 33  2  0  0  0  0
 33 67  1  0  0  0  0
 34 69  1  0  0  0  0
 34 35  1  0  0  0  0
 35 40  1  0  0  0  0
 36 35  2  0  0  0  0
 36 37  1  0  0  0  0
 37 38  2  0  0  0  0
 38 39  1  0  0  0  0
 38 72  1  0  0  0  0
 39 73  1  0  0  0  0
 40 74  1  0  0  0  0
 40 39  2  0  0  0  0
 41  6  2  0  0  0  0
 42 75  1  0  0  0  0
 42 43  1  0  0  0  0
 43 44  1  1  0  0  0
 43 45  1  0  0  0  0
 45 78  1  0  0  0  0
 45 77  1  0  0  0  0
 46 45  1  0  0  0  0
 46 79  1  0  0  0  0
 47 46  1  0  0  0  0
 48 47  1  0  0  0  0
 48 43  1  0  0  0  0
 49 48  2  0  0  0  0
 50  2  1  0  0  0  0
 51  5  1  0  0  0  0
 54 13  1  0  0  0  0
 55 15  1  0  0  0  0
 56 15  1  0  0  0  0
 57 18  1  0  0  0  0
 58 20  1  0  0  0  0
 59 20  1  0  0  0  0
 60 20  1  0  0  0  0
 62 24  1  0  0  0  0
 64 24  1  0  0  0  0
 65 29  1  0  0  0  0
 68 34  1  0  0  0  0
 70 36  1  0  0  0  0
 71 37  1  0  0  0  0
 76 42  1  0  0  0  0
 80 46  1  0  0  0  0
 81 47  1  0  0  0  0
M  END
