81
-1 1
O         4.746576    2.075806    1.164630
C         3.684924    1.567027    0.907954
C         2.523110    1.573025    1.912613
H         1.972257    2.491287    1.636086
N         1.669681    0.433233    1.668881
C         0.376391    0.279893    1.997984
C        -0.319222    1.473229    2.699322
H         0.446895    1.977861    3.299966
N        -0.810943    2.511423    1.811446
C        -1.698666    2.493448    0.755576
O        -2.157090    3.554372    0.358171
C        -1.991124    1.188989    0.123937
C        -2.746390    1.142363   -0.981885
S         1.321798    0.619634   -1.552533
C         1.361328    0.227910   -3.342450
C        -0.033355    0.100725   -3.989568
H        -0.633518   -0.515109   -3.303759
N        -0.009793   -0.539255   -5.287973
C         0.017915   -1.879818   -5.452715
C        -0.206744   -2.352983   -6.880495
O         0.185216   -2.675622   -4.542033
C        -0.761496    1.437367   -4.197366
N        -0.827334    2.225780   -3.116251
C        -1.473123    3.511593   -3.145563
O        -1.258059    1.730004   -5.284981
C        -2.915693   -0.043224   -1.822536
C        -3.637655    0.054284   -3.017520
F        -4.246587    1.203731   -3.319771
C        -3.740745   -0.988887   -3.926523
C        -3.106541   -2.187245   -3.618454
Cl        -3.226468   -3.517198   -4.746298
C        -2.372472   -2.341388   -2.445067
C        -2.278968   -1.269648   -1.565472
C        -1.354015    0.933907    3.703916
C        -0.643084    0.263323    4.857026
C        -0.368719   -1.109602    4.852327
C         0.380990   -1.688929    5.875769
C         0.872876   -0.907199    6.920252
C         0.607694    0.461987    6.936527
C        -0.143207    1.037181    5.913154
O        -0.227895   -0.765822    1.811208
C         3.028640    1.704159    3.359982
C         3.319612    0.367892    4.058446
H         2.389426   -0.214436    4.127645
C         3.986277    0.552223    5.427223
C         5.491978    0.502292    5.121589
N         5.534811   -0.358724    3.960751
C         4.358817   -0.437223    3.272992
O         4.199577   -1.010869    2.217220
H         3.430971    1.120093   -0.082844
H         2.078609   -0.363318    1.182065
H        -0.674639    3.460642    2.139337
H        -1.506103    0.296836    0.513442
H        -3.199756    2.070814   -1.335185
H         1.846481   -0.748666   -3.479194
H         1.950505    0.974070   -3.903355
H        -0.357740    0.061176   -6.032282
H        -1.255082   -2.674285   -6.976966
H         0.431210   -3.226701   -7.066160
H        -0.001974   -1.576127   -7.630719
H        -0.257226    1.931423   -2.299945
H        -0.870257    4.270631   -3.674730
H        -1.645180    3.846360   -2.113071
H        -2.439979    3.434290   -3.664802
H        -4.295924   -0.848393   -4.852918
H        -1.832650   -3.267318   -2.253456
H        -1.646045   -1.369979   -0.681785
H        -2.028570    0.235919    3.189235
H        -1.947457    1.785594    4.069306
H        -0.717994   -1.713306    4.012946
H         0.589949   -2.760824    5.848897
H         1.462833   -1.362964    7.719123
H         0.987348    1.085293    7.749862
H        -0.345914    2.112605    5.931175
H         2.301087    2.246976    3.983659
H         3.940131    2.322005    3.318512
H         3.711742   -0.283609    6.087675
H         3.687750    1.483396    5.929294
H         6.075276    0.085128    5.957011
H         5.895803    1.506762    4.897292
H         6.392449   -0.653118    3.511667
