-1 1
 OpenBabel05232413483D

 72 74  0  0  1  0  0  0  0  0999 V2000
    0.2312    3.8732   -4.6716 O   0  0  0  0  0  0  0  0  0  0  0  0
   -0.2266    3.5317   -3.5945 C   0  0  0  0  0  0  0  0  0  0  0  0
    0.2278    2.3566   -3.0214 N   0  0  0  0  0  0  0  0  0  0  0  0
    0.2250    1.8700   -1.6995 C   0  0  0  0  0  0  0  0  0  0  0  0
    0.2887    0.4825   -1.5217 C   0  0  0  0  0  0  0  0  0  0  0  0
    0.3493   -0.0567   -0.2433 C   0  0  0  0  0  0  0  0  0  0  0  0
    0.4203   -1.4893   -0.1061 N   0  0  0  0  0  0  0  0  0  0  0  0
   -0.7976   -2.1966   -0.0487 C   0  0  0  0  0  0  0  0  0  0  0  0
   -0.7080   -3.5619    0.0589 N   0  0  0  0  0  0  0  0  0  0  0  0
    0.5041   -4.3040   -0.2205 C   0  0  0  0  0  0  0  0  0  0  0  0
    1.7158   -3.5054    0.1354 C   0  0  0  0  0  0  0  0  0  0  0  0
    1.6406   -2.0975    0.1203 C   0  0  0  0  0  0  0  0  0  0  0  0
    2.7019   -1.3413    0.3240 N   0  0  0  0  0  0  0  0  0  0  0  0
    3.8647   -1.9624    0.5691 C   0  0  0  0  0  0  0  0  0  0  0  0
    4.9128   -1.0987    0.7504 N   0  0  0  0  0  0  0  0  0  0  0  0
    6.2658   -1.3087    1.0211 C   0  0  0  0  0  0  0  0  0  0  0  0
    7.0743   -0.1650    1.1474 C   0  0  0  0  0  0  0  0  0  0  0  0
    8.4326   -0.2800    1.4158 C   0  0  0  0  0  0  0  0  0  0  0  0
    9.0194   -1.5369    1.5651 C   0  0  0  0  0  0  0  0  0  0  0  0
    8.2198   -2.6707    1.4405 C   0  0  0  0  0  0  0  0  0  0  0  0
    6.8556   -2.5732    1.1715 C   0  0  0  0  0  0  0  0  0  0  0  0
    4.0445   -3.2798    0.6487 N   0  0  0  0  0  0  0  0  0  0  0  0
    2.9607   -4.0262    0.4258 C   0  0  0  0  0  0  0  0  0  0  0  0
   -1.9324   -4.3319    0.0360 C   0  0  0  0  0  0  0  0  0  0  0  0
   -1.8536   -1.6044   -0.0733 O   0  0  0  0  0  0  0  0  0  0  0  0
    0.3316    0.7630    0.8798 C   0  0  0  0  0  0  0  0  0  0  0  0
    0.2583    2.1409    0.7020 C   0  0  0  0  0  0  0  0  0  0  0  0
    0.2197    2.6983   -0.5722 C   0  0  0  0  0  0  0  0  0  0  0  0
   -1.3070    4.3161   -2.9465 C   0  0  0  0  0  0  0  0  0  0  0  0
   -2.3040    3.8274   -2.2026 C   0  0  0  0  0  0  0  0  0  0  0  0
   -2.9442    3.8317    1.1275 S   0  0  0  0  0  1  0  0  0  0  0  0
   -2.9458    2.0047    1.0328 C   0  0  0  0  0  0  0  0  0  0  0  0
   -4.3143    1.2953    1.0174 C   0  0  2  0  0  0  0  0  0  0  0  0
   -4.9459    1.7068    1.8196 H   0  0  0  0  0  0  0  0  0  0  0  0
   -4.1285   -0.1112    1.2873 N   0  0  0  0  0  0  0  0  0  0  0  0
   -5.0586   -0.8661    1.9169 C   0  0  0  0  0  0  0  0  0  0  0  0
   -4.7920   -2.3631    1.8318 C   0  0  0  0  0  0  0  0  0  0  0  0
   -6.0238   -0.4210    2.5121 O   0  0  0  0  0  0  0  0  0  0  0  0
   -5.0798    1.4539   -0.3122 C   0  0  0  0  0  0  0  0  0  0  0  0
   -5.2179    2.7351   -0.7223 N   0  0  0  0  0  0  0  0  0  0  0  0
   -5.8617    3.0700   -1.9611 C   0  0  0  0  0  0  0  0  0  0  0  0
   -5.5272    0.4942   -0.9236 O   0  0  0  0  0  0  0  0  0  0  0  0
    0.8211    1.8504   -3.6700 H   0  0  0  0  0  0  0  0  0  0  0  0
    0.2756   -0.1816   -2.3884 H   0  0  0  0  0  0  0  0  0  0  0  0
    0.5303   -4.6015   -1.2907 H   0  0  0  0  0  0  0  0  0  0  0  0
    0.4805   -5.2405    0.3610 H   0  0  0  0  0  0  0  0  0  0  0  0
    4.6161   -0.1332    0.6701 H   0  0  0  0  0  0  0  0  0  0  0  0
    6.6250    0.8253    1.0327 H   0  0  0  0  0  0  0  0  0  0  0  0
    9.0370    0.6252    1.5091 H   0  0  0  0  0  0  0  0  0  0  0  0
   10.0866   -1.6291    1.7763 H   0  0  0  0  0  0  0  0  0  0  0  0
    8.6620   -3.6635    1.5550 H   0  0  0  0  0  0  0  0  0  0  0  0
    6.2335   -3.4597    1.0761 H   0  0  0  0  0  0  0  0  0  0  0  0
    3.1019   -5.1127    0.4766 H   0  0  0  0  0  0  0  0  0  0  0  0
   -2.7836   -3.6610    0.1868 H   0  0  0  0  0  0  0  0  0  0  0  0
   -1.9180   -5.0886    0.8364 H   0  0  0  0  0  0  0  0  0  0  0  0
   -2.0566   -4.8476   -0.9329 H   0  0  0  0  0  0  0  0  0  0  0  0
    0.3539    0.3228    1.8774 H   0  0  0  0  0  0  0  0  0  0  0  0
    0.1872    2.8047    1.5645 H   0  0  0  0  0  0  0  0  0  0  0  0
    0.1400    3.7791   -0.6791 H   0  0  0  0  0  0  0  0  0  0  0  0
   -1.2962    5.3690   -3.2411 H   0  0  0  0  0  0  0  0  0  0  0  0
   -2.3775    2.7750   -1.9169 H   0  0  0  0  0  0  0  0  0  0  0  0
   -3.0987    4.4719   -1.8273 H   0  0  0  0  0  0  0  0  0  0  0  0
   -2.4123    1.5955    1.9044 H   0  0  0  0  0  0  0  0  0  0  0  0
   -2.3827    1.6578    0.1456 H   0  0  0  0  0  0  0  0  0  0  0  0
   -3.4359   -0.5884    0.7168 H   0  0  0  0  0  0  0  0  0  0  0  0
   -5.4199   -2.8821    2.5659 H   0  0  0  0  0  0  0  0  0  0  0  0
   -3.7309   -2.5889    2.0131 H   0  0  0  0  0  0  0  0  0  0  0  0
   -5.0514   -2.7124    0.8202 H   0  0  0  0  0  0  0  0  0  0  0  0
   -4.6668    3.4410   -0.2012 H   0  0  0  0  0  0  0  0  0  0  0  0
   -6.5682    2.2705   -2.2232 H   0  0  0  0  0  0  0  0  0  0  0  0
   -5.1460    3.1729   -2.7983 H   0  0  0  0  0  0  0  0  0  0  0  0
   -6.4096    4.0200   -1.8630 H   0  0  0  0  0  0  0  0  0  0  0  0
  1  2  2  0  0  0  0
  2  3  1  0  0  0  0
  2 29  1  0  0  0  0
  3  4  1  0  0  0  0
  4  5  2  0  0  0  0
  4 28  1  0  0  0  0
  5  6  1  0  0  0  0
  6  7  1  0  0  0  0
  6 26  2  0  0  0  0
  7  8  1  0  0  0  0
  7 12  1  0  0  0  0
  8  9  1  0  0  0  0
 10  9  1  0  0  0  0
 10 11  1  0  0  0  0
 10 46  1  0  0  0  0
 11 23  1  0  0  0  0
 12 11  2  0  0  0  0
 12 13  1  0  0  0  0
 13 14  2  0  0  0  0
 14 22  1  0  0  0  0
 14 15  1  0  0  0  0
 15 16  1  0  0  0  0
 16 17  2  0  0  0  0
 16 21  1  0  0  0  0
 17 18  1  0  0  0  0
 18 49  1  0  0  0  0
 18 19  2  0  0  0  0
 19 50  1  0  0  0  0
 20 51  1  0  0  0  0
 20 19  1  0  0  0  0
 21 20  2  0  0  0  0
 23 53  1  0  0  0  0
 23 22  2  0  0  0  0
 24  9  1  0  0  0  0
 24 54  1  0  0  0  0
 24 55  1  0  0  0  0
 25  8  2  0  0  0  0
 26 57  1  0  0  0  0
 27 26  1  0  0  0  0
 27 58  1  0  0  0  0
 28 27  2  0  0  0  0
 29 30  2  0  0  0  0
 30 61  1  0  0  0  0
 30 62  1  0  0  0  0
 32 31  1  0  0  0  0
 32 63  1  0  0  0  0
 33 32  1  0  0  0  0
 33 35  1  0  0  0  0
 33 34  1  1  0  0  0
 35 36  1  0  0  0  0
 36 38  2  0  0  0  0
 37 36  1  0  0  0  0
 37 67  1  0  0  0  0
 37 66  1  0  0  0  0
 39 33  1  0  0  0  0
 40 39  1  0  0  0  0
 40 69  1  0  0  0  0
 41 72  1  0  0  0  0
 41 40  1  0  0  0  0
 42 39  2  0  0  0  0
 43  3  1  0  0  0  0
 44  5  1  0  0  0  0
 45 10  1  0  0  0  0
 47 15  1  0  0  0  0
 48 17  1  0  0  0  0
 52 21  1  0  0  0  0
 56 24  1  0  0  0  0
 59 28  1  0  0  0  0
 60 29  1  0  0  0  0
 64 32  1  0  0  0  0
 65 35  1  0  0  0  0
 68 37  1  0  0  0  0
 70 41  1  0  0  0  0
 71 41  1  0  0  0  0
M  END
