-1 1
 OpenBabel05192410563D

 72 75  0  0  1  0  0  0  0  0999 V2000
    1.0513    4.5613   -2.7709 O   0  0  0  0  0  0  0  0  0  0  0  0
    0.0216    4.0624   -2.3016 C   0  0  0  0  0  0  0  0  0  0  0  0
    0.0494    2.6022   -2.1033 N   0  0  0  0  0  0  0  0  0  0  0  0
    0.1478    1.9956   -0.8738 C   0  0  0  0  0  0  0  0  0  0  0  0
    0.2467    0.5911   -0.7933 C   0  0  0  0  0  0  0  0  0  0  0  0
    0.2927   -0.0482    0.4376 C   0  0  0  0  0  0  0  0  0  0  0  0
    0.3724   -1.4902    0.4498 N   0  0  0  0  0  0  0  0  0  0  0  0
   -0.8129   -2.2101    0.6649 C   0  0  0  0  0  0  0  0  0  0  0  0
   -0.7179   -3.5796    0.6229 N   0  0  0  0  0  0  0  0  0  0  0  0
    0.4054   -4.2673    0.0179 C   0  0  0  0  0  0  0  0  0  0  0  0
    1.6719   -3.5086    0.2463 C   0  0  0  0  0  0  0  0  0  0  0  0
    1.6080   -2.1077    0.3953 C   0  0  0  0  0  0  0  0  0  0  0  0
    2.6947   -1.3685    0.4962 N   0  0  0  0  0  0  0  0  0  0  0  0
    3.8760   -2.0010    0.4670 C   0  0  0  0  0  0  0  0  0  0  0  0
    4.9471   -1.1499    0.5444 N   0  0  0  0  0  0  0  0  0  0  0  0
    6.3242   -1.3737    0.5510 C   0  0  0  0  0  0  0  0  0  0  0  0
    7.1532   -0.2391    0.6101 C   0  0  0  0  0  0  0  0  0  0  0  0
    8.5364   -0.3689    0.6247 C   0  0  0  0  0  0  0  0  0  0  0  0
    9.1286   -1.6314    0.5807 C   0  0  0  0  0  0  0  0  0  0  0  0
    8.3088   -2.7560    0.5214 C   0  0  0  0  0  0  0  0  0  0  0  0
    6.9196   -2.6438    0.5061 C   0  0  0  0  0  0  0  0  0  0  0  0
    4.0550   -3.3188    0.3809 N   0  0  0  0  0  0  0  0  0  0  0  0
    2.9423   -4.0475    0.2687 C   0  0  0  0  0  0  0  0  0  0  0  0
   -1.9343   -4.3513    0.7500 C   0  0  0  0  0  0  0  0  0  0  0  0
   -1.8548   -1.6369    0.9074 O   0  0  0  0  0  0  0  0  0  0  0  0
    0.2549    0.6621    1.6326 C   0  0  0  0  0  0  0  0  0  0  0  0
    0.1678    2.0530    1.5583 C   0  0  0  0  0  0  0  0  0  0  0  0
    0.1159    2.7161    0.3395 C   0  0  0  0  0  0  0  0  0  0  0  0
   -1.1949    4.6764   -1.9890 C   0  0  0  0  0  3  0  0  0  0  0  0
   -2.4556    3.9794   -1.7416 C   0  0  0  0  0  0  0  0  0  0  0  0
   -3.1439    3.8900    0.0826 S   0  0  0  0  0  0  0  0  0  0  0  0
   -3.1023    2.1170    0.4899 C   0  0  0  0  0  0  0  0  0  0  0  0
   -4.4255    1.3372    0.3879 C   0  0  2  0  0  0  0  0  0  0  0  0
   -5.2243    1.8890    0.9064 H   0  0  0  0  0  0  0  0  0  0  0  0
   -4.2698    0.0717    1.0554 N   0  0  0  0  0  0  0  0  0  0  0  0
   -5.3286   -0.5803    1.5960 C   0  0  0  0  0  0  0  0  0  0  0  0
   -5.0274   -2.0049    2.0290 C   0  0  0  0  0  0  0  0  0  0  0  0
   -6.4337   -0.0838    1.7286 O   0  0  0  0  0  0  0  0  0  0  0  0
   -4.8708    1.1141   -1.0704 C   0  0  0  0  0  0  0  0  0  0  0  0
   -5.2621    2.2477   -1.7071 N   0  0  0  0  0  0  0  0  0  0  0  0
   -5.5442    2.2773   -3.1181 C   0  0  0  0  0  0  0  0  0  0  0  0
   -4.8665    0.0124   -1.5892 O   0  0  0  0  0  0  0  0  0  0  0  0
    0.6100    2.1601   -2.8243 H   0  0  0  0  0  0  0  0  0  0  0  0
    0.2540   -0.0041   -1.7094 H   0  0  0  0  0  0  0  0  0  0  0  0
    0.2239   -4.4136   -1.0683 H   0  0  0  0  0  0  0  0  0  0  0  0
    0.4770   -5.2741    0.4609 H   0  0  0  0  0  0  0  0  0  0  0  0
    4.6483   -0.1826    0.5930 H   0  0  0  0  0  0  0  0  0  0  0  0
    6.7001    0.7555    0.6420 H   0  0  0  0  0  0  0  0  0  0  0  0
    9.1561    0.5296    0.6693 H   0  0  0  0  0  0  0  0  0  0  0  0
   10.2155   -1.7348    0.5912 H   0  0  0  0  0  0  0  0  0  0  0  0
    8.7548   -3.7532    0.4853 H   0  0  0  0  0  0  0  0  0  0  0  0
    6.2819   -3.5231    0.4580 H   0  0  0  0  0  0  0  0  0  0  0  0
    3.0798   -5.1323    0.1825 H   0  0  0  0  0  0  0  0  0  0  0  0
   -2.7140   -3.7275    1.1977 H   0  0  0  0  0  0  0  0  0  0  0  0
   -1.7541   -5.2303    1.3888 H   0  0  0  0  0  0  0  0  0  0  0  0
   -2.2916   -4.7003   -0.2355 H   0  0  0  0  0  0  0  0  0  0  0  0
    0.2822    0.1368    2.5880 H   0  0  0  0  0  0  0  0  0  0  0  0
    0.1306    2.6403    2.4791 H   0  0  0  0  0  0  0  0  0  0  0  0
    0.0189    3.8013    0.2979 H   0  0  0  0  0  0  0  0  0  0  0  0
   -1.2135    5.7637   -2.1033 H   0  0  0  0  0  0  0  0  0  0  0  0
   -2.4247    2.9205   -2.0382 H   0  0  0  0  0  0  0  0  0  0  0  0
   -3.3042    4.4639   -2.2490 H   0  0  0  0  0  0  0  0  0  0  0  0
   -2.7514    2.0337    1.5279 H   0  0  0  0  0  0  0  0  0  0  0  0
   -2.3363    1.6298   -0.1327 H   0  0  0  0  0  0  0  0  0  0  0  0
   -3.4213   -0.4576    0.8649 H   0  0  0  0  0  0  0  0  0  0  0  0
   -5.7710   -2.3178    2.7719 H   0  0  0  0  0  0  0  0  0  0  0  0
   -4.0100   -2.0975    2.4338 H   0  0  0  0  0  0  0  0  0  0  0  0
   -5.1063   -2.6609    1.1481 H   0  0  0  0  0  0  0  0  0  0  0  0
   -5.0671    3.1232   -1.2235 H   0  0  0  0  0  0  0  0  0  0  0  0
   -5.6964    1.2441   -3.4555 H   0  0  0  0  0  0  0  0  0  0  0  0
   -4.7099    2.7145   -3.6930 H   0  0  0  0  0  0  0  0  0  0  0  0
   -6.4553    2.8602   -3.3252 H   0  0  0  0  0  0  0  0  0  0  0  0
  1  2  2  0  0  0  0
  2  3  1  0  0  0  0
  2 29  1  0  0  0  0
  3  4  1  0  0  0  0
  4  5  2  0  0  0  0
  4 28  1  0  0  0  0
  5  6  1  0  0  0  0
  6  7  1  0  0  0  0
  6 26  2  0  0  0  0
  7  8  1  0  0  0  0
  8 25  2  0  0  0  0
  9  8  1  0  0  0  0
  9 24  1  0  0  0  0
 10 11  1  0  0  0  0
 10 46  1  0  0  0  0
 10  9  1  0  0  0  0
 11 23  1  0  0  0  0
 11 12  2  0  0  0  0
 12  7  1  0  0  0  0
 12 13  1  0  0  0  0
 14 13  2  0  0  0  0
 14 15  1  0  0  0  0
 15 16  1  0  0  0  0
 15 47  1  0  0  0  0
 16 17  1  0  0  0  0
 17 18  2  0  0  0  0
 17 48  1  0  0  0  0
 18 49  1  0  0  0  0
 19 50  1  0  0  0  0
 19 18  1  0  0  0  0
 20 19  2  0  0  0  0
 21 20  1  0  0  0  0
 21 16  2  0  0  0  0
 22 14  1  0  0  0  0
 23 22  2  0  0  0  0
 24 54  1  0  0  0  0
 24 55  1  0  0  0  0
 26 57  1  0  0  0  0
 27 26  1  0  0  0  0
 27 58  1  0  0  0  0
 28 27  2  0  0  0  0
 29 30  1  0  0  0  0
 30 31  1  0  0  0  0
 31 32  1  0  0  0  0
 32 63  1  0  0  0  0
 33 32  1  0  0  0  0
 33 34  1  1  0  0  0
 33 35  1  0  0  0  0
 35 36  1  0  0  0  0
 36 38  2  0  0  0  0
 36 37  1  0  0  0  0
 37 67  1  0  0  0  0
 37 66  1  0  0  0  0
 39 33  1  0  0  0  0
 40 69  1  0  0  0  0
 40 39  1  0  0  0  0
 41 40  1  0  0  0  0
 42 39  2  0  0  0  0
 43  3  1  0  0  0  0
 44  5  1  0  0  0  0
 45 10  1  0  0  0  0
 51 20  1  0  0  0  0
 52 21  1  0  0  0  0
 53 23  1  0  0  0  0
 56 24  1  0  0  0  0
 59 28  1  0  0  0  0
 60 29  1  0  0  0  0
 61 30  1  0  0  0  0
 62 30  1  0  0  0  0
 64 32  1  0  0  0  0
 65 35  1  0  0  0  0
 68 37  1  0  0  0  0
 70 41  1  0  0  0  0
 71 41  1  0  0  0  0
 72 41  1  0  0  0  0
M  END
