72
-1 1
O         0.231206    3.873245   -4.671587
C        -0.226595    3.531728   -3.594517
N         0.227787    2.356581   -3.021444
C         0.224990    1.870034   -1.699531
C         0.288732    0.482488   -1.521652
C         0.349305   -0.056681   -0.243317
N         0.420343   -1.489272   -0.106063
C        -0.797633   -2.196559   -0.048739
N        -0.707961   -3.561866    0.058946
C         0.504085   -4.304029   -0.220550
C         1.715835   -3.505365    0.135356
C         1.640611   -2.097476    0.120349
N         2.701942   -1.341277    0.323955
C         3.864723   -1.962409    0.569069
N         4.912751   -1.098653    0.750432
C         6.265822   -1.308736    1.021147
C         7.074274   -0.165047    1.147430
C         8.432595   -0.280010    1.415835
C         9.019367   -1.536862    1.565104
C         8.219800   -2.670692    1.440529
C         6.855616   -2.573170    1.171507
N         4.044510   -3.279799    0.648662
C         2.960672   -4.026224    0.425846
C        -1.932439   -4.331912    0.036050
O        -1.853593   -1.604444   -0.073328
C         0.331610    0.762952    0.879777
C         0.258261    2.140857    0.701978
C         0.219681    2.698336   -0.572176
C        -1.306954    4.316083   -2.946513
C        -2.303978    3.827443   -2.202610
S        -2.944201    3.831713    1.127485
C        -2.945826    2.004682    1.032837
C        -4.314278    1.295270    1.017429
H        -4.945911    1.706841    1.819555
N        -4.128495   -0.111239    1.287330
C        -5.058614   -0.866147    1.916943
C        -4.791989   -2.363065    1.831848
O        -6.023787   -0.420957    2.512054
C        -5.079787    1.453867   -0.312209
N        -5.217940    2.735137   -0.722316
C        -5.861660    3.070042   -1.961099
O        -5.527182    0.494234   -0.923586
H         0.821148    1.850428   -3.670019
H         0.275566   -0.181635   -2.388394
H         0.530266   -4.601501   -1.290733
H         0.480500   -5.240482    0.360981
H         4.616101   -0.133231    0.670056
H         6.625004    0.825295    1.032704
H         9.037031    0.625198    1.509101
H        10.086564   -1.629068    1.776317
H         8.661995   -3.663502    1.555007
H         6.233517   -3.459665    1.076098
H         3.101896   -5.112674    0.476580
H        -2.783589   -3.661033    0.186775
H        -1.917950   -5.088620    0.836371
H        -2.056608   -4.847582   -0.932892
H         0.353899    0.322833    1.877368
H         0.187246    2.804653    1.564549
H         0.139987    3.779117   -0.679116
H        -1.296210    5.368986   -3.241113
H        -2.377490    2.775008   -1.916929
H        -3.098726    4.471896   -1.827334
H        -2.412278    1.595451    1.904374
H        -2.382677    1.657828    0.145641
H        -3.435855   -0.588398    0.716767
H        -5.419925   -2.882119    2.565860
H        -3.730868   -2.588859    2.013069
H        -5.051443   -2.712415    0.820248
H        -4.666813    3.440983   -0.201214
H        -6.568240    2.270491   -2.223199
H        -5.145978    3.172897   -2.798269
H        -6.409604    4.020001   -1.862991
