89
-1 1
O         4.943573    5.616943   -0.138314
C         4.934480    4.421715    0.081888
N         3.771598    3.696320    0.122006
C         3.599356    2.310962    0.084834
C         2.535462    1.754405    0.805360
C         2.337143    0.381010    0.817083
N         1.252599   -0.133700    1.605624
C         1.397529   -0.061895    3.011787
N         0.312969   -0.427769    3.756138
C        -1.018064   -0.608752    3.199962
C        -0.940975   -1.102541    1.792909
C         0.177917   -0.763481    1.005476
N         0.235161   -1.048318   -0.281997
C        -0.810301   -1.694108   -0.817795
N        -0.675342   -1.920917   -2.164929
C        -1.507650   -2.547418   -3.093229
C        -2.746813   -3.123327   -2.793324
C        -3.500018   -3.739662   -3.793601
C        -3.066338   -3.792505   -5.123029
N        -3.823307   -4.386195   -6.159289
C        -5.216194   -4.678864   -5.888105
C        -5.951557   -4.977655   -7.197251
N        -5.340766   -6.037238   -7.980150
C        -3.935726   -5.741029   -8.197752
C        -3.169544   -5.451960   -6.906703
C        -5.607082   -7.373813   -7.498418
C        -1.828572   -3.196472   -5.417111
C        -1.065259   -2.599004   -4.427418
N        -1.890167   -2.110915   -0.163693
C        -1.935162   -1.794922    1.135116
C         0.387787   -0.239035    5.188947
O         2.459590    0.271040    3.496037
C         3.179069   -0.473287    0.108305
C         4.205884    0.083161   -0.649621
C         4.411409    1.459977   -0.678700
C         6.239013    3.757289    0.428389
C         6.406522    2.889788    1.426573
S         1.251218    5.155388    1.647762
C        -0.250277    4.178006    2.007631
C        -0.382965    3.825678    3.498002
H        -0.590607    4.748212    4.072251
N         0.893346    3.274289    3.937997
C         1.318715    3.205170    5.217913
C         2.804637    2.976414    5.364917
O         0.575224    3.283101    6.198487
C        -1.559155    2.860906    3.745026
N        -1.819892    2.615757    5.052577
C        -2.888036    1.753308    5.477525
O        -2.222415    2.379762    2.835790
H         2.919881    4.244224    0.370000
H         1.879184    2.417063    1.370171
H        -1.586339    0.339417    3.219844
H        -1.557754   -1.334572    3.831021
H         0.187704   -1.531502   -2.523294
H        -3.107073   -3.089323   -1.767780
H        -4.451060   -4.190108   -3.506652
H        -5.679184   -3.804806   -5.406159
H        -5.332725   -5.535672   -5.186332
H        -5.955069   -4.056954   -7.805846
H        -7.000593   -5.238682   -6.986021
H        -3.866946   -4.849566   -8.845259
H        -3.464829   -6.579181   -8.735572
H        -2.141573   -5.155449   -7.154522
H        -3.093409   -6.375453   -6.289985
H        -6.695063   -7.538157   -7.451281
H        -5.193052   -7.608292   -6.494677
H        -5.191665   -8.109688   -8.204849
H        -1.468270   -3.180934   -6.447987
H        -0.109186   -2.139946   -4.694512
H        -2.833787   -2.108434    1.679292
H         1.438941   -0.233254    5.495487
H        -0.137369   -1.063862    5.696335
H        -0.067247    0.718410    5.492365
H         3.013677   -1.550377    0.134548
H         4.857952   -0.567581   -1.237304
H         5.211432    1.879118   -1.289740
H         7.098736    4.175879   -0.103728
H         7.403867    2.548806    1.717129
H         5.558738    2.489160    1.990305
H        -0.267182    3.233273    1.438298
H        -1.157043    4.723274    1.710747
H         1.614665    3.551939    3.251315
H         3.362174    3.793027    4.880814
H         3.073463    2.035405    4.861717
H         3.059419    2.931073    6.430058
H        -1.119432    2.956662    5.723887
H        -2.523943    0.761737    5.802687
H        -3.574298    1.605638    4.633030
H        -3.442520    2.202545    6.316133
