89
-1 1
O         4.657166   -1.119659    8.131832
C         4.951507   -1.929496    9.006991
N         4.087593   -3.063039    9.123979
C         4.341926   -4.363147    9.515891
C         3.331706   -5.092576   10.161050
C         3.572879   -6.384804   10.611800
N         2.516426   -7.009497   11.361321
C         2.591053   -6.942643   12.765973
N         1.435048   -7.224007   13.443065
C         0.144368   -7.149444   12.776012
C         0.240081   -7.764059   11.418239
C         1.444076   -7.582194   10.707890
N         1.581339   -7.954202    9.449781
C         0.522946   -8.542066    8.870833
N         0.737430   -8.871222    7.556972
C        -0.074480   -9.489529    6.604271
C        -1.379367   -9.936605    6.836128
C        -2.105788  -10.555531    5.817634
C        -1.577672  -10.737095    4.534447
N        -2.302687  -11.334810    3.478847
C        -3.731731  -11.497823    3.653810
C        -4.389546  -11.818282    2.308863
N        -3.813114  -12.969165    1.637229
C        -2.375950  -12.799572    1.515575
C        -1.686478  -12.492899    2.845209
C        -4.226836  -14.248394    2.168086
C        -0.272150  -10.269472    4.307437
C         0.463027   -9.670936    5.317343
N        -0.639592   -8.817239    9.458312
C        -0.760608   -8.412017   10.727302
C         1.438731   -7.060115   14.880378
O         3.643535   -6.685776   13.317254
C         4.800385   -7.006503   10.420547
C         5.802234   -6.288011    9.766153
C         5.585614   -4.990480    9.315544
C         6.032042   -1.784271    9.938671
C         6.169053   -2.408076   11.185463
S         4.923233   -1.633855   12.939350
C         3.349557   -2.451092   12.536085
C         2.602470   -2.952503   13.767576
H         2.459515   -2.117940   14.472667
N         3.365548   -3.972787   14.460948
C         3.247532   -4.226583   15.775323
C         4.264955   -5.196853   16.331841
O         2.387307   -3.704038   16.485662
C         1.211052   -3.527026   13.434528
N         0.364637   -3.500378   14.496373
C        -0.977155   -4.013227   14.438185
O         0.899095   -3.976409   12.339616
H         3.154554   -2.863465    8.785644
H         2.373865   -4.620529   10.393810
H        -0.167238   -6.091618   12.684244
H        -0.598460   -7.678230   13.393339
H         1.660522   -8.590785    7.249386
H        -1.812963   -9.802353    7.824286
H        -3.112039  -10.904235    6.053201
H        -4.154316  -10.560911    4.046541
H        -3.972299  -12.296605    4.391517
H        -4.270382  -10.939575    1.651750
H        -5.469609  -11.981578    2.450319
H        -2.184374  -11.958416    0.826762
H        -1.938277  -13.704191    1.064480
H        -0.621878  -12.294547    2.663199
H        -1.733848  -13.379528    3.516290
H        -5.325226  -14.322219    2.136414
H        -3.911205  -14.453804    3.213095
H        -3.822772  -15.056669    1.538417
H         0.167279  -10.356252    3.311486
H         1.474272   -9.314474    5.102064
H        -1.726110   -8.607376   11.209290
H         2.440751   -7.273927   15.267002
H         0.721297   -7.763737   15.329481
H         1.167029   -6.032634   15.179888
H         4.969931   -8.014064   10.800602
H         6.780293   -6.749399    9.608502
H         6.385702   -4.423336    8.837756
H         6.626866   -0.888133    9.742074
H         7.105431   -2.228622   11.720702
H         5.790170   -3.418769   11.349991
H         3.536811   -3.310958   11.875296
H         2.682502   -1.774260   11.981846
H         4.047208   -4.491471   13.916487
H         5.182704   -4.643127   16.581731
H         4.515796   -5.972240   15.594303
H         3.865934   -5.648766   17.248305
H         0.804494   -3.319608   15.402965
H        -1.052093   -5.056588   14.794549
H        -1.321037   -3.983795   13.395468
H        -1.648603   -3.394212   15.051471
