89
-1 1
O         3.131081    5.669061   -1.629522
C         3.425624    4.935801   -0.678919
N         2.535683    3.788897   -0.491666
C         2.802969    2.480236   -0.208530
C         1.797117    1.683371    0.373487
C         2.066727    0.385886    0.784120
N         1.024875   -0.266827    1.537169
C         1.087142   -0.162737    2.935259
N        -0.057198   -0.474909    3.620830
C        -1.352631   -0.425713    2.960880
C        -1.248670   -1.038431    1.602121
C        -0.044754   -0.854436    0.891423
N         0.095132   -1.236000   -0.363027
C        -0.958748   -1.833445   -0.939394
N        -0.741178   -2.168915   -2.250615
C        -1.548015   -2.798171   -3.200534
C        -2.846137   -3.262289   -2.964547
C        -3.566911   -3.892459   -3.980242
C        -3.039699   -4.068732   -5.264535
N        -3.759185   -4.677851   -6.317375
C        -5.184995   -4.862191   -6.137780
C        -5.842348   -5.193278   -7.480403
N        -5.250724   -6.335497   -8.153614
C        -3.816731   -6.143910   -8.280230
C        -3.127597   -5.826524   -6.952970
C        -5.642836   -7.620657   -7.620748
C        -1.741264   -3.583635   -5.495697
C        -1.011568   -2.973783   -4.488692
N        -2.120624   -2.111840   -0.350697
C        -2.244448   -1.698760    0.914841
C        -0.047661   -0.286200    5.054567
O         2.124283    0.152174    3.491215
C         3.307628   -0.206618    0.583383
C         4.299253    0.568222   -0.023771
C         4.068293    1.884434   -0.406205
C         4.454593    5.102380    0.261094
C         4.615572    4.435225    1.554776
S         3.547477    4.992889    3.080310
C         1.982107    4.132747    2.741386
C         1.235431    3.765281    4.016568
H         1.144727    4.645520    4.673030
N         1.949711    2.747437    4.764239
C         1.826049    2.584388    6.093756
C         2.728889    1.530346    6.695088
O         1.055537    3.250481    6.784611
C        -0.187361    3.242351    3.732624
N        -1.012133    3.343492    4.805789
C        -2.363079    2.849341    4.785978
O        -0.534407    2.756387    2.665622
H         1.576854    4.014452   -0.725454
H         0.827303    2.123467    0.617766
H        -1.687778    0.626776    2.880138
H        -2.080726   -0.973379    3.579481
H         0.179051   -1.880459   -2.559869
H        -3.279289   -3.131900   -1.975662
H        -4.567751   -4.254355   -3.741529
H        -5.620394   -3.931470   -5.744331
H        -5.411176   -5.664003   -5.398773
H        -5.738821   -4.313140   -8.138238
H        -6.919323   -5.372968   -7.335228
H        -3.640434   -5.300055   -8.969799
H        -3.366782   -7.041788   -8.732715
H        -2.066763   -5.612085   -7.138568
H        -3.159243   -6.713680   -6.281636
H        -6.740076   -7.711388   -7.648488
H        -5.320367   -7.820725   -6.576777
H        -5.228600   -8.422917   -8.251508
H        -1.303361   -3.665398   -6.492721
H        -0.006062   -2.603465   -4.707231
H        -3.208455   -1.898322    1.398338
H         0.947931   -0.519052    5.447053
H        -0.782967   -0.963577    5.514117
H        -0.294906    0.752569    5.337779
H         3.498254   -1.222508    0.929696
H         5.291040    0.137826   -0.186245
H         4.867274    2.497895   -0.826324
H         5.055861    6.000026    0.088696
H         5.618170    4.610240    1.972226
H         4.448843    3.348602    1.572061
H         2.197242    3.209293    2.187075
H         1.331695    4.744129    2.100862
H         2.461264    2.050636    4.226242
H         3.647676    2.019229    7.052416
H         3.005403    0.761956    5.959977
H         2.224257    1.075244    7.556823
H        -0.560301    3.567006    5.696048
H        -2.436337    1.791543    5.097893
H        -2.756955    2.926819    3.763628
H        -2.993017    3.449763    5.457563
