92
-1 1
O         3.219581   -3.404613   -2.157732
C         2.760203   -2.469071   -2.792559
N         1.893103   -2.746018   -3.839604
C         0.781809   -2.069852   -4.386715
C         0.194964   -0.940150   -3.812922
C        -0.989731   -0.426020   -4.341660
N        -1.612875    0.676887   -3.675849
C        -1.855124    1.858740   -4.414119
N        -2.316683    2.934824   -3.702850
C        -2.138249    3.078772   -2.268024
C        -2.183039    1.752340   -1.587561
C        -1.860878    0.594799   -2.313927
N        -1.750014   -0.585850   -1.729693
C        -1.843830   -0.621203   -0.397489
N        -1.572169   -1.848963    0.159757
C        -1.103697   -2.030026    1.486799
C         0.275102   -2.205376    1.719639
C         1.255096   -2.119841    0.581060
C         0.705024   -2.453387    3.020584
C        -0.179116   -2.488493    4.112953
N         0.315578   -2.740849    5.406022
C        -0.640147   -3.002113    6.462684
C         0.065688   -3.635755    7.665700
N         1.195059   -2.869353    8.157684
C         2.115109   -2.598361    7.065681
C         1.444862   -1.938586    5.862082
C         0.839123   -1.709291    8.944184
C        -1.541879   -2.274688    3.858418
C        -1.990764   -2.063173    2.556521
N        -2.150834    0.403663    0.395096
C        -2.340731    1.575288   -0.224882
C        -2.445549    4.184424   -4.416785
O        -1.718779    1.871127   -5.619343
C        -1.579156   -0.996011   -5.467855
C        -0.965518   -2.092385   -6.066328
C         0.200509   -2.630163   -5.533965
C         3.206890   -1.084151   -2.516513
C         3.270738   -0.086963   -3.404428
S         1.487467    2.549351   -2.506151
C         1.212035    1.625438   -0.954750
C         1.149259    2.392962    0.387361
H         2.161415    2.742504    0.640812
N         0.733156    1.489113    1.438196
C         1.139065    1.674831    2.727379
C         0.207159    1.078217    3.761203
O         2.143297    2.289393    3.037107
C         0.244070    3.646263    0.440348
N         0.583049    4.625696   -0.424945
C        -0.184905    5.835523   -0.532041
O        -0.666786    3.750053    1.254653
H         1.867943   -3.749200   -3.990619
H         0.631765   -0.463346   -2.938218
H        -2.931501    3.740748   -1.882653
H        -1.157283    3.552079   -2.069251
H        -1.193307   -2.482493   -0.534599
H         1.104098   -2.916056   -0.165456
H         2.290089   -2.205800    0.936095
H         1.157573   -1.153559    0.061775
H         1.770230   -2.624379    3.187379
H        -1.403157   -3.703262    6.093508
H        -1.173750   -2.076788    6.775835
H         0.432429   -4.630959    7.359387
H        -0.657343   -3.787064    8.483137
H         2.554442   -3.556592    6.737799
H         2.937689   -1.963192    7.429894
H         2.177773   -1.823598    5.054445
H         1.109220   -0.913903    6.128363
H         0.215075   -2.020059    9.796995
H         0.284498   -0.917451    8.397870
H         1.751730   -1.247166    9.351926
H        -2.266263   -2.257044    4.672328
H        -3.051428   -1.900774    2.359283
H        -2.544562    2.436588    0.418750
H        -2.576425    3.979589   -5.484198
H        -1.543181    4.808336   -4.284828
H        -3.316236    4.740427   -4.033929
H        -2.497048   -0.572862   -5.872082
H        -1.408140   -2.541955   -6.958059
H         0.667585   -3.502166   -5.999386
H         3.623375   -0.966081   -1.512897
H         2.885388   -0.191180   -4.422236
H         3.679436    0.887582   -3.135001
H         2.014664    0.880793   -0.824524
H         0.281447    1.042873   -1.031641
H        -0.203278    1.105668    1.329197
H        -0.328620    0.194214    3.391609
H        -0.538312    1.849171    4.010128
H         0.775941    0.829568    4.665456
H         1.139066    4.303975   -1.238000
H        -0.971426    5.769002   -1.307001
H         0.470598    6.682248   -0.785505
H        -0.675707    6.032971    0.430169
