-1 1
 OpenBabel05232413483D

 92 95  0  0  1  0  0  0  0  0999 V2000
    3.2196   -3.4046   -2.1577 O   0  0  0  0  0  0  0  0  0  0  0  0
    2.7602   -2.4691   -2.7926 C   0  0  0  0  0  0  0  0  0  0  0  0
    1.8931   -2.7460   -3.8396 N   0  0  0  0  0  0  0  0  0  0  0  0
    0.7818   -2.0699   -4.3867 C   0  0  0  0  0  0  0  0  0  0  0  0
    0.1950   -0.9402   -3.8129 C   0  0  0  0  0  0  0  0  0  0  0  0
   -0.9897   -0.4260   -4.3417 C   0  0  0  0  0  0  0  0  0  0  0  0
   -1.6129    0.6769   -3.6758 N   0  0  0  0  0  0  0  0  0  0  0  0
   -1.8551    1.8587   -4.4141 C   0  0  0  0  0  0  0  0  0  0  0  0
   -2.3167    2.9348   -3.7029 N   0  0  0  0  0  0  0  0  0  0  0  0
   -2.1382    3.0788   -2.2680 C   0  0  0  0  0  0  0  0  0  0  0  0
   -2.1830    1.7523   -1.5876 C   0  0  0  0  0  0  0  0  0  0  0  0
   -1.8609    0.5948   -2.3139 C   0  0  0  0  0  0  0  0  0  0  0  0
   -1.7500   -0.5858   -1.7297 N   0  0  0  0  0  0  0  0  0  0  0  0
   -1.8438   -0.6212   -0.3975 C   0  0  0  0  0  0  0  0  0  0  0  0
   -1.5722   -1.8490    0.1598 N   0  0  0  0  0  0  0  0  0  0  0  0
   -1.1037   -2.0300    1.4868 C   0  0  0  0  0  0  0  0  0  0  0  0
    0.2751   -2.2054    1.7196 C   0  0  0  0  0  0  0  0  0  0  0  0
    1.2551   -2.1198    0.5811 C   0  0  0  0  0  0  0  0  0  0  0  0
    0.7050   -2.4534    3.0206 C   0  0  0  0  0  0  0  0  0  0  0  0
   -0.1791   -2.4885    4.1130 C   0  0  0  0  0  0  0  0  0  0  0  0
    0.3156   -2.7408    5.4060 N   0  0  0  0  0  0  0  0  0  0  0  0
   -0.6401   -3.0021    6.4627 C   0  0  0  0  0  0  0  0  0  0  0  0
    0.0657   -3.6358    7.6657 C   0  0  0  0  0  0  0  0  0  0  0  0
    1.1951   -2.8694    8.1577 N   0  0  0  0  0  0  0  0  0  0  0  0
    2.1151   -2.5984    7.0657 C   0  0  0  0  0  0  0  0  0  0  0  0
    1.4449   -1.9386    5.8621 C   0  0  0  0  0  0  0  0  0  0  0  0
    0.8391   -1.7093    8.9442 C   0  0  0  0  0  0  0  0  0  0  0  0
   -1.5419   -2.2747    3.8584 C   0  0  0  0  0  0  0  0  0  0  0  0
   -1.9908   -2.0632    2.5565 C   0  0  0  0  0  0  0  0  0  0  0  0
   -2.1508    0.4037    0.3951 N   0  0  0  0  0  0  0  0  0  0  0  0
   -2.3407    1.5753   -0.2249 C   0  0  0  0  0  0  0  0  0  0  0  0
   -2.4455    4.1844   -4.4168 C   0  0  0  0  0  0  0  0  0  0  0  0
   -1.7188    1.8711   -5.6193 O   0  0  0  0  0  0  0  0  0  0  0  0
   -1.5792   -0.9960   -5.4679 C   0  0  0  0  0  0  0  0  0  0  0  0
   -0.9655   -2.0924   -6.0663 C   0  0  0  0  0  0  0  0  0  0  0  0
    0.2005   -2.6302   -5.5340 C   0  0  0  0  0  0  0  0  0  0  0  0
    3.2069   -1.0842   -2.5165 C   0  0  0  0  0  0  0  0  0  0  0  0
    3.2707   -0.0870   -3.4044 C   0  0  0  0  0  0  0  0  0  0  0  0
    1.4875    2.5494   -2.5062 S   0  0  0  0  0  1  0  0  0  0  0  0
    1.2120    1.6254   -0.9547 C   0  0  0  0  0  0  0  0  0  0  0  0
    1.1493    2.3930    0.3874 C   0  0  2  0  0  0  0  0  0  0  0  0
    2.1614    2.7425    0.6408 H   0  0  0  0  0  0  0  0  0  0  0  0
    0.7332    1.4891    1.4382 N   0  0  0  0  0  0  0  0  0  0  0  0
    1.1391    1.6748    2.7274 C   0  0  0  0  0  0  0  0  0  0  0  0
    0.2072    1.0782    3.7612 C   0  0  0  0  0  0  0  0  0  0  0  0
    2.1433    2.2894    3.0371 O   0  0  0  0  0  0  0  0  0  0  0  0
    0.2441    3.6463    0.4403 C   0  0  0  0  0  0  0  0  0  0  0  0
    0.5830    4.6257   -0.4249 N   0  0  0  0  0  0  0  0  0  0  0  0
   -0.1849    5.8355   -0.5320 C   0  0  0  0  0  0  0  0  0  0  0  0
   -0.6668    3.7501    1.2547 O   0  0  0  0  0  0  0  0  0  0  0  0
    1.8679   -3.7492   -3.9906 H   0  0  0  0  0  0  0  0  0  0  0  0
    0.6318   -0.4633   -2.9382 H   0  0  0  0  0  0  0  0  0  0  0  0
   -2.9315    3.7407   -1.8827 H   0  0  0  0  0  0  0  0  0  0  0  0
   -1.1573    3.5521   -2.0693 H   0  0  0  0  0  0  0  0  0  0  0  0
   -1.1933   -2.4825   -0.5346 H   0  0  0  0  0  0  0  0  0  0  0  0
    1.1041   -2.9161   -0.1655 H   0  0  0  0  0  0  0  0  0  0  0  0
    2.2901   -2.2058    0.9361 H   0  0  0  0  0  0  0  0  0  0  0  0
    1.1576   -1.1536    0.0618 H   0  0  0  0  0  0  0  0  0  0  0  0
    1.7702   -2.6244    3.1874 H   0  0  0  0  0  0  0  0  0  0  0  0
   -1.4032   -3.7033    6.0935 H   0  0  0  0  0  0  0  0  0  0  0  0
   -1.1738   -2.0768    6.7758 H   0  0  0  0  0  0  0  0  0  0  0  0
    0.4324   -4.6310    7.3594 H   0  0  0  0  0  0  0  0  0  0  0  0
   -0.6573   -3.7871    8.4831 H   0  0  0  0  0  0  0  0  0  0  0  0
    2.5544   -3.5566    6.7378 H   0  0  0  0  0  0  0  0  0  0  0  0
    2.9377   -1.9632    7.4299 H   0  0  0  0  0  0  0  0  0  0  0  0
    2.1778   -1.8236    5.0544 H   0  0  0  0  0  0  0  0  0  0  0  0
    1.1092   -0.9139    6.1284 H   0  0  0  0  0  0  0  0  0  0  0  0
    0.2151   -2.0201    9.7970 H   0  0  0  0  0  0  0  0  0  0  0  0
    0.2845   -0.9175    8.3979 H   0  0  0  0  0  0  0  0  0  0  0  0
    1.7517   -1.2472    9.3519 H   0  0  0  0  0  0  0  0  0  0  0  0
   -2.2663   -2.2570    4.6723 H   0  0  0  0  0  0  0  0  0  0  0  0
   -3.0514   -1.9008    2.3593 H   0  0  0  0  0  0  0  0  0  0  0  0
   -2.5446    2.4366    0.4188 H   0  0  0  0  0  0  0  0  0  0  0  0
   -2.5764    3.9796   -5.4842 H   0  0  0  0  0  0  0  0  0  0  0  0
   -1.5432    4.8083   -4.2848 H   0  0  0  0  0  0  0  0  0  0  0  0
   -3.3162    4.7404   -4.0339 H   0  0  0  0  0  0  0  0  0  0  0  0
   -2.4970   -0.5729   -5.8721 H   0  0  0  0  0  0  0  0  0  0  0  0
   -1.4081   -2.5420   -6.9581 H   0  0  0  0  0  0  0  0  0  0  0  0
    0.6676   -3.5022   -5.9994 H   0  0  0  0  0  0  0  0  0  0  0  0
    3.6234   -0.9661   -1.5129 H   0  0  0  0  0  0  0  0  0  0  0  0
    2.8854   -0.1912   -4.4222 H   0  0  0  0  0  0  0  0  0  0  0  0
    3.6794    0.8876   -3.1350 H   0  0  0  0  0  0  0  0  0  0  0  0
    2.0147    0.8808   -0.8245 H   0  0  0  0  0  0  0  0  0  0  0  0
    0.2814    1.0429   -1.0316 H   0  0  0  0  0  0  0  0  0  0  0  0
   -0.2033    1.1057    1.3292 H   0  0  0  0  0  0  0  0  0  0  0  0
   -0.3286    0.1942    3.3916 H   0  0  0  0  0  0  0  0  0  0  0  0
   -0.5383    1.8492    4.0101 H   0  0  0  0  0  0  0  0  0  0  0  0
    0.7759    0.8296    4.6655 H   0  0  0  0  0  0  0  0  0  0  0  0
    1.1391    4.3040   -1.2380 H   0  0  0  0  0  0  0  0  0  0  0  0
   -0.9714    5.7690   -1.3070 H   0  0  0  0  0  0  0  0  0  0  0  0
    0.4706    6.6822   -0.7855 H   0  0  0  0  0  0  0  0  0  0  0  0
   -0.6757    6.0330    0.4302 H   0  0  0  0  0  0  0  0  0  0  0  0
  2 37  1  0  0  0  0
  2  1  2  0  0  0  0
  3  2  1  0  0  0  0
  4  3  1  0  0  0  0
  4  5  1  0  0  0  0
  5 52  1  0  0  0  0
  6  5  2  0  0  0  0
  6  7  1  0  0  0  0
  7 12  1  0  0  0  0
  8  9  1  0  0  0  0
  8  7  1  0  0  0  0
  9 10  1  0  0  0  0
 10 54  1  0  0  0  0
 10 53  1  0  0  0  0
 10 11  1  0  0  0  0
 11 31  1  0  0  0  0
 12 13  1  0  0  0  0
 12 11  2  0  0  0  0
 13 14  2  0  0  0  0
 14 15  1  0  0  0  0
 14 30  1  0  0  0  0
 15 16  1  0  0  0  0
 16 17  2  0  0  0  0
 16 29  1  0  0  0  0
 17 19  1  0  0  0  0
 18 57  1  0  0  0  0
 18 17  1  0  0  0  0
 19 59  1  0  0  0  0
 19 20  2  0  0  0  0
 20 21  1  0  0  0  0
 21 26  1  0  0  0  0
 21 22  1  0  0  0  0
 22 61  1  0  0  0  0
 22 23  1  0  0  0  0
 23 24  1  0  0  0  0
 23 63  1  0  0  0  0
 24 27  1  0  0  0  0
 25 65  1  0  0  0  0
 25 24  1  0  0  0  0
 26 67  1  0  0  0  0
 26 25  1  0  0  0  0
 27 70  1  0  0  0  0
 27 68  1  0  0  0  0
 28 20  1  0  0  0  0
 28 71  1  0  0  0  0
 29 28  2  0  0  0  0
 31 30  2  0  0  0  0
 31 73  1  0  0  0  0
 32 75  1  0  0  0  0
 32 76  1  0  0  0  0
 32  9  1  0  0  0  0
 33  8  2  0  0  0  0
 34  6  1  0  0  0  0
 35 36  1  0  0  0  0
 35 34  2  0  0  0  0
 36  4  2  0  0  0  0
 37 80  1  0  0  0  0
 38 82  1  0  0  0  0
 38 37  2  0  0  0  0
 39 40  1  0  0  0  0
 40 83  1  0  0  0  0
 40 41  1  0  0  0  0
 41 47  1  0  0  0  0
 41 42  1  1  0  0  0
 41 43  1  0  0  0  0
 43 44  1  0  0  0  0
 44 46  2  0  0  0  0
 44 45  1  0  0  0  0
 45 87  1  0  0  0  0
 45 88  1  0  0  0  0
 47 50  2  0  0  0  0
 48 47  1  0  0  0  0
 49 48  1  0  0  0  0
 49 92  1  0  0  0  0
 51  3  1  0  0  0  0
 55 15  1  0  0  0  0
 56 18  1  0  0  0  0
 58 18  1  0  0  0  0
 60 22  1  0  0  0  0
 62 23  1  0  0  0  0
 64 25  1  0  0  0  0
 66 26  1  0  0  0  0
 69 27  1  0  0  0  0
 72 29  1  0  0  0  0
 74 32  1  0  0  0  0
 77 34  1  0  0  0  0
 78 35  1  0  0  0  0
 79 36  1  0  0  0  0
 81 38  1  0  0  0  0
 84 40  1  0  0  0  0
 85 43  1  0  0  0  0
 86 45  1  0  0  0  0
 89 48  1  0  0  0  0
 90 49  1  0  0  0  0
 91 49  1  0  0  0  0
M  END
