92
-1 1
O         1.539025   -2.640661   -1.983436
C         2.090022   -1.752678   -2.679458
N         1.892063   -1.855337   -4.148452
C         0.608323   -1.615627   -4.624447
C        -0.091323   -0.506095   -4.141525
C        -1.437857   -0.332526   -4.419502
N        -2.127797    0.647621   -3.623995
C        -2.960832    1.601688   -4.229746
N        -3.499016    2.556234   -3.392543
C        -2.947138    2.868559   -2.087145
C        -2.415837    1.636126   -1.435463
C        -1.978815    0.570156   -2.237614
N        -1.401441   -0.498970   -1.728653
C        -1.134006   -0.505145   -0.420352
N        -0.341849   -1.517431    0.025831
C        -0.188873   -1.862608    1.384822
C         1.086950   -2.123037    1.925050
C         2.322425   -1.957978    1.091120
C         1.179929   -2.489394    3.266578
C         0.067358   -2.556587    4.116917
N         0.250299   -2.888968    5.479626
C        -0.926122   -3.243954    6.245456
C        -0.512010   -3.888182    7.571130
N         0.391366   -3.070477    8.361274
C         1.538132   -2.686588    7.554810
C         1.155700   -2.027925    6.229969
C        -0.244008   -1.975831    9.059648
C        -1.189861   -2.288602    3.562746
C        -1.307449   -1.971163    2.212465
N        -1.542927    0.441734    0.444934
C        -2.184978    1.484040   -0.078934
C        -4.303648    3.593134   -3.992963
O        -3.212506    1.560565   -5.415672
C        -2.094669   -1.162733   -5.328602
C        -1.360833   -2.189241   -5.921445
C        -0.037459   -2.439038   -5.560951
C         2.906080   -0.723914   -2.238154
C         3.350576    0.426760   -3.023730
S         2.330493    2.060721   -2.734067
C         1.294087    1.628020   -1.312498
C         1.650651    2.318263    0.015728
H         2.743516    2.371432    0.127786
N         1.135672    1.579038    1.139250
C         1.645556    1.763822    2.385409
C         0.894317    1.052305    3.493212
O         2.641767    2.432568    2.603956
C         1.071991    3.741729   -0.009663
N         1.834702    4.639588   -0.684706
C         1.376739    5.969129   -0.990446
O        -0.011276    4.011723    0.481619
H         2.218166   -2.773785   -4.435268
H         0.414942    0.167093   -3.453409
H        -3.743870    3.317791   -1.471605
H        -2.149079    3.636151   -2.172839
H         0.213715   -2.007214   -0.700963
H         2.244849   -2.469250    0.118370
H         3.213504   -2.314364    1.626334
H         2.458920   -0.886576    0.869203
H         2.169010   -2.719632    3.670404
H        -1.526984   -3.962995    5.668634
H        -1.577326   -2.361930    6.442133
H        -0.004073   -4.841500    7.343879
H        -1.407050   -4.123740    8.168949
H         2.122158   -3.596281    7.331040
H         2.184635   -2.011873    8.138034
H         2.063973   -1.841682    5.642333
H         0.689308   -1.034429    6.413737
H        -1.040121   -2.367911    9.712336
H        -0.700486   -1.199166    8.410158
H         0.494047   -1.471822    9.703423
H        -2.092486   -2.321389    4.173418
H        -2.295123   -1.772602    1.794730
H        -2.471516    2.278279    0.618936
H        -4.660937    3.250106   -4.969348
H        -3.722641    4.522546   -4.139939
H        -5.163012    3.823413   -3.342699
H        -3.146058   -1.005969   -5.563428
H        -1.848363   -2.843683   -6.648913
H         0.490926   -3.301352   -5.977265
H         3.143058   -0.726036   -1.173141
H         3.233619    0.255105   -4.101255
H         4.376652    0.747524   -2.798921
H         1.385024    0.534206   -1.197770
H         0.248740    1.851661   -1.568744
H         0.206257    1.164619    1.060810
H         0.012694    0.500270    3.139443
H         0.592068    1.800019    4.240432
H         1.579332    0.346645    3.983331
H         2.639686    4.271130   -1.181629
H         1.114671    6.078612   -2.056438
H         2.141875    6.720032   -0.738776
H         0.479635    6.160581   -0.388017
