-1 1
 OpenBabel05192410563D

 92 96  0  0  1  0  0  0  0  0999 V2000
    1.5390   -2.6407   -1.9834 O   0  0  0  0  0  0  0  0  0  0  0  0
    2.0900   -1.7527   -2.6795 C   0  0  0  0  0  0  0  0  0  0  0  0
    1.8921   -1.8553   -4.1485 N   0  0  0  0  0  0  0  0  0  0  0  0
    0.6083   -1.6156   -4.6244 C   0  0  0  0  0  0  0  0  0  0  0  0
   -0.0913   -0.5061   -4.1415 C   0  0  0  0  0  0  0  0  0  0  0  0
   -1.4379   -0.3325   -4.4195 C   0  0  0  0  0  0  0  0  0  0  0  0
   -2.1278    0.6476   -3.6240 N   0  0  0  0  0  0  0  0  0  0  0  0
   -2.9608    1.6017   -4.2297 C   0  0  0  0  0  0  0  0  0  0  0  0
   -3.4990    2.5562   -3.3925 N   0  0  0  0  0  0  0  0  0  0  0  0
   -2.9471    2.8686   -2.0871 C   0  0  0  0  0  0  0  0  0  0  0  0
   -2.4158    1.6361   -1.4355 C   0  0  0  0  0  0  0  0  0  0  0  0
   -1.9788    0.5702   -2.2376 C   0  0  0  0  0  0  0  0  0  0  0  0
   -1.4014   -0.4990   -1.7287 N   0  0  0  0  0  0  0  0  0  0  0  0
   -1.1340   -0.5051   -0.4204 C   0  0  0  0  0  0  0  0  0  0  0  0
   -0.3418   -1.5174    0.0258 N   0  0  0  0  0  0  0  0  0  0  0  0
   -0.1889   -1.8626    1.3848 C   0  0  0  0  0  0  0  0  0  0  0  0
    1.0870   -2.1230    1.9250 C   0  0  0  0  0  0  0  0  0  0  0  0
    2.3224   -1.9580    1.0911 C   0  0  0  0  0  0  0  0  0  0  0  0
    1.1799   -2.4894    3.2666 C   0  0  0  0  0  0  0  0  0  0  0  0
    0.0674   -2.5566    4.1169 C   0  0  0  0  0  0  0  0  0  0  0  0
    0.2503   -2.8890    5.4796 N   0  0  0  0  0  0  0  0  0  0  0  0
   -0.9261   -3.2440    6.2455 C   0  0  0  0  0  0  0  0  0  0  0  0
   -0.5120   -3.8882    7.5711 C   0  0  0  0  0  0  0  0  0  0  0  0
    0.3914   -3.0705    8.3613 N   0  0  0  0  0  0  0  0  0  0  0  0
    1.5381   -2.6866    7.5548 C   0  0  0  0  0  0  0  0  0  0  0  0
    1.1557   -2.0279    6.2300 C   0  0  0  0  0  0  0  0  0  0  0  0
   -0.2440   -1.9758    9.0596 C   0  0  0  0  0  0  0  0  0  0  0  0
   -1.1899   -2.2886    3.5627 C   0  0  0  0  0  0  0  0  0  0  0  0
   -1.3074   -1.9712    2.2125 C   0  0  0  0  0  0  0  0  0  0  0  0
   -1.5429    0.4417    0.4449 N   0  0  0  0  0  0  0  0  0  0  0  0
   -2.1850    1.4840   -0.0789 C   0  0  0  0  0  0  0  0  0  0  0  0
   -4.3036    3.5931   -3.9930 C   0  0  0  0  0  0  0  0  0  0  0  0
   -3.2125    1.5606   -5.4157 O   0  0  0  0  0  0  0  0  0  0  0  0
   -2.0947   -1.1627   -5.3286 C   0  0  0  0  0  0  0  0  0  0  0  0
   -1.3608   -2.1892   -5.9214 C   0  0  0  0  0  0  0  0  0  0  0  0
   -0.0375   -2.4390   -5.5610 C   0  0  0  0  0  0  0  0  0  0  0  0
    2.9061   -0.7239   -2.2382 C   0  0  0  0  0  3  0  0  0  0  0  0
    3.3506    0.4268   -3.0237 C   0  0  0  0  0  0  0  0  0  0  0  0
    2.3305    2.0607   -2.7341 S   0  0  0  0  0  0  0  0  0  0  0  0
    1.2941    1.6280   -1.3125 C   0  0  0  0  0  0  0  0  0  0  0  0
    1.6507    2.3183    0.0157 C   0  0  2  0  0  0  0  0  0  0  0  0
    2.7435    2.3714    0.1278 H   0  0  0  0  0  0  0  0  0  0  0  0
    1.1357    1.5790    1.1393 N   0  0  0  0  0  0  0  0  0  0  0  0
    1.6456    1.7638    2.3854 C   0  0  0  0  0  0  0  0  0  0  0  0
    0.8943    1.0523    3.4932 C   0  0  0  0  0  0  0  0  0  0  0  0
    2.6418    2.4326    2.6040 O   0  0  0  0  0  0  0  0  0  0  0  0
    1.0720    3.7417   -0.0097 C   0  0  0  0  0  0  0  0  0  0  0  0
    1.8347    4.6396   -0.6847 N   0  0  0  0  0  0  0  0  0  0  0  0
    1.3767    5.9691   -0.9904 C   0  0  0  0  0  0  0  0  0  0  0  0
   -0.0113    4.0117    0.4816 O   0  0  0  0  0  0  0  0  0  0  0  0
    2.2182   -2.7738   -4.4353 H   0  0  0  0  0  0  0  0  0  0  0  0
    0.4149    0.1671   -3.4534 H   0  0  0  0  0  0  0  0  0  0  0  0
   -3.7439    3.3178   -1.4716 H   0  0  0  0  0  0  0  0  0  0  0  0
   -2.1491    3.6362   -2.1728 H   0  0  0  0  0  0  0  0  0  0  0  0
    0.2137   -2.0072   -0.7010 H   0  0  0  0  0  0  0  0  0  0  0  0
    2.2448   -2.4693    0.1184 H   0  0  0  0  0  0  0  0  0  0  0  0
    3.2135   -2.3144    1.6263 H   0  0  0  0  0  0  0  0  0  0  0  0
    2.4589   -0.8866    0.8692 H   0  0  0  0  0  0  0  0  0  0  0  0
    2.1690   -2.7196    3.6704 H   0  0  0  0  0  0  0  0  0  0  0  0
   -1.5270   -3.9630    5.6686 H   0  0  0  0  0  0  0  0  0  0  0  0
   -1.5773   -2.3619    6.4421 H   0  0  0  0  0  0  0  0  0  0  0  0
   -0.0041   -4.8415    7.3439 H   0  0  0  0  0  0  0  0  0  0  0  0
   -1.4070   -4.1237    8.1689 H   0  0  0  0  0  0  0  0  0  0  0  0
    2.1222   -3.5963    7.3310 H   0  0  0  0  0  0  0  0  0  0  0  0
    2.1846   -2.0119    8.1380 H   0  0  0  0  0  0  0  0  0  0  0  0
    2.0640   -1.8417    5.6423 H   0  0  0  0  0  0  0  0  0  0  0  0
    0.6893   -1.0344    6.4137 H   0  0  0  0  0  0  0  0  0  0  0  0
   -1.0401   -2.3679    9.7123 H   0  0  0  0  0  0  0  0  0  0  0  0
   -0.7005   -1.1992    8.4102 H   0  0  0  0  0  0  0  0  0  0  0  0
    0.4940   -1.4718    9.7034 H   0  0  0  0  0  0  0  0  0  0  0  0
   -2.0925   -2.3214    4.1734 H   0  0  0  0  0  0  0  0  0  0  0  0
   -2.2951   -1.7726    1.7947 H   0  0  0  0  0  0  0  0  0  0  0  0
   -2.4715    2.2783    0.6189 H   0  0  0  0  0  0  0  0  0  0  0  0
   -4.6609    3.2501   -4.9693 H   0  0  0  0  0  0  0  0  0  0  0  0
   -3.7226    4.5225   -4.1399 H   0  0  0  0  0  0  0  0  0  0  0  0
   -5.1630    3.8234   -3.3427 H   0  0  0  0  0  0  0  0  0  0  0  0
   -3.1461   -1.0060   -5.5634 H   0  0  0  0  0  0  0  0  0  0  0  0
   -1.8484   -2.8437   -6.6489 H   0  0  0  0  0  0  0  0  0  0  0  0
    0.4909   -3.3014   -5.9773 H   0  0  0  0  0  0  0  0  0  0  0  0
    3.1431   -0.7260   -1.1731 H   0  0  0  0  0  0  0  0  0  0  0  0
    3.2336    0.2551   -4.1013 H   0  0  0  0  0  0  0  0  0  0  0  0
    4.3767    0.7475   -2.7989 H   0  0  0  0  0  0  0  0  0  0  0  0
    1.3850    0.5342   -1.1978 H   0  0  0  0  0  0  0  0  0  0  0  0
    0.2487    1.8517   -1.5687 H   0  0  0  0  0  0  0  0  0  0  0  0
    0.2063    1.1646    1.0608 H   0  0  0  0  0  0  0  0  0  0  0  0
    0.0127    0.5003    3.1394 H   0  0  0  0  0  0  0  0  0  0  0  0
    0.5921    1.8000    4.2404 H   0  0  0  0  0  0  0  0  0  0  0  0
    1.5793    0.3466    3.9833 H   0  0  0  0  0  0  0  0  0  0  0  0
    2.6397    4.2711   -1.1816 H   0  0  0  0  0  0  0  0  0  0  0  0
    1.1147    6.0786   -2.0564 H   0  0  0  0  0  0  0  0  0  0  0  0
    2.1419    6.7200   -0.7388 H   0  0  0  0  0  0  0  0  0  0  0  0
    0.4796    6.1606   -0.3880 H   0  0  0  0  0  0  0  0  0  0  0  0
  2 37  1  0  0  0  0
  2  1  2  0  0  0  0
  3  2  1  0  0  0  0
  4  3  1  0  0  0  0
  4  5  1  0  0  0  0
  5 52  1  0  0  0  0
  6  5  2  0  0  0  0
  6  7  1  0  0  0  0
  7 12  1  0  0  0  0
  8  7  1  0  0  0  0
  8  9  1  0  0  0  0
  9 10  1  0  0  0  0
 10 53  1  0  0  0  0
 10 11  1  0  0  0  0
 11 31  1  0  0  0  0
 12 13  1  0  0  0  0
 12 11  2  0  0  0  0
 13 14  2  0  0  0  0
 14 15  1  0  0  0  0
 14 30  1  0  0  0  0
 15 16  1  0  0  0  0
 16 17  2  0  0  0  0
 16 29  1  0  0  0  0
 17 19  1  0  0  0  0
 18 57  1  0  0  0  0
 18 17  1  0  0  0  0
 19 59  1  0  0  0  0
 19 20  2  0  0  0  0
 20 21  1  0  0  0  0
 21 26  1  0  0  0  0
 21 22  1  0  0  0  0
 22 61  1  0  0  0  0
 22 23  1  0  0  0  0
 23 63  1  0  0  0  0
 23 24  1  0  0  0  0
 24 27  1  0  0  0  0
 25 65  1  0  0  0  0
 25 24  1  0  0  0  0
 26 67  1  0  0  0  0
 26 25  1  0  0  0  0
 27 70  1  0  0  0  0
 27 68  1  0  0  0  0
 28 20  1  0  0  0  0
 28 71  1  0  0  0  0
 29 28  2  0  0  0  0
 31 30  2  0  0  0  0
 31 73  1  0  0  0  0
 32  9  1  0  0  0  0
 32 76  1  0  0  0  0
 33  8  2  0  0  0  0
 34  6  1  0  0  0  0
 35 36  1  0  0  0  0
 35 34  2  0  0  0  0
 36  4  2  0  0  0  0
 37 80  1  0  0  0  0
 38 82  1  0  0  0  0
 38 39  1  0  0  0  0
 38 37  1  0  0  0  0
 39 40  1  0  0  0  0
 40 83  1  0  0  0  0
 40 41  1  0  0  0  0
 41 42  1  1  0  0  0
 41 43  1  0  0  0  0
 43 44  1  0  0  0  0
 44 46  2  0  0  0  0
 44 45  1  0  0  0  0
 45 88  1  0  0  0  0
 45 87  1  0  0  0  0
 47 41  1  0  0  0  0
 47 50  2  0  0  0  0
 48 47  1  0  0  0  0
 49 91  1  0  0  0  0
 49 48  1  0  0  0  0
 49 92  1  0  0  0  0
 51  3  1  0  0  0  0
 54 10  1  0  0  0  0
 55 15  1  0  0  0  0
 56 18  1  0  0  0  0
 58 18  1  0  0  0  0
 60 22  1  0  0  0  0
 62 23  1  0  0  0  0
 64 25  1  0  0  0  0
 66 26  1  0  0  0  0
 69 27  1  0  0  0  0
 72 29  1  0  0  0  0
 74 32  1  0  0  0  0
 75 32  1  0  0  0  0
 77 34  1  0  0  0  0
 78 35  1  0  0  0  0
 79 36  1  0  0  0  0
 81 38  1  0  0  0  0
 84 40  1  0  0  0  0
 85 43  1  0  0  0  0
 86 45  1  0  0  0  0
 89 48  1  0  0  0  0
 90 49  1  0  0  0  0
M  END
