-1 1
 OpenBabel05232413483D

 97101  0  0  1  0  0  0  0  0999 V2000
    1.2143    2.8224   -2.7246 O   0  0  0  0  0  0  0  0  0  0  0  0
    1.6189    3.1288   -1.6039 C   0  0  0  0  0  0  0  0  0  0  0  0
    1.0713    2.5932   -0.4833 N   0  0  0  0  0  0  0  0  0  0  0  0
    1.1276    3.0286    0.8534 C   0  0  0  0  0  0  0  0  0  0  0  0
    1.0183    2.0495    1.8381 C   0  0  0  0  0  0  0  0  0  0  0  0
    0.8017    2.4022    3.1676 C   0  0  0  0  0  0  0  0  0  0  0  0
    0.5047    1.3317    4.0779 N   0  0  0  0  0  0  0  0  0  0  0  0
    1.1787    1.2190    5.3040 C   0  0  0  0  0  0  0  0  0  0  0  0
    0.9925    0.0156    5.9679 N   0  0  0  0  0  0  0  0  0  0  0  0
    0.7080   -1.1999    5.2171 C   0  0  0  0  0  0  0  0  0  0  0  0
   -0.3620   -0.9205    4.2129 C   0  0  0  0  0  0  0  0  0  0  0  0
   -0.4324    0.3732    3.6731 C   0  0  0  0  0  0  0  0  0  0  0  0
   -1.3152    0.7051    2.7580 N   0  0  0  0  0  0  0  0  0  0  0  0
   -2.0652   -0.2771    2.2406 C   0  0  0  0  0  0  0  0  0  0  0  0
   -2.8177    0.0913    1.1527 N   0  0  0  0  0  0  0  0  0  0  0  0
   -2.9070   -0.6845   -0.0243 C   0  0  0  0  0  0  0  0  0  0  0  0
   -2.6374   -0.0122   -1.2345 C   0  0  0  0  0  0  0  0  0  0  0  0
   -2.4598    1.3241   -1.1219 O   0  0  0  0  0  0  0  0  0  0  0  0
   -1.9758    2.0507   -2.2194 C   0  0  0  0  0  0  0  0  0  0  0  0
   -2.5153   -0.7128   -2.4297 C   0  0  0  0  0  0  0  0  0  0  0  0
   -2.6863   -2.1079   -2.4618 C   0  0  0  0  0  0  0  0  0  0  0  0
   -2.5320   -2.8465   -3.6506 N   0  0  0  0  0  0  0  0  0  0  0  0
   -1.5346   -3.9180   -3.6183 C   0  0  0  0  0  0  0  0  0  0  0  0
   -1.7488   -4.8605   -4.8029 C   0  0  0  0  0  0  0  0  0  0  0  0
   -1.7475   -4.1899   -6.0919 N   0  0  0  0  0  0  0  0  0  0  0  0
   -2.6914   -3.0885   -6.0703 C   0  0  0  0  0  0  0  0  0  0  0  0
   -2.4870   -2.1154   -4.9049 C   0  0  0  0  0  0  0  0  0  0  0  0
   -0.4242   -3.8270   -6.5714 C   0  0  0  0  0  0  0  0  0  0  0  0
   -3.0282   -2.7580   -1.2703 C   0  0  0  0  0  0  0  0  0  0  0  0
   -3.1309   -2.0556   -0.0685 C   0  0  0  0  0  0  0  0  0  0  0  0
   -2.1138   -1.5304    2.7010 N   0  0  0  0  0  0  0  0  0  0  0  0
   -1.2710   -1.8232    3.6906 C   0  0  0  0  0  0  0  0  0  0  0  0
    1.6814   -0.1391    7.2123 C   0  0  0  0  0  0  0  0  0  0  0  0
    1.2379    0.6706    8.3864 C   0  0  0  0  0  0  0  0  0  0  0  0
    0.9406   -0.8021    8.3431 C   0  0  0  0  0  0  0  0  0  0  0  0
    1.8435    2.1203    5.7611 O   0  0  0  0  0  0  0  0  0  0  0  0
    0.8191    3.7398    3.5559 C   0  0  0  0  0  0  0  0  0  0  0  0
    1.0239    4.7134    2.5775 C   0  0  0  0  0  0  0  0  0  0  0  0
    1.1443    4.3771    1.2316 C   0  0  0  0  0  0  0  0  0  0  0  0
    2.7805    4.0558   -1.4697 C   0  0  0  0  0  0  0  0  0  0  0  0
    3.8757    3.6882   -0.8031 C   0  0  0  0  0  0  0  0  0  0  0  0
    3.7890   -0.0911   -0.7283 S   0  0  0  0  0  1  0  0  0  0  0  0
    3.1114   -0.2419   -2.4143 C   0  0  0  0  0  0  0  0  0  0  0  0
    1.5715   -0.3989   -2.4563 C   0  0  2  0  0  0  0  0  0  0  0  0
    1.1290    0.5165   -2.0592 H   0  0  0  0  0  0  0  0  0  0  0  0
    1.1134   -1.4743   -1.6183 N   0  0  0  0  0  0  0  0  0  0  0  0
    0.5352   -1.2418   -0.4261 C   0  0  0  0  0  0  0  0  0  0  0  0
    0.4609   -2.4155    0.5176 C   0  0  0  0  0  0  0  0  0  0  0  0
    0.0634   -0.1509   -0.1037 O   0  0  0  0  0  0  0  0  0  0  0  0
    1.0685   -0.5879   -3.8786 C   0  0  0  0  0  0  0  0  0  0  0  0
    0.7960    0.5758   -4.5158 N   0  0  0  0  0  0  0  0  0  0  0  0
    0.4078    0.6390   -5.8985 C   0  0  0  0  0  0  0  0  0  0  0  0
    0.9554   -1.6913   -4.4000 O   0  0  0  0  0  0  0  0  0  0  0  0
    0.5835    1.6949   -0.5985 H   0  0  0  0  0  0  0  0  0  0  0  0
    1.0138    1.0069    1.5213 H   0  0  0  0  0  0  0  0  0  0  0  0
    0.3854   -1.9763    5.9263 H   0  0  0  0  0  0  0  0  0  0  0  0
    1.6255   -1.5758    4.7195 H   0  0  0  0  0  0  0  0  0  0  0  0
   -2.6191    1.0598    0.9182 H   0  0  0  0  0  0  0  0  0  0  0  0
   -1.8210    3.0791   -1.8720 H   0  0  0  0  0  0  0  0  0  0  0  0
   -2.7022    2.0546   -3.0522 H   0  0  0  0  0  0  0  0  0  0  0  0
   -1.0108    1.6617   -2.5782 H   0  0  0  0  0  0  0  0  0  0  0  0
   -2.2082   -0.1816   -3.3277 H   0  0  0  0  0  0  0  0  0  0  0  0
   -1.6362   -4.4847   -2.6829 H   0  0  0  0  0  0  0  0  0  0  0  0
   -0.5146   -3.4854   -3.6414 H   0  0  0  0  0  0  0  0  0  0  0  0
   -2.7266   -5.3599   -4.6752 H   0  0  0  0  0  0  0  0  0  0  0  0
   -0.9729   -5.6428   -4.8021 H   0  0  0  0  0  0  0  0  0  0  0  0
   -3.7109   -3.5070   -5.9901 H   0  0  0  0  0  0  0  0  0  0  0  0
   -2.6313   -2.5414   -7.0252 H   0  0  0  0  0  0  0  0  0  0  0  0
   -3.2991   -1.3720   -4.9161 H   0  0  0  0  0  0  0  0  0  0  0  0
   -1.5262   -1.5750   -5.0292 H   0  0  0  0  0  0  0  0  0  0  0  0
    0.1952   -4.7356   -6.6432 H   0  0  0  0  0  0  0  0  0  0  0  0
    0.1170   -3.0940   -5.9436 H   0  0  0  0  0  0  0  0  0  0  0  0
   -0.5123   -3.4116   -7.5889 H   0  0  0  0  0  0  0  0  0  0  0  0
   -3.2153   -3.8332   -1.2789 H   0  0  0  0  0  0  0  0  0  0  0  0
   -3.3485   -2.5784    0.8615 H   0  0  0  0  0  0  0  0  0  0  0  0
   -1.3020   -2.8524    4.0698 H   0  0  0  0  0  0  0  0  0  0  0  0
    2.7575   -0.3420    7.1318 H   0  0  0  0  0  0  0  0  0  0  0  0
    0.4100    1.3618    8.2188 H   0  0  0  0  0  0  0  0  0  0  0  0
    2.0104    1.0398    9.0636 H   0  0  0  0  0  0  0  0  0  0  0  0
   -0.0944   -1.0991    8.1536 H   0  0  0  0  0  0  0  0  0  0  0  0
    1.4995   -1.4779    8.9946 H   0  0  0  0  0  0  0  0  0  0  0  0
    0.6762    4.0113    4.6001 H   0  0  0  0  0  0  0  0  0  0  0  0
    1.0449    5.7664    2.8681 H   0  0  0  0  0  0  0  0  0  0  0  0
    1.2290    5.1594    0.4764 H   0  0  0  0  0  0  0  0  0  0  0  0
    2.7400    4.9633   -2.0802 H   0  0  0  0  0  0  0  0  0  0  0  0
    3.9239    2.7145   -0.2948 H   0  0  0  0  0  0  0  0  0  0  0  0
    4.7731    4.3131   -0.8127 H   0  0  0  0  0  0  0  0  0  0  0  0
    3.5485   -1.1094   -2.9425 H   0  0  0  0  0  0  0  0  0  0  0  0
    3.3494    0.6483   -3.0216 H   0  0  0  0  0  0  0  0  0  0  0  0
    1.5829   -2.3612   -1.7452 H   0  0  0  0  0  0  0  0  0  0  0  0
    1.1038   -2.1840    1.3797 H   0  0  0  0  0  0  0  0  0  0  0  0
    0.8026   -3.3554    0.0640 H   0  0  0  0  0  0  0  0  0  0  0  0
   -0.5729   -2.5254    0.8695 H   0  0  0  0  0  0  0  0  0  0  0  0
    0.9465    1.4412   -3.9926 H   0  0  0  0  0  0  0  0  0  0  0  0
   -0.6124    1.0413   -6.0182 H   0  0  0  0  0  0  0  0  0  0  0  0
    0.4303   -0.3784   -6.3112 H   0  0  0  0  0  0  0  0  0  0  0  0
    1.0974    1.2722   -6.4798 H   0  0  0  0  0  0  0  0  0  0  0  0
  1  2  2  0  0  0  0
  2 40  1  0  0  0  0
  2  3  1  0  0  0  0
  3  4  1  0  0  0  0
  4 39  2  0  0  0  0
  4  5  1  0  0  0  0
  5  6  2  0  0  0  0
  6 37  1  0  0  0  0
  6  7  1  0  0  0  0
  7  8  1  0  0  0  0
  8 36  2  0  0  0  0
  8  9  1  0  0  0  0
  9 33  1  0  0  0  0
 10 56  1  0  0  0  0
 10  9  1  0  0  0  0
 11 10  1  0  0  0  0
 12  7  1  0  0  0  0
 12 11  2  0  0  0  0
 13 12  1  0  0  0  0
 14 31  1  0  0  0  0
 14 13  2  0  0  0  0
 15 14  1  0  0  0  0
 16 15  1  0  0  0  0
 17 18  1  0  0  0  0
 17 16  2  0  0  0  0
 19 59  1  0  0  0  0
 19 18  1  0  0  0  0
 20 17  1  0  0  0  0
 21 20  2  0  0  0  0
 21 29  1  0  0  0  0
 22 23  1  0  0  0  0
 22 21  1  0  0  0  0
 23 63  1  0  0  0  0
 24 66  1  0  0  0  0
 24 65  1  0  0  0  0
 24 23  1  0  0  0  0
 25 26  1  0  0  0  0
 25 24  1  0  0  0  0
 26 67  1  0  0  0  0
 26 27  1  0  0  0  0
 27 22  1  0  0  0  0
 28 25  1  0  0  0  0
 28 72  1  0  0  0  0
 29 30  2  0  0  0  0
 30 16  1  0  0  0  0
 30 75  1  0  0  0  0
 31 32  2  0  0  0  0
 32 76  1  0  0  0  0
 32 11  1  0  0  0  0
 33 35  1  0  0  0  0
 33 34  1  0  0  0  0
 34 79  1  0  0  0  0
 35 34  1  0  0  0  0
 35 81  1  0  0  0  0
 37 82  1  0  0  0  0
 38 83  1  0  0  0  0
 38 37  2  0  0  0  0
 39 38  1  0  0  0  0
 40 41  2  0  0  0  0
 41 86  1  0  0  0  0
 43 42  1  0  0  0  0
 44 43  1  0  0  0  0
 44 45  1  1  0  0  0
 44 46  1  0  0  0  0
 46 47  1  0  0  0  0
 47 49  2  0  0  0  0
 47 48  1  0  0  0  0
 48 93  1  0  0  0  0
 48 91  1  0  0  0  0
 50 44  1  0  0  0  0
 51 94  1  0  0  0  0
 51 50  1  0  0  0  0
 52 51  1  0  0  0  0
 53 50  2  0  0  0  0
 54  3  1  0  0  0  0
 55  5  1  0  0  0  0
 57 10  1  0  0  0  0
 58 15  1  0  0  0  0
 60 19  1  0  0  0  0
 61 19  1  0  0  0  0
 62 20  1  0  0  0  0
 64 23  1  0  0  0  0
 68 26  1  0  0  0  0
 69 27  1  0  0  0  0
 70 27  1  0  0  0  0
 71 28  1  0  0  0  0
 73 28  1  0  0  0  0
 74 29  1  0  0  0  0
 77 33  1  0  0  0  0
 78 34  1  0  0  0  0
 80 35  1  0  0  0  0
 84 39  1  0  0  0  0
 85 40  1  0  0  0  0
 87 41  1  0  0  0  0
 88 43  1  0  0  0  0
 89 43  1  0  0  0  0
 90 46  1  0  0  0  0
 92 48  1  0  0  0  0
 95 52  1  0  0  0  0
 96 52  1  0  0  0  0
 97 52  1  0  0  0  0
M  END
