97
-1 1
O         0.663788    2.908776   -2.877206
C         1.360052    2.936315   -1.808552
N         0.623895    2.738070   -0.621553
C         0.887656    3.118279    0.694376
C         0.711886    2.159932    1.691563
C         0.718109    2.509810    3.041256
N         0.435624    1.456969    3.987935
C         1.187609    1.323604    5.165588
N         1.083908    0.090413    5.798166
C         0.833896   -1.107433    5.010709
C        -0.306687   -0.847051    4.084733
C        -0.483891    0.463543    3.616978
N        -1.449805    0.777373    2.781955
C        -2.143169   -0.231007    2.244488
N        -2.936522    0.125610    1.173343
C        -2.920259   -0.615720   -0.028556
C        -2.568669    0.075581   -1.205859
O        -2.389494    1.410662   -1.065837
C        -2.385227    2.241181   -2.211950
C        -2.386502   -0.604989   -2.407419
C        -2.587094   -1.995159   -2.480215
N        -2.406506   -2.712331   -3.678448
C        -1.484192   -3.846026   -3.618470
C        -1.653857   -4.729140   -4.854911
N        -1.514895   -4.010735   -6.109333
C        -2.416021   -2.873218   -6.115480
C        -2.255331   -1.949688   -4.905487
C        -0.142067   -3.678641   -6.452426
C        -3.000076   -2.663326   -1.320215
C        -3.156986   -1.982561   -0.114127
N        -2.104884   -1.500999    2.651422
C        -1.194639   -1.780842    3.581100
C         1.842195   -0.070295    6.999754
C         1.411088    0.665608    8.225713
C         1.198541   -0.819988    8.135833
O         1.855203    2.222657    5.624453
C         1.007344    3.820999    3.418653
C         1.301919    4.752854    2.417194
C         1.231187    4.427261    1.066197
C         2.745230    3.032066   -1.753838
C         3.591568    2.521491   -0.659664
S         3.580050    0.606424   -0.397064
C         2.956158    0.017669   -1.990334
C         1.461795   -0.363573   -2.029249
H         0.871022    0.438749   -1.573059
N         1.174698   -1.585517   -1.318492
C         0.485047   -1.655911   -0.157295
C         0.247116   -3.053010    0.376319
O         0.098061   -0.676295    0.460227
C         1.062146   -0.562419   -3.496006
N         0.778957    0.560135   -4.165900
C         0.530642    0.569368   -5.583737
O         1.080999   -1.692973   -3.989514
H        -0.184264    2.132610   -0.722026
H         0.538779    1.135251    1.367205
H         0.599461   -1.932867    5.699189
H         1.741276   -1.402529    4.444336
H        -2.811106    1.115350    0.980108
H        -2.552782    3.262457   -1.847530
H        -3.200270    1.957554   -2.899437
H        -1.404872    2.232748   -2.717245
H        -2.016963   -0.052752   -3.269631
H        -1.694486   -4.443250   -2.720941
H        -0.440942   -3.480048   -3.545376
H        -2.663060   -5.178415   -4.825483
H        -0.922444   -5.552993   -4.825808
H        -3.453078   -3.253972   -6.125308
H        -2.265779   -2.296009   -7.042196
H        -3.036134   -1.174560   -4.942872
H        -1.272328   -1.442847   -4.950453
H         0.449019   -4.606679   -6.515437
H         0.365874   -2.997123   -5.742918
H        -0.123802   -3.211379   -7.450553
H        -3.213849   -3.732743   -1.360704
H        -3.446555   -2.516135    0.789899
H        -1.147999   -2.822423    3.924316
H         2.923595   -0.203252    6.861460
H         0.536706    1.311153    8.125234
H         2.192862    1.054361    8.881099
H         0.174647   -1.171530    7.983012
H         1.827281   -1.484811    8.732779
H         1.035528    4.100934    4.468709
H         1.559489    5.774626    2.708275
H         1.422170    5.171244    0.290594
H         3.222760    3.222002   -2.719077
H         3.329587    2.862203    0.351278
H         4.647048    2.768080   -0.834861
H         3.553129   -0.853333   -2.302063
H         3.122163    0.828349   -2.714506
H         1.332405   -2.428681   -1.859032
H         0.938472   -3.223344    1.215627
H         0.398605   -3.838412   -0.377325
H        -0.778655   -3.097655    0.763634
H         0.786307    1.491346   -3.666588
H        -0.537710    0.725943   -5.812319
H         0.838218   -0.390669   -6.020340
H         1.097904    1.383677   -6.059395
