93
-1 1
O         4.026057  -10.134129    3.852087
C         5.078292  -10.702730    3.581417
N         5.911436  -10.043744    2.613347
C         6.558042  -10.551161    1.492491
C         6.690518  -11.921273    1.229017
C         7.452119  -12.378259    0.162849
N         7.691116  -13.796315    0.136782
C         6.905425  -14.619435   -0.682265
N         6.947878  -15.964900   -0.388336
C         7.369370  -16.465367    0.910920
C         8.505359  -15.653391    1.438618
C         8.600278  -14.307486    1.059449
N         9.504888  -13.489296    1.565050
C        10.337556  -14.000501    2.481466
N        11.207155  -13.092319    3.036140
C        11.722180  -13.168904    4.342577
C        11.629437  -12.001630    5.134514
O        11.179178  -10.902124    4.486679
C        10.668341   -9.827365    5.236816
C        11.943686  -12.040490    6.485070
C        12.320720  -13.248949    7.105613
N        12.440078  -13.287310    8.512001
C        12.961536  -14.520610    9.077682
C        13.216750  -14.352535   10.576306
N        12.050543  -13.918804   11.322831
C        11.524573  -12.706124   10.721469
C        11.240524  -12.840667    9.227295
C        11.055004  -14.955367   11.530945
C        12.508985  -14.372034    6.295941
C        12.224125  -14.322776    4.928257
N        10.371265  -15.272676    2.879776
C         9.442354  -16.075651    2.365635
C         6.112453  -16.847748   -1.166265
O         6.259915  -14.157362   -1.598937
C         8.030419  -11.503968   -0.749169
C         7.836905  -10.138098   -0.543622
C         7.133692   -9.664434    0.560956
C         5.518835  -11.948879    4.141127
C         6.840785  -12.386936    4.227446
S         7.881576  -12.236711    6.256898
C         8.878709  -13.742561    6.012458
C         8.264602  -15.051820    6.543872
H         8.843541  -15.896495    6.150109
N         6.896243  -15.220117    6.087242
C         6.562029  -15.977730    5.006424
C         5.158619  -15.735083    4.485036
O         7.318461  -16.772886    4.472923
C         8.371679  -15.143496    8.070884
N         7.629045  -14.227998    8.743886
C         7.668510  -14.122979   10.178439
O         9.084432  -15.967488    8.624856
H         5.580143   -9.091951    2.498569
H         6.233174  -12.645841    1.896640
H         7.672577  -17.518068    0.795640
H         6.526918  -16.462842    1.633079
H        10.989256  -12.144004    2.748548
H        10.226641   -9.128773    4.515519
H        11.467689   -9.306648    5.793554
H         9.882658  -10.178249    5.926945
H        11.836197  -11.141862    7.089951
H        13.910017  -14.770882    8.578254
H        12.262963  -15.368063    8.909218
H        14.012941  -13.598911   10.710930
H        13.585787  -15.302329   10.995467
H        12.264147  -11.898477   10.866122
H        10.603189  -12.407628   11.247282
H        10.903901  -11.873483    8.833252
H        10.410485  -13.556674    9.060000
H        11.528106  -15.816785   12.028548
H        10.550711  -15.325806   10.615832
H        10.272960  -14.574169   12.207653
H        12.807450  -15.327776    6.722735
H        12.295185  -15.225885    4.326929
H         9.427018  -17.106690    2.732356
H         5.848520  -16.353157   -2.107088
H         5.178338  -17.098221   -0.630226
H         6.650664  -17.785671   -1.378084
H         8.626566  -11.884843   -1.578116
H         8.270222   -9.419602   -1.243895
H         7.034931   -8.586934    0.720153
H         4.733053  -12.492856    4.673091
H         7.609464  -11.837027    3.677466
H         7.042755  -13.459718    4.257336
H         9.868730  -13.613364    6.464791
H         9.044028  -13.875157    4.931192
H         6.276633  -14.447964    6.319131
H         4.819670  -16.625415    3.941587
H         5.175496  -14.878104    3.791643
H         4.447708  -15.495876    5.288611
H         7.301356  -13.424539    8.196801
H         8.492165  -13.478747   10.533491
H         7.818496  -15.122025   10.609036
H         6.720348  -13.708112   10.549489
