-1 1
 OpenBabel05192410563D

 93 97  0  0  1  0  0  0  0  0999 V2000
   -4.6839    2.3982   -0.5825 O   0  0  0  0  0  0  0  0  0  0  0  0
   -3.4821    2.6153   -0.3831 C   0  0  0  0  0  0  0  0  0  0  0  0
   -2.7620    3.3528   -1.4536 N   0  0  0  0  0  0  0  0  0  0  0  0
   -2.2469    2.7014   -2.5560 C   0  0  0  0  0  0  0  0  0  0  0  0
   -1.8624    1.3515   -2.5038 C   0  0  0  0  0  0  0  0  0  0  0  0
   -1.3584    0.7118   -3.6265 C   0  0  0  0  0  0  0  0  0  0  0  0
   -1.0524   -0.6924   -3.5258 N   0  0  0  0  0  0  0  0  0  0  0  0
   -2.0738   -1.5946   -3.8844 C   0  0  0  0  0  0  0  0  0  0  0  0
   -1.8146   -2.9285   -3.7197 N   0  0  0  0  0  0  0  0  0  0  0  0
   -0.7064   -3.4785   -2.9629 C   0  0  0  0  0  0  0  0  0  0  0  0
    0.3689   -2.4682   -2.7314 C   0  0  0  0  0  0  0  0  0  0  0  0
    0.1470   -1.1008   -2.9779 C   0  0  0  0  0  0  0  0  0  0  0  0
    1.0468   -0.1795   -2.6721 N   0  0  0  0  0  0  0  0  0  0  0  0
    2.1784   -0.5930   -2.0923 C   0  0  0  0  0  0  0  0  0  0  0  0
    3.0222    0.4119   -1.6478 N   0  0  0  0  0  0  0  0  0  0  0  0
    3.4848    0.3956   -0.3105 C   0  0  0  0  0  0  0  0  0  0  0  0
    3.2628    1.5545    0.4669 C   0  0  0  0  0  0  0  0  0  0  0  0
    2.8157    2.6313   -0.2255 O   0  0  0  0  0  0  0  0  0  0  0  0
    2.4374    3.7905    0.4703 C   0  0  0  0  0  0  0  0  0  0  0  0
    3.4187    1.5178    1.8445 C   0  0  0  0  0  0  0  0  0  0  0  0
    3.7621    0.3195    2.5032 C   0  0  0  0  0  0  0  0  0  0  0  0
    3.6565    0.2535    3.9101 N   0  0  0  0  0  0  0  0  0  0  0  0
    4.0725   -1.0056    4.5059 C   0  0  0  0  0  0  0  0  0  0  0  0
    3.9904   -0.9472    6.0313 C   0  0  0  0  0  0  0  0  0  0  0  0
    2.6815   -0.5714    6.5322 N   0  0  0  0  0  0  0  0  0  0  0  0
    2.3014    0.6959    5.9303 C   0  0  0  0  0  0  0  0  0  0  0  0
    2.3391    0.6799    4.4059 C   0  0  0  0  0  0  0  0  0  0  0  0
    1.6708   -1.6044    6.3982 C   0  0  0  0  0  0  0  0  0  0  0  0
    4.1293   -0.7733    1.7147 C   0  0  0  0  0  0  0  0  0  0  0  0
    4.0031   -0.7245    0.3238 C   0  0  0  0  0  0  0  0  0  0  0  0
    2.5261   -1.8613   -1.8885 N   0  0  0  0  0  0  0  0  0  0  0  0
    1.6068   -2.7738   -2.2022 C   0  0  0  0  0  0  0  0  0  0  0  0
   -2.9323   -3.8355   -3.8609 C   0  0  0  0  0  0  0  0  0  0  0  0
   -3.1213   -1.1789   -4.3362 O   0  0  0  0  0  0  0  0  0  0  0  0
   -1.1734    1.3840   -4.8303 C   0  0  0  0  0  0  0  0  0  0  0  0
   -1.5303    2.7306   -4.8869 C   0  0  0  0  0  0  0  0  0  0  0  0
   -2.0615    3.3804   -3.7786 C   0  0  0  0  0  0  0  0  0  0  0  0
   -2.7168    2.2575    0.7286 C   0  0  0  0  0  3  0  0  0  0  0  0
   -1.3388    2.7537    1.0061 C   0  0  0  0  0  0  0  0  0  0  0  0
   -0.2243    1.6143    1.9359 S   0  0  0  0  0  0  0  0  0  0  0  0
    0.1630    0.2807    0.7571 C   0  0  0  0  0  0  0  0  0  0  0  0
   -0.7480   -0.9487    0.8309 C   0  0  2  0  0  0  0  0  0  0  0  0
   -0.3299   -1.7283    0.1717 H   0  0  0  0  0  0  0  0  0  0  0  0
   -2.0881   -0.6517    0.3852 N   0  0  0  0  0  0  0  0  0  0  0  0
   -2.8135   -1.5094   -0.3801 C   0  0  0  0  0  0  0  0  0  0  0  0
   -4.1130   -0.9600   -0.9224 C   0  0  0  0  0  0  0  0  0  0  0  0
   -2.4390   -2.6516   -0.6271 O   0  0  0  0  0  0  0  0  0  0  0  0
   -0.6668   -1.5244    2.2546 C   0  0  0  0  0  0  0  0  0  0  0  0
   -1.8358   -1.5872    2.9252 N   0  0  0  0  0  0  0  0  0  0  0  0
   -1.8963   -1.9664    4.3109 C   0  0  0  0  0  0  0  0  0  0  0  0
    0.4024   -1.8756    2.7331 O   0  0  0  0  0  0  0  0  0  0  0  0
   -3.3293    4.1497   -1.7249 H   0  0  0  0  0  0  0  0  0  0  0  0
   -1.9820    0.7942   -1.5793 H   0  0  0  0  0  0  0  0  0  0  0  0
   -0.3020   -4.3487   -3.5125 H   0  0  0  0  0  0  0  0  0  0  0  0
   -1.0878   -3.8350   -1.9895 H   0  0  0  0  0  0  0  0  0  0  0  0
    2.6434    1.3231   -1.8888 H   0  0  0  0  0  0  0  0  0  0  0  0
    2.0598    4.4946   -0.2813 H   0  0  0  0  0  0  0  0  0  0  0  0
    3.3001    4.2455    0.9892 H   0  0  0  0  0  0  0  0  0  0  0  0
    1.6384    3.5715    1.1978 H   0  0  0  0  0  0  0  0  0  0  0  0
    3.1833    2.4000    2.4356 H   0  0  0  0  0  0  0  0  0  0  0  0
    5.1132   -1.2151    4.2126 H   0  0  0  0  0  0  0  0  0  0  0  0
    3.4512   -1.8487    4.1354 H   0  0  0  0  0  0  0  0  0  0  0  0
    4.7229   -0.2057    6.3965 H   0  0  0  0  0  0  0  0  0  0  0  0
    4.2764   -1.9261    6.4492 H   0  0  0  0  0  0  0  0  0  0  0  0
    2.9955    1.4723    6.2985 H   0  0  0  0  0  0  0  0  0  0  0  0
    1.2887    0.9723    6.2642 H   0  0  0  0  0  0  0  0  0  0  0  0
    2.1073    1.6865    4.0380 H   0  0  0  0  0  0  0  0  0  0  0  0
    1.5513    0.0114    4.0047 H   0  0  0  0  0  0  0  0  0  0  0  0
    2.0203   -2.5232    6.8956 H   0  0  0  0  0  0  0  0  0  0  0  0
    1.3934   -1.8631    5.3561 H   0  0  0  0  0  0  0  0  0  0  0  0
    0.7514   -1.2796    6.9116 H   0  0  0  0  0  0  0  0  0  0  0  0
    4.4384   -1.7148    2.1641 H   0  0  0  0  0  0  0  0  0  0  0  0
    4.2024   -1.6128   -0.2706 H   0  0  0  0  0  0  0  0  0  0  0  0
    1.8725   -3.8200   -2.0062 H   0  0  0  0  0  0  0  0  0  0  0  0
   -3.6861   -3.3842   -4.5136 H   0  0  0  0  0  0  0  0  0  0  0  0
   -3.3803   -4.0362   -2.8717 H   0  0  0  0  0  0  0  0  0  0  0  0
   -2.5840   -4.7847   -4.2985 H   0  0  0  0  0  0  0  0  0  0  0  0
   -0.7763    0.8570   -5.6984 H   0  0  0  0  0  0  0  0  0  0  0  0
   -1.4031    3.2851   -5.8203 H   0  0  0  0  0  0  0  0  0  0  0  0
   -2.3490    4.4332   -3.8496 H   0  0  0  0  0  0  0  0  0  0  0  0
   -3.2969    1.8939    1.5849 H   0  0  0  0  0  0  0  0  0  0  0  0
   -1.3065    3.6361    1.6771 H   0  0  0  0  0  0  0  0  0  0  0  0
   -0.8242    3.0473    0.0785 H   0  0  0  0  0  0  0  0  0  0  0  0
    1.1813   -0.0468    1.0058 H   0  0  0  0  0  0  0  0  0  0  0  0
    0.1718    0.6917   -0.2640 H   0  0  0  0  0  0  0  0  0  0  0  0
   -2.4054    0.3404    0.4591 H   0  0  0  0  0  0  0  0  0  0  0  0
   -4.0241   -0.8800   -2.0173 H   0  0  0  0  0  0  0  0  0  0  0  0
   -4.3869    0.0325   -0.5340 H   0  0  0  0  0  0  0  0  0  0  0  0
   -4.9108   -1.6869   -0.7133 H   0  0  0  0  0  0  0  0  0  0  0  0
   -2.6382   -1.1679    2.4715 H   0  0  0  0  0  0  0  0  0  0  0  0
   -1.6420   -1.1270    4.9814 H   0  0  0  0  0  0  0  0  0  0  0  0
   -1.1757   -2.7745    4.4972 H   0  0  0  0  0  0  0  0  0  0  0  0
   -2.9060   -2.3226    4.5574 H   0  0  0  0  0  0  0  0  0  0  0  0
  1  2  2  0  0  0  0
  2 38  1  0  0  0  0
  3  2  1  0  0  0  0
  4  5  1  0  0  0  0
  4  3  1  0  0  0  0
  5 53  1  0  0  0  0
  6  7  1  0  0  0  0
  6  5  2  0  0  0  0
  7 12  1  0  0  0  0
  8  9  1  0  0  0  0
  8  7  1  0  0  0  0
  9 10  1  0  0  0  0
 10 11  1  0  0  0  0
 10 55  1  0  0  0  0
 11 32  1  0  0  0  0
 12 11  2  0  0  0  0
 12 13  1  0  0  0  0
 13 14  2  0  0  0  0
 14 31  1  0  0  0  0
 14 15  1  0  0  0  0
 15 16  1  0  0  0  0
 16 30  2  0  0  0  0
 16 17  1  0  0  0  0
 17 20  2  0  0  0  0
 18 17  1  0  0  0  0
 18 19  1  0  0  0  0
 19 58  1  0  0  0  0
 19 59  1  0  0  0  0
 20 60  1  0  0  0  0
 20 21  1  0  0  0  0
 21 22  1  0  0  0  0
 22 27  1  0  0  0  0
 22 23  1  0  0  0  0
 23 24  1  0  0  0  0
 24 63  1  0  0  0  0
 24 64  1  0  0  0  0
 24 25  1  0  0  0  0
 26 66  1  0  0  0  0
 26 65  1  0  0  0  0
 26 25  1  0  0  0  0
 27 26  1  0  0  0  0
 28 25  1  0  0  0  0
 28 69  1  0  0  0  0
 28 71  1  0  0  0  0
 29 72  1  0  0  0  0
 29 21  2  0  0  0  0
 30 29  1  0  0  0  0
 32 74  1  0  0  0  0
 32 31  2  0  0  0  0
 33  9  1  0  0  0  0
 33 76  1  0  0  0  0
 34  8  2  0  0  0  0
 35  6  1  0  0  0  0
 36 35  2  0  0  0  0
 36 37  1  0  0  0  0
 37  4  2  0  0  0  0
 38 39  1  0  0  0  0
 38 81  1  0  0  0  0
 39 82  1  0  0  0  0
 39 40  1  0  0  0  0
 41 42  1  0  0  0  0
 41 84  1  0  0  0  0
 41 40  1  0  0  0  0
 42 43  1  6  0  0  0
 42 48  1  0  0  0  0
 44 86  1  0  0  0  0
 44 42  1  0  0  0  0
 45 44  1  0  0  0  0
 46 89  1  0  0  0  0
 46 88  1  0  0  0  0
 46 45  1  0  0  0  0
 47 45  2  0  0  0  0
 48 51  2  0  0  0  0
 48 49  1  0  0  0  0
 49 50  1  0  0  0  0
 50 92  1  0  0  0  0
 50 93  1  0  0  0  0
 50 91  1  0  0  0  0
 52  3  1  0  0  0  0
 54 10  1  0  0  0  0
 56 15  1  0  0  0  0
 57 19  1  0  0  0  0
 61 23  1  0  0  0  0
 62 23  1  0  0  0  0
 67 27  1  0  0  0  0
 68 27  1  0  0  0  0
 70 28  1  0  0  0  0
 73 30  1  0  0  0  0
 75 33  1  0  0  0  0
 77 33  1  0  0  0  0
 78 35  1  0  0  0  0
 79 36  1  0  0  0  0
 80 37  1  0  0  0  0
 83 39  1  0  0  0  0
 85 41  1  0  0  0  0
 87 46  1  0  0  0  0
 90 49  1  0  0  0  0
M  END
