93
-1 1
O        -4.683927    2.398241   -0.582547
C        -3.482057    2.615296   -0.383119
N        -2.762024    3.352818   -1.453574
C        -2.246890    2.701378   -2.556032
C        -1.862416    1.351523   -2.503830
C        -1.358366    0.711766   -3.626524
N        -1.052403   -0.692388   -3.525757
C        -2.073800   -1.594551   -3.884432
N        -1.814621   -2.928540   -3.719732
C        -0.706381   -3.478465   -2.962904
C         0.368942   -2.468220   -2.731361
C         0.147043   -1.100757   -2.977943
N         1.046815   -0.179497   -2.672115
C         2.178447   -0.593026   -2.092253
N         3.022176    0.411937   -1.647785
C         3.484779    0.395585   -0.310475
C         3.262775    1.554468    0.466934
O         2.815711    2.631252   -0.225467
C         2.437410    3.790453    0.470296
C         3.418656    1.517828    1.844510
C         3.762098    0.319470    2.503176
N         3.656501    0.253535    3.910107
C         4.072507   -1.005643    4.505945
C         3.990443   -0.947165    6.031273
N         2.681517   -0.571360    6.532166
C         2.301414    0.695891    5.930292
C         2.339105    0.679925    4.405941
C         1.670801   -1.604378    6.398175
C         4.129345   -0.773349    1.714671
C         4.003142   -0.724462    0.323831
N         2.526150   -1.861253   -1.888550
C         1.606821   -2.773831   -2.202150
C        -2.932302   -3.835505   -3.860903
O        -3.121253   -1.178926   -4.336162
C        -1.173400    1.384035   -4.830308
C        -1.530257    2.730553   -4.886868
C        -2.061500    3.380384   -3.778600
C        -2.716799    2.257492    0.728622
C        -1.338787    2.753748    1.006054
S        -0.224330    1.614288    1.935902
C         0.162974    0.280677    0.757125
C        -0.747983   -0.948700    0.830934
H        -0.329863   -1.728277    0.171727
N        -2.088091   -0.651698    0.385240
C        -2.813464   -1.509425   -0.380125
C        -4.113041   -0.960016   -0.922429
O        -2.439047   -2.651647   -0.627108
C        -0.666757   -1.524351    2.254566
N        -1.835819   -1.587187    2.925177
C        -1.896277   -1.966402    4.310934
O         0.402357   -1.875550    2.733066
H        -3.329333    4.149719   -1.724949
H        -1.981952    0.794229   -1.579281
H        -0.301981   -4.348650   -3.512531
H        -1.087779   -3.834958   -1.989494
H         2.643379    1.323138   -1.888829
H         2.059814    4.494617   -0.281287
H         3.300094    4.245527    0.989159
H         1.638370    3.571497    1.197814
H         3.183284    2.400021    2.435560
H         5.113167   -1.215102    4.212595
H         3.451174   -1.848660    4.135393
H         4.722876   -0.205654    6.396475
H         4.276448   -1.926104    6.449205
H         2.995528    1.472251    6.298536
H         1.288697    0.972269    6.264173
H         2.107311    1.686542    4.037990
H         1.551308    0.011411    4.004732
H         2.020264   -2.523209    6.895558
H         1.393370   -1.863082    5.356121
H         0.751368   -1.279587    6.911550
H         4.438352   -1.714780    2.164055
H         4.202386   -1.612827   -0.270555
H         1.872520   -3.819951   -2.006218
H        -3.686143   -3.384172   -4.513595
H        -3.380326   -4.036248   -2.871734
H        -2.583983   -4.784731   -4.298499
H        -0.776343    0.856972   -5.698354
H        -1.403052    3.285075   -5.820309
H        -2.349035    4.433228   -3.849617
H        -3.296871    1.893899    1.584857
H        -1.306453    3.636138    1.677141
H        -0.824216    3.047324    0.078526
H         1.181304   -0.046813    1.005832
H         0.171790    0.691733   -0.263975
H        -2.405399    0.340434    0.459121
H        -4.024055   -0.880044   -2.017338
H        -4.386937    0.032530   -0.533961
H        -4.910832   -1.686913   -0.713261
H        -2.638211   -1.167941    2.471522
H        -1.641983   -1.127048    4.981440
H        -1.175670   -2.774492    4.497162
H        -2.905991   -2.322568    4.557395
