-1 1
 OpenBabel05232413483D

 93 96  0  0  1  0  0  0  0  0999 V2000
   -5.0964    3.8788   -1.5483 O   0  0  0  0  0  0  0  0  0  0  0  0
   -4.0018    3.3867   -1.7641 C   0  0  0  0  0  0  0  0  0  0  0  0
   -3.5079    3.3854   -3.0497 N   0  0  0  0  0  0  0  0  0  0  0  0
   -2.4520    2.6642   -3.6559 C   0  0  0  0  0  0  0  0  0  0  0  0
   -2.2754    1.2974   -3.4354 C   0  0  0  0  0  0  0  0  0  0  0  0
   -1.2360    0.6251   -4.0706 C   0  0  0  0  0  0  0  0  0  0  0  0
   -1.0356   -0.7612   -3.7835 N   0  0  0  0  0  0  0  0  0  0  0  0
   -2.0124   -1.6669   -4.2450 C   0  0  0  0  0  0  0  0  0  0  0  0
   -1.8915   -2.9636   -3.8266 N   0  0  0  0  0  0  0  0  0  0  0  0
   -1.0962   -3.3767   -2.6818 C   0  0  0  0  0  0  0  0  0  0  0  0
    0.0464   -2.4472   -2.4492 C   0  0  0  0  0  0  0  0  0  0  0  0
   -0.0141   -1.1283   -2.9233 C   0  0  0  0  0  0  0  0  0  0  0  0
    0.8581   -0.2037   -2.5558 N   0  0  0  0  0  0  0  0  0  0  0  0
    1.8144   -0.5784   -1.6975 C   0  0  0  0  0  0  0  0  0  0  0  0
    2.6191    0.4467   -1.2385 N   0  0  0  0  0  0  0  0  0  0  0  0
    3.0908    0.4757    0.0918 C   0  0  0  0  0  0  0  0  0  0  0  0
    2.6796    1.5579    0.9024 C   0  0  0  0  0  0  0  0  0  0  0  0
    1.9887    2.5313    0.2643 O   0  0  0  0  0  0  0  0  0  0  0  0
    1.3248    3.5062    1.0355 C   0  0  0  0  0  0  0  0  0  0  0  0
    2.9452    1.5519    2.2624 C   0  0  0  0  0  0  0  0  0  0  0  0
    3.6097    0.4664    2.8585 C   0  0  0  0  0  0  0  0  0  0  0  0
    3.7110    0.4514    4.2684 N   0  0  0  0  0  0  0  0  0  0  0  0
    4.7149   -0.4075    4.8584 C   0  0  0  0  0  0  0  0  0  0  0  0
    4.8660   -0.0651    6.3440 C   0  0  0  0  0  0  0  0  0  0  0  0
    3.6227   -0.1403    7.0912 N   0  0  0  0  0  0  0  0  0  0  0  0
    2.5965    0.6603    6.4345 C   0  0  0  0  0  0  0  0  0  0  0  0
    2.4251    0.3264    4.9565 C   0  0  0  0  0  0  0  0  0  0  0  0
    3.2056   -1.4835    7.4239 C   0  0  0  0  0  0  0  0  0  0  0  0
    4.0943   -0.5563    2.0429 C   0  0  0  0  0  0  0  0  0  0  0  0
    3.8388   -0.5411    0.6676 C   0  0  0  0  0  0  0  0  0  0  0  0
    2.0267   -1.8172   -1.2624 N   0  0  0  0  0  0  0  0  0  0  0  0
    1.1256   -2.7281   -1.6318 C   0  0  0  0  0  0  0  0  0  0  0  0
   -2.9798   -3.8552   -4.1516 C   0  0  0  0  0  0  0  0  0  0  0  0
   -2.8663   -1.2895   -5.0211 O   0  0  0  0  0  0  0  0  0  0  0  0
   -0.3883    1.2912   -4.9520 C   0  0  0  0  0  0  0  0  0  0  0  0
   -0.5770    2.6498   -5.1852 C   0  0  0  0  0  0  0  0  0  0  0  0
   -1.5960    3.3391   -4.5322 C   0  0  0  0  0  0  0  0  0  0  0  0
   -3.1964    2.8611   -0.6239 C   0  0  0  0  0  0  0  0  0  0  0  0
   -1.8744    2.7061   -0.5246 C   0  0  0  0  0  0  0  0  0  0  0  0
   -0.8463    0.8758    2.6976 S   0  0  0  0  0  1  0  0  0  0  0  0
   -0.1716    0.0436    1.2053 C   0  0  0  0  0  0  0  0  0  0  0  0
   -1.0840   -1.0461    0.6105 C   0  0  2  0  0  0  0  0  0  0  0  0
   -0.8079   -1.2419   -0.4305 H   0  0  0  0  0  0  0  0  0  0  0  0
   -2.4627   -0.6066    0.6117 N   0  0  0  0  0  0  0  0  0  0  0  0
   -3.3057   -0.7423   -0.4256 C   0  0  0  0  0  0  0  0  0  0  0  0
   -4.6934   -0.1678   -0.2204 C   0  0  0  0  0  0  0  0  0  0  0  0
   -3.0111   -1.2933   -1.4830 O   0  0  0  0  0  0  0  0  0  0  0  0
   -0.9550   -2.4061    1.3146 C   0  0  0  0  0  0  0  0  0  0  0  0
   -0.9096   -2.3392    2.6630 N   0  0  0  0  0  0  0  0  0  0  0  0
   -0.7689   -3.5006    3.4962 C   0  0  0  0  0  0  0  0  0  0  0  0
   -0.9121   -3.4554    0.6818 O   0  0  0  0  0  0  0  0  0  0  0  0
   -4.1220    3.8928   -3.6783 H   0  0  0  0  0  0  0  0  0  0  0  0
   -2.9317    0.7345   -2.7713 H   0  0  0  0  0  0  0  0  0  0  0  0
   -0.7290   -4.4010   -2.8658 H   0  0  0  0  0  0  0  0  0  0  0  0
   -1.7172   -3.4029   -1.7669 H   0  0  0  0  0  0  0  0  0  0  0  0
    2.2538    1.3441   -1.5395 H   0  0  0  0  0  0  0  0  0  0  0  0
    0.7456    4.1165    0.3313 H   0  0  0  0  0  0  0  0  0  0  0  0
    2.0450    4.1580    1.5615 H   0  0  0  0  0  0  0  0  0  0  0  0
    0.6411    3.0322    1.7628 H   0  0  0  0  0  0  0  0  0  0  0  0
    2.5859    2.3563    2.9016 H   0  0  0  0  0  0  0  0  0  0  0  0
    5.6756   -0.2505    4.3435 H   0  0  0  0  0  0  0  0  0  0  0  0
    4.4597   -1.4864    4.7490 H   0  0  0  0  0  0  0  0  0  0  0  0
    5.2500    0.9676    6.4162 H   0  0  0  0  0  0  0  0  0  0  0  0
    5.6109   -0.7303    6.8105 H   0  0  0  0  0  0  0  0  0  0  0  0
    2.8823    1.7233    6.5204 H   0  0  0  0  0  0  0  0  0  0  0  0
    1.6398    0.5304    6.9637 H   0  0  0  0  0  0  0  0  0  0  0  0
    1.6738    0.9798    4.4905 H   0  0  0  0  0  0  0  0  0  0  0  0
    2.0279   -0.7057    4.8379 H   0  0  0  0  0  0  0  0  0  0  0  0
    4.0049   -1.9895    7.9891 H   0  0  0  0  0  0  0  0  0  0  0  0
    2.9510   -2.1301    6.5574 H   0  0  0  0  0  0  0  0  0  0  0  0
    2.3156   -1.4426    8.0716 H   0  0  0  0  0  0  0  0  0  0  0  0
    4.6242   -1.4078    2.4706 H   0  0  0  0  0  0  0  0  0  0  0  0
    4.1507   -1.3761    0.0435 H   0  0  0  0  0  0  0  0  0  0  0  0
    1.2482   -3.7348   -1.2198 H   0  0  0  0  0  0  0  0  0  0  0  0
   -3.4893   -3.4928   -5.0505 H   0  0  0  0  0  0  0  0  0  0  0  0
   -3.7093   -3.8985   -3.3230 H   0  0  0  0  0  0  0  0  0  0  0  0
   -2.5879   -4.8693   -4.3291 H   0  0  0  0  0  0  0  0  0  0  0  0
    0.4189    0.7410   -5.4364 H   0  0  0  0  0  0  0  0  0  0  0  0
    0.0861    3.1829   -5.8700 H   0  0  0  0  0  0  0  0  0  0  0  0
   -1.7344    4.4110   -4.6911 H   0  0  0  0  0  0  0  0  0  0  0  0
   -3.8207    2.6952    0.2584 H   0  0  0  0  0  0  0  0  0  0  0  0
   -1.1887    2.8746   -1.3590 H   0  0  0  0  0  0  0  0  0  0  0  0
   -1.4512    2.3869    0.4359 H   0  0  0  0  0  0  0  0  0  0  0  0
    0.8043   -0.4159    1.4265 H   0  0  0  0  0  0  0  0  0  0  0  0
    0.0104    0.7847    0.4108 H   0  0  0  0  0  0  0  0  0  0  0  0
   -2.6889   -0.0171    1.4189 H   0  0  0  0  0  0  0  0  0  0  0  0
   -5.4252   -0.9728   -0.3777 H   0  0  0  0  0  0  0  0  0  0  0  0
   -4.8832    0.6003   -0.9835 H   0  0  0  0  0  0  0  0  0  0  0  0
   -4.8415    0.2723    0.7748 H   0  0  0  0  0  0  0  0  0  0  0  0
   -0.9272   -1.3969    3.0808 H   0  0  0  0  0  0  0  0  0  0  0  0
    0.1732   -3.4748    4.0694 H   0  0  0  0  0  0  0  0  0  0  0  0
   -0.7631   -4.3874    2.8488 H   0  0  0  0  0  0  0  0  0  0  0  0
   -1.6035   -3.5873    4.2118 H   0  0  0  0  0  0  0  0  0  0  0  0
  2  1  2  0  0  0  0
  2 38  1  0  0  0  0
  3  2  1  0  0  0  0
  4  5  1  0  0  0  0
  4  3  1  0  0  0  0
  5 53  1  0  0  0  0
  6  7  1  0  0  0  0
  6  5  2  0  0  0  0
  7 12  1  0  0  0  0
  8  9  1  0  0  0  0
  8  7  1  0  0  0  0
  9 10  1  0  0  0  0
 10 11  1  0  0  0  0
 10 55  1  0  0  0  0
 11 32  1  0  0  0  0
 12 13  1  0  0  0  0
 12 11  2  0  0  0  0
 13 14  2  0  0  0  0
 14 31  1  0  0  0  0
 14 15  1  0  0  0  0
 15 16  1  0  0  0  0
 16 30  2  0  0  0  0
 16 17  1  0  0  0  0
 17 20  2  0  0  0  0
 18 17  1  0  0  0  0
 18 19  1  0  0  0  0
 19 58  1  0  0  0  0
 19 59  1  0  0  0  0
 20 21  1  0  0  0  0
 20 60  1  0  0  0  0
 21 22  1  0  0  0  0
 22 23  1  0  0  0  0
 22 27  1  0  0  0  0
 23 24  1  0  0  0  0
 24 63  1  0  0  0  0
 24 64  1  0  0  0  0
 24 25  1  0  0  0  0
 25 28  1  0  0  0  0
 26 65  1  0  0  0  0
 26 66  1  0  0  0  0
 26 25  1  0  0  0  0
 27 26  1  0  0  0  0
 28 69  1  0  0  0  0
 28 71  1  0  0  0  0
 29 72  1  0  0  0  0
 29 21  2  0  0  0  0
 30 29  1  0  0  0  0
 32 31  2  0  0  0  0
 32 74  1  0  0  0  0
 33  9  1  0  0  0  0
 33 76  1  0  0  0  0
 34  8  2  0  0  0  0
 35  6  1  0  0  0  0
 36 35  2  0  0  0  0
 36 37  1  0  0  0  0
 37  4  2  0  0  0  0
 38 39  2  0  0  0  0
 38 81  1  0  0  0  0
 39 83  1  0  0  0  0
 41 84  1  0  0  0  0
 41 40  1  0  0  0  0
 42 43  1  6  0  0  0
 42 44  1  0  0  0  0
 42 41  1  0  0  0  0
 42 48  1  0  0  0  0
 44 86  1  0  0  0  0
 45 46  1  0  0  0  0
 45 44  1  0  0  0  0
 46 89  1  0  0  0  0
 47 45  2  0  0  0  0
 48 49  1  0  0  0  0
 49 90  1  0  0  0  0
 49 50  1  0  0  0  0
 50 91  1  0  0  0  0
 50 93  1  0  0  0  0
 51 48  2  0  0  0  0
 52  3  1  0  0  0  0
 54 10  1  0  0  0  0
 56 15  1  0  0  0  0
 57 19  1  0  0  0  0
 61 23  1  0  0  0  0
 62 23  1  0  0  0  0
 67 27  1  0  0  0  0
 68 27  1  0  0  0  0
 70 28  1  0  0  0  0
 73 30  1  0  0  0  0
 75 33  1  0  0  0  0
 77 33  1  0  0  0  0
 78 35  1  0  0  0  0
 79 36  1  0  0  0  0
 80 37  1  0  0  0  0
 82 39  1  0  0  0  0
 85 41  1  0  0  0  0
 87 46  1  0  0  0  0
 88 46  1  0  0  0  0
 92 50  1  0  0  0  0
M  END
