84
-1 1
O         3.769024   -2.892870   -1.333017
C         3.052373   -2.138577   -1.966103
N         3.318310   -0.796226   -2.043763
C         2.589002    0.164267   -2.771930
C         1.974219    1.221005   -2.096763
C         1.144485    2.088926   -2.797076
N         0.423898    3.068574   -2.040764
C         0.704823    4.427108   -2.270228
N         0.119086    5.316310   -1.400971
C        -0.389868    4.891123   -0.109465
C        -1.077560    3.576115   -0.238627
C        -0.569309    2.644789   -1.160390
N        -1.008802    1.405676   -1.231777
C        -1.970530    1.051302   -0.358157
N        -2.309671   -0.268289   -0.378665
C        -3.007853   -1.018813    0.582423
C        -2.777227   -2.411929    0.580876
O        -1.965763   -2.871584   -0.402945
C        -1.355896   -4.134444   -0.245689
C        -3.343837   -3.232739    1.545459
C        -4.183243   -2.709073    2.548551
N        -4.711178   -3.544705    3.533447
C        -5.401185   -2.938987    4.641898
C        -4.070125   -4.820234    3.758880
C        -4.449116   -1.332809    2.515698
C        -3.873444   -0.510001    1.545964
N        -2.599146    1.883673    0.475732
C        -2.128944    3.127618    0.529411
C         0.458147    6.712496   -1.533529
O         1.403266    4.774466   -3.199817
C         0.966716    1.967079   -4.172802
C         1.641151    0.955454   -4.851460
C         2.447635    0.056590   -4.159147
C         1.812213   -2.695353   -2.607876
C         0.602134   -2.132654   -2.592613
S         0.610193   -2.813727    2.700218
C         0.855479   -2.028787    1.057981
C         1.640264   -0.708904    1.078323
H         1.924442   -0.446996    0.053491
N         2.858443   -0.898839    1.838737
C         4.088988   -0.564226    1.424052
C         5.224596   -1.090608    2.277157
O         4.328102    0.096291    0.413723
C         0.865990    0.517927    1.595364
N        -0.036598    0.261601    2.558768
C        -0.800367    1.283813    3.219420
O         1.096101    1.639459    1.146033
H         3.882474   -0.448976   -1.252404
H         2.076787    1.335039   -1.013523
H        -1.087461    5.659590    0.260423
H         0.437036    4.813486    0.626695
H        -1.736870   -0.830014   -0.998332
H        -0.584204   -4.203976   -1.021827
H        -2.087891   -4.949288   -0.388901
H        -0.875430   -4.215554    0.745241
H        -3.095141   -4.289626    1.535626
H        -6.267101   -2.351509    4.295908
H        -4.759156   -2.264239    5.244956
H        -5.788191   -3.724929    5.304731
H        -2.982396   -4.726511    3.941136
H        -4.209461   -5.500567    2.902080
H        -4.527945   -5.306587    4.630540
H        -5.088889   -0.866593    3.263552
H        -4.064247    0.559834    1.555696
H        -2.614072    3.801833    1.246731
H         0.844532    6.891329   -2.542528
H         1.233750    7.012023   -0.804658
H        -0.435597    7.334273   -1.363758
H         0.314776    2.664687   -4.698419
H         1.527609    0.858703   -5.933602
H         2.956910   -0.754318   -4.683077
H         1.941108   -3.724543   -2.956659
H        -0.272052   -2.678432   -2.957315
H         0.423948   -1.122017   -2.212431
H        -0.107819   -1.827517    0.568945
H         1.411754   -2.718220    0.403958
H         2.719146   -1.549246    2.619305
H         5.676400   -1.938197    1.740268
H         4.900025   -1.430780    3.269809
H         5.986607   -0.306553    2.376774
H        -0.102549   -0.720972    2.881172
H        -0.480023    2.261705    2.835525
H        -0.633249    1.253631    4.308866
H        -1.877583    1.165208    3.023240
