85
-1 1
O         1.694877    4.427354   -0.539451
C         1.673078    3.256487   -0.134580
N         0.494286    2.914145    0.677410
C        -0.510075    2.068590    0.309879
C        -1.762411    2.156165    1.005538
O        -1.803126    3.123056    1.958487
C        -2.991726    3.324253    2.660890
C        -2.818673    1.328692    0.688791
C        -2.705181    0.355873   -0.329746
N        -3.793873   -0.448716   -0.620106
C        -3.698879   -1.325395   -1.564346
N        -4.739614   -2.160558   -1.927255
C        -6.028228   -2.297452   -1.416446
C        -6.861984   -3.278750   -2.008586
C        -6.355694   -4.131725   -3.143067
C        -8.157687   -3.441621   -1.520342
C        -8.649458   -2.667842   -0.469833
C        -7.820405   -1.708479    0.103263
C        -6.520741   -1.517356   -0.359012
C        -2.473062   -1.514498   -2.312683
C        -2.011184   -2.380381   -3.291166
N        -0.705918   -2.126928   -3.558932
C        -0.354703   -1.128870   -2.773052
N        -1.393329   -0.714356   -1.996591
C        -1.477486    0.272141   -1.002293
C        -0.401214    1.109102   -0.698323
C         2.639504    2.258600   -0.307025
C         3.845247    2.576803   -1.136983
N         5.061371    2.792787   -0.341171
C         4.961452    3.921914    0.558989
C         6.204774    3.997525    1.428164
O         7.381237    4.075039    0.653355
C         7.479419    2.991934   -0.235075
C         6.258372    2.890467   -1.138990
C         2.721973    1.047332    0.542118
S         2.660736   -0.547786   -0.450224
C         3.274874   -1.735355    0.775841
C         2.361983   -1.980006    1.996255
H         2.052300   -0.996947    2.389601
N         3.062011   -2.703012    3.030359
C         3.981746   -2.129353    3.841330
C         4.533254   -3.029997    4.933520
O         4.358970   -0.977989    3.714760
C         1.104778   -2.809100    1.679895
N         0.243965   -2.253952    0.809590
C        -0.960764   -2.920654    0.379025
O         0.927484   -3.896549    2.218066
H         0.156787    3.736789    1.165637
H        -2.811407    4.148275    3.362926
H        -3.287160    2.426053    3.232695
H        -3.824042    3.601154    1.988719
H        -3.775400    1.394683    1.205395
H        -4.515841   -2.778070   -2.692231
H        -5.473378   -4.725922   -2.847935
H        -6.067803   -3.523728   -4.018414
H        -7.126617   -4.838476   -3.477797
H        -8.797625   -4.200387   -1.979893
H        -9.668286   -2.816376   -0.106154
H        -8.183739   -1.090643    0.928093
H        -5.864080   -0.770524    0.080361
H        -2.555424   -3.173535   -3.804338
H         0.636359   -0.684240   -2.704638
H         0.534292    1.057685   -1.252971
H         3.622197    3.467348   -1.760116
H         4.083945    1.739799   -1.820726
H         4.065751    3.800026    1.185794
H         4.837523    4.878754    0.002173
H         6.243025    3.104579    2.084927
H         6.183770    4.896103    2.062722
H         7.582693    2.041862    0.329258
H         8.393626    3.145082   -0.829312
H         6.348619    1.995159   -1.776935
H         6.237624    3.778998   -1.816549
H         1.908702    1.012569    1.279154
H         3.686742    0.977901    1.074137
H         4.232616   -1.355820    1.160173
H         3.465204   -2.684394    0.251964
H         2.667316   -3.620725    3.221155
H         5.624233   -3.092424    4.815718
H         4.108820   -4.043299    4.926747
H         4.335832   -2.558702    5.906666
H         0.545581   -1.405332    0.327192
H        -1.834202   -2.263565    0.507477
H        -1.093430   -3.819121    0.993796
H        -0.897615   -3.219931   -0.679722
