85
-1 1
O         2.307604    5.466652   -0.570349
C         1.667219    4.468334   -0.295292
N         0.294303    4.463392   -0.412255
C        -0.559593    3.338327   -0.464859
C        -1.505996    3.123052    0.566119
O        -1.515681    4.045650    1.554717
C        -2.333400    3.823690    2.668112
C        -2.323632    2.003812    0.532353
C        -2.243228    1.078349   -0.526657
N        -3.074725   -0.026246   -0.500225
C        -3.019511   -0.872373   -1.478220
N        -3.768101   -2.023471   -1.511536
C        -4.612038   -2.599896   -0.559560
C        -5.098005   -3.901308   -0.832621
C        -4.694473   -4.624642   -2.091794
C        -5.952039   -4.503222    0.090755
C        -6.332319   -3.858386    1.266663
C        -5.843687   -2.581301    1.523406
C        -4.990435   -1.949046    0.622726
C        -2.162348   -0.670943   -2.627778
C        -1.918178   -1.313540   -3.829404
N        -0.950949   -0.659290   -4.518161
C        -0.594008    0.360679   -3.766505
N        -1.312712    0.414229   -2.616214
C        -1.314330    1.319972   -1.551969
C        -0.471767    2.430906   -1.506025
C         2.303286    3.218513    0.234872
C         3.533353    2.737824   -0.494765
N         4.374406    1.874520    0.298143
C         5.121217    2.551897    1.334315
C         5.819555    1.525658    2.212740
O         6.665681    0.693915    1.452543
C         5.941874    0.026173    0.445622
C         5.224143    0.997714   -0.479818
C         1.811174    2.639610    1.333765
S         1.886786   -0.434564   -1.634943
C         2.373790   -1.024838    0.028432
C         1.222754   -1.362904    1.003170
H         0.581539   -0.466418    1.089051
N         1.714107   -1.768377    2.309043
C         2.409679   -1.041130    3.198035
C         2.838512   -1.801564    4.444576
O         2.726079    0.132588    3.057095
C         0.344850   -2.553462    0.560123
N        -0.155689   -2.497602   -0.683588
C        -0.817389   -3.654338   -1.227004
O         0.141909   -3.503075    1.316083
H        -0.107470    5.378076   -0.587106
H        -2.152796    4.654190    3.362003
H        -2.084230    2.874003    3.172719
H        -3.404014    3.810556    2.396273
H        -3.046055    1.789106    1.318090
H        -3.550961   -2.619152   -2.296025
H        -3.601671   -4.766761   -2.148013
H        -5.007422   -4.078952   -2.998927
H        -5.154331   -5.620719   -2.136270
H        -6.323926   -5.509886   -0.119914
H        -6.998980   -4.354428    1.975090
H        -6.123220   -2.060335    2.442218
H        -4.592816   -0.955937    0.815561
H        -2.398354   -2.207705   -4.228114
H         0.192271    1.074694   -3.997794
H         0.278015    2.591545   -2.279325
H         4.082073    3.624984   -0.882167
H         3.181458    2.148746   -1.360931
H         4.434800    3.153761    1.948813
H         5.880400    3.245938    0.899854
H         5.046536    0.927398    2.732417
H         6.451763    2.025778    2.962370
H         5.194418   -0.652693    0.899936
H         6.662781   -0.580748   -0.122162
H         4.599093    0.435731   -1.193438
H         5.985898    1.573375   -1.058885
H         0.914861    3.042224    1.813403
H         2.289471    1.765999    1.786881
H         2.962199   -0.239670    0.524552
H         3.012381   -1.922649   -0.051702
H         1.404286   -2.710244    2.545658
H         3.916578   -2.009341    4.369413
H         2.304683   -2.751575    4.586683
H         2.685682   -1.155367    5.319114
H         0.303312   -1.799253   -1.314655
H        -1.723350   -3.896319   -0.647523
H        -0.170477   -4.548332   -1.209987
H        -1.094388   -3.442508   -2.268611
