80
-1 1
C         1.263694   -1.447564   -2.009890
O         0.261000   -1.296554   -1.031605
C        -0.082760   -0.005494   -0.738699
C        -1.128857    0.602544   -1.399850
C         0.643951    0.672348    0.287095
N         1.678332    0.005577    0.879205
C         2.438171    0.394581    2.037169
O         2.039999    1.360021    2.714566
C         3.533461   -0.442675    2.316401
C         4.182684   -1.378102    1.357022
S         3.171581   -2.935790    0.904092
C         2.932383   -3.542899    2.597003
C         1.541487   -4.108330    2.874348
H         1.547721   -4.437581    3.932331
N         1.208103   -5.238191    2.040500
C         1.822898   -6.439675    2.131711
C         1.303398   -7.495906    1.172166
O         2.753428   -6.663225    2.888756
C         0.364303   -3.121785    2.750915
N         0.584357   -1.864399    3.167968
C        -0.461811   -0.866414    3.089348
O        -0.722855   -3.522046    2.355647
C         4.619017   -0.711266    0.042869
N         5.043547   -1.592942   -1.029679
C         5.239723   -0.874465   -2.262905
C         6.183457   -2.408852   -0.690112
C         0.249360    1.976690    0.612303
C        -0.810006    2.572340   -0.069519
C        -1.527320    1.915640   -1.088108
N        -2.576606    2.497349   -1.781559
C        -2.952153    3.689839   -1.468570
N        -4.012572    4.307277   -2.118661
C        -4.732646    3.728974   -3.184712
C        -5.502577    2.563034   -2.995243
C        -5.578416    1.881556   -1.659903
C        -6.220017    2.070203   -4.089924
C        -6.212416    2.707317   -5.329153
C        -5.469635    3.873180   -5.495865
C        -4.728502    4.370835   -4.428468
C        -2.311824    4.453789   -0.419716
N        -1.243701    3.873590    0.236145
C        -0.816188    4.775018    1.160432
N        -1.535272    5.878815    1.135051
C        -2.469394    5.698996    0.166643
H         2.182608   -0.899908   -1.741342
H         0.913360   -1.093264   -2.996544
H         1.508611   -2.515505   -2.063917
H        -1.666077    0.056935   -2.176895
H         1.763991   -0.975720    0.613774
H         4.074315   -0.198081    3.233119
H         5.075892   -1.796629    1.846242
H         3.133877   -2.694469    3.272597
H         3.661969   -4.334953    2.812556
H         0.317758   -5.137138    1.560318
H         0.266641   -7.316888    0.854323
H         1.383874   -8.479817    1.651186
H         1.943770   -7.498200    0.277191
H         1.545372   -1.525226    3.242389
H        -0.970723   -0.912965    2.114540
H        -0.002467    0.122859    3.210001
H        -1.219090   -1.026517    3.873737
H         5.424801    0.009589    0.317343
H         3.782700   -0.104088   -0.332194
H         4.325989   -0.322075   -2.531600
H         5.464639   -1.575864   -3.082279
H         6.073432   -0.134512   -2.212049
H         7.087233   -1.803881   -0.440546
H         6.439245   -3.065358   -1.536382
H         5.946308   -3.056577    0.165519
H         0.781054    2.468713    1.424466
H        -3.951266    5.317132   -2.142086
H        -4.676899    1.274036   -1.490813
H        -6.465606    1.236277   -1.595431
H        -5.616860    2.622210   -0.846798
H        -6.818350    1.164926   -3.954593
H        -6.791579    2.296282   -6.159056
H        -5.452831    4.389304   -6.458464
H        -4.119072    5.269573   -4.555426
H         0.018488    4.569979    1.827584
H        -3.218939    6.456855   -0.059059
