80
-1 1
C         2.710910   -1.837759   -1.976240
O         1.401988   -1.744233   -1.453092
C         0.962561   -0.512602   -1.063943
C        -0.188010   -0.018030   -1.645420
C         1.577449    0.175719    0.007876
N         2.574765   -0.492412    0.727674
C         3.653345    0.080970    1.320236
O         3.899140    1.279235    1.294467
C         4.529416   -0.917111    2.022317
C         5.846278   -0.969756    1.809799
S         1.863740   -3.449698    1.897010
C         0.078775   -3.660924    2.286800
C        -0.897432   -2.678311    1.626099
H        -1.922687   -2.939537    1.938301
N        -0.896143   -2.813060    0.190465
C        -2.017115   -3.049730   -0.529344
C        -1.809214   -3.140987   -2.030208
O        -3.129265   -3.186483   -0.041740
C        -0.771411   -1.193290    2.030249
N         0.208478   -0.914079    2.923262
C         0.432337    0.409551    3.437405
O        -1.560042   -0.360814    1.607626
C         6.538533   -0.079301    0.802347
N         6.001278   -0.262270   -0.536588
C         6.186143    0.882087   -1.390891
C         6.403927   -1.508850   -1.134675
C         1.083729    1.423498    0.376039
C        -0.093606    1.896016   -0.197750
C        -0.781826    1.160232   -1.179160
N        -2.037825    1.492524   -1.635988
C        -2.668908    2.475086   -1.084229
N        -3.999366    2.662202   -1.360478
C        -4.787184    1.694059   -2.030654
C        -4.918613    0.390760   -1.502619
C        -4.279306   -0.020130   -0.208812
C        -5.693797   -0.521124   -2.228227
C        -6.355279   -0.161154   -3.401256
C        -6.250570    1.141198   -3.883885
C        -5.454802    2.058616   -3.202461
C        -2.029727    3.361920   -0.131960
N        -0.734782    3.062142    0.248012
C        -0.356385    4.023487    1.131570
N        -1.309256    4.910539    1.329577
C        -2.356393    4.514345    0.561116
H         3.452603   -1.349069   -1.325672
H         2.754174   -1.385860   -2.983196
H         2.946313   -2.907169   -2.042549
H        -0.694365   -0.587508   -2.422742
H         2.375708   -1.499036    0.935702
H         4.029001   -1.639259    2.678241
H         6.440162   -1.713955    2.349857
H        -0.073662   -3.607107    3.377340
H        -0.235891   -4.669507    1.977641
H         0.011704   -2.779432   -0.269564
H        -2.393733   -2.336557   -2.501576
H        -2.219052   -4.097282   -2.384655
H        -0.756034   -3.050264   -2.328666
H         0.962332   -1.607526    2.993541
H        -0.292958    1.091011    2.972791
H         1.451484    0.758520    3.204537
H         0.301076    0.446174    4.532214
H         7.638303   -0.252227    0.826755
H         6.362798    0.966859    1.090845
H         5.719474    1.763071   -0.925773
H         5.687032    0.708988   -2.357300
H         7.256532    1.115116   -1.601180
H         7.502695   -1.570105   -1.320318
H         5.892201   -1.651862   -2.099248
H         6.121634   -2.347807   -0.480325
H         1.584829    1.967633    1.172613
H        -4.406350    3.566862   -1.171412
H        -3.208168   -0.236576   -0.323735
H        -4.740084   -0.930413    0.193778
H        -4.344322    0.783219    0.540020
H        -5.781503   -1.540236   -1.842178
H        -6.958665   -0.899761   -3.934525
H        -6.768128    1.439548   -4.798648
H        -5.325999    3.073667   -3.587002
H         0.627761    4.030600    1.595737
H        -3.294420    5.067778    0.538307
