-1 1
 OpenBabel05232414493D

 90 93  0  0  1  0  0  0  0  0999 V2000
   -7.7353  -12.0021   -5.8515 C   0  0  0  0  0  0  0  0  0  0  0  0
   -6.7010  -11.0930   -6.0852 O   0  0  0  0  0  0  0  0  0  0  0  0
   -6.0818  -11.0971   -7.2868 C   0  0  0  0  0  0  0  0  0  0  0  0
   -6.4628  -11.9146   -8.3425 C   0  0  0  0  0  0  0  0  0  0  0  0
   -4.9956  -10.1887   -7.4306 C   0  0  0  0  0  0  0  0  0  0  0  0
   -4.6469   -9.3346   -6.3701 N   0  0  0  0  0  0  0  0  0  0  0  0
   -3.2712   -9.2331   -5.9951 C   0  0  0  0  0  0  0  0  0  0  0  0
   -2.4739   -9.9792   -6.5685 O   0  0  0  0  0  0  0  0  0  0  0  0
   -2.9560   -8.2840   -4.9753 C   0  0  0  0  0  3  0  0  0  0  0  0
   -1.6799   -7.9428   -4.4893 C   0  0  0  0  0  3  0  0  0  0  0  0
   -0.9197   -9.4550   -2.9167 S   0  0  0  0  0  1  0  0  0  0  0  0
   -0.0711   -8.3238   -1.7538 C   0  0  0  0  0  0  0  0  0  0  0  0
    1.4523   -8.5216   -1.6065 C   0  0  2  0  0  0  0  0  0  0  0  0
    1.8845   -7.6677   -1.0685 H   0  0  0  0  0  0  0  0  0  0  0  0
    2.0982   -8.5645   -2.9002 N   0  0  0  0  0  0  0  0  0  0  0  0
    2.9556   -7.6043   -3.3500 C   0  0  0  0  0  0  0  0  0  0  0  0
    3.3404   -7.7552   -4.8116 C   0  0  0  0  0  0  0  0  0  0  0  0
    3.3814   -6.7044   -2.6495 O   0  0  0  0  0  0  0  0  0  0  0  0
    1.8267   -9.7514   -0.7623 C   0  0  0  0  0  0  0  0  0  0  0  0
    1.3763  -10.9352   -1.2538 N   0  0  0  0  0  0  0  0  0  0  0  0
    1.5899  -12.1829   -0.5716 C   0  0  0  0  0  0  0  0  0  0  0  0
    2.4888   -9.6527    0.2569 O   0  0  0  0  0  0  0  0  0  0  0  0
   -0.4085   -7.5601   -5.2583 C   0  0  0  0  0  0  0  0  0  0  0  0
    0.1302   -8.2481   -6.4046 N   0  0  0  0  0  0  0  0  0  0  0  0
    0.5213   -9.6296   -6.2302 C   0  0  0  0  0  0  0  0  0  0  0  0
   -0.4669   -7.9577   -7.6858 C   0  0  0  0  0  0  0  0  0  0  0  0
   -5.6422   -8.3455   -5.9825 C   0  0  0  0  0  0  0  0  0  0  0  0
   -5.4870   -7.0319   -6.7173 C   0  0  0  0  0  0  0  0  0  0  0  0
   -6.0347   -6.8969   -8.1095 C   0  0  0  0  0  0  0  0  0  0  0  0
   -6.6879   -6.1650   -6.9657 C   0  0  0  0  0  0  0  0  0  0  0  0
   -4.3047  -10.1776   -8.6352 C   0  0  0  0  0  0  0  0  0  0  0  0
   -4.6662  -11.0292   -9.6785 C   0  0  0  0  0  0  0  0  0  0  0  0
   -5.7620  -11.8998   -9.5618 C   0  0  0  0  0  0  0  0  0  0  0  0
   -6.1859  -12.7201  -10.5912 N   0  0  0  0  0  0  0  0  0  0  0  0
   -5.5507  -12.7063  -11.7200 C   0  0  0  0  0  0  0  0  0  0  0  0
   -5.9761  -13.5949  -12.6916 N   0  0  0  0  0  0  0  0  0  0  0  0
   -5.9922  -13.4063  -14.0843 C   0  0  0  0  0  0  0  0  0  0  0  0
   -5.9460  -14.5470  -14.9121 C   0  0  0  0  0  0  0  0  0  0  0  0
   -5.8518  -15.9178  -14.2999 C   0  0  0  0  0  0  0  0  0  0  0  0
   -5.9811  -14.3670  -16.2969 C   0  0  0  0  0  0  0  0  0  0  0  0
   -6.0440  -13.0966  -16.8665 C   0  0  0  0  0  0  0  0  0  0  0  0
   -6.0920  -11.9771  -16.0389 C   0  0  0  0  0  0  0  0  0  0  0  0
   -6.0829  -12.1313  -14.6561 C   0  0  0  0  0  0  0  0  0  0  0  0
   -4.3762  -11.8886  -11.9396 C   0  0  0  0  0  0  0  0  0  0  0  0
   -3.9716  -11.0698  -10.8963 N   0  0  0  0  0  0  0  0  0  0  0  0
   -2.8276  -10.4602  -11.2989 C   0  0  0  0  0  0  0  0  0  0  0  0
   -2.4800  -10.8280  -12.5160 N   0  0  0  0  0  0  0  0  0  0  0  0
   -3.4193  -11.7118  -12.9292 C   0  0  0  0  0  0  0  0  0  0  0  0
   -7.3973  -13.0462   -5.9740 H   0  0  0  0  0  0  0  0  0  0  0  0
   -8.5972  -11.8299   -6.5213 H   0  0  0  0  0  0  0  0  0  0  0  0
   -8.0567  -11.8525   -4.8132 H   0  0  0  0  0  0  0  0  0  0  0  0
   -7.2999  -12.6070   -8.2681 H   0  0  0  0  0  0  0  0  0  0  0  0
   -3.7774   -7.9506   -4.3398 H   0  0  0  0  0  0  0  0  0  0  0  0
   -1.7658   -7.2045   -3.6823 H   0  0  0  0  0  0  0  0  0  0  0  0
   -0.5343   -8.3947   -0.7570 H   0  0  0  0  0  0  0  0  0  0  0  0
   -0.2311   -7.2890   -2.1046 H   0  0  0  0  0  0  0  0  0  0  0  0
    1.6508   -9.1787   -3.5750 H   0  0  0  0  0  0  0  0  0  0  0  0
    3.7440   -8.7607   -5.0042 H   0  0  0  0  0  0  0  0  0  0  0  0
    4.0996   -7.0022   -5.0530 H   0  0  0  0  0  0  0  0  0  0  0  0
    2.4640   -7.6220   -5.4689 H   0  0  0  0  0  0  0  0  0  0  0  0
    0.6936  -10.8897   -2.0154 H   0  0  0  0  0  0  0  0  0  0  0  0
    2.3126  -12.0080    0.2360 H   0  0  0  0  0  0  0  0  0  0  0  0
    1.9931  -12.9467   -1.2559 H   0  0  0  0  0  0  0  0  0  0  0  0
    0.6581  -12.5740   -0.1288 H   0  0  0  0  0  0  0  0  0  0  0  0
    0.3863   -7.4882   -4.4999 H   0  0  0  0  0  0  0  0  0  0  0  0
   -0.5983   -6.5196   -5.5839 H   0  0  0  0  0  0  0  0  0  0  0  0
    1.1622   -9.7315   -5.3423 H   0  0  0  0  0  0  0  0  0  0  0  0
    1.1180   -9.9444   -7.1037 H   0  0  0  0  0  0  0  0  0  0  0  0
   -0.3381  -10.3103   -6.1181 H   0  0  0  0  0  0  0  0  0  0  0  0
   -0.6720   -6.8778   -7.7633 H   0  0  0  0  0  0  0  0  0  0  0  0
   -1.4058   -8.5112   -7.8717 H   0  0  0  0  0  0  0  0  0  0  0  0
    0.2453   -8.2174   -8.4895 H   0  0  0  0  0  0  0  0  0  0  0  0
   -5.6081   -8.1850   -4.8961 H   0  0  0  0  0  0  0  0  0  0  0  0
   -6.6377   -8.7638   -6.1885 H   0  0  0  0  0  0  0  0  0  0  0  0
   -4.5398   -6.5246   -6.5092 H   0  0  0  0  0  0  0  0  0  0  0  0
   -6.5585   -7.7592   -8.5326 H   0  0  0  0  0  0  0  0  0  0  0  0
   -5.4625   -6.3191   -8.8395 H   0  0  0  0  0  0  0  0  0  0  0  0
   -7.6601   -6.5279   -6.6175 H   0  0  0  0  0  0  0  0  0  0  0  0
   -6.5688   -5.0803   -6.9037 H   0  0  0  0  0  0  0  0  0  0  0  0
   -3.4660   -9.4937   -8.7367 H   0  0  0  0  0  0  0  0  0  0  0  0
   -6.6558  -14.2485  -12.3165 H   0  0  0  0  0  0  0  0  0  0  0  0
   -6.7859  -16.2010  -13.7848 H   0  0  0  0  0  0  0  0  0  0  0  0
   -5.0485  -15.9554  -13.5481 H   0  0  0  0  0  0  0  0  0  0  0  0
   -5.6550  -16.6814  -15.0646 H   0  0  0  0  0  0  0  0  0  0  0  0
   -5.9410  -15.2484  -16.9428 H   0  0  0  0  0  0  0  0  0  0  0  0
   -6.0559  -12.9830  -17.9525 H   0  0  0  0  0  0  0  0  0  0  0  0
   -6.1499  -10.9745  -16.4678 H   0  0  0  0  0  0  0  0  0  0  0  0
   -6.1384  -11.2560  -14.0075 H   0  0  0  0  0  0  0  0  0  0  0  0
   -2.2782   -9.7716  -10.6599 H   0  0  0  0  0  0  0  0  0  0  0  0
   -3.3810  -12.1839  -13.9085 H   0  0  0  0  0  0  0  0  0  0  0  0
  1 51  1  0  0  0  0
  2  1  1  0  0  0  0
  3  2  1  0  0  0  0
  4 52  1  0  0  0  0
  4  3  2  0  0  0  0
  5  3  1  0  0  0  0
  5  6  1  0  0  0  0
  6  7  1  0  0  0  0
  6 27  1  0  0  0  0
  7  9  1  0  0  0  0
  8  7  2  0  0  0  0
  9 10  1  0  0  0  0
  9 53  1  0  0  0  0
 10 54  1  0  0  0  0
 11 12  1  0  0  0  0
 12 13  1  0  0  0  0
 12 55  1  0  0  0  0
 13 14  1  1  0  0  0
 13 19  1  0  0  0  0
 15 13  1  0  0  0  0
 16 15  1  0  0  0  0
 16 18  2  0  0  0  0
 17 16  1  0  0  0  0
 19 22  2  0  0  0  0
 20 19  1  0  0  0  0
 20 21  1  0  0  0  0
 21 64  1  0  0  0  0
 21 62  1  0  0  0  0
 23 65  1  0  0  0  0
 23 10  1  0  0  0  0
 24 25  1  0  0  0  0
 24 23  1  0  0  0  0
 25 69  1  0  0  0  0
 25 67  1  0  0  0  0
 26 24  1  0  0  0  0
 27 73  1  0  0  0  0
 28 75  1  0  0  0  0
 28 27  1  0  0  0  0
 29 30  1  0  0  0  0
 29 28  1  0  0  0  0
 30 79  1  0  0  0  0
 30 28  1  0  0  0  0
 30 78  1  0  0  0  0
 31  5  2  0  0  0  0
 32 33  2  0  0  0  0
 32 31  1  0  0  0  0
 33  4  1  0  0  0  0
 34 33  1  0  0  0  0
 35 34  2  0  0  0  0
 36 81  1  0  0  0  0
 36 35  1  0  0  0  0
 37 36  1  0  0  0  0
 38 39  1  0  0  0  0
 38 37  2  0  0  0  0
 39 82  1  0  0  0  0
 39 83  1  0  0  0  0
 40 38  1  0  0  0  0
 41 40  2  0  0  0  0
 41 42  1  0  0  0  0
 42 43  2  0  0  0  0
 43 37  1  0  0  0  0
 43 88  1  0  0  0  0
 44 35  1  0  0  0  0
 44 45  1  0  0  0  0
 45 32  1  0  0  0  0
 46 45  1  0  0  0  0
 46 89  1  0  0  0  0
 47 46  2  0  0  0  0
 48 47  1  0  0  0  0
 48 44  2  0  0  0  0
 49  1  1  0  0  0  0
 50  1  1  0  0  0  0
 56 12  1  0  0  0  0
 57 15  1  0  0  0  0
 58 17  1  0  0  0  0
 59 17  1  0  0  0  0
 60 17  1  0  0  0  0
 61 20  1  0  0  0  0
 63 21  1  0  0  0  0
 66 23  1  0  0  0  0
 68 25  1  0  0  0  0
 70 26  1  0  0  0  0
 71 26  1  0  0  0  0
 72 26  1  0  0  0  0
 74 27  1  0  0  0  0
 76 29  1  0  0  0  0
 77 29  1  0  0  0  0
 80 31  1  0  0  0  0
 84 39  1  0  0  0  0
 85 40  1  0  0  0  0
 86 41  1  0  0  0  0
 87 42  1  0  0  0  0
 90 48  1  0  0  0  0
M  END
