-1 1
 OpenBabel05192410563D

 86 89  0  0  1  0  0  0  0  0999 V2000
    2.3467    2.9027    3.6454 C   0  0  0  0  0  0  0  0  0  0  0  0
    2.4666    2.8377    2.1225 C   0  0  0  0  0  0  0  0  0  0  0  0
    1.4199    2.1053    1.4417 N   0  0  0  0  0  0  0  0  0  0  0  0
    1.6009    0.7219    1.2224 C   0  0  0  0  0  0  0  0  0  0  0  0
    1.2333   -0.2453    2.1931 C   0  0  0  0  0  0  0  0  0  0  0  0
    0.6410    0.0707    3.3666 O   0  0  0  0  0  0  0  0  0  0  0  0
   -0.5231    0.8915    3.3503 C   0  0  0  0  0  0  0  0  0  0  0  0
    1.4947   -1.5922    1.9644 C   0  0  0  0  0  0  0  0  0  0  0  0
    2.0742   -2.0394    0.7703 C   0  0  0  0  0  0  0  0  0  0  0  0
    2.2617   -3.3963    0.5727 N   0  0  0  0  0  0  0  0  0  0  0  0
    2.7597   -3.8145   -0.5465 C   0  0  0  0  0  0  0  0  0  0  0  0
    2.9523   -5.1700   -0.6957 N   0  0  0  0  0  0  0  0  0  0  0  0
    2.9492   -5.8673   -1.9329 C   0  0  0  0  0  0  0  0  0  0  0  0
    1.8416   -5.8059   -2.8022 C   0  0  0  0  0  0  0  0  0  0  0  0
    0.6153   -5.0078   -2.4526 C   0  0  0  0  0  0  0  0  0  0  0  0
    1.9207   -6.5047   -4.0116 C   0  0  0  0  0  0  0  0  0  0  0  0
    3.0423   -7.2595   -4.3489 C   0  0  0  0  0  0  0  0  0  0  0  0
    4.1205   -7.3327   -3.4696 C   0  0  0  0  0  0  0  0  0  0  0  0
    4.0698   -6.6312   -2.2684 C   0  0  0  0  0  0  0  0  0  0  0  0
    3.1556   -2.9126   -1.6108 C   0  0  0  0  0  0  0  0  0  0  0  0
    3.7377   -2.9989   -2.8685 C   0  0  0  0  0  0  0  0  0  0  0  0
    3.8702   -1.7616   -3.4053 N   0  0  0  0  0  0  0  0  0  0  0  0
    3.3886   -0.9201   -2.5127 C   0  0  0  0  0  0  0  0  0  0  0  0
    2.9429   -1.5600   -1.4024 N   0  0  0  0  0  0  0  0  0  0  0  0
    2.3910   -1.0734   -0.2058 C   0  0  0  0  0  0  0  0  0  0  0  0
    2.1647    0.2805    0.0299 C   0  0  0  0  0  0  0  0  0  0  0  0
    0.2184    2.7049    0.9743 C   0  0  0  0  0  0  0  0  0  0  0  0
   -0.4682    1.9886    0.1846 O   0  0  0  0  0  0  0  0  0  0  0  0
   -0.1358    3.9665    1.4240 C   0  0  0  0  0  3  0  0  0  0  0  0
   -1.4239    4.5247    0.9883 C   0  0  1  0  0  0  0  0  0  0  0  0
   -2.9414    3.6617    1.8077 S   0  0  0  0  0  0  0  0  0  0  0  0
   -3.9643    3.2732    0.3574 C   0  0  0  0  0  0  0  0  0  0  0  0
   -4.2400    1.7870    0.1412 C   0  0  2  0  0  0  0  0  0  0  0  0
   -4.8327    1.3877    0.9843 H   0  0  0  0  0  0  0  0  0  0  0  0
   -3.0125    1.0133    0.0569 N   0  0  0  0  0  0  0  0  0  0  0  0
   -2.9945   -0.3132    0.2784 C   0  0  0  0  0  0  0  0  0  0  0  0
   -1.6323   -0.9680    0.2677 C   0  0  0  0  0  0  0  0  0  0  0  0
   -4.0156   -0.9864    0.4640 O   0  0  0  0  0  0  0  0  0  0  0  0
   -5.1065    1.6261   -1.1346 C   0  0  0  0  0  0  0  0  0  0  0  0
   -5.6386    0.3889   -1.2796 N   0  0  0  0  0  0  0  0  0  0  0  0
   -6.3836    0.0091   -2.4484 C   0  0  0  0  0  0  0  0  0  0  0  0
   -5.2998    2.5446   -1.9147 O   0  0  0  0  0  0  0  0  0  0  0  0
   -1.5243    6.0477    1.1115 C   0  0  0  0  0  0  0  0  0  0  0  0
   -1.0066    6.6251    2.3395 N   0  0  0  0  0  0  0  0  0  0  0  0
   -0.9348    8.0593    2.2641 C   0  0  0  0  0  0  0  0  0  0  0  0
   -1.6543    6.1735    3.5475 C   0  0  0  0  0  0  0  0  0  0  0  0
    3.2125    3.4287    4.0790 H   0  0  0  0  0  0  0  0  0  0  0  0
    2.2954    1.8923    4.0770 H   0  0  0  0  0  0  0  0  0  0  0  0
    1.4364    3.4457    3.9388 H   0  0  0  0  0  0  0  0  0  0  0  0
    3.4324    2.3733    1.8562 H   0  0  0  0  0  0  0  0  0  0  0  0
    2.4842    3.8582    1.7066 H   0  0  0  0  0  0  0  0  0  0  0  0
   -0.2833    1.9313    3.6100 H   0  0  0  0  0  0  0  0  0  0  0  0
   -1.2185    0.4773    4.0941 H   0  0  0  0  0  0  0  0  0  0  0  0
   -1.0038    0.8990    2.3627 H   0  0  0  0  0  0  0  0  0  0  0  0
    1.2065   -2.3262    2.7169 H   0  0  0  0  0  0  0  0  0  0  0  0
    2.6741   -5.6853    0.1334 H   0  0  0  0  0  0  0  0  0  0  0  0
    0.3496   -5.1175   -1.3916 H   0  0  0  0  0  0  0  0  0  0  0  0
   -0.2432   -5.3186   -3.0630 H   0  0  0  0  0  0  0  0  0  0  0  0
    0.7818   -3.9331   -2.6289 H   0  0  0  0  0  0  0  0  0  0  0  0
    1.0736   -6.4602   -4.7011 H   0  0  0  0  0  0  0  0  0  0  0  0
    3.0710   -7.7945   -5.3008 H   0  0  0  0  0  0  0  0  0  0  0  0
    5.0039   -7.9228   -3.7229 H   0  0  0  0  0  0  0  0  0  0  0  0
    4.9100   -6.6463   -1.5713 H   0  0  0  0  0  0  0  0  0  0  0  0
    4.0550   -3.8955   -3.3963 H   0  0  0  0  0  0  0  0  0  0  0  0
    3.3356    0.1609   -2.6221 H   0  0  0  0  0  0  0  0  0  0  0  0
    2.4001    1.0363   -0.7192 H   0  0  0  0  0  0  0  0  0  0  0  0
    0.4408    4.5156    2.1664 H   0  0  0  0  0  0  0  0  0  0  0  0
   -1.6173    4.2696   -0.0652 H   0  0  0  0  0  0  0  0  0  0  0  0
   -3.4667    3.6758   -0.5375 H   0  0  0  0  0  0  0  0  0  0  0  0
   -4.9290    3.7928    0.4265 H   0  0  0  0  0  0  0  0  0  0  0  0
   -2.0981    1.5200    0.0560 H   0  0  0  0  0  0  0  0  0  0  0  0
   -1.6333   -1.7598   -0.4957 H   0  0  0  0  0  0  0  0  0  0  0  0
   -1.4697   -1.4562    1.2395 H   0  0  0  0  0  0  0  0  0  0  0  0
   -0.8259   -0.2472    0.0787 H   0  0  0  0  0  0  0  0  0  0  0  0
   -5.3042   -0.3208   -0.6168 H   0  0  0  0  0  0  0  0  0  0  0  0
   -6.5735    0.9126   -3.0425 H   0  0  0  0  0  0  0  0  0  0  0  0
   -7.3490   -0.4484   -2.1762 H   0  0  0  0  0  0  0  0  0  0  0  0
   -5.8281   -0.7107   -3.0741 H   0  0  0  0  0  0  0  0  0  0  0  0
   -2.5781    6.3622    0.9299 H   0  0  0  0  0  0  0  0  0  0  0  0
   -0.9174    6.4658    0.2895 H   0  0  0  0  0  0  0  0  0  0  0  0
   -0.4432    8.4655    3.1632 H   0  0  0  0  0  0  0  0  0  0  0  0
   -1.9345    8.5504    2.1789 H   0  0  0  0  0  0  0  0  0  0  0  0
   -0.3415    8.3665    1.3881 H   0  0  0  0  0  0  0  0  0  0  0  0
   -1.1620    6.6342    4.4195 H   0  0  0  0  0  0  0  0  0  0  0  0
   -1.5622    5.0831    3.6487 H   0  0  0  0  0  0  0  0  0  0  0  0
   -2.7380    6.4248    3.5875 H   0  0  0  0  0  0  0  0  0  0  0  0
  1 49  1  0  0  0  0
  1 48  1  0  0  0  0
  1 47  1  0  0  0  0
  2  1  1  0  0  0  0
  3  2  1  0  0  0  0
  4  3  1  0  0  0  0
  4  5  1  0  0  0  0
  5  6  1  0  0  0  0
  7  6  1  0  0  0  0
  7 52  1  0  0  0  0
  7 53  1  0  0  0  0
  8  5  2  0  0  0  0
  8 55  1  0  0  0  0
  9  8  1  0  0  0  0
 10  9  1  0  0  0  0
 11 10  2  0  0  0  0
 12 11  1  0  0  0  0
 12 56  1  0  0  0  0
 13 12  1  0  0  0  0
 14 15  1  0  0  0  0
 14 13  2  0  0  0  0
 15 57  1  0  0  0  0
 16 14  1  0  0  0  0
 17 16  2  0  0  0  0
 17 18  1  0  0  0  0
 18 19  2  0  0  0  0
 19 13  1  0  0  0  0
 19 63  1  0  0  0  0
 20 24  1  0  0  0  0
 20 11  1  0  0  0  0
 21 20  2  0  0  0  0
 22 21  1  0  0  0  0
 22 23  2  0  0  0  0
 23 24  1  0  0  0  0
 24 25  1  0  0  0  0
 25 26  1  0  0  0  0
 25  9  2  0  0  0  0
 26  4  2  0  0  0  0
 27 29  1  0  0  0  0
 27  3  1  0  0  0  0
 28 27  2  0  0  0  0
 29 67  1  0  0  0  0
 30 68  1  6  0  0  0
 30 43  1  0  0  0  0
 30 29  1  0  0  0  0
 30 31  1  0  0  0  0
 32 70  1  0  0  0  0
 32 31  1  0  0  0  0
 33 32  1  0  0  0  0
 33 34  1  1  0  0  0
 35 33  1  0  0  0  0
 35 36  1  0  0  0  0
 36 38  2  0  0  0  0
 37 36  1  0  0  0  0
 37 73  1  0  0  0  0
 39 33  1  0  0  0  0
 40 39  1  0  0  0  0
 40 75  1  0  0  0  0
 41 77  1  0  0  0  0
 41 40  1  0  0  0  0
 42 39  2  0  0  0  0
 43 44  1  0  0  0  0
 44 46  1  0  0  0  0
 45 44  1  0  0  0  0
 45 81  1  0  0  0  0
 46 86  1  0  0  0  0
 46 85  1  0  0  0  0
 46 84  1  0  0  0  0
 50  2  1  0  0  0  0
 51  2  1  0  0  0  0
 54  7  1  0  0  0  0
 58 15  1  0  0  0  0
 59 15  1  0  0  0  0
 60 16  1  0  0  0  0
 61 17  1  0  0  0  0
 62 18  1  0  0  0  0
 64 21  1  0  0  0  0
 65 23  1  0  0  0  0
 66 26  1  0  0  0  0
 69 32  1  0  0  0  0
 71 35  1  0  0  0  0
 72 37  1  0  0  0  0
 74 37  1  0  0  0  0
 76 41  1  0  0  0  0
 78 41  1  0  0  0  0
 79 43  1  0  0  0  0
 80 43  1  0  0  0  0
 82 45  1  0  0  0  0
 83 45  1  0  0  0  0
M  END
