79
-1 1
C        10.082401    8.434160   -8.578254
C        10.762994    8.387976   -7.236465
C        11.230920    9.562922   -6.619103
N        11.061849   10.827470   -7.262226
C         9.816590   11.364362   -7.473472
N         8.800364   10.963268   -6.777684
C         7.531056   11.418236   -7.098165
C         7.267340   12.270011   -8.184905
C         5.964209   12.509374   -8.642421
C         4.890589   11.877902   -8.009868
N         3.597935   11.897064   -8.508679
C         2.826441   10.670641   -8.504029
O         1.610526   10.757047   -8.340380
C         3.603355    9.503154   -8.776983
C         3.260583    8.182278   -8.446195
S         4.494090    7.478561   -6.600168
C         6.087029    7.718814   -7.442801
C         7.207511    6.811694   -6.917893
H         8.107538    6.978686   -7.528286
N         6.842365    5.430824   -7.068175
C         7.759213    4.449949   -7.205852
C         7.217220    3.043654   -7.041353
O         8.942755    4.656229   -7.439899
C         7.600481    7.090640   -5.451322
N         8.122744    8.317215   -5.216084
C         8.544912    8.704986   -3.895854
O         7.463375    6.258395   -4.572872
C         1.823168    7.817704   -8.114071
N         1.502818    6.448026   -7.766188
C         1.482211    6.083948   -6.371138
C         2.041854    5.432801   -8.626061
C         3.049364   13.064394   -9.143860
C         5.140205   11.155332   -6.817096
C         6.421514   10.932540   -6.377965
C         9.677075   12.364102   -8.512728
N         8.400800   12.786672   -8.835037
C         8.534914   13.692055   -9.840368
N         9.795982   13.875288  -10.172664
C        10.519182   13.059059   -9.365509
C        11.863892    9.511663   -5.377764
C        12.031545    8.292838   -4.725134
C        11.540407    7.128246   -5.310966
C        10.911845    7.175923   -6.553872
H        10.638305    9.059795   -9.293387
H         9.073620    8.870916   -8.494712
H         9.978681    7.424290   -8.996696
H        11.789719   11.115714   -7.901915
H         5.796971   13.092171   -9.548802
H         4.611864    9.665676   -9.164019
H         3.790086    7.413789   -9.019622
H         6.410944    8.766016   -7.371809
H         5.965033    7.499796   -8.518203
H         5.897424    5.218920   -6.755338
H         7.852887    2.345514   -7.599489
H         6.173843    2.955468   -7.375793
H         7.259623    2.782150   -5.972982
H         8.352735    8.956098   -5.973483
H         8.943688    9.726802   -3.950356
H         9.330673    8.035168   -3.509886
H         7.701620    8.678669   -3.187597
H         1.247037    8.096257   -9.017836
H         1.441969    8.489092   -7.333045
H         1.060994    6.910015   -5.779055
H         2.477504    5.840912   -5.947766
H         0.827498    5.204043   -6.225938
H         1.917725    5.726367   -9.681921
H         1.495345    4.483905   -8.479487
H         3.121249    5.223218   -8.455744
H         3.404616   13.201496  -10.185067
H         3.291330   13.976940   -8.574772
H         1.958217   12.939475   -9.161781
H         4.302265   10.702551   -6.286970
H         6.594266   10.308698   -5.500777
H         7.680656   14.195661  -10.287476
H        11.606364   13.014119   -9.420775
H        12.205161   10.445856   -4.927161
H        12.519822    8.258590   -3.748544
H        11.628547    6.170831   -4.793261
H        10.489654    6.261718   -6.983966
