-1 1
 OpenBabel05232414493D

 79 81  0  0  1  0  0  0  0  0999 V2000
   10.0824    8.4342   -8.5783 C   0  0  0  0  0  0  0  0  0  0  0  0
   10.7630    8.3880   -7.2365 C   0  0  0  0  0  0  0  0  0  0  0  0
   11.2309    9.5629   -6.6191 C   0  0  0  0  0  0  0  0  0  0  0  0
   11.0618   10.8275   -7.2622 N   0  0  0  0  0  0  0  0  0  0  0  0
    9.8166   11.3644   -7.4735 C   0  0  0  0  0  0  0  0  0  0  0  0
    8.8004   10.9633   -6.7777 N   0  0  0  0  0  0  0  0  0  0  0  0
    7.5311   11.4182   -7.0982 C   0  0  0  0  0  0  0  0  0  0  0  0
    7.2673   12.2700   -8.1849 C   0  0  0  0  0  0  0  0  0  0  0  0
    5.9642   12.5094   -8.6424 C   0  0  0  0  0  0  0  0  0  0  0  0
    4.8906   11.8779   -8.0099 C   0  0  0  0  0  0  0  0  0  0  0  0
    3.5979   11.8971   -8.5087 N   0  0  0  0  0  0  0  0  0  0  0  0
    2.8264   10.6706   -8.5040 C   0  0  0  0  0  0  0  0  0  0  0  0
    1.6105   10.7570   -8.3404 O   0  0  0  0  0  0  0  0  0  0  0  0
    3.6034    9.5032   -8.7770 C   0  0  0  0  0  3  0  0  0  0  0  0
    3.2606    8.1823   -8.4462 C   0  0  0  0  0  3  0  0  0  0  0  0
    4.4941    7.4786   -6.6002 S   0  0  0  0  0  1  0  0  0  0  0  0
    6.0870    7.7188   -7.4428 C   0  0  0  0  0  0  0  0  0  0  0  0
    7.2075    6.8117   -6.9179 C   0  0  2  0  0  0  0  0  0  0  0  0
    8.1075    6.9787   -7.5283 H   0  0  0  0  0  0  0  0  0  0  0  0
    6.8424    5.4308   -7.0682 N   0  0  0  0  0  0  0  0  0  0  0  0
    7.7592    4.4499   -7.2059 C   0  0  0  0  0  0  0  0  0  0  0  0
    7.2172    3.0437   -7.0414 C   0  0  0  0  0  0  0  0  0  0  0  0
    8.9428    4.6562   -7.4399 O   0  0  0  0  0  0  0  0  0  0  0  0
    7.6005    7.0906   -5.4513 C   0  0  0  0  0  0  0  0  0  0  0  0
    8.1227    8.3172   -5.2161 N   0  0  0  0  0  0  0  0  0  0  0  0
    8.5449    8.7050   -3.8959 C   0  0  0  0  0  0  0  0  0  0  0  0
    7.4634    6.2584   -4.5729 O   0  0  0  0  0  0  0  0  0  0  0  0
    1.8232    7.8177   -8.1141 C   0  0  0  0  0  0  0  0  0  0  0  0
    1.5028    6.4480   -7.7662 N   0  0  0  0  0  0  0  0  0  0  0  0
    1.4822    6.0839   -6.3711 C   0  0  0  0  0  0  0  0  0  0  0  0
    2.0419    5.4328   -8.6261 C   0  0  0  0  0  0  0  0  0  0  0  0
    3.0494   13.0644   -9.1439 C   0  0  0  0  0  0  0  0  0  0  0  0
    5.1402   11.1553   -6.8171 C   0  0  0  0  0  0  0  0  0  0  0  0
    6.4215   10.9325   -6.3780 C   0  0  0  0  0  0  0  0  0  0  0  0
    9.6771   12.3641   -8.5127 C   0  0  0  0  0  0  0  0  0  0  0  0
    8.4008   12.7867   -8.8350 N   0  0  0  0  0  0  0  0  0  0  0  0
    8.5349   13.6921   -9.8404 C   0  0  0  0  0  0  0  0  0  0  0  0
    9.7960   13.8753  -10.1727 N   0  0  0  0  0  0  0  0  0  0  0  0
   10.5192   13.0591   -9.3655 C   0  0  0  0  0  0  0  0  0  0  0  0
   11.8639    9.5117   -5.3778 C   0  0  0  0  0  0  0  0  0  0  0  0
   12.0315    8.2928   -4.7251 C   0  0  0  0  0  0  0  0  0  0  0  0
   11.5404    7.1282   -5.3110 C   0  0  0  0  0  0  0  0  0  0  0  0
   10.9118    7.1759   -6.5539 C   0  0  0  0  0  0  0  0  0  0  0  0
   10.6383    9.0598   -9.2934 H   0  0  0  0  0  0  0  0  0  0  0  0
    9.0736    8.8709   -8.4947 H   0  0  0  0  0  0  0  0  0  0  0  0
    9.9787    7.4243   -8.9967 H   0  0  0  0  0  0  0  0  0  0  0  0
   11.7897   11.1157   -7.9019 H   0  0  0  0  0  0  0  0  0  0  0  0
    5.7970   13.0922   -9.5488 H   0  0  0  0  0  0  0  0  0  0  0  0
    4.6119    9.6657   -9.1640 H   0  0  0  0  0  0  0  0  0  0  0  0
    3.7901    7.4138   -9.0196 H   0  0  0  0  0  0  0  0  0  0  0  0
    6.4109    8.7660   -7.3718 H   0  0  0  0  0  0  0  0  0  0  0  0
    5.9650    7.4998   -8.5182 H   0  0  0  0  0  0  0  0  0  0  0  0
    5.8974    5.2189   -6.7553 H   0  0  0  0  0  0  0  0  0  0  0  0
    7.8529    2.3455   -7.5995 H   0  0  0  0  0  0  0  0  0  0  0  0
    6.1738    2.9555   -7.3758 H   0  0  0  0  0  0  0  0  0  0  0  0
    7.2596    2.7822   -5.9730 H   0  0  0  0  0  0  0  0  0  0  0  0
    8.3527    8.9561   -5.9735 H   0  0  0  0  0  0  0  0  0  0  0  0
    8.9437    9.7268   -3.9504 H   0  0  0  0  0  0  0  0  0  0  0  0
    9.3307    8.0352   -3.5099 H   0  0  0  0  0  0  0  0  0  0  0  0
    7.7016    8.6787   -3.1876 H   0  0  0  0  0  0  0  0  0  0  0  0
    1.2470    8.0963   -9.0178 H   0  0  0  0  0  0  0  0  0  0  0  0
    1.4420    8.4891   -7.3330 H   0  0  0  0  0  0  0  0  0  0  0  0
    1.0610    6.9100   -5.7791 H   0  0  0  0  0  0  0  0  0  0  0  0
    2.4775    5.8409   -5.9478 H   0  0  0  0  0  0  0  0  0  0  0  0
    0.8275    5.2040   -6.2259 H   0  0  0  0  0  0  0  0  0  0  0  0
    1.9177    5.7264   -9.6819 H   0  0  0  0  0  0  0  0  0  0  0  0
    1.4953    4.4839   -8.4795 H   0  0  0  0  0  0  0  0  0  0  0  0
    3.1212    5.2232   -8.4557 H   0  0  0  0  0  0  0  0  0  0  0  0
    3.4046   13.2015  -10.1851 H   0  0  0  0  0  0  0  0  0  0  0  0
    3.2913   13.9769   -8.5748 H   0  0  0  0  0  0  0  0  0  0  0  0
    1.9582   12.9395   -9.1618 H   0  0  0  0  0  0  0  0  0  0  0  0
    4.3023   10.7026   -6.2870 H   0  0  0  0  0  0  0  0  0  0  0  0
    6.5943   10.3087   -5.5008 H   0  0  0  0  0  0  0  0  0  0  0  0
    7.6807   14.1957  -10.2875 H   0  0  0  0  0  0  0  0  0  0  0  0
   11.6064   13.0141   -9.4208 H   0  0  0  0  0  0  0  0  0  0  0  0
   12.2052   10.4459   -4.9272 H   0  0  0  0  0  0  0  0  0  0  0  0
   12.5198    8.2586   -3.7485 H   0  0  0  0  0  0  0  0  0  0  0  0
   11.6285    6.1708   -4.7933 H   0  0  0  0  0  0  0  0  0  0  0  0
   10.4897    6.2617   -6.9840 H   0  0  0  0  0  0  0  0  0  0  0  0
  1 45  1  0  0  0  0
  1  2  1  0  0  0  0
  2  3  2  0  0  0  0
  2 43  1  0  0  0  0
  3 40  1  0  0  0  0
  4  3  1  0  0  0  0
  5  4  1  0  0  0  0
  5  6  2  0  0  0  0
  7  6  1  0  0  0  0
  7 34  1  0  0  0  0
  8  7  2  0  0  0  0
  9  8  1  0  0  0  0
  9 10  2  0  0  0  0
 10 33  1  0  0  0  0
 11 12  1  0  0  0  0
 11 10  1  0  0  0  0
 12 13  2  0  0  0  0
 14 12  1  0  0  0  0
 14 15  1  0  0  0  0
 15 28  1  0  0  0  0
 17 51  1  0  0  0  0
 17 18  1  0  0  0  0
 17 16  1  0  0  0  0
 18 19  1  6  0  0  0
 18 24  1  0  0  0  0
 20 18  1  0  0  0  0
 20 53  1  0  0  0  0
 21 20  1  0  0  0  0
 21 22  1  0  0  0  0
 22 56  1  0  0  0  0
 23 21  2  0  0  0  0
 24 25  1  0  0  0  0
 24 27  2  0  0  0  0
 25 26  1  0  0  0  0
 26 59  1  0  0  0  0
 26 60  1  0  0  0  0
 28 29  1  0  0  0  0
 28 62  1  0  0  0  0
 29 30  1  0  0  0  0
 30 65  1  0  0  0  0
 30 64  1  0  0  0  0
 30 63  1  0  0  0  0
 31 67  1  0  0  0  0
 31 68  1  0  0  0  0
 31 29  1  0  0  0  0
 32 70  1  0  0  0  0
 32 11  1  0  0  0  0
 33 34  2  0  0  0  0
 33 72  1  0  0  0  0
 34 73  1  0  0  0  0
 35  5  1  0  0  0  0
 36 35  1  0  0  0  0
 36  8  1  0  0  0  0
 37 36  1  0  0  0  0
 38 37  2  0  0  0  0
 38 39  1  0  0  0  0
 39 35  2  0  0  0  0
 40 76  1  0  0  0  0
 40 41  2  0  0  0  0
 41 77  1  0  0  0  0
 42 78  1  0  0  0  0
 42 41  1  0  0  0  0
 43 42  2  0  0  0  0
 44  1  1  0  0  0  0
 46  1  1  0  0  0  0
 47  4  1  0  0  0  0
 48  9  1  0  0  0  0
 49 14  1  0  0  0  0
 50 15  1  0  0  0  0
 52 17  1  0  0  0  0
 54 22  1  0  0  0  0
 55 22  1  0  0  0  0
 57 25  1  0  0  0  0
 58 26  1  0  0  0  0
 61 28  1  0  0  0  0
 66 31  1  0  0  0  0
 69 32  1  0  0  0  0
 71 32  1  0  0  0  0
 74 37  1  0  0  0  0
 75 39  1  0  0  0  0
 79 43  1  0  0  0  0
M  END
