64
-1 1
C        -6.376019    0.162871   -1.144951
N        -5.239684   -0.680824   -1.374565
C        -4.303406   -0.224816   -2.373330
C        -3.771472    1.194050   -2.286727
S        -2.175293    0.933964   -0.071007
C        -0.709281    1.307221   -1.056253
C        -0.245403    0.164746   -1.990223
H        -1.056984   -0.076630   -2.686326
N         0.053779   -1.042696   -1.271280
C        -0.750293   -2.129040   -1.257473
C        -0.390008   -3.169978   -0.215166
O        -1.711721   -2.280282   -1.995797
C         0.996710    0.622627   -2.756690
N         0.751227    1.451885   -3.799670
C         1.804836    2.102544   -4.534323
O         2.121135    0.305945   -2.395645
C        -2.937519    1.645915   -3.274325
C        -2.455871    2.957135   -3.636694
N        -2.900917    4.122276   -2.945281
C        -3.080495    5.339510   -3.590938
C        -3.579171    6.454792   -2.863178
C        -3.820234    7.669393   -3.474747
C        -2.835894    5.526718   -4.965323
C        -3.086728    6.754994   -5.562441
C        -3.584542    7.861940   -4.842188
N        -3.836105    9.094190   -5.426888
C        -3.606711    9.235287   -6.669944
Cl        -3.921760   10.786929   -7.426243
C        -3.097475    8.200569   -7.524225
N        -2.847965    6.970818   -6.928409
C        -2.375631    6.157247   -7.910079
N        -2.310700    6.778390   -9.069511
C        -2.752087    8.042774   -8.854680
C        -3.079773    4.076713   -1.501940
O        -1.676265    3.080577   -4.586856
C        -4.714783   -1.303045   -0.182471
H        -6.787122    0.520565   -2.103989
H        -6.163239    1.058417   -0.515823
H        -7.172688   -0.403475   -0.631077
H        -4.807261   -0.287332   -3.360314
H        -3.455025   -0.925724   -2.412339
H        -4.324111    1.887910   -1.655504
H         0.134333    1.580624   -0.399429
H        -0.886282    2.188703   -1.699808
H         0.864622   -1.010209   -0.667698
H         0.681518   -3.177139    0.032109
H        -0.698014   -4.159450   -0.574727
H        -0.956544   -2.937778    0.699680
H        -0.202693    1.723214   -4.033442
H         1.925137    1.678138   -5.545658
H         2.746990    1.964492   -3.988126
H         1.590132    3.176849   -4.635866
H        -2.517995    0.892338   -3.948929
H        -3.794480    6.365577   -1.801350
H        -4.207503    8.513033   -2.900985
H        -2.415854    4.707357   -5.539688
H        -2.092935    5.122896   -7.724377
H        -2.808404    8.789774   -9.643673
H        -2.761285    3.109486   -1.088007
H        -4.129733    4.242924   -1.206983
H        -2.457076    4.848799   -1.023045
H        -5.473064   -1.990597    0.237460
H        -4.426023   -0.584915    0.611110
H        -3.817097   -1.882034   -0.437619
