-1 1
 OpenBabel05232414493D

 64 65  0  0  1  0  0  0  0  0999 V2000
   -6.3760    0.1629   -1.1450 C   0  0  0  0  0  0  0  0  0  0  0  0
   -5.2397   -0.6808   -1.3746 N   0  0  0  0  0  0  0  0  0  0  0  0
   -4.3034   -0.2248   -2.3733 C   0  0  0  0  0  0  0  0  0  0  0  0
   -3.7715    1.1941   -2.2867 C   0  0  0  0  0  0  0  0  0  0  0  0
   -2.1753    0.9340   -0.0710 S   0  0  0  0  0  1  0  0  0  0  0  0
   -0.7093    1.3072   -1.0563 C   0  0  0  0  0  0  0  0  0  0  0  0
   -0.2454    0.1647   -1.9902 C   0  0  2  0  0  0  0  0  0  0  0  0
   -1.0570   -0.0766   -2.6863 H   0  0  0  0  0  0  0  0  0  0  0  0
    0.0538   -1.0427   -1.2713 N   0  0  0  0  0  0  0  0  0  0  0  0
   -0.7503   -2.1290   -1.2575 C   0  0  0  0  0  0  0  0  0  0  0  0
   -0.3900   -3.1700   -0.2152 C   0  0  0  0  0  0  0  0  0  0  0  0
   -1.7117   -2.2803   -1.9958 O   0  0  0  0  0  0  0  0  0  0  0  0
    0.9967    0.6226   -2.7567 C   0  0  0  0  0  0  0  0  0  0  0  0
    0.7512    1.4519   -3.7997 N   0  0  0  0  0  0  0  0  0  0  0  0
    1.8048    2.1025   -4.5343 C   0  0  0  0  0  0  0  0  0  0  0  0
    2.1211    0.3059   -2.3956 O   0  0  0  0  0  0  0  0  0  0  0  0
   -2.9375    1.6459   -3.2743 C   0  0  0  0  0  0  0  0  0  0  0  0
   -2.4559    2.9571   -3.6367 C   0  0  0  0  0  0  0  0  0  0  0  0
   -2.9009    4.1223   -2.9453 N   0  0  0  0  0  0  0  0  0  0  0  0
   -3.0805    5.3395   -3.5909 C   0  0  0  0  0  0  0  0  0  0  0  0
   -3.5792    6.4548   -2.8632 C   0  0  0  0  0  0  0  0  0  0  0  0
   -3.8202    7.6694   -3.4747 C   0  0  0  0  0  0  0  0  0  0  0  0
   -2.8359    5.5267   -4.9653 C   0  0  0  0  0  0  0  0  0  0  0  0
   -3.0867    6.7550   -5.5624 C   0  0  0  0  0  0  0  0  0  0  0  0
   -3.5845    7.8619   -4.8422 C   0  0  0  0  0  0  0  0  0  0  0  0
   -3.8361    9.0942   -5.4269 N   0  0  0  0  0  0  0  0  0  0  0  0
   -3.6067    9.2353   -6.6699 C   0  0  0  0  0  0  0  0  0  0  0  0
   -3.9218   10.7869   -7.4262 Cl  0  0  0  0  0  0  0  0  0  0  0  0
   -3.0975    8.2006   -7.5242 C   0  0  0  0  0  0  0  0  0  0  0  0
   -2.8480    6.9708   -6.9284 N   0  0  0  0  0  0  0  0  0  0  0  0
   -2.3756    6.1572   -7.9101 C   0  0  0  0  0  0  0  0  0  0  0  0
   -2.3107    6.7784   -9.0695 N   0  0  0  0  0  0  0  0  0  0  0  0
   -2.7521    8.0428   -8.8547 C   0  0  0  0  0  0  0  0  0  0  0  0
   -3.0798    4.0767   -1.5019 C   0  0  0  0  0  0  0  0  0  0  0  0
   -1.6763    3.0806   -4.5869 O   0  0  0  0  0  0  0  0  0  0  0  0
   -4.7148   -1.3030   -0.1825 C   0  0  0  0  0  0  0  0  0  0  0  0
   -6.7871    0.5206   -2.1040 H   0  0  0  0  0  0  0  0  0  0  0  0
   -6.1632    1.0584   -0.5158 H   0  0  0  0  0  0  0  0  0  0  0  0
   -7.1727   -0.4035   -0.6311 H   0  0  0  0  0  0  0  0  0  0  0  0
   -4.8073   -0.2873   -3.3603 H   0  0  0  0  0  0  0  0  0  0  0  0
   -3.4550   -0.9257   -2.4123 H   0  0  0  0  0  0  0  0  0  0  0  0
   -4.3241    1.8879   -1.6555 H   0  0  0  0  0  0  0  0  0  0  0  0
    0.1343    1.5806   -0.3994 H   0  0  0  0  0  0  0  0  0  0  0  0
   -0.8863    2.1887   -1.6998 H   0  0  0  0  0  0  0  0  0  0  0  0
    0.8646   -1.0102   -0.6677 H   0  0  0  0  0  0  0  0  0  0  0  0
    0.6815   -3.1771    0.0321 H   0  0  0  0  0  0  0  0  0  0  0  0
   -0.6980   -4.1594   -0.5747 H   0  0  0  0  0  0  0  0  0  0  0  0
   -0.9565   -2.9378    0.6997 H   0  0  0  0  0  0  0  0  0  0  0  0
   -0.2027    1.7232   -4.0334 H   0  0  0  0  0  0  0  0  0  0  0  0
    1.9251    1.6781   -5.5457 H   0  0  0  0  0  0  0  0  0  0  0  0
    2.7470    1.9645   -3.9881 H   0  0  0  0  0  0  0  0  0  0  0  0
    1.5901    3.1768   -4.6359 H   0  0  0  0  0  0  0  0  0  0  0  0
   -2.5180    0.8923   -3.9489 H   0  0  0  0  0  0  0  0  0  0  0  0
   -3.7945    6.3656   -1.8014 H   0  0  0  0  0  0  0  0  0  0  0  0
   -4.2075    8.5130   -2.9010 H   0  0  0  0  0  0  0  0  0  0  0  0
   -2.4159    4.7074   -5.5397 H   0  0  0  0  0  0  0  0  0  0  0  0
   -2.0929    5.1229   -7.7244 H   0  0  0  0  0  0  0  0  0  0  0  0
   -2.8084    8.7898   -9.6437 H   0  0  0  0  0  0  0  0  0  0  0  0
   -2.7613    3.1095   -1.0880 H   0  0  0  0  0  0  0  0  0  0  0  0
   -4.1297    4.2429   -1.2070 H   0  0  0  0  0  0  0  0  0  0  0  0
   -2.4571    4.8488   -1.0230 H   0  0  0  0  0  0  0  0  0  0  0  0
   -5.4731   -1.9906    0.2375 H   0  0  0  0  0  0  0  0  0  0  0  0
   -4.4260   -0.5849    0.6111 H   0  0  0  0  0  0  0  0  0  0  0  0
   -3.8171   -1.8820   -0.4376 H   0  0  0  0  0  0  0  0  0  0  0  0
  1 39  1  0  0  0  0
  1 38  1  0  0  0  0
  2  1  1  0  0  0  0
  2 36  1  0  0  0  0
  3  4  1  0  0  0  0
  3  2  1  0  0  0  0
  4 42  1  0  0  0  0
  6 43  1  0  0  0  0
  6  5  1  0  0  0  0
  7  8  1  6  0  0  0
  7  9  1  0  0  0  0
  7  6  1  0  0  0  0
  9 10  1  0  0  0  0
  9 45  1  0  0  0  0
 10 11  1  0  0  0  0
 11 46  1  0  0  0  0
 11 48  1  0  0  0  0
 12 10  2  0  0  0  0
 13 16  2  0  0  0  0
 13  7  1  0  0  0  0
 14 13  1  0  0  0  0
 15 51  1  0  0  0  0
 15 14  1  0  0  0  0
 17  4  2  0  0  0  0
 18 17  1  0  0  0  0
 18 19  1  0  0  0  0
 19 34  1  0  0  0  0
 20 19  1  0  0  0  0
 20 21  1  0  0  0  0
 21 54  1  0  0  0  0
 22 55  1  0  0  0  0
 22 21  2  0  0  0  0
 23 20  2  0  0  0  0
 24 23  1  0  0  0  0
 24 25  2  0  0  0  0
 25 22  1  0  0  0  0
 26 25  1  0  0  0  0
 27 26  2  0  0  0  0
 28 27  1  0  0  0  0
 29 30  1  0  0  0  0
 29 27  1  0  0  0  0
 30 24  1  0  0  0  0
 31 57  1  0  0  0  0
 31 30  1  0  0  0  0
 32 33  1  0  0  0  0
 32 31  2  0  0  0  0
 33 29  2  0  0  0  0
 34 60  1  0  0  0  0
 34 59  1  0  0  0  0
 34 61  1  0  0  0  0
 35 18  2  0  0  0  0
 36 62  1  0  0  0  0
 36 63  1  0  0  0  0
 37  1  1  0  0  0  0
 40  3  1  0  0  0  0
 41  3  1  0  0  0  0
 44  6  1  0  0  0  0
 47 11  1  0  0  0  0
 49 14  1  0  0  0  0
 50 15  1  0  0  0  0
 52 15  1  0  0  0  0
 53 17  1  0  0  0  0
 56 23  1  0  0  0  0
 58 33  1  0  0  0  0
 64 36  1  0  0  0  0
M  END
