-1 1
 OpenBabel05192410563D

 64 66  0  0  1  0  0  0  0  0999 V2000
   -3.8637   -2.6933    2.5800 C   0  0  0  0  0  0  0  0  0  0  0  0
   -2.9615   -3.6212    1.9632 N   0  0  0  0  0  0  0  0  0  0  0  0
   -1.9705   -3.0574    1.0749 C   0  0  0  0  0  0  0  0  0  0  0  0
   -1.0723   -1.9151    1.5852 C   0  0  1  0  0  0  0  0  0  0  0  0
   -0.1906   -2.5205    3.1923 S   0  0  0  0  0  0  0  0  0  0  0  0
    1.5570   -2.3460    2.7646 C   0  0  0  0  0  0  0  0  0  0  0  0
    2.1136   -3.3668    1.7547 C   0  0  2  0  0  0  0  0  0  0  0  0
    1.4235   -3.4442    0.9088 H   0  0  0  0  0  0  0  0  0  0  0  0
    2.2649   -4.6829    2.3158 N   0  0  0  0  0  0  0  0  0  0  0  0
    1.4382   -5.7164    2.0201 C   0  0  0  0  0  0  0  0  0  0  0  0
    1.7918   -7.0281    2.6970 C   0  0  0  0  0  0  0  0  0  0  0  0
    0.4566   -5.6199    1.3036 O   0  0  0  0  0  0  0  0  0  0  0  0
    3.4830   -2.8814    1.2584 C   0  0  0  0  0  0  0  0  0  0  0  0
    3.4610   -1.8317    0.4207 N   0  0  0  0  0  0  0  0  0  0  0  0
    4.6844   -1.2122   -0.0231 C   0  0  0  0  0  0  0  0  0  0  0  0
    4.5141   -3.4093    1.6647 O   0  0  0  0  0  0  0  0  0  0  0  0
   -0.1332   -1.4750    0.5370 C   0  0  0  0  0  3  0  0  0  0  0  0
    0.4634   -0.2507    0.3217 C   0  0  0  0  0  0  0  0  0  0  0  0
   -0.0927    0.9336    1.0017 N   0  0  0  0  0  0  0  0  0  0  0  0
   -0.4954    2.0044    0.2615 C   0  0  0  0  0  0  0  0  0  0  0  0
   -1.0033    3.1839    0.8798 C   0  0  0  0  0  0  0  0  0  0  0  0
   -1.4594    4.2487    0.1290 C   0  0  0  0  0  0  0  0  0  0  0  0
   -0.4536    1.9769   -1.1520 C   0  0  0  0  0  0  0  0  0  0  0  0
   -0.9141    3.0583   -1.8835 C   0  0  0  0  0  0  0  0  0  0  0  0
   -1.4363    4.2243   -1.2732 C   0  0  0  0  0  0  0  0  0  0  0  0
   -1.9000    5.3106   -1.9968 N   0  0  0  0  0  0  0  0  0  0  0  0
   -1.8549    5.2648   -3.2668 C   0  0  0  0  0  0  0  0  0  0  0  0
   -2.4415    6.6382   -4.1957 Cl  0  0  0  0  0  0  0  0  0  0  0  0
   -1.3484    4.1532   -4.0202 C   0  0  0  0  0  0  0  0  0  0  0  0
   -0.8846    3.0688   -3.2875 N   0  0  0  0  0  0  0  0  0  0  0  0
   -0.4565    2.1479   -4.1918 C   0  0  0  0  0  0  0  0  0  0  0  0
   -0.6152    2.5687   -5.4297 N   0  0  0  0  0  0  0  0  0  0  0  0
   -1.1655    3.8065   -5.3472 C   0  0  0  0  0  0  0  0  0  0  0  0
   -0.0845    1.0187    2.4424 C   0  0  0  0  0  0  0  0  0  0  0  0
    1.4440   -0.0465   -0.4434 O   0  0  0  0  0  0  0  0  0  0  0  0
   -2.6114   -4.7549    2.7827 C   0  0  0  0  0  0  0  0  0  0  0  0
   -4.1973   -1.9405    1.8467 H   0  0  0  0  0  0  0  0  0  0  0  0
   -3.4305   -2.1446    3.4488 H   0  0  0  0  0  0  0  0  0  0  0  0
   -4.7615   -3.2207    2.9481 H   0  0  0  0  0  0  0  0  0  0  0  0
   -2.4872   -2.6449    0.1865 H   0  0  0  0  0  0  0  0  0  0  0  0
   -1.3194   -3.8729    0.7247 H   0  0  0  0  0  0  0  0  0  0  0  0
   -1.6949   -1.0834    1.9478 H   0  0  0  0  0  0  0  0  0  0  0  0
    2.1065   -2.4427    3.7142 H   0  0  0  0  0  0  0  0  0  0  0  0
    1.7391   -1.3350    2.3780 H   0  0  0  0  0  0  0  0  0  0  0  0
    3.1778   -4.8600    2.7226 H   0  0  0  0  0  0  0  0  0  0  0  0
    2.8412   -7.0815    3.0198 H   0  0  0  0  0  0  0  0  0  0  0  0
    1.5713   -7.8527    2.0074 H   0  0  0  0  0  0  0  0  0  0  0  0
    1.1469   -7.1447    3.5809 H   0  0  0  0  0  0  0  0  0  0  0  0
    2.5897   -1.3732    0.0966 H   0  0  0  0  0  0  0  0  0  0  0  0
    5.2064   -1.8211   -0.7809 H   0  0  0  0  0  0  0  0  0  0  0  0
    5.3792   -1.0678    0.8185 H   0  0  0  0  0  0  0  0  0  0  0  0
    4.4312   -0.2386   -0.4617 H   0  0  0  0  0  0  0  0  0  0  0  0
    0.2879   -2.2674   -0.0873 H   0  0  0  0  0  0  0  0  0  0  0  0
   -1.0445    3.2565    1.9653 H   0  0  0  0  0  0  0  0  0  0  0  0
   -1.8530    5.1443    0.6136 H   0  0  0  0  0  0  0  0  0  0  0  0
    0.0020    1.1192   -1.6423 H   0  0  0  0  0  0  0  0  0  0  0  0
   -0.0367    1.1899   -3.8914 H   0  0  0  0  0  0  0  0  0  0  0  0
   -1.4102    4.4028   -6.2237 H   0  0  0  0  0  0  0  0  0  0  0  0
    0.2561    0.0695    2.8683 H   0  0  0  0  0  0  0  0  0  0  0  0
   -1.0925    1.2064    2.8533 H   0  0  0  0  0  0  0  0  0  0  0  0
    0.5861    1.8212    2.8014 H   0  0  0  0  0  0  0  0  0  0  0  0
   -3.5006   -5.3952    2.9416 H   0  0  0  0  0  0  0  0  0  0  0  0
   -2.2141   -4.4811    3.7828 H   0  0  0  0  0  0  0  0  0  0  0  0
   -1.8350   -5.3502    2.2821 H   0  0  0  0  0  0  0  0  0  0  0  0
  1 39  1  0  0  0  0
  1 38  1  0  0  0  0
  2  1  1  0  0  0  0
  2 36  1  0  0  0  0
  3  4  1  0  0  0  0
  3  2  1  0  0  0  0
  4 42  1  1  0  0  0
  4  5  1  0  0  0  0
  6  5  1  0  0  0  0
  6 43  1  0  0  0  0
  7  8  1  6  0  0  0
  7  9  1  0  0  0  0
  7  6  1  0  0  0  0
  9 45  1  0  0  0  0
 10  9  1  0  0  0  0
 10 11  1  0  0  0  0
 11 46  1  0  0  0  0
 11 48  1  0  0  0  0
 12 10  2  0  0  0  0
 13 16  2  0  0  0  0
 13  7  1  0  0  0  0
 14 13  1  0  0  0  0
 15 14  1  0  0  0  0
 15 51  1  0  0  0  0
 17  4  1  0  0  0  0
 18 17  1  0  0  0  0
 18 19  1  0  0  0  0
 19 34  1  0  0  0  0
 20 21  1  0  0  0  0
 20 19  1  0  0  0  0
 21 54  1  0  0  0  0
 22 55  1  0  0  0  0
 22 21  2  0  0  0  0
 23 20  2  0  0  0  0
 24 25  2  0  0  0  0
 24 23  1  0  0  0  0
 25 22  1  0  0  0  0
 26 25  1  0  0  0  0
 27 26  2  0  0  0  0
 28 27  1  0  0  0  0
 29 30  1  0  0  0  0
 29 27  1  0  0  0  0
 30 24  1  0  0  0  0
 31 57  1  0  0  0  0
 31 30  1  0  0  0  0
 32 33  1  0  0  0  0
 32 31  2  0  0  0  0
 33 29  2  0  0  0  0
 34 61  1  0  0  0  0
 34 60  1  0  0  0  0
 34 59  1  0  0  0  0
 35 18  2  0  0  0  0
 36 62  1  0  0  0  0
 36 63  1  0  0  0  0
 37  1  1  0  0  0  0
 40  3  1  0  0  0  0
 41  3  1  0  0  0  0
 44  6  1  0  0  0  0
 47 11  1  0  0  0  0
 49 14  1  0  0  0  0
 50 15  1  0  0  0  0
 52 15  1  0  0  0  0
 53 17  1  0  0  0  0
 56 23  1  0  0  0  0
 58 33  1  0  0  0  0
 64 36  1  0  0  0  0
M  END
