-1 1
 OpenBabel05232414493D

 79 81  0  0  1  0  0  0  0  0999 V2000
   -5.9502   12.5598   -3.2243 C   0  0  0  0  0  0  0  0  0  0  0  0
   -4.5936   11.9158   -3.1835 C   0  0  0  0  0  0  0  0  0  0  0  0
   -4.3499   10.6865   -3.8357 C   0  0  0  0  0  0  0  0  0  0  0  0
   -5.4083   10.1147   -4.5461 N   0  0  0  0  0  0  0  0  0  0  0  0
   -5.4965    8.8115   -5.0363 C   0  0  0  0  0  0  0  0  0  0  0  0
   -5.9806    8.6593   -6.2234 N   0  0  0  0  0  0  0  0  0  0  0  0
   -6.1701    7.3827   -6.7227 C   0  0  0  0  0  0  0  0  0  0  0  0
   -5.8435    6.2121   -6.0044 C   0  0  0  0  0  0  0  0  0  0  0  0
   -6.0170    4.9377   -6.5230 C   0  0  0  0  0  0  0  0  0  0  0  0
   -6.5586    4.7588   -7.8125 C   0  0  0  0  0  0  0  0  0  0  0  0
   -6.7957    3.5100   -8.3415 N   0  0  0  0  0  0  0  0  0  0  0  0
   -6.4754    2.3038   -7.5958 C   0  0  0  0  0  0  0  0  0  0  0  0
   -5.4077    2.2608   -6.9842 O   0  0  0  0  0  0  0  0  0  0  0  0
   -7.4715    1.2894   -7.6110 C   0  0  0  0  0  3  0  0  0  0  0  0
   -7.2992    0.1246   -6.8475 C   0  0  0  0  0  3  0  0  0  0  0  0
   -7.7613    0.4877   -4.6456 S   0  0  0  0  0  1  0  0  0  0  0  0
   -7.9974    2.2696   -4.7113 C   0  0  0  0  0  0  0  0  0  0  0  0
   -9.4235    2.7962   -4.4513 C   0  0  2  0  0  0  0  0  0  0  0  0
  -10.1146    2.2207   -5.0877 H   0  0  0  0  0  0  0  0  0  0  0  0
   -9.5291    4.1938   -4.7919 N   0  0  0  0  0  0  0  0  0  0  0  0
   -9.6863    4.6412   -6.0597 C   0  0  0  0  0  0  0  0  0  0  0  0
   -9.7399    6.1494   -6.1957 C   0  0  0  0  0  0  0  0  0  0  0  0
   -9.7485    3.8984   -7.0273 O   0  0  0  0  0  0  0  0  0  0  0  0
   -9.8772    2.6581   -2.9936 C   0  0  0  0  0  0  0  0  0  0  0  0
   -9.9660    1.3845   -2.5532 N   0  0  0  0  0  0  0  0  0  0  0  0
  -10.2364    1.0655   -1.1762 C   0  0  0  0  0  0  0  0  0  0  0  0
  -10.1396    3.6388   -2.3093 O   0  0  0  0  0  0  0  0  0  0  0  0
   -8.1094   -1.1173   -7.1599 C   0  0  0  0  0  0  0  0  0  0  0  0
   -9.4240   -0.9039   -7.7352 N   0  0  0  0  0  0  0  0  0  0  0  0
   -9.9729   -2.1219   -8.2680 C   0  0  0  0  0  0  0  0  0  0  0  0
  -10.3628   -0.2165   -6.8782 C   0  0  0  0  0  0  0  0  0  0  0  0
   -7.6069    3.4064   -9.5354 C   0  0  0  0  0  0  0  0  0  0  0  0
   -6.9053    5.9345   -8.5344 C   0  0  0  0  0  0  0  0  0  0  0  0
   -6.7036    7.1956   -8.0060 C   0  0  0  0  0  0  0  0  0  0  0  0
   -5.1711    7.6894   -4.1827 C   0  0  0  0  0  0  0  0  0  0  0  0
   -5.3451    6.4175   -4.7082 N   0  0  0  0  0  0  0  0  0  0  0  0
   -5.0255    5.5389   -3.7209 C   0  0  0  0  0  0  0  0  0  0  0  0
   -4.6644    6.1583   -2.6164 N   0  0  0  0  0  0  0  0  0  0  0  0
   -4.7512    7.4864   -2.8780 C   0  0  0  0  0  0  0  0  0  0  0  0
   -3.0787   10.0969   -3.7723 C   0  0  0  0  0  0  0  0  0  0  0  0
   -2.0607   10.7046   -3.0456 C   0  0  0  0  0  0  0  0  0  0  0  0
   -2.2737   11.9178   -2.3967 C   0  0  0  0  0  0  0  0  0  0  0  0
   -3.5326   12.4960   -2.4921 C   0  0  0  0  0  0  0  0  0  0  0  0
   -3.7405   13.6669   -1.8698 F   0  0  0  0  0  0  0  0  0  0  0  0
   -6.7321   11.8177   -3.0023 H   0  0  0  0  0  0  0  0  0  0  0  0
   -6.1717   12.9801   -4.2205 H   0  0  0  0  0  0  0  0  0  0  0  0
   -6.0204   13.3794   -2.4995 H   0  0  0  0  0  0  0  0  0  0  0  0
   -5.9432   10.7520   -5.1266 H   0  0  0  0  0  0  0  0  0  0  0  0
   -5.7138    4.0600   -5.9587 H   0  0  0  0  0  0  0  0  0  0  0  0
   -8.4396    1.4847   -8.0685 H   0  0  0  0  0  0  0  0  0  0  0  0
   -6.2614   -0.1066   -6.5959 H   0  0  0  0  0  0  0  0  0  0  0  0
   -7.7687    2.5624   -5.7521 H   0  0  0  0  0  0  0  0  0  0  0  0
   -7.2888    2.7916   -4.0490 H   0  0  0  0  0  0  0  0  0  0  0  0
   -9.6127    4.8181   -3.9957 H   0  0  0  0  0  0  0  0  0  0  0  0
   -8.7136    6.5328   -6.2966 H   0  0  0  0  0  0  0  0  0  0  0  0
  -10.2077    6.6337   -5.3263 H   0  0  0  0  0  0  0  0  0  0  0  0
  -10.2895    6.4053   -7.1095 H   0  0  0  0  0  0  0  0  0  0  0  0
   -9.5421    0.6741   -3.1596 H   0  0  0  0  0  0  0  0  0  0  0  0
  -10.6329    1.9634   -0.6850 H   0  0  0  0  0  0  0  0  0  0  0  0
   -9.3241    0.7501   -0.6424 H   0  0  0  0  0  0  0  0  0  0  0  0
  -10.9796    0.2565   -1.1006 H   0  0  0  0  0  0  0  0  0  0  0  0
   -8.1572   -1.7694   -6.2575 H   0  0  0  0  0  0  0  0  0  0  0  0
   -7.5241   -1.6771   -7.9126 H   0  0  0  0  0  0  0  0  0  0  0  0
  -10.9243   -1.9166   -8.7849 H   0  0  0  0  0  0  0  0  0  0  0  0
  -10.1773   -2.8957   -7.4885 H   0  0  0  0  0  0  0  0  0  0  0  0
   -9.2809   -2.5673   -9.0010 H   0  0  0  0  0  0  0  0  0  0  0  0
   -9.9730    0.7694   -6.5978 H   0  0  0  0  0  0  0  0  0  0  0  0
  -10.5862   -0.7723   -5.9401 H   0  0  0  0  0  0  0  0  0  0  0  0
  -11.3074   -0.0631   -7.4245 H   0  0  0  0  0  0  0  0  0  0  0  0
   -7.1550    3.9700  -10.3688 H   0  0  0  0  0  0  0  0  0  0  0  0
   -8.6335    3.7693   -9.3574 H   0  0  0  0  0  0  0  0  0  0  0  0
   -7.6503    2.3557   -9.8393 H   0  0  0  0  0  0  0  0  0  0  0  0
   -7.3491    5.8568   -9.5245 H   0  0  0  0  0  0  0  0  0  0  0  0
   -6.9727    8.0862   -8.5774 H   0  0  0  0  0  0  0  0  0  0  0  0
   -5.0792    4.4608   -3.8606 H   0  0  0  0  0  0  0  0  0  0  0  0
   -4.5078    8.2428   -2.1347 H   0  0  0  0  0  0  0  0  0  0  0  0
   -2.8905    9.1598   -4.2952 H   0  0  0  0  0  0  0  0  0  0  0  0
   -1.0787   10.2295   -2.9983 H   0  0  0  0  0  0  0  0  0  0  0  0
   -1.4914   12.4221   -1.8286 H   0  0  0  0  0  0  0  0  0  0  0  0
  1  2  1  0  0  0  0
  1 45  1  0  0  0  0
  1 47  1  0  0  0  0
  2 43  1  0  0  0  0
  3 40  1  0  0  0  0
  3  2  2  0  0  0  0
  4  3  1  0  0  0  0
  5  4  1  0  0  0  0
  5 35  1  0  0  0  0
  6  5  2  0  0  0  0
  7  6  1  0  0  0  0
  7  8  1  0  0  0  0
  8 36  1  0  0  0  0
  9  8  2  0  0  0  0
  9 49  1  0  0  0  0
 10  9  1  0  0  0  0
 11 10  1  0  0  0  0
 11 12  1  0  0  0  0
 12 13  2  0  0  0  0
 14 12  1  0  0  0  0
 14 15  1  0  0  0  0
 15 51  1  0  0  0  0
 17 16  1  0  0  0  0
 17 18  1  0  0  0  0
 17 53  1  0  0  0  0
 18 19  1  6  0  0  0
 18 24  1  0  0  0  0
 20 18  1  0  0  0  0
 20 54  1  0  0  0  0
 21 20  1  0  0  0  0
 22 21  1  0  0  0  0
 22 56  1  0  0  0  0
 23 21  2  0  0  0  0
 24 25  1  0  0  0  0
 24 27  2  0  0  0  0
 25 26  1  0  0  0  0
 26 61  1  0  0  0  0
 26 59  1  0  0  0  0
 26 60  1  0  0  0  0
 28 15  1  0  0  0  0
 28 62  1  0  0  0  0
 29 28  1  0  0  0  0
 29 31  1  0  0  0  0
 30 29  1  0  0  0  0
 30 65  1  0  0  0  0
 31 67  1  0  0  0  0
 31 68  1  0  0  0  0
 32 71  1  0  0  0  0
 32 11  1  0  0  0  0
 33 34  1  0  0  0  0
 33 10  2  0  0  0  0
 34  7  2  0  0  0  0
 35 39  2  0  0  0  0
 36 35  1  0  0  0  0
 36 37  1  0  0  0  0
 37 38  2  0  0  0  0
 39 38  1  0  0  0  0
 39 76  1  0  0  0  0
 40 41  2  0  0  0  0
 41 78  1  0  0  0  0
 41 42  1  0  0  0  0
 42 79  1  0  0  0  0
 43 42  2  0  0  0  0
 43 44  1  0  0  0  0
 46  1  1  0  0  0  0
 48  4  1  0  0  0  0
 50 14  1  0  0  0  0
 52 17  1  0  0  0  0
 55 22  1  0  0  0  0
 57 22  1  0  0  0  0
 58 25  1  0  0  0  0
 63 28  1  0  0  0  0
 64 30  1  0  0  0  0
 66 30  1  0  0  0  0
 69 31  1  0  0  0  0
 70 32  1  0  0  0  0
 72 32  1  0  0  0  0
 73 33  1  0  0  0  0
 74 34  1  0  0  0  0
 75 37  1  0  0  0  0
 77 40  1  0  0  0  0
M  END
