79
-1 1
C         1.633197    7.566390    1.406900
C         2.616660    6.585126    1.978540
C         2.708055    5.267688    1.483061
N         1.877507    4.921949    0.407820
C         1.477914    3.656128    0.009995
N         1.352825    3.456637   -1.262389
C         0.907789    2.227267   -1.714604
C         0.586457    1.156356   -0.851580
C         0.191238   -0.085028   -1.340488
C         0.092162   -0.287789   -2.717135
N        -0.357263   -1.529625   -3.221640
C         0.201645   -2.700440   -2.709748
O         1.217451   -2.661844   -2.040530
C        -0.536443   -3.956267   -2.985552
C        -0.228881   -5.065827   -2.304437
S        -0.997386   -5.033150    1.158683
C        -1.109418   -3.289056    0.625149
C        -2.379618   -2.552991    1.097043
H        -3.234962   -3.221952    0.897409
N        -2.580657   -1.287879    0.415554
C        -3.056120   -1.169226   -0.838837
C        -3.285259    0.255337   -1.313288
O        -3.273293   -2.121080   -1.578131
C        -2.348014   -2.201209    2.593206
N        -2.133263   -3.238790    3.412643
C        -1.935756   -3.070602    4.827072
O        -2.500948   -1.036655    2.964862
C        -0.990929   -6.351506   -2.393066
N        -2.286465   -6.236647   -3.038794
C        -2.753345   -7.496259   -3.558787
C        -3.276642   -5.611854   -2.176250
C        -1.496537   -1.543127   -4.132471
C         0.399592    0.770072   -3.588823
C         0.794543    2.001786   -3.094784
C         1.110084    2.660521    0.992062
N         0.663262    1.431674    0.521508
C         0.298746    0.703929    1.613227
N         0.488354    1.377646    2.727732
C         0.983677    2.585408    2.369209
C         3.624112    4.363782    2.037818
C         4.429576    4.751020    3.102990
C         4.362985    6.046537    3.609011
C         3.467039    6.932918    3.026969
F         3.404645    8.181726    3.511616
H         0.648902    7.091066    1.281459
H         1.951070    7.928689    0.414267
H         1.526366    8.442596    2.057219
H         1.865012    5.568611   -0.374210
H        -0.052259   -0.900450   -0.660855
H        -1.404363   -3.971574   -3.644263
H         0.606428   -5.039237   -1.597675
H        -1.125625   -3.243603   -0.471648
H        -0.222997   -2.717114    0.959433
H        -2.605458   -0.498017    1.060232
H        -2.530668    0.497069   -2.076380
H        -3.213090    0.999938   -0.508556
H        -4.274834    0.314415   -1.786596
H        -1.829915   -4.118075    2.940407
H        -2.199469   -2.040903    5.101612
H        -0.884831   -3.250496    5.108854
H        -2.567960   -3.769495    5.398257
H        -1.070366   -6.754546   -1.361263
H        -0.372319   -7.068008   -2.965126
H        -3.707130   -7.352605   -4.091740
H        -2.927416   -8.264954   -2.769460
H        -2.027260   -7.911695   -4.276444
H        -2.930359   -4.633394   -1.816349
H        -3.508257   -6.230134   -1.283359
H        -4.206830   -5.448222   -2.743727
H        -1.695490   -0.515695   -4.461576
H        -2.398588   -1.917669   -3.623942
H        -1.286978   -2.146625   -5.028210
H         0.342532    0.607979   -4.666923
H         1.049636    2.825350   -3.763689
H        -0.122668   -0.297865    1.542259
H         1.229670    3.351354    3.101751
H         3.699035    3.354365    1.633645
H         5.131402    4.034876    3.534648
H         4.989640    6.382106    4.435909
