-1 1
 OpenBabel05232413483D

 79 81  0  0  1  0  0  0  0  0999 V2000
    1.6332    7.5664    1.4069 C   0  0  0  0  0  0  0  0  0  0  0  0
    2.6167    6.5851    1.9785 C   0  0  0  0  0  0  0  0  0  0  0  0
    2.7081    5.2677    1.4831 C   0  0  0  0  0  0  0  0  0  0  0  0
    1.8775    4.9219    0.4078 N   0  0  0  0  0  0  0  0  0  0  0  0
    1.4779    3.6561    0.0100 C   0  0  0  0  0  0  0  0  0  0  0  0
    1.3528    3.4566   -1.2624 N   0  0  0  0  0  0  0  0  0  0  0  0
    0.9078    2.2273   -1.7146 C   0  0  0  0  0  0  0  0  0  0  0  0
    0.5865    1.1564   -0.8516 C   0  0  0  0  0  0  0  0  0  0  0  0
    0.1912   -0.0850   -1.3405 C   0  0  0  0  0  0  0  0  0  0  0  0
    0.0922   -0.2878   -2.7171 C   0  0  0  0  0  0  0  0  0  0  0  0
   -0.3573   -1.5296   -3.2216 N   0  0  0  0  0  0  0  0  0  0  0  0
    0.2016   -2.7004   -2.7097 C   0  0  0  0  0  0  0  0  0  0  0  0
    1.2175   -2.6618   -2.0405 O   0  0  0  0  0  0  0  0  0  0  0  0
   -0.5364   -3.9563   -2.9856 C   0  0  0  0  0  0  0  0  0  0  0  0
   -0.2289   -5.0658   -2.3044 C   0  0  0  0  0  0  0  0  0  0  0  0
   -0.9974   -5.0332    1.1587 S   0  0  0  0  0  1  0  0  0  0  0  0
   -1.1094   -3.2891    0.6251 C   0  0  0  0  0  0  0  0  0  0  0  0
   -2.3796   -2.5530    1.0970 C   0  0  2  0  0  0  0  0  0  0  0  0
   -3.2350   -3.2220    0.8974 H   0  0  0  0  0  0  0  0  0  0  0  0
   -2.5807   -1.2879    0.4156 N   0  0  0  0  0  0  0  0  0  0  0  0
   -3.0561   -1.1692   -0.8388 C   0  0  0  0  0  0  0  0  0  0  0  0
   -3.2853    0.2553   -1.3133 C   0  0  0  0  0  0  0  0  0  0  0  0
   -3.2733   -2.1211   -1.5781 O   0  0  0  0  0  0  0  0  0  0  0  0
   -2.3480   -2.2012    2.5932 C   0  0  0  0  0  0  0  0  0  0  0  0
   -2.1333   -3.2388    3.4126 N   0  0  0  0  0  0  0  0  0  0  0  0
   -1.9358   -3.0706    4.8271 C   0  0  0  0  0  0  0  0  0  0  0  0
   -2.5009   -1.0367    2.9649 O   0  0  0  0  0  0  0  0  0  0  0  0
   -0.9909   -6.3515   -2.3931 C   0  0  0  0  0  0  0  0  0  0  0  0
   -2.2865   -6.2366   -3.0388 N   0  0  0  0  0  0  0  0  0  0  0  0
   -2.7533   -7.4963   -3.5588 C   0  0  0  0  0  0  0  0  0  0  0  0
   -3.2766   -5.6119   -2.1763 C   0  0  0  0  0  0  0  0  0  0  0  0
   -1.4965   -1.5431   -4.1325 C   0  0  0  0  0  0  0  0  0  0  0  0
    0.3996    0.7701   -3.5888 C   0  0  0  0  0  0  0  0  0  0  0  0
    0.7945    2.0018   -3.0948 C   0  0  0  0  0  0  0  0  0  0  0  0
    1.1101    2.6605    0.9921 C   0  0  0  0  0  0  0  0  0  0  0  0
    0.6633    1.4317    0.5215 N   0  0  0  0  0  0  0  0  0  0  0  0
    0.2987    0.7039    1.6132 C   0  0  0  0  0  0  0  0  0  0  0  0
    0.4884    1.3776    2.7277 N   0  0  0  0  0  0  0  0  0  0  0  0
    0.9837    2.5854    2.3692 C   0  0  0  0  0  0  0  0  0  0  0  0
    3.6241    4.3638    2.0378 C   0  0  0  0  0  0  0  0  0  0  0  0
    4.4296    4.7510    3.1030 C   0  0  0  0  0  0  0  0  0  0  0  0
    4.3630    6.0465    3.6090 C   0  0  0  0  0  0  0  0  0  0  0  0
    3.4670    6.9329    3.0270 C   0  0  0  0  0  0  0  0  0  0  0  0
    3.4046    8.1817    3.5116 F   0  0  0  0  0  0  0  0  0  0  0  0
    0.6489    7.0911    1.2815 H   0  0  0  0  0  0  0  0  0  0  0  0
    1.9511    7.9287    0.4143 H   0  0  0  0  0  0  0  0  0  0  0  0
    1.5264    8.4426    2.0572 H   0  0  0  0  0  0  0  0  0  0  0  0
    1.8650    5.5686   -0.3742 H   0  0  0  0  0  0  0  0  0  0  0  0
   -0.0523   -0.9004   -0.6609 H   0  0  0  0  0  0  0  0  0  0  0  0
   -1.4044   -3.9716   -3.6443 H   0  0  0  0  0  0  0  0  0  0  0  0
    0.6064   -5.0392   -1.5977 H   0  0  0  0  0  0  0  0  0  0  0  0
   -1.1256   -3.2436   -0.4716 H   0  0  0  0  0  0  0  0  0  0  0  0
   -0.2230   -2.7171    0.9594 H   0  0  0  0  0  0  0  0  0  0  0  0
   -2.6055   -0.4980    1.0602 H   0  0  0  0  0  0  0  0  0  0  0  0
   -2.5307    0.4971   -2.0764 H   0  0  0  0  0  0  0  0  0  0  0  0
   -3.2131    0.9999   -0.5086 H   0  0  0  0  0  0  0  0  0  0  0  0
   -4.2748    0.3144   -1.7866 H   0  0  0  0  0  0  0  0  0  0  0  0
   -1.8299   -4.1181    2.9404 H   0  0  0  0  0  0  0  0  0  0  0  0
   -2.1995   -2.0409    5.1016 H   0  0  0  0  0  0  0  0  0  0  0  0
   -0.8848   -3.2505    5.1089 H   0  0  0  0  0  0  0  0  0  0  0  0
   -2.5680   -3.7695    5.3983 H   0  0  0  0  0  0  0  0  0  0  0  0
   -1.0704   -6.7545   -1.3613 H   0  0  0  0  0  0  0  0  0  0  0  0
   -0.3723   -7.0680   -2.9651 H   0  0  0  0  0  0  0  0  0  0  0  0
   -3.7071   -7.3526   -4.0917 H   0  0  0  0  0  0  0  0  0  0  0  0
   -2.9274   -8.2650   -2.7695 H   0  0  0  0  0  0  0  0  0  0  0  0
   -2.0273   -7.9117   -4.2764 H   0  0  0  0  0  0  0  0  0  0  0  0
   -2.9304   -4.6334   -1.8163 H   0  0  0  0  0  0  0  0  0  0  0  0
   -3.5083   -6.2301   -1.2834 H   0  0  0  0  0  0  0  0  0  0  0  0
   -4.2068   -5.4482   -2.7437 H   0  0  0  0  0  0  0  0  0  0  0  0
   -1.6955   -0.5157   -4.4616 H   0  0  0  0  0  0  0  0  0  0  0  0
   -2.3986   -1.9177   -3.6239 H   0  0  0  0  0  0  0  0  0  0  0  0
   -1.2870   -2.1466   -5.0282 H   0  0  0  0  0  0  0  0  0  0  0  0
    0.3425    0.6080   -4.6669 H   0  0  0  0  0  0  0  0  0  0  0  0
    1.0496    2.8253   -3.7637 H   0  0  0  0  0  0  0  0  0  0  0  0
   -0.1227   -0.2979    1.5423 H   0  0  0  0  0  0  0  0  0  0  0  0
    1.2297    3.3514    3.1018 H   0  0  0  0  0  0  0  0  0  0  0  0
    3.6990    3.3544    1.6336 H   0  0  0  0  0  0  0  0  0  0  0  0
    5.1314    4.0349    3.5346 H   0  0  0  0  0  0  0  0  0  0  0  0
    4.9896    6.3821    4.4359 H   0  0  0  0  0  0  0  0  0  0  0  0
  1  2  1  0  0  0  0
  1 47  1  0  0  0  0
  2 43  1  0  0  0  0
  3  2  2  0  0  0  0
  3 40  1  0  0  0  0
  4  3  1  0  0  0  0
  5  4  1  0  0  0  0
  5 35  1  0  0  0  0
  6  5  2  0  0  0  0
  7  6  1  0  0  0  0
  7  8  1  0  0  0  0
  8 36  1  0  0  0  0
  9  8  2  0  0  0  0
  9 49  1  0  0  0  0
 10  9  1  0  0  0  0
 11 10  1  0  0  0  0
 11 12  1  0  0  0  0
 12 13  2  0  0  0  0
 14 12  1  0  0  0  0
 14 15  2  0  0  0  0
 15 51  1  0  0  0  0
 17 53  1  0  0  0  0
 17 18  1  0  0  0  0
 17 16  1  0  0  0  0
 18 19  1  6  0  0  0
 18 24  1  0  0  0  0
 20 54  1  0  0  0  0
 20 18  1  0  0  0  0
 21 20  1  0  0  0  0
 22 21  1  0  0  0  0
 22 56  1  0  0  0  0
 23 21  2  0  0  0  0
 24 27  2  0  0  0  0
 24 25  1  0  0  0  0
 25 26  1  0  0  0  0
 26 59  1  0  0  0  0
 26 60  1  0  0  0  0
 26 61  1  0  0  0  0
 28 15  1  0  0  0  0
 28 62  1  0  0  0  0
 29 28  1  0  0  0  0
 29 31  1  0  0  0  0
 30 29  1  0  0  0  0
 30 65  1  0  0  0  0
 31 67  1  0  0  0  0
 31 68  1  0  0  0  0
 32 71  1  0  0  0  0
 32 11  1  0  0  0  0
 33 34  1  0  0  0  0
 33 10  2  0  0  0  0
 34  7  2  0  0  0  0
 35 39  2  0  0  0  0
 36 35  1  0  0  0  0
 36 37  1  0  0  0  0
 37 38  2  0  0  0  0
 39 38  1  0  0  0  0
 39 76  1  0  0  0  0
 40 41  2  0  0  0  0
 41 78  1  0  0  0  0
 41 42  1  0  0  0  0
 42 79  1  0  0  0  0
 43 44  1  0  0  0  0
 43 42  2  0  0  0  0
 45  1  1  0  0  0  0
 46  1  1  0  0  0  0
 48  4  1  0  0  0  0
 50 14  1  0  0  0  0
 52 17  1  0  0  0  0
 55 22  1  0  0  0  0
 57 22  1  0  0  0  0
 58 25  1  0  0  0  0
 63 28  1  0  0  0  0
 64 30  1  0  0  0  0
 66 30  1  0  0  0  0
 69 31  1  0  0  0  0
 70 32  1  0  0  0  0
 72 32  1  0  0  0  0
 73 33  1  0  0  0  0
 74 34  1  0  0  0  0
 75 37  1  0  0  0  0
 77 40  1  0  0  0  0
M  END
