79
-1 1
C         3.424361   -4.686156    1.238179
C         4.093434   -3.582502    2.004210
C         4.317699   -2.325542    1.406133
N         3.924389   -2.068025    0.081733
C         2.593680   -1.976326   -0.305743
N         1.642205   -2.292340    0.502983
C         0.328449   -2.187248    0.071928
C        -0.026102   -1.728249   -1.210025
C        -1.357537   -1.641743   -1.613506
C        -2.379888   -1.942723   -0.715957
N        -3.728766   -1.839637   -1.100744
C        -4.263942   -0.790102   -1.840346
O        -5.396267   -0.863842   -2.286681
C        -3.423696    0.424719   -2.029723
C        -3.731519    1.309676   -2.981688
S        -3.506035    0.574316    1.720896
C        -1.732060    0.948849    1.461756
C        -1.439370    2.289732    0.755066
H        -2.084755    2.358098   -0.136480
N        -0.059183    2.386883    0.319732
C         0.400000    1.886918   -0.839776
C         1.886067    2.075458   -1.085911
O        -0.296370    1.269893   -1.639475
C        -1.703951    3.528635    1.615687
N        -2.942310    3.594164    2.135428
C        -3.337476    4.633161    3.045921
O        -0.838912    4.389150    1.780600
C        -2.981196    2.605343   -3.172047
N        -2.854311    3.372393   -1.952813
C        -1.868661    4.417610   -2.026582
C        -4.107415    3.802629   -1.384525
C        -4.670964   -2.792675   -0.543728
C        -2.040378   -2.402563    0.572701
C        -0.717266   -2.529052    0.946197
C         2.350789   -1.500881   -1.648470
N         1.035618   -1.375196   -2.053724
C         1.063076   -0.837619   -3.299568
N         2.294735   -0.635758   -3.719297
C         3.108747   -1.041314   -2.711136
C         4.993386   -1.340519    2.142886
Cl         5.296802    0.218754    1.400571
C         5.433970   -1.557865    3.443399
C         5.183121   -2.790504    4.035697
C         4.522882   -3.784492    3.318324
H         3.761734   -4.691524    0.191014
H         2.336635   -4.523330    1.220725
H         3.638683   -5.664786    1.689323
H         4.538907   -1.440098   -0.422856
H        -1.601870   -1.307828   -2.620172
H        -2.584398    0.613097   -1.358761
H        -4.580352    1.090497   -3.638430
H        -1.284014    0.176623    0.818182
H        -1.175070    0.921651    2.415202
H         0.500302    3.047881    0.850681
H         2.428548    1.232664   -0.629505
H         2.273844    3.007977   -0.650607
H         2.076508    2.052182   -2.166263
H        -3.496347    2.712739    2.068180
H        -2.613079    5.455874    2.979669
H        -3.363550    4.275324    4.089760
H        -4.339581    5.013120    2.791161
H        -3.464802    3.198318   -3.984927
H        -1.959579    2.367269   -3.513323
H        -1.681546    4.831233   -1.022555
H        -0.918852    4.004203   -2.398509
H        -2.164560    5.259362   -2.697498
H        -3.928685    4.244163   -0.392277
H        -4.770393    2.937865   -1.238094
H        -4.634689    4.555270   -2.018168
H        -4.971877   -2.496274    0.474987
H        -4.220717   -3.795185   -0.515614
H        -5.559484   -2.803587   -1.183961
H        -2.826846   -2.597194    1.299134
H        -0.450674   -2.854120    1.952886
H         0.156725   -0.581266   -3.840983
H         4.194091   -0.988162   -2.789899
H         5.951830   -0.762396    3.979978
H         5.510847   -2.976779    5.060328
H         4.343905   -4.756900    3.783566
