-1 1
 OpenBabel05192410563D

 79 82  0  0  1  0  0  0  0  0999 V2000
    3.6218    4.2157   -1.4207 C   0  0  0  0  0  0  0  0  0  0  0  0
    3.7708    4.9866   -0.1384 C   0  0  0  0  0  0  0  0  0  0  0  0
    3.9838    4.3332    1.0932 C   0  0  0  0  0  0  0  0  0  0  0  0
    4.0677    2.9236    1.1806 N   0  0  0  0  0  0  0  0  0  0  0  0
    3.1282    2.0193    0.7237 C   0  0  0  0  0  0  0  0  0  0  0  0
    3.5501    0.8469    0.3750 N   0  0  0  0  0  0  0  0  0  0  0  0
    2.6313   -0.1084   -0.0238 C   0  0  0  0  0  0  0  0  0  0  0  0
    1.2433    0.1360   -0.1036 C   0  0  0  0  0  0  0  0  0  0  0  0
    0.3478   -0.8556   -0.4970 C   0  0  0  0  0  0  0  0  0  0  0  0
    0.8061   -2.1325   -0.8347 C   0  0  0  0  0  0  0  0  0  0  0  0
   -0.0875   -3.1343   -1.2439 N   0  0  0  0  0  0  0  0  0  0  0  0
   -1.2334   -3.4439   -0.4437 C   0  0  0  0  0  0  0  0  0  0  0  0
   -1.2395   -2.9967    0.7321 O   0  0  0  0  0  0  0  0  0  0  0  0
   -2.2467   -4.1982   -1.0391 C   0  0  0  0  0  3  0  0  0  0  0  0
   -3.3438   -4.7810   -0.2304 C   0  0  1  0  0  0  0  0  0  0  0  0
   -4.9755   -3.7906   -0.1436 S   0  0  0  0  0  0  0  0  0  0  0  0
   -4.4608   -2.4428    0.9641 C   0  0  0  0  0  0  0  0  0  0  0  0
   -4.1339   -1.0906    0.3040 C   0  0  2  0  0  0  0  0  0  0  0  0
   -5.0597   -0.5570    0.0375 H   0  0  0  0  0  0  0  0  0  0  0  0
   -3.3253   -1.2891   -0.8733 N   0  0  0  0  0  0  0  0  0  0  0  0
   -2.9046   -0.2782   -1.6570 C   0  0  0  0  0  0  0  0  0  0  0  0
   -2.1611   -0.7085   -2.9095 C   0  0  0  0  0  0  0  0  0  0  0  0
   -3.0978    0.9024   -1.3961 O   0  0  0  0  0  0  0  0  0  0  0  0
   -3.4669   -0.2144    1.3835 C   0  0  0  0  0  0  0  0  0  0  0  0
   -2.1702   -0.5171    1.6295 N   0  0  0  0  0  0  0  0  0  0  0  0
   -1.4532    0.1321    2.6952 C   0  0  0  0  0  0  0  0  0  0  0  0
   -4.1034    0.6248    1.9955 O   0  0  0  0  0  0  0  0  0  0  0  0
   -3.6966   -6.2437   -0.5841 C   0  0  0  0  0  0  0  0  0  0  0  0
   -3.9071   -6.6313   -1.9640 N   0  0  0  0  0  0  0  0  0  0  0  0
   -4.9622   -5.9599   -2.6748 C   0  0  0  0  0  0  0  0  0  0  0  0
   -2.7688   -6.9596   -2.7789 C   0  0  0  0  0  0  0  0  0  0  0  0
    0.2037   -3.9059   -2.4285 C   0  0  0  0  0  0  0  0  0  0  0  0
    2.1920   -2.3790   -0.7711 C   0  0  0  0  0  0  0  0  0  0  0  0
    3.0776   -1.3909   -0.3790 C   0  0  0  0  0  0  0  0  0  0  0  0
    1.7306    2.3882    0.6891 C   0  0  0  0  0  0  0  0  0  0  0  0
    0.8283    1.4374    0.2254 N   0  0  0  0  0  0  0  0  0  0  0  0
   -0.4014    2.0245    0.2321 C   0  0  0  0  0  0  0  0  0  0  0  0
   -0.3379    3.2640    0.6752 N   0  0  0  0  0  0  0  0  0  0  0  0
    0.9620    3.5069    0.9677 C   0  0  0  0  0  0  0  0  0  0  0  0
    4.1434    5.0822    2.2621 C   0  0  0  0  0  0  0  0  0  0  0  0
    4.0894    6.4719    2.2459 C   0  0  0  0  0  0  0  0  0  0  0  0
    3.8549    7.1079    1.0316 C   0  0  0  0  0  0  0  0  0  0  0  0
    3.7682    8.8563    0.9775 Cl  0  0  0  0  0  0  0  0  0  0  0  0
    3.6951    6.3824   -0.1446 C   0  0  0  0  0  0  0  0  0  0  0  0
    4.3112    3.3603   -1.4542 H   0  0  0  0  0  0  0  0  0  0  0  0
    3.8119    4.8588   -2.2904 H   0  0  0  0  0  0  0  0  0  0  0  0
    2.6022    3.8095   -1.5130 H   0  0  0  0  0  0  0  0  0  0  0  0
    4.9926    2.5123    1.2476 H   0  0  0  0  0  0  0  0  0  0  0  0
   -0.7177   -0.6453   -0.5194 H   0  0  0  0  0  0  0  0  0  0  0  0
   -2.1945   -4.4650   -2.0916 H   0  0  0  0  0  0  0  0  0  0  0  0
   -3.0384   -4.7807    0.8273 H   0  0  0  0  0  0  0  0  0  0  0  0
   -3.5670   -2.8036    1.4929 H   0  0  0  0  0  0  0  0  0  0  0  0
   -5.2561   -2.2796    1.7039 H   0  0  0  0  0  0  0  0  0  0  0  0
   -3.0785   -2.2533   -1.1272 H   0  0  0  0  0  0  0  0  0  0  0  0
   -1.3049   -0.0373   -3.0588 H   0  0  0  0  0  0  0  0  0  0  0  0
   -2.8338   -0.5987   -3.7734 H   0  0  0  0  0  0  0  0  0  0  0  0
   -1.8128   -1.7486   -2.8527 H   0  0  0  0  0  0  0  0  0  0  0  0
   -1.7846   -1.3992    1.2501 H   0  0  0  0  0  0  0  0  0  0  0  0
   -0.3738   -0.0130    2.5434 H   0  0  0  0  0  0  0  0  0  0  0  0
   -1.7216   -0.2675    3.6901 H   0  0  0  0  0  0  0  0  0  0  0  0
   -1.6744    1.2088    2.6961 H   0  0  0  0  0  0  0  0  0  0  0  0
   -4.5949   -6.5319   -0.0078 H   0  0  0  0  0  0  0  0  0  0  0  0
   -2.8652   -6.8589   -0.2024 H   0  0  0  0  0  0  0  0  0  0  0  0
   -5.8569   -5.8779   -2.0384 H   0  0  0  0  0  0  0  0  0  0  0  0
   -5.2385   -6.5414   -3.5721 H   0  0  0  0  0  0  0  0  0  0  0  0
   -4.6997   -4.9320   -3.0055 H   0  0  0  0  0  0  0  0  0  0  0  0
   -3.0580   -7.6943   -3.5544 H   0  0  0  0  0  0  0  0  0  0  0  0
   -1.9807   -7.4151   -2.1613 H   0  0  0  0  0  0  0  0  0  0  0  0
   -2.3096   -6.0971   -3.3084 H   0  0  0  0  0  0  0  0  0  0  0  0
   -0.5132   -3.6985   -3.2458 H   0  0  0  0  0  0  0  0  0  0  0  0
    0.1631   -4.9888   -2.2248 H   0  0  0  0  0  0  0  0  0  0  0  0
    1.2024   -3.6517   -2.8064 H   0  0  0  0  0  0  0  0  0  0  0  0
    2.5666   -3.3775   -1.0052 H   0  0  0  0  0  0  0  0  0  0  0  0
    4.1496   -1.5866   -0.3139 H   0  0  0  0  0  0  0  0  0  0  0  0
   -1.3110    1.5215   -0.1037 H   0  0  0  0  0  0  0  0  0  0  0  0
    1.2955    4.4679    1.3540 H   0  0  0  0  0  0  0  0  0  0  0  0
    4.2949    4.5474    3.2014 H   0  0  0  0  0  0  0  0  0  0  0  0
    4.2109    7.0514    3.1614 H   0  0  0  0  0  0  0  0  0  0  0  0
    3.5229    6.9118   -1.0834 H   0  0  0  0  0  0  0  0  0  0  0  0
  1  2  1  0  0  0  0
  2  3  1  0  0  0  0
  3  4  1  0  0  0  0
  3 40  2  0  0  0  0
  4 48  1  0  0  0  0
  5  4  1  0  0  0  0
  6  5  2  0  0  0  0
  7  6  1  0  0  0  0
  8  7  1  0  0  0  0
  8 36  1  0  0  0  0
  9  8  2  0  0  0  0
 10 33  2  0  0  0  0
 10  9  1  0  0  0  0
 11 10  1  0  0  0  0
 11 12  1  0  0  0  0
 12 13  2  0  0  0  0
 14 12  1  0  0  0  0
 14 15  1  0  0  0  0
 15 16  1  0  0  0  0
 15 51  1  1  0  0  0
 16 17  1  0  0  0  0
 17 52  1  0  0  0  0
 17 53  1  0  0  0  0
 18 19  1  6  0  0  0
 18 17  1  0  0  0  0
 18 24  1  0  0  0  0
 20 18  1  0  0  0  0
 21 23  2  0  0  0  0
 21 20  1  0  0  0  0
 22 57  1  0  0  0  0
 22 21  1  0  0  0  0
 24 25  1  0  0  0  0
 24 27  2  0  0  0  0
 25 26  1  0  0  0  0
 26 61  1  0  0  0  0
 26 60  1  0  0  0  0
 28 15  1  0  0  0  0
 28 63  1  0  0  0  0
 28 62  1  0  0  0  0
 29 28  1  0  0  0  0
 30 64  1  0  0  0  0
 30 29  1  0  0  0  0
 31 68  1  0  0  0  0
 31 29  1  0  0  0  0
 32 71  1  0  0  0  0
 32 11  1  0  0  0  0
 33 34  1  0  0  0  0
 34 74  1  0  0  0  0
 34  7  2  0  0  0  0
 35  5  1  0  0  0  0
 35 39  2  0  0  0  0
 36 37  1  0  0  0  0
 36 35  1  0  0  0  0
 37 38  2  0  0  0  0
 38 39  1  0  0  0  0
 39 76  1  0  0  0  0
 40 77  1  0  0  0  0
 41 40  1  0  0  0  0
 41 78  1  0  0  0  0
 42 41  2  0  0  0  0
 43 42  1  0  0  0  0
 44  2  2  0  0  0  0
 44 42  1  0  0  0  0
 45  1  1  0  0  0  0
 46  1  1  0  0  0  0
 47  1  1  0  0  0  0
 49  9  1  0  0  0  0
 50 14  1  0  0  0  0
 54 20  1  0  0  0  0
 55 22  1  0  0  0  0
 56 22  1  0  0  0  0
 58 25  1  0  0  0  0
 59 26  1  0  0  0  0
 65 30  1  0  0  0  0
 66 30  1  0  0  0  0
 67 31  1  0  0  0  0
 69 31  1  0  0  0  0
 70 32  1  0  0  0  0
 72 32  1  0  0  0  0
 73 33  1  0  0  0  0
 75 37  1  0  0  0  0
 79 44  1  0  0  0  0
M  END
