-1 1
 OpenBabel05232414493D

 79 81  0  0  1  0  0  0  0  0999 V2000
   13.8418   16.9492   -7.1441 C   0  0  0  0  0  0  0  0  0  0  0  0
   13.8573   17.7054   -5.8447 C   0  0  0  0  0  0  0  0  0  0  0  0
   13.8599   17.0375   -4.6021 C   0  0  0  0  0  0  0  0  0  0  0  0
   13.8348   15.6286   -4.5193 N   0  0  0  0  0  0  0  0  0  0  0  0
   12.9114   14.7813   -5.1004 C   0  0  0  0  0  0  0  0  0  0  0  0
   13.2774   13.5610   -5.3253 N   0  0  0  0  0  0  0  0  0  0  0  0
   12.3700   12.6689   -5.8726 C   0  0  0  0  0  0  0  0  0  0  0  0
   11.0675   13.0422   -6.2515 C   0  0  0  0  0  0  0  0  0  0  0  0
   10.1834   12.1392   -6.8408 C   0  0  0  0  0  0  0  0  0  0  0  0
   10.5795   10.8220   -7.0517 C   0  0  0  0  0  0  0  0  0  0  0  0
    9.6819    9.9133   -7.6565 N   0  0  0  0  0  0  0  0  0  0  0  0
    9.1749    8.8813   -6.8203 C   0  0  0  0  0  0  0  0  0  0  0  0
    9.7650    8.6428   -5.7688 O   0  0  0  0  0  0  0  0  0  0  0  0
    7.9746    8.1991   -7.2468 C   0  0  0  0  0  3  0  0  0  0  0  0
    7.3400    7.3391   -6.3480 C   0  0  0  0  0  3  0  0  0  0  0  0
    5.8208    8.4787   -4.9267 S   0  0  0  0  0  1  0  0  0  0  0  0
    6.4728   10.1535   -5.0955 C   0  0  0  0  0  0  0  0  0  0  0  0
    5.6486   11.0634   -6.0271 C   0  0  2  0  0  0  0  0  0  0  0  0
    4.6029   11.0971   -5.6754 H   0  0  0  0  0  0  0  0  0  0  0  0
    5.6845   10.5387   -7.3602 N   0  0  0  0  0  0  0  0  0  0  0  0
    4.9595   11.0805   -8.3617 C   0  0  0  0  0  0  0  0  0  0  0  0
    5.1516   10.4406   -9.7240 C   0  0  0  0  0  0  0  0  0  0  0  0
    4.2082   12.0283   -8.1945 O   0  0  0  0  0  0  0  0  0  0  0  0
    6.2085   12.4907   -5.9979 C   0  0  0  0  0  0  0  0  0  0  0  0
    5.6879   13.2765   -5.0283 N   0  0  0  0  0  0  0  0  0  0  0  0
    6.1400   14.6281   -4.8028 C   0  0  0  0  0  0  0  0  0  0  0  0
    7.0949   12.8817   -6.7448 O   0  0  0  0  0  0  0  0  0  0  0  0
    6.4630    6.1760   -6.7798 C   0  0  0  0  0  0  0  0  0  0  0  0
    5.6248    6.2619   -7.9535 N   0  0  0  0  0  0  0  0  0  0  0  0
    4.4370    7.0707   -7.8767 C   0  0  0  0  0  0  0  0  0  0  0  0
    6.2435    6.2273   -9.2476 C   0  0  0  0  0  0  0  0  0  0  0  0
    8.9254   10.4068   -8.7920 C   0  0  0  0  0  0  0  0  0  0  0  0
   11.8668   10.4185   -6.6492 C   0  0  0  0  0  0  0  0  0  0  0  0
   12.7399   11.3264   -6.0793 C   0  0  0  0  0  0  0  0  0  0  0  0
   11.5710   15.2587   -5.3721 C   0  0  0  0  0  0  0  0  0  0  0  0
   10.6941   14.3637   -5.9635 N   0  0  0  0  0  0  0  0  0  0  0  0
    9.4984   14.9974   -6.0858 C   0  0  0  0  0  0  0  0  0  0  0  0
    9.5567   16.2290   -5.6149 N   0  0  0  0  0  0  0  0  0  0  0  0
   10.8247   16.4114   -5.1693 C   0  0  0  0  0  0  0  0  0  0  0  0
   13.9161   17.7743   -3.4151 C   0  0  0  0  0  0  0  0  0  0  0  0
   13.9584   19.1641   -3.4250 C   0  0  0  0  0  0  0  0  0  0  0  0
   13.9251   19.8160   -4.6531 C   0  0  0  0  0  0  0  0  0  0  0  0
   13.9596   21.5667   -4.7010 Cl  0  0  0  0  0  0  0  0  0  0  0  0
   13.8739   19.1034   -5.8466 C   0  0  0  0  0  0  0  0  0  0  0  0
   14.4645   16.0454   -7.0847 H   0  0  0  0  0  0  0  0  0  0  0  0
   14.2070   17.5773   -7.9679 H   0  0  0  0  0  0  0  0  0  0  0  0
   12.8208   16.6199   -7.3927 H   0  0  0  0  0  0  0  0  0  0  0  0
   14.6820   15.1498   -4.2345 H   0  0  0  0  0  0  0  0  0  0  0  0
    9.1611   12.4378   -7.0787 H   0  0  0  0  0  0  0  0  0  0  0  0
    7.5474    8.3759   -8.2322 H   0  0  0  0  0  0  0  0  0  0  0  0
    7.9504    7.0954   -5.4748 H   0  0  0  0  0  0  0  0  0  0  0  0
    7.4988   10.1017   -5.5008 H   0  0  0  0  0  0  0  0  0  0  0  0
    6.5468   10.6303   -4.1067 H   0  0  0  0  0  0  0  0  0  0  0  0
    6.2806    9.7265   -7.5070 H   0  0  0  0  0  0  0  0  0  0  0  0
    5.5355   11.2057  -10.4140 H   0  0  0  0  0  0  0  0  0  0  0  0
    4.1744   10.1080  -10.1014 H   0  0  0  0  0  0  0  0  0  0  0  0
    5.8419    9.5859   -9.7096 H   0  0  0  0  0  0  0  0  0  0  0  0
    4.9327   12.9041   -4.4704 H   0  0  0  0  0  0  0  0  0  0  0  0
    7.1298   14.6628   -4.3198 H   0  0  0  0  0  0  0  0  0  0  0  0
    5.4186   15.1499   -4.1607 H   0  0  0  0  0  0  0  0  0  0  0  0
    6.2183   15.1705   -5.7564 H   0  0  0  0  0  0  0  0  0  0  0  0
    5.8266    5.8811   -5.9287 H   0  0  0  0  0  0  0  0  0  0  0  0
    7.1613    5.3315   -6.9434 H   0  0  0  0  0  0  0  0  0  0  0  0
    3.9541    6.9423   -6.8978 H   0  0  0  0  0  0  0  0  0  0  0  0
    3.7269    6.7593   -8.6649 H   0  0  0  0  0  0  0  0  0  0  0  0
    4.6153    8.1580   -7.9901 H   0  0  0  0  0  0  0  0  0  0  0  0
    5.5513    5.7865   -9.9902 H   0  0  0  0  0  0  0  0  0  0  0  0
    7.1505    5.6048   -9.2177 H   0  0  0  0  0  0  0  0  0  0  0  0
    6.5481    7.2196   -9.6483 H   0  0  0  0  0  0  0  0  0  0  0  0
    7.9971   10.9287   -8.5030 H   0  0  0  0  0  0  0  0  0  0  0  0
    8.6736    9.5781   -9.4693 H   0  0  0  0  0  0  0  0  0  0  0  0
    9.5533   11.1093   -9.3572 H   0  0  0  0  0  0  0  0  0  0  0  0
   12.1555    9.3778   -6.7914 H   0  0  0  0  0  0  0  0  0  0  0  0
   13.7447   11.0283   -5.7744 H   0  0  0  0  0  0  0  0  0  0  0  0
    8.6138   14.4966   -6.4858 H   0  0  0  0  0  0  0  0  0  0  0  0
   11.1509   17.3487   -4.7232 H   0  0  0  0  0  0  0  0  0  0  0  0
   13.9075   17.2313   -2.4682 H   0  0  0  0  0  0  0  0  0  0  0  0
   13.9992   19.7332   -2.4958 H   0  0  0  0  0  0  0  0  0  0  0  0
   13.8651   19.6437   -6.7949 H   0  0  0  0  0  0  0  0  0  0  0  0
  1 45  1  0  0  0  0
  1  2  1  0  0  0  0
  2  3  1  0  0  0  0
  3  4  1  0  0  0  0
  3 40  2  0  0  0  0
  4 48  1  0  0  0  0
  5  4  1  0  0  0  0
  6  5  2  0  0  0  0
  7  6  1  0  0  0  0
  8 36  1  0  0  0  0
  8  7  2  0  0  0  0
  9  8  1  0  0  0  0
 10  9  2  0  0  0  0
 10 33  1  0  0  0  0
 11 10  1  0  0  0  0
 11 12  1  0  0  0  0
 12 13  2  0  0  0  0
 14 12  1  0  0  0  0
 14 15  1  0  0  0  0
 15 51  1  0  0  0  0
 17 16  1  0  0  0  0
 17 53  1  0  0  0  0
 18 24  1  0  0  0  0
 18 19  1  1  0  0  0
 18 17  1  0  0  0  0
 20 18  1  0  0  0  0
 21 23  2  0  0  0  0
 21 20  1  0  0  0  0
 22 57  1  0  0  0  0
 22 21  1  0  0  0  0
 24 25  1  0  0  0  0
 25 26  1  0  0  0  0
 25 58  1  0  0  0  0
 26 59  1  0  0  0  0
 26 60  1  0  0  0  0
 27 24  2  0  0  0  0
 28 15  1  0  0  0  0
 28 62  1  0  0  0  0
 29 30  1  0  0  0  0
 29 28  1  0  0  0  0
 30 64  1  0  0  0  0
 31 68  1  0  0  0  0
 31 29  1  0  0  0  0
 32 70  1  0  0  0  0
 32 11  1  0  0  0  0
 33 34  2  0  0  0  0
 34  7  1  0  0  0  0
 34 74  1  0  0  0  0
 35 39  2  0  0  0  0
 35  5  1  0  0  0  0
 36 35  1  0  0  0  0
 37 36  1  0  0  0  0
 37 38  2  0  0  0  0
 38 39  1  0  0  0  0
 39 76  1  0  0  0  0
 40 77  1  0  0  0  0
 41 40  1  0  0  0  0
 41 78  1  0  0  0  0
 42 41  2  0  0  0  0
 43 42  1  0  0  0  0
 44  2  2  0  0  0  0
 44 42  1  0  0  0  0
 46  1  1  0  0  0  0
 47  1  1  0  0  0  0
 49  9  1  0  0  0  0
 50 14  1  0  0  0  0
 52 17  1  0  0  0  0
 54 20  1  0  0  0  0
 55 22  1  0  0  0  0
 56 22  1  0  0  0  0
 61 26  1  0  0  0  0
 63 28  1  0  0  0  0
 65 30  1  0  0  0  0
 66 30  1  0  0  0  0
 67 31  1  0  0  0  0
 69 31  1  0  0  0  0
 71 32  1  0  0  0  0
 72 32  1  0  0  0  0
 73 33  1  0  0  0  0
 75 37  1  0  0  0  0
 79 44  1  0  0  0  0
M  END
