79
-1 1
C        -4.901117    2.668577    2.872497
C        -4.327052    2.957173    4.229548
C        -3.663672    1.963178    4.983845
N        -3.491881    0.657364    4.475952
C        -2.870262    0.290059    3.301916
N        -3.147857   -0.885706    2.832646
C        -2.537117   -1.306015    1.664042
C        -1.634544   -0.502157    0.934298
C        -1.064853   -0.934923   -0.260983
C        -1.385167   -2.198687   -0.744186
N        -0.774417   -2.657922   -1.946593
C        -1.024059   -1.963700   -3.110056
O        -1.902193   -1.130613   -3.194455
C        -0.137785   -2.289871   -4.281535
C         0.873791   -1.493125   -4.627561
S         1.658033    0.913020   -1.820268
C         2.277577   -0.704224   -1.245840
C         3.793757   -0.892450   -1.397337
H         4.322176   -0.294779   -0.631220
N         4.181193   -0.407842   -2.712411
C         5.411222   -0.024423   -3.089283
C         5.444460    0.784654   -4.368152
O         6.442675   -0.289775   -2.468062
C         4.192052   -2.370678   -1.182843
N         5.520640   -2.607719   -1.284059
C         6.078229   -3.927014   -1.168751
O         3.376811   -3.245463   -0.924219
C         1.744185   -1.728257   -5.826383
N         3.155179   -1.806842   -5.493309
C         3.988892   -1.839267   -6.667433
C         3.462637   -2.885263   -4.580345
C         0.200209   -3.729850   -1.818136
C        -2.270485   -3.020822   -0.034311
C        -2.835284   -2.579194    1.151205
C        -1.918005    1.179657    2.675498
N        -1.329040    0.747309    1.494199
C        -0.441684    1.706632    1.112181
N        -0.433884    2.711986    1.967336
C        -1.330279    2.408689    2.936077
C        -3.177406    2.240006    6.264731
C        -3.317186    3.506689    6.819714
C        -3.926452    4.517359    6.084057
C        -4.412815    4.229407    4.811419
Cl        -5.174042    5.536906    3.923371
H        -5.052046    1.592177    2.727676
H        -4.220145    3.019930    2.081180
H        -5.862279    3.181996    2.737082
H        -4.027781   -0.096469    4.890722
H        -0.376474   -0.292395   -0.827466
H        -0.378678   -3.182880   -4.872873
H         1.097483   -0.606728   -4.009671
H         1.789282   -1.508139   -1.818793
H         2.025594   -0.889623   -0.190074
H         3.389386    0.051343   -3.177853
H         5.249887    1.840805   -4.126170
H         6.438751    0.701638   -4.823975
H         4.666078    0.440877   -5.063488
H         6.107949   -1.814028   -1.568054
H         6.544956   -4.255991   -2.112997
H         5.265432   -4.621009   -0.917695
H         6.842787   -3.974574   -0.375577
H         1.399769   -2.643428   -6.367632
H         1.614577   -0.882063   -6.524026
H         5.050850   -1.810913   -6.377094
H         3.788899   -0.962560   -7.303681
H         3.832989   -2.752447   -7.290090
H         3.275457   -3.888806   -5.030016
H         2.860525   -2.805673   -3.665300
H         4.518900   -2.832328   -4.277333
H         0.602020   -3.985635   -2.805179
H        -0.274337   -4.631141   -1.396569
H         1.052253   -3.439442   -1.184035
H        -2.520610   -4.007022   -0.431196
H        -3.535449   -3.198863    1.714035
H         0.187496    1.607796    0.215229
H        -1.514697    3.073738    3.777358
H        -2.663305    1.443507    6.805114
H        -2.928733    3.717409    7.817872
H        -4.025653    5.526800    6.484340
