80
-1 1
C        -2.634093   -6.244704   -4.123338
C        -1.167365   -6.485168   -4.379068
C        -0.197376   -5.784975   -3.631320
N        -0.670333   -4.944248   -2.593838
C        -0.277993   -3.679479   -2.239372
N         0.856564   -3.184867   -2.624980
C         1.220072   -1.899031   -2.241840
C         0.406635   -1.085214   -1.430123
C         0.780351    0.188033   -1.032752
C         2.011340    0.741574   -1.444319
N         2.424870    1.990366   -1.051450
C         1.637242    2.858617   -0.169359
O         2.245694    3.255312    0.865658
C         0.355265    3.132477   -0.583106
C        -0.700646    3.781289    0.242742
S        -1.629991    2.574577    1.359080
C        -0.320464    1.636485    2.216409
C        -0.196628    1.919470    3.717080
H         0.449990    1.139789    4.152240
N        -1.471010    1.790714    4.374315
C        -1.579675    1.245630    5.619509
C        -2.882788    1.564741    6.326382
O        -0.713146    0.562077    6.129289
C         0.455839    3.258305    4.130024
N         1.578092    3.609488    3.473891
C         2.266174    4.824441    3.834549
O         0.001159    3.905072    5.064961
C        -0.292709    5.042466    1.010011
N        -1.422024    5.794317    1.527126
C        -1.157998    6.460793    2.778188
C        -2.018665    6.665962    0.550381
C         3.803127    2.376376   -1.237685
C         2.832099   -0.076536   -2.270232
C         2.443434   -1.350654   -2.647605
C        -1.195952   -2.917006   -1.419256
N        -0.826010   -1.640639   -1.041586
C        -1.861759   -1.126472   -0.323241
N        -2.852002   -1.989831   -0.218406
C        -2.461906   -3.101193   -0.890165
C         1.180037   -5.993633   -3.884040
O         2.152363   -5.380772   -3.208679
C         1.546377   -6.919242   -4.872559
C         0.591303   -7.627881   -5.586749
C        -0.763161   -7.408237   -5.344835
H        -2.879390   -5.171198   -4.151134
H        -2.953467   -6.629216   -3.137969
H        -3.249661   -6.753855   -4.876890
H        -1.555930   -5.225269   -2.199605
H         0.116023    0.773812   -0.404116
H         0.029634    2.718783   -1.538904
H        -1.530753    4.054202   -0.427514
H         0.629643    1.799883    1.694357
H        -0.569334    0.571027    2.103123
H        -2.158111    2.485006    4.100252
H        -3.740661    1.543681    5.638630
H        -2.805421    2.577780    6.750430
H        -3.035924    0.846511    7.140365
H         1.802046    3.250078    2.527566
H         3.162259    4.910660    3.206890
H         2.557203    4.811077    4.896002
H         1.639895    5.719586    3.676131
H         0.330929    5.659571    0.326902
H         0.363608    4.760129    1.836931
H        -2.080101    6.935480    3.151703
H        -0.384255    7.261502    2.695122
H        -0.824782    5.739149    3.538573
H        -2.261306    6.110592   -0.368344
H        -1.355614    7.516275    0.259647
H        -2.959558    7.090713    0.936127
H         4.034956    2.588578   -2.297277
H         4.503650    1.601266   -0.880110
H         3.973876    3.277705   -0.638340
H         3.791210    0.298488   -2.624590
H         3.093102   -1.958981   -3.280746
H        -1.853671   -0.112815    0.083344
H        -3.103883   -3.979111   -0.965095
H         1.827309   -4.473249   -2.938647
H         2.614527   -7.062257   -5.045482
H         0.903243   -8.349124   -6.345737
H        -1.520733   -7.950053   -5.916134
