80
-1 1
C        -3.006371   -5.409456   -4.671561
C        -1.564104   -5.721051   -4.983120
C        -0.544030   -5.295877   -4.106446
N        -0.956287   -4.663752   -2.904934
C        -0.458157   -3.560903   -2.278252
N         0.709201   -3.076846   -2.591330
C         1.179226   -1.942295   -1.944790
C         0.446674   -1.275982   -0.940898
C         0.937549   -0.132732   -0.311520
C         2.182929    0.360499   -0.687602
N         2.708717    1.514444   -0.037512
C         2.059836    2.729213   -0.069651
O         2.334344    3.611983    0.735416
C         1.065282    2.910496   -1.155679
C        -0.001515    3.714654   -1.041216
S        -0.966914    1.533645    2.197056
C         0.626095    1.517559    3.091960
C         0.585026    2.297949    4.411673
H         1.539465    2.171354    4.951270
N        -0.447089    1.770569    5.257845
C        -0.364178    1.751414    6.607515
C        -1.675793    1.443112    7.309405
O         0.662914    1.965491    7.229915
C         0.397611    3.823715    4.255883
N         1.168346    4.424758    3.314126
C         1.095342    5.849200    3.122229
O        -0.330851    4.460624    4.996181
C        -0.421100    4.488135    0.171108
N        -1.746609    5.059725    0.020170
C        -2.451165    5.183642    1.277837
C        -1.745481    6.281569   -0.738652
C         3.745460    1.288099    0.953483
C         2.934242   -0.291185   -1.676445
C         2.437499   -1.427000   -2.294290
C        -1.279690   -2.958369   -1.255340
N        -0.797491   -1.833730   -0.606686
C        -1.740654   -1.461966    0.304328
N        -2.779465   -2.275932    0.267275
C        -2.517180   -3.200159   -0.687077
C         0.811544   -5.569640   -4.405169
O         1.824589   -5.209331   -3.616381
C         1.107382   -6.285668   -5.574749
C         0.101976   -6.727390   -6.421635
C        -1.230614   -6.441326   -6.130606
H        -3.153952   -4.338419   -4.461650
H        -3.372637   -5.970408   -3.793085
H        -3.654590   -5.682844   -5.514591
H        -1.860998   -4.958370   -2.566303
H         0.342917    0.388575    0.459472
H         1.201198    2.324700   -2.067587
H        -0.696081    3.755108   -1.888534
H         1.431430    1.926932    2.462021
H         0.921185    0.482816    3.335469
H        -1.337818    1.644340    4.781808
H        -2.303440    0.745152    6.736551
H        -2.231779    2.385527    7.430038
H        -1.462798    1.029891    8.303044
H         1.609643    3.885036    2.574878
H         1.846912    6.142794    2.377088
H         1.291994    6.378592    4.067271
H         0.101822    6.171359    2.766339
H         0.348632    5.248103    0.421440
H        -0.442619    3.770961    1.015100
H        -3.505412    5.447806    1.092538
H        -2.021943    5.965323    1.944920
H        -2.416527    4.226633    1.819129
H        -1.256886    6.130445   -1.715213
H        -1.207157    7.114533   -0.225031
H        -2.777524    6.618129   -0.930189
H         4.582465    0.732796    0.503948
H         3.358354    0.710675    1.809224
H         4.097429    2.259859    1.317398
H         3.907132    0.114172   -1.962083
H         3.003591   -1.942057   -3.072409
H        -1.605394   -0.595374    0.970989
H        -3.222446   -3.998770   -0.919813
H         1.578951   -4.351089   -3.166231
H         2.160316   -6.485157   -5.781276
H         0.357562   -7.289765   -7.322620
H        -2.025191   -6.771502   -6.803792
