80
-1 1
C        -0.163933    4.880762    0.840880
C        -1.070250    5.541312   -0.162202
C        -0.546072    6.040472   -1.374173
N         0.822629    5.879891   -1.614725
C         1.589608    6.481918   -2.610277
N         2.449330    5.738719   -3.224371
C         3.290992    6.304261   -4.165598
C         3.254438    7.670431   -4.518728
C         4.083837    8.221520   -5.484150
C         5.032861    7.420624   -6.151657
N         5.908332    7.939816   -7.078995
C         5.876600    9.348160   -7.437230
O         4.780926    9.883503   -7.607400
C         7.142361    9.991541   -7.512107
C         7.216203   11.370372   -7.762353
S         6.754423   12.588927   -5.893469
C         6.263588   11.240380   -4.809198
C         7.189841   10.928456   -3.616087
H         8.218871   10.849758   -4.001722
N         6.827657    9.678787   -2.993560
C         7.190531    8.470573   -3.484111
C         6.673523    7.285130   -2.694672
O         7.854403    8.334361   -4.500375
C         7.163751   11.997092   -2.517344
N         7.609058   13.211070   -2.906796
C         7.524225   14.369108   -2.056607
O         6.773875   11.741693   -1.385295
C         8.510264   11.986814   -8.254192
N         9.736741   11.334103   -7.836727
C        10.868706   11.799487   -8.592087
C         9.988534   11.357580   -6.413989
C         7.030187    7.129186   -7.501177
C         5.087876    6.047126   -5.786083
C         4.236258    5.514724   -4.836378
C         1.495103    7.907678   -2.844557
N         2.328513    8.452588   -3.810275
C         2.094312    9.791980   -3.819823
N         1.179447   10.132245   -2.935925
C         0.799648    8.985163   -2.319406
C        -1.395414    6.652296   -2.304276
C        -2.752993    6.816120   -2.027278
O        -3.590496    7.426064   -2.898235
C        -3.284885    6.328348   -0.832525
C        -2.437936    5.693135    0.070762
H         0.708548    5.515216    1.064451
H         0.226738    3.914127    0.476021
H        -0.696013    4.680353    1.781176
H         1.203226    4.971053   -1.373048
H         3.997455    9.268398   -5.762155
H         8.040830    9.459297   -7.205107
H         6.338641   11.791509   -8.258864
H         6.287486   10.330723   -5.436300
H         5.232543   11.374643   -4.445673
H         6.391778    9.771252   -2.081335
H         6.570697    7.504353   -1.622089
H         7.352413    6.436410   -2.841418
H         5.685936    7.002138   -3.088458
H         7.727183   13.337689   -3.917827
H         7.334843   14.030382   -1.029983
H         6.702764   15.039648   -2.360192
H         8.465000   14.941126   -2.078574
H         8.521555   13.074723   -8.013041
H         8.476928   11.917103   -9.357127
H        10.691000   11.668194   -9.671730
H        11.767904   11.220526   -8.326096
H        11.104177   12.878175   -8.420980
H         9.165127   10.876410   -5.872807
H        10.105379   12.387396   -6.007880
H        10.910056   10.792845   -6.199108
H         6.685362    6.184632   -7.954151
H         7.707681    6.909048   -6.658543
H         7.586712    7.674191   -8.270218
H         5.817687    5.387496   -6.250552
H         4.290252    4.456470   -4.573292
H         2.622364   10.471046   -4.486791
H         0.047716    8.967488   -1.533023
H        -0.991737    7.007434   -3.254375
H        -3.081998    7.771011   -3.638337
H        -4.348285    6.458015   -0.627902
H        -2.853922    5.313878    1.008520
