-1 1
 OpenBabel05192410563D

 80 83  0  0  1  0  0  0  0  0999 V2000
   -4.8650   -4.2962    4.9980 C   0  0  0  0  0  0  0  0  0  0  0  0
   -5.7251   -3.8227    3.8579 C   0  0  0  0  0  0  0  0  0  0  0  0
   -5.1313   -3.2859    2.6945 C   0  0  0  0  0  0  0  0  0  0  0  0
   -3.7357   -3.2292    2.6341 N   0  0  0  0  0  0  0  0  0  0  0  0
   -2.9525   -2.5600    1.6927 C   0  0  0  0  0  0  0  0  0  0  0  0
   -1.9260   -3.1871    1.2225 N   0  0  0  0  0  0  0  0  0  0  0  0
   -1.0703   -2.5395    0.3499 C   0  0  0  0  0  0  0  0  0  0  0  0
   -1.2633   -1.2108   -0.0839 C   0  0  0  0  0  0  0  0  0  0  0  0
   -0.4167   -0.5741   -0.9782 C   0  0  0  0  0  0  0  0  0  0  0  0
    0.7142   -1.2438   -1.4942 C   0  0  0  0  0  0  0  0  0  0  0  0
    1.5951   -0.6495   -2.3676 N   0  0  0  0  0  0  0  0  0  0  0  0
    1.5533    0.7781   -2.6796 C   0  0  0  0  0  0  0  0  0  0  0  0
    0.4344    1.3345   -2.7281 O   0  0  0  0  0  0  0  0  0  0  0  0
    2.7834    1.4034   -2.8828 C   0  0  0  0  0  3  0  0  0  0  0  0
    2.8138    2.8164   -3.2607 C   0  0  1  0  0  0  0  0  0  0  0  0
    2.7732    4.0999   -1.7841 S   0  0  0  0  0  0  0  0  0  0  0  0
    2.0124    3.0925   -0.4792 C   0  0  0  0  0  0  0  0  0  0  0  0
    2.9715    2.1541    0.2787 C   0  0  2  0  0  0  0  0  0  0  0  0
    3.6045    1.6445   -0.4610 H   0  0  0  0  0  0  0  0  0  0  0  0
    2.2400    1.1109    0.9489 N   0  0  0  0  0  0  0  0  0  0  0  0
    2.6816   -0.1800    0.9726 C   0  0  0  0  0  0  0  0  0  0  0  0
    1.9354   -1.0675    1.9469 C   0  0  0  0  0  0  0  0  0  0  0  0
    3.5884   -0.5884    0.2709 O   0  0  0  0  0  0  0  0  0  0  0  0
    3.8686    2.8830    1.2940 C   0  0  0  0  0  0  0  0  0  0  0  0
    4.6971    3.8099    0.7494 N   0  0  0  0  0  0  0  0  0  0  0  0
    5.5653    4.6351    1.5458 C   0  0  0  0  0  0  0  0  0  0  0  0
    3.8306    2.6309    2.4872 O   0  0  0  0  0  0  0  0  0  0  0  0
    3.9648    3.2386   -4.1783 C   0  0  0  0  0  0  0  0  0  0  0  0
    5.2592    2.6265   -3.9379 N   0  0  0  0  0  0  0  0  0  0  0  0
    6.1753    2.8870   -5.0158 C   0  0  0  0  0  0  0  0  0  0  0  0
    5.8464    2.8969   -2.6493 C   0  0  0  0  0  0  0  0  0  0  0  0
    2.7244   -1.4257   -2.8348 C   0  0  0  0  0  0  0  0  0  0  0  0
    0.9275   -2.5787   -1.0396 C   0  0  0  0  0  0  0  0  0  0  0  0
    0.0581   -3.1970   -0.1620 C   0  0  0  0  0  0  0  0  0  0  0  0
   -3.2276   -1.1764    1.3659 C   0  0  0  0  0  0  0  0  0  0  0  0
   -2.3753   -0.5526    0.4682 N   0  0  0  0  0  0  0  0  0  0  0  0
   -2.8000    0.7332    0.3518 C   0  0  0  0  0  0  0  0  0  0  0  0
   -3.8532    0.9688    1.1076 N   0  0  0  0  0  0  0  0  0  0  0  0
   -4.1315   -0.1961    1.7456 C   0  0  0  0  0  0  0  0  0  0  0  0
   -5.9383   -2.8496    1.6363 C   0  0  0  0  0  0  0  0  0  0  0  0
   -7.3291   -2.8979    1.7356 C   0  0  0  0  0  0  0  0  0  0  0  0
   -8.1308   -2.4600    0.7364 O   0  0  0  0  0  0  0  0  0  0  0  0
   -7.9296   -3.4244    2.8802 C   0  0  0  0  0  0  0  0  0  0  0  0
   -7.1181   -3.8848    3.9131 C   0  0  0  0  0  0  0  0  0  0  0  0
   -4.1385   -3.5226    5.2942 H   0  0  0  0  0  0  0  0  0  0  0  0
   -4.2840   -5.1981    4.7347 H   0  0  0  0  0  0  0  0  0  0  0  0
   -5.4767   -4.5503    5.8747 H   0  0  0  0  0  0  0  0  0  0  0  0
   -3.2524   -4.0523    2.9777 H   0  0  0  0  0  0  0  0  0  0  0  0
   -0.6077    0.4333   -1.3415 H   0  0  0  0  0  0  0  0  0  0  0  0
    3.7270    0.8874   -2.7174 H   0  0  0  0  0  0  0  0  0  0  0  0
    1.8696    3.0775   -3.7557 H   0  0  0  0  0  0  0  0  0  0  0  0
    1.2340    2.4844   -0.9584 H   0  0  0  0  0  0  0  0  0  0  0  0
    1.5220    3.7932    0.2157 H   0  0  0  0  0  0  0  0  0  0  0  0
    1.6387    1.4013    1.7094 H   0  0  0  0  0  0  0  0  0  0  0  0
    2.1091   -0.7188    2.9769 H   0  0  0  0  0  0  0  0  0  0  0  0
    2.2945   -2.0966    1.8400 H   0  0  0  0  0  0  0  0  0  0  0  0
    0.8544   -1.0410    1.7457 H   0  0  0  0  0  0  0  0  0  0  0  0
    4.5446    4.0400   -0.2341 H   0  0  0  0  0  0  0  0  0  0  0  0
    5.5664    4.2389    2.5694 H   0  0  0  0  0  0  0  0  0  0  0  0
    5.2237    5.6838    1.5773 H   0  0  0  0  0  0  0  0  0  0  0  0
    6.5951    4.6188    1.1546 H   0  0  0  0  0  0  0  0  0  0  0  0
    4.0450    4.3538   -4.1900 H   0  0  0  0  0  0  0  0  0  0  0  0
    3.6644    2.9410   -5.1969 H   0  0  0  0  0  0  0  0  0  0  0  0
    5.7402    2.5626   -5.9744 H   0  0  0  0  0  0  0  0  0  0  0  0
    7.1119    2.3265   -4.8646 H   0  0  0  0  0  0  0  0  0  0  0  0
    6.4444    3.9665   -5.1195 H   0  0  0  0  0  0  0  0  0  0  0  0
    5.1967    2.5345   -1.8437 H   0  0  0  0  0  0  0  0  0  0  0  0
    6.0343    3.9818   -2.4698 H   0  0  0  0  0  0  0  0  0  0  0  0
    6.8085    2.3668   -2.5663 H   0  0  0  0  0  0  0  0  0  0  0  0
    2.3891   -2.4055   -3.2123 H   0  0  0  0  0  0  0  0  0  0  0  0
    3.4753   -1.5797   -2.0407 H   0  0  0  0  0  0  0  0  0  0  0  0
    3.1914   -0.8903   -3.6675 H   0  0  0  0  0  0  0  0  0  0  0  0
    1.8087   -3.1303   -1.3581 H   0  0  0  0  0  0  0  0  0  0  0  0
    0.2441   -4.2198    0.1725 H   0  0  0  0  0  0  0  0  0  0  0  0
   -2.3003    1.4523   -0.2947 H   0  0  0  0  0  0  0  0  0  0  0  0
   -4.9614   -0.2956    2.4425 H   0  0  0  0  0  0  0  0  0  0  0  0
   -5.4755   -2.4666    0.7248 H   0  0  0  0  0  0  0  0  0  0  0  0
   -7.5890   -2.0673    0.0453 H   0  0  0  0  0  0  0  0  0  0  0  0
   -9.0176   -3.4611    2.9455 H   0  0  0  0  0  0  0  0  0  0  0  0
   -7.5879   -4.2952    4.8116 H   0  0  0  0  0  0  0  0  0  0  0  0
  1 45  1  0  0  0  0
  1 47  1  0  0  0  0
  2 44  1  0  0  0  0
  2  1  1  0  0  0  0
  3  2  2  0  0  0  0
  4  3  1  0  0  0  0
  4 48  1  0  0  0  0
  5  4  1  0  0  0  0
  6  5  2  0  0  0  0
  7  6  1  0  0  0  0
  8  7  1  0  0  0  0
  8 36  1  0  0  0  0
  9  8  2  0  0  0  0
 10 33  2  0  0  0  0
 10  9  1  0  0  0  0
 11 10  1  0  0  0  0
 12 11  1  0  0  0  0
 13 12  2  0  0  0  0
 14 50  1  0  0  0  0
 14 12  1  0  0  0  0
 15 51  1  6  0  0  0
 15 14  1  0  0  0  0
 15 16  1  0  0  0  0
 16 17  1  0  0  0  0
 17 53  1  0  0  0  0
 17 18  1  0  0  0  0
 18 19  1  6  0  0  0
 18 20  1  0  0  0  0
 18 24  1  0  0  0  0
 20 21  1  0  0  0  0
 20 54  1  0  0  0  0
 21 22  1  0  0  0  0
 22 55  1  0  0  0  0
 23 21  2  0  0  0  0
 24 27  2  0  0  0  0
 25 24  1  0  0  0  0
 25 26  1  0  0  0  0
 26 60  1  0  0  0  0
 26 59  1  0  0  0  0
 28 29  1  0  0  0  0
 28 15  1  0  0  0  0
 29 31  1  0  0  0  0
 30 65  1  0  0  0  0
 30 29  1  0  0  0  0
 31 69  1  0  0  0  0
 31 68  1  0  0  0  0
 31 67  1  0  0  0  0
 32 11  1  0  0  0  0
 32 71  1  0  0  0  0
 33 34  1  0  0  0  0
 34 74  1  0  0  0  0
 34  7  2  0  0  0  0
 35  5  1  0  0  0  0
 35 39  2  0  0  0  0
 36 35  1  0  0  0  0
 37 36  1  0  0  0  0
 37 38  2  0  0  0  0
 38 39  1  0  0  0  0
 39 76  1  0  0  0  0
 40 41  2  0  0  0  0
 40  3  1  0  0  0  0
 41 43  1  0  0  0  0
 42 41  1  0  0  0  0
 43 79  1  0  0  0  0
 43 44  2  0  0  0  0
 44 80  1  0  0  0  0
 46  1  1  0  0  0  0
 49  9  1  0  0  0  0
 52 17  1  0  0  0  0
 56 22  1  0  0  0  0
 57 22  1  0  0  0  0
 58 25  1  0  0  0  0
 61 26  1  0  0  0  0
 62 28  1  0  0  0  0
 63 28  1  0  0  0  0
 64 30  1  0  0  0  0
 66 30  1  0  0  0  0
 70 32  1  0  0  0  0
 72 32  1  0  0  0  0
 73 33  1  0  0  0  0
 75 37  1  0  0  0  0
 77 40  1  0  0  0  0
 78 42  1  0  0  0  0
M  END
