80
-1 1
C        -9.581752   -0.464380    1.688866
C       -10.707162    0.457775    1.299855
C       -10.894102    0.859893   -0.043976
N        -9.991884    0.357482   -0.977087
C        -9.880007    0.559839   -2.339536
N       -10.702069    1.295832   -3.011010
C       -10.522018    1.431450   -4.379978
C        -9.491402    0.785088   -5.089493
C        -9.349240    0.890630   -6.463706
C       -10.145454    1.782633   -7.196309
N        -9.947103    1.993746   -8.555111
C        -8.681814    1.857757   -9.256157
O        -8.726234    1.822487  -10.483539
C        -7.493143    1.796948   -8.470214
C        -6.237560    1.552467   -9.031141
S        -5.135331    3.524853   -9.478630
C        -6.131235    4.468317   -8.308205
C        -5.560219    4.510065   -6.868610
H        -5.070491    3.545350   -6.676834
N        -6.575881    4.674150   -5.857887
C        -7.047263    3.633745   -5.125267
C        -8.133000    3.982050   -4.130177
O        -6.674569    2.481246   -5.286102
C        -4.532689    5.631837   -6.714414
N        -3.433869    5.474389   -7.486682
C        -2.418466    6.486383   -7.603174
O        -4.721917    6.586186   -5.972598
C        -5.202842    0.912426   -8.121372
N        -5.603327   -0.400136   -7.609966
C        -5.916149   -1.350208   -8.650239
C        -4.620612   -0.908011   -6.681622
C       -11.058452    2.470773   -9.346846
C       -11.188869    2.438219   -6.495082
C       -11.378252    2.246157   -5.134529
C        -8.749682   -0.106991   -2.961273
N        -8.593181    0.033816   -4.325057
C        -7.432042   -0.584701   -4.664441
N        -6.859030   -1.134567   -3.612663
C        -7.655790   -0.849127   -2.550043
C       -11.945694    1.724683   -0.389778
C       -12.802699    2.182631    0.603187
C       -12.641572    1.801237    1.931238
C       -11.593691    0.940621    2.269523
O       -11.398759    0.542227    3.556202
H        -9.659617   -1.440133    1.178669
H        -9.591341   -0.654943    2.767492
H        -8.597637   -0.032966    1.436526
H        -9.286864   -0.257316   -0.599996
H        -8.570715    0.322928   -6.966493
H        -7.523035    1.942256   -7.395478
H        -6.236846    1.230507  -10.076646
H        -7.114561    3.962781   -8.256465
H        -6.307258    5.488611   -8.684355
H        -6.743717    5.626242   -5.553366
H        -9.106979    3.876090   -4.632718
H        -8.047663    5.007692   -3.743005
H        -8.105572    3.263494   -3.301472
H        -3.477441    4.716227   -8.175324
H        -1.413116    6.054654   -7.475794
H        -2.587514    7.233482   -6.816936
H        -2.455847    6.993259   -8.582249
H        -5.057734    1.555653   -7.242561
H        -4.226600    0.845640   -8.651130
H        -6.233124   -2.305126   -8.201206
H        -5.049609   -1.561428   -9.320511
H        -6.743632   -0.975147   -9.269464
H        -4.474280   -0.188050   -5.862265
H        -3.629541   -1.096526   -7.157455
H        -4.967234   -1.852594   -6.232581
H       -11.973712    1.897902   -9.126972
H       -10.782208    2.331973  -10.398113
H       -11.269273    3.543334   -9.177694
H       -11.855804    3.117382   -7.025462
H       -12.190014    2.756176   -4.611737
H        -7.030866   -0.552071   -5.681570
H        -7.401228   -1.177094   -1.541623
H       -12.062193    2.014529   -1.430415
H       -13.619490    2.855750    0.332244
H       -13.321687    2.166306    2.706597
H       -12.067898    0.952482    4.109902
