80
-1 1
C        -0.665852   -1.497091    6.437580
C        -1.966606   -0.816014    6.101677
C        -2.381066   -0.642434    4.761065
N        -1.525433   -1.139777    3.777329
C        -1.608967   -1.121367    2.404408
N        -2.612392   -0.607016    1.768394
C        -2.620968   -0.647441    0.384059
C        -1.594310   -1.234454   -0.379134
C        -1.657109   -1.315386   -1.765410
C        -2.698891   -0.697636   -2.456479
N        -2.774395   -0.727441   -3.867387
C        -1.672259   -0.737333   -4.729019
O        -1.817711   -0.985648   -5.911795
C        -0.345768   -0.438569   -4.130734
C         0.755194   -1.060684   -4.563554
S         4.632828    1.996170   -3.465170
C         3.124709    2.602651   -2.624996
C         3.099770    2.346435   -1.100886
H         3.424010    1.304494   -0.938361
N         1.790835    2.540659   -0.510689
C         0.781280    1.663222   -0.593645
C        -0.464109    2.014531    0.197347
O         0.834185    0.625481   -1.250732
C         4.039346    3.282034   -0.321330
N         5.316471    3.254308   -0.726869
C         6.309075    4.146844   -0.194916
O         3.611453    3.986396    0.593411
C         2.081471   -0.914600   -3.874572
N         2.347698   -2.042992   -2.978495
C         2.631031   -3.269675   -3.686460
C         3.398445   -1.710522   -2.030631
C        -4.087786   -0.838039   -4.476493
C        -3.719379   -0.074439   -1.709613
C        -3.686854   -0.072089   -0.324781
C        -0.475052   -1.707576    1.715250
N        -0.502317   -1.734365    0.332823
C         0.690807   -2.239055   -0.083323
N         1.453593   -2.559409    0.941822
C         0.755349   -2.236503    2.059990
C        -3.593263   -0.000104    4.464102
C        -4.386261    0.466301    5.505601
C        -4.002992    0.307595    6.832914
C        -2.794814   -0.332690    7.121918
O        -2.380443   -0.509031    8.404718
H        -0.641534   -2.536197    6.066303
H        -0.517116   -1.531919    7.522203
H         0.196684   -0.963869    6.002136
H        -0.685991   -1.575901    4.128224
H        -0.863289   -1.830623   -2.299974
H        -0.275504    0.224898   -3.263211
H         0.661524   -1.750905   -5.410762
H         2.236298    2.099135   -3.037220
H         2.977408    3.684330   -2.793717
H         1.767223    3.311084    0.155246
H        -1.344472    1.870758   -0.444192
H        -0.455575    3.041080    0.588182
H        -0.561059    1.315681    1.041664
H         5.478688    2.766443   -1.636982
H         7.249364    3.608083    0.002206
H         5.936579    4.575375    0.744974
H         6.529527    4.974139   -0.891565
H         2.066786   -0.009481   -3.256503
H         2.898960   -0.784325   -4.614016
H         2.772564   -4.092493   -2.968011
H         3.548458   -3.204369   -4.314793
H         1.791843   -3.544145   -4.344129
H         3.099186   -0.818971   -1.463627
H         4.366366   -1.487316   -2.523563
H         3.531437   -2.539484   -1.317484
H        -4.711620   -1.545133   -3.910613
H        -3.949842   -1.201462   -5.500760
H        -4.605765    0.134933   -4.520440
H        -4.548272    0.413289   -2.223175
H        -4.485175    0.399812    0.250513
H         0.979527   -2.292657   -1.139349
H         1.172890   -2.386364    3.056028
H        -3.882261    0.119144    3.423894
H        -5.328736    0.967810    5.274077
H        -4.633486    0.678079    7.646524
H        -3.028294   -0.118236    8.996637
