-1 1
 OpenBabel05232413483D

 80 82  0  0  1  0  0  0  0  0999 V2000
   -0.6659   -1.4971    6.4376 C   0  0  0  0  0  0  0  0  0  0  0  0
   -1.9666   -0.8160    6.1017 C   0  0  0  0  0  0  0  0  0  0  0  0
   -2.3811   -0.6424    4.7611 C   0  0  0  0  0  0  0  0  0  0  0  0
   -1.5254   -1.1398    3.7773 N   0  0  0  0  0  0  0  0  0  0  0  0
   -1.6090   -1.1214    2.4044 C   0  0  0  0  0  0  0  0  0  0  0  0
   -2.6124   -0.6070    1.7684 N   0  0  0  0  0  0  0  0  0  0  0  0
   -2.6210   -0.6474    0.3841 C   0  0  0  0  0  0  0  0  0  0  0  0
   -1.5943   -1.2345   -0.3791 C   0  0  0  0  0  0  0  0  0  0  0  0
   -1.6571   -1.3154   -1.7654 C   0  0  0  0  0  0  0  0  0  0  0  0
   -2.6989   -0.6976   -2.4565 C   0  0  0  0  0  0  0  0  0  0  0  0
   -2.7744   -0.7274   -3.8674 N   0  0  0  0  0  0  0  0  0  0  0  0
   -1.6723   -0.7373   -4.7290 C   0  0  0  0  0  0  0  0  0  0  0  0
   -1.8177   -0.9856   -5.9118 O   0  0  0  0  0  0  0  0  0  0  0  0
   -0.3458   -0.4386   -4.1307 C   0  0  0  0  0  0  0  0  0  0  0  0
    0.7552   -1.0607   -4.5636 C   0  0  0  0  0  0  0  0  0  0  0  0
    4.6328    1.9962   -3.4652 S   0  0  0  0  0  1  0  0  0  0  0  0
    3.1247    2.6027   -2.6250 C   0  0  0  0  0  0  0  0  0  0  0  0
    3.0998    2.3464   -1.1009 C   0  0  2  0  0  0  0  0  0  0  0  0
    3.4240    1.3045   -0.9384 H   0  0  0  0  0  0  0  0  0  0  0  0
    1.7908    2.5407   -0.5107 N   0  0  0  0  0  0  0  0  0  0  0  0
    0.7813    1.6632   -0.5936 C   0  0  0  0  0  0  0  0  0  0  0  0
   -0.4641    2.0145    0.1973 C   0  0  0  0  0  0  0  0  0  0  0  0
    0.8342    0.6255   -1.2507 O   0  0  0  0  0  0  0  0  0  0  0  0
    4.0393    3.2820   -0.3213 C   0  0  0  0  0  0  0  0  0  0  0  0
    5.3165    3.2543   -0.7269 N   0  0  0  0  0  0  0  0  0  0  0  0
    6.3091    4.1468   -0.1949 C   0  0  0  0  0  0  0  0  0  0  0  0
    3.6115    3.9864    0.5934 O   0  0  0  0  0  0  0  0  0  0  0  0
    2.0815   -0.9146   -3.8746 C   0  0  0  0  0  0  0  0  0  0  0  0
    2.3477   -2.0430   -2.9785 N   0  0  0  0  0  0  0  0  0  0  0  0
    2.6310   -3.2697   -3.6865 C   0  0  0  0  0  0  0  0  0  0  0  0
    3.3984   -1.7105   -2.0306 C   0  0  0  0  0  0  0  0  0  0  0  0
   -4.0878   -0.8380   -4.4765 C   0  0  0  0  0  0  0  0  0  0  0  0
   -3.7194   -0.0744   -1.7096 C   0  0  0  0  0  0  0  0  0  0  0  0
   -3.6869   -0.0721   -0.3248 C   0  0  0  0  0  0  0  0  0  0  0  0
   -0.4751   -1.7076    1.7152 C   0  0  0  0  0  0  0  0  0  0  0  0
   -0.5023   -1.7344    0.3328 N   0  0  0  0  0  0  0  0  0  0  0  0
    0.6908   -2.2391   -0.0833 C   0  0  0  0  0  0  0  0  0  0  0  0
    1.4536   -2.5594    0.9418 N   0  0  0  0  0  0  0  0  0  0  0  0
    0.7553   -2.2365    2.0600 C   0  0  0  0  0  0  0  0  0  0  0  0
   -3.5933   -0.0001    4.4641 C   0  0  0  0  0  0  0  0  0  0  0  0
   -4.3863    0.4663    5.5056 C   0  0  0  0  0  0  0  0  0  0  0  0
   -4.0030    0.3076    6.8329 C   0  0  0  0  0  0  0  0  0  0  0  0
   -2.7948   -0.3327    7.1219 C   0  0  0  0  0  0  0  0  0  0  0  0
   -2.3804   -0.5090    8.4047 O   0  0  0  0  0  0  0  0  0  0  0  0
   -0.6415   -2.5362    6.0663 H   0  0  0  0  0  0  0  0  0  0  0  0
   -0.5171   -1.5319    7.5222 H   0  0  0  0  0  0  0  0  0  0  0  0
    0.1967   -0.9639    6.0021 H   0  0  0  0  0  0  0  0  0  0  0  0
   -0.6860   -1.5759    4.1282 H   0  0  0  0  0  0  0  0  0  0  0  0
   -0.8633   -1.8306   -2.3000 H   0  0  0  0  0  0  0  0  0  0  0  0
   -0.2755    0.2249   -3.2632 H   0  0  0  0  0  0  0  0  0  0  0  0
    0.6615   -1.7509   -5.4108 H   0  0  0  0  0  0  0  0  0  0  0  0
    2.2363    2.0991   -3.0372 H   0  0  0  0  0  0  0  0  0  0  0  0
    2.9774    3.6843   -2.7937 H   0  0  0  0  0  0  0  0  0  0  0  0
    1.7672    3.3111    0.1552 H   0  0  0  0  0  0  0  0  0  0  0  0
   -1.3445    1.8708   -0.4442 H   0  0  0  0  0  0  0  0  0  0  0  0
   -0.4556    3.0411    0.5882 H   0  0  0  0  0  0  0  0  0  0  0  0
   -0.5611    1.3157    1.0417 H   0  0  0  0  0  0  0  0  0  0  0  0
    5.4787    2.7664   -1.6370 H   0  0  0  0  0  0  0  0  0  0  0  0
    7.2494    3.6081    0.0022 H   0  0  0  0  0  0  0  0  0  0  0  0
    5.9366    4.5754    0.7450 H   0  0  0  0  0  0  0  0  0  0  0  0
    6.5295    4.9741   -0.8916 H   0  0  0  0  0  0  0  0  0  0  0  0
    2.0668   -0.0095   -3.2565 H   0  0  0  0  0  0  0  0  0  0  0  0
    2.8990   -0.7843   -4.6140 H   0  0  0  0  0  0  0  0  0  0  0  0
    2.7726   -4.0925   -2.9680 H   0  0  0  0  0  0  0  0  0  0  0  0
    3.5485   -3.2044   -4.3148 H   0  0  0  0  0  0  0  0  0  0  0  0
    1.7918   -3.5441   -4.3441 H   0  0  0  0  0  0  0  0  0  0  0  0
    3.0992   -0.8190   -1.4636 H   0  0  0  0  0  0  0  0  0  0  0  0
    4.3664   -1.4873   -2.5236 H   0  0  0  0  0  0  0  0  0  0  0  0
    3.5314   -2.5395   -1.3175 H   0  0  0  0  0  0  0  0  0  0  0  0
   -4.7116   -1.5451   -3.9106 H   0  0  0  0  0  0  0  0  0  0  0  0
   -3.9498   -1.2015   -5.5008 H   0  0  0  0  0  0  0  0  0  0  0  0
   -4.6058    0.1349   -4.5204 H   0  0  0  0  0  0  0  0  0  0  0  0
   -4.5483    0.4133   -2.2232 H   0  0  0  0  0  0  0  0  0  0  0  0
   -4.4852    0.3998    0.2505 H   0  0  0  0  0  0  0  0  0  0  0  0
    0.9795   -2.2927   -1.1393 H   0  0  0  0  0  0  0  0  0  0  0  0
    1.1729   -2.3864    3.0560 H   0  0  0  0  0  0  0  0  0  0  0  0
   -3.8823    0.1191    3.4239 H   0  0  0  0  0  0  0  0  0  0  0  0
   -5.3287    0.9678    5.2741 H   0  0  0  0  0  0  0  0  0  0  0  0
   -4.6335    0.6781    7.6465 H   0  0  0  0  0  0  0  0  0  0  0  0
   -3.0283   -0.1182    8.9966 H   0  0  0  0  0  0  0  0  0  0  0  0
  1 46  1  0  0  0  0
  2  1  1  0  0  0  0
  2 43  1  0  0  0  0
  3  2  2  0  0  0  0
  4 48  1  0  0  0  0
  4  3  1  0  0  0  0
  5  4  1  0  0  0  0
  6  5  2  0  0  0  0
  7  6  1  0  0  0  0
  8 36  1  0  0  0  0
  8  7  2  0  0  0  0
  9  8  1  0  0  0  0
 10  9  2  0  0  0  0
 10 33  1  0  0  0  0
 11 10  1  0  0  0  0
 12 14  1  0  0  0  0
 12 11  1  0  0  0  0
 13 12  2  0  0  0  0
 14 50  1  0  0  0  0
 15 14  2  0  0  0  0
 15 28  1  0  0  0  0
 16 17  1  0  0  0  0
 17 18  1  0  0  0  0
 18 19  1  1  0  0  0
 18 20  1  0  0  0  0
 18 24  1  0  0  0  0
 20 54  1  0  0  0  0
 21 20  1  0  0  0  0
 21 22  1  0  0  0  0
 22 56  1  0  0  0  0
 22 57  1  0  0  0  0
 23 21  2  0  0  0  0
 24 27  2  0  0  0  0
 25 24  1  0  0  0  0
 25 26  1  0  0  0  0
 26 59  1  0  0  0  0
 26 60  1  0  0  0  0
 28 62  1  0  0  0  0
 28 29  1  0  0  0  0
 29 31  1  0  0  0  0
 30 29  1  0  0  0  0
 30 64  1  0  0  0  0
 31 67  1  0  0  0  0
 31 69  1  0  0  0  0
 32 70  1  0  0  0  0
 32 11  1  0  0  0  0
 33 34  2  0  0  0  0
 34 74  1  0  0  0  0
 34  7  1  0  0  0  0
 35 39  2  0  0  0  0
 35  5  1  0  0  0  0
 36 35  1  0  0  0  0
 37 36  1  0  0  0  0
 37 38  2  0  0  0  0
 38 39  1  0  0  0  0
 39 76  1  0  0  0  0
 40  3  1  0  0  0  0
 40 41  2  0  0  0  0
 41 42  1  0  0  0  0
 42 43  2  0  0  0  0
 42 79  1  0  0  0  0
 43 44  1  0  0  0  0
 44 80  1  0  0  0  0
 45  1  1  0  0  0  0
 47  1  1  0  0  0  0
 49  9  1  0  0  0  0
 51 15  1  0  0  0  0
 52 17  1  0  0  0  0
 53 17  1  0  0  0  0
 55 22  1  0  0  0  0
 58 25  1  0  0  0  0
 61 26  1  0  0  0  0
 63 28  1  0  0  0  0
 65 30  1  0  0  0  0
 66 30  1  0  0  0  0
 68 31  1  0  0  0  0
 71 32  1  0  0  0  0
 72 32  1  0  0  0  0
 73 33  1  0  0  0  0
 75 37  1  0  0  0  0
 77 40  1  0  0  0  0
 78 41  1  0  0  0  0
M  END
