79
-1 1
C        -5.185870   -3.088092    4.035715
C        -5.058707   -4.463040    3.446726
C        -4.996505   -4.663603    2.053543
N        -5.067191   -3.573610    1.157446
C        -4.103577   -2.585852    1.056054
N        -3.081868   -2.563340    1.843188
C        -2.149123   -1.549476    1.704161
C        -2.228300   -0.546417    0.714563
C        -1.258714    0.441614    0.586572
C        -0.140913    0.482987    1.433355
N         0.818555    1.468640    1.330885
C         1.327725    1.969263    0.059288
O         1.778386    3.150856    0.094983
C         1.305388    1.106695   -1.020018
C         1.833493    1.492631   -2.349963
S         3.568925    0.821773   -2.677680
C         4.420084    1.560995   -1.270315
C         4.575103    3.091090   -1.340716
H         3.578194    3.539030   -1.450799
N         5.405400    3.520242   -2.434023
C         4.916893    4.071558   -3.572763
C         5.974702    4.430457   -4.603802
O         3.732530    4.243074   -3.793879
C         5.199059    3.580113   -0.031189
N         4.313002    3.698235    0.972415
C         4.701992    4.057158    2.307743
O         6.406032    3.784991    0.058031
C         0.957776    1.140388   -3.574244
N         0.336463   -0.163314   -3.690785
C         1.206504   -1.307391   -3.746653
C        -0.887098   -0.393390   -2.972358
C         1.348591    2.086229    2.528197
C        -0.075169   -0.533267    2.418370
F         0.985190   -0.573475    3.237105
C        -1.040791   -1.506903    2.562971
C        -4.321107   -1.580521    0.037001
N        -3.363746   -0.595890   -0.112589
C        -3.800128    0.221803   -1.107452
N        -4.957624   -0.173693   -1.594457
C        -5.299405   -1.286603   -0.897511
C        -4.927990   -5.960138    1.532505
C        -4.912558   -7.069372    2.372275
C        -4.948158   -6.884082    3.751939
C        -5.019858   -5.592905    4.270274
H        -5.863517   -2.466304    3.431348
H        -4.208197   -2.583442    4.035185
H        -5.568112   -3.132791    5.065062
H        -5.572822   -3.753303    0.299616
H        -1.324279    1.198844   -0.193645
H         1.017053    0.065501   -0.868156
H         1.973150    2.582846   -2.391904
H         5.414316    1.090976   -1.213910
H         3.861375    1.290578   -0.361185
H         6.397596    3.551415   -2.228124
H         5.648938    5.325887   -5.148081
H         6.049473    3.602011   -5.324355
H         6.968131    4.601389   -4.164311
H         3.311990    3.523177    0.741967
H         4.374650    3.296640    3.035857
H         4.267866    5.025194    2.610431
H         5.796662    4.138513    2.344636
H         1.558890    1.318611   -4.484983
H         0.143305    1.883192   -3.593504
H         2.057823   -1.102621   -4.414202
H         0.656023   -2.174020   -4.155354
H         1.627873   -1.607468   -2.764010
H        -1.463544   -1.203970   -3.455556
H        -1.509621    0.513653   -3.002825
H        -0.759875   -0.672239   -1.904984
H         2.317652    1.658539    2.842273
H         0.638597    1.979116    3.359873
H         1.487335    3.154326    2.314436
H        -0.926969   -2.276028    3.327258
H        -3.236997    1.092950   -1.434126
H        -6.232465   -1.817730   -1.082589
H        -4.872224   -6.090859    0.448703
H        -4.857775   -8.073939    1.947164
H        -4.926430   -7.743233    4.426001
H        -5.065040   -5.450048    5.353459
