-1 1
 OpenBabel05232414493D

 79 81  0  0  1  0  0  0  0  0999 V2000
    0.2742    6.1967   -4.4680 C   0  0  0  0  0  0  0  0  0  0  0  0
    0.4499    4.8891   -5.1845 C   0  0  0  0  0  0  0  0  0  0  0  0
    0.4084    4.8085   -6.5892 C   0  0  0  0  0  0  0  0  0  0  0  0
    0.1797    5.9626   -7.3778 N   0  0  0  0  0  0  0  0  0  0  0  0
    1.0576    7.0158   -7.4856 C   0  0  0  0  0  0  0  0  0  0  0  0
    2.1444    7.0506   -6.7866 N   0  0  0  0  0  0  0  0  0  0  0  0
    2.9923    8.1345   -6.9176 C   0  0  0  0  0  0  0  0  0  0  0  0
    2.7438    9.2140   -7.7913 C   0  0  0  0  0  0  0  0  0  0  0  0
    3.6199   10.2926   -7.8836 C   0  0  0  0  0  0  0  0  0  0  0  0
    4.8083   10.3141   -7.1553 C   0  0  0  0  0  0  0  0  0  0  0  0
    5.7195   11.3716   -7.2719 N   0  0  0  0  0  0  0  0  0  0  0  0
    6.2672   11.8048   -8.4975 C   0  0  0  0  0  0  0  0  0  0  0  0
    6.9048   12.8604   -8.4807 O   0  0  0  0  0  0  0  0  0  0  0  0
    6.0411   10.9814   -9.6625 C   0  0  0  0  0  3  0  0  0  0  0  0
    6.5863   11.2575  -10.8858 C   0  0  0  0  0  3  0  0  0  0  0  0
    9.0470   10.0478  -11.0183 S   0  0  0  0  0  1  0  0  0  0  0  0
    9.5738   10.8609   -9.4892 C   0  0  0  0  0  0  0  0  0  0  0  0
    9.7982   12.3891   -9.6183 C   0  0  2  0  0  0  0  0  0  0  0  0
    8.8279   12.8751   -9.7773 H   0  0  0  0  0  0  0  0  0  0  0  0
   10.6264   12.7326  -10.7435 N   0  0  0  0  0  0  0  0  0  0  0  0
   10.0977   13.1797  -11.9110 C   0  0  0  0  0  0  0  0  0  0  0  0
   11.0294   13.0681  -13.1034 C   0  0  0  0  0  0  0  0  0  0  0  0
    8.9714   13.6345  -12.0217 O   0  0  0  0  0  0  0  0  0  0  0  0
   10.4246   12.9113   -8.3297 C   0  0  0  0  0  0  0  0  0  0  0  0
    9.5141   13.2607   -7.3853 N   0  0  0  0  0  0  0  0  0  0  0  0
    9.8944   13.6839   -6.0678 C   0  0  0  0  0  0  0  0  0  0  0  0
   11.6343   12.9499   -8.1561 O   0  0  0  0  0  0  0  0  0  0  0  0
    6.0979   10.6202  -12.1670 C   0  0  0  0  0  0  0  0  0  0  0  0
    5.3022    9.4133  -12.1139 N   0  0  0  0  0  0  0  0  0  0  0  0
    5.9476    8.2082  -11.6567 C   0  0  0  0  0  0  0  0  0  0  0  0
    3.9198    9.5239  -11.7479 C   0  0  0  0  0  0  0  0  0  0  0  0
    6.1440   12.0780   -6.0753 C   0  0  0  0  0  0  0  0  0  0  0  0
    5.0542    9.2279   -6.2931 C   0  0  0  0  0  0  0  0  0  0  0  0
    6.1818    9.2203   -5.5827 F   0  0  0  0  0  0  0  0  0  0  0  0
    4.1730    8.1746   -6.1586 C   0  0  0  0  0  0  0  0  0  0  0  0
    0.6911    8.0729   -8.4065 C   0  0  0  0  0  0  0  0  0  0  0  0
    1.5613    9.1376   -8.5431 N   0  0  0  0  0  0  0  0  0  0  0  0
    1.0127    9.9723   -9.4660 C   0  0  0  0  0  0  0  0  0  0  0  0
   -0.1387    9.5174   -9.9125 N   0  0  0  0  0  0  0  0  0  0  0  0
   -0.3577    8.3441   -9.2676 C   0  0  0  0  0  0  0  0  0  0  0  0
    0.5344    3.5729   -7.2311 C   0  0  0  0  0  0  0  0  0  0  0  0
    0.7094    2.4034   -6.4981 C   0  0  0  0  0  0  0  0  0  0  0  0
    0.7754    2.4705   -5.1086 C   0  0  0  0  0  0  0  0  0  0  0  0
    0.6467    3.7021   -4.4708 C   0  0  0  0  0  0  0  0  0  0  0  0
   -0.4959    6.8112   -4.9581 H   0  0  0  0  0  0  0  0  0  0  0  0
    1.2102    6.7744   -4.4999 H   0  0  0  0  0  0  0  0  0  0  0  0
   -0.0136    6.0378   -3.4195 H   0  0  0  0  0  0  0  0  0  0  0  0
   -0.4439    5.8394   -8.1646 H   0  0  0  0  0  0  0  0  0  0  0  0
    3.4174   11.1269   -8.5546 H   0  0  0  0  0  0  0  0  0  0  0  0
    5.4965   10.0489   -9.5385 H   0  0  0  0  0  0  0  0  0  0  0  0
    7.1498   12.1852  -11.0317 H   0  0  0  0  0  0  0  0  0  0  0  0
   10.5091   10.4045   -9.1206 H   0  0  0  0  0  0  0  0  0  0  0  0
    8.8179   10.7055   -8.6976 H   0  0  0  0  0  0  0  0  0  0  0  0
   11.5391   12.2964  -10.7655 H   0  0  0  0  0  0  0  0  0  0  0  0
   10.7344   13.8029  -13.8624 H   0  0  0  0  0  0  0  0  0  0  0  0
   10.9129   12.0556  -13.5196 H   0  0  0  0  0  0  0  0  0  0  0  0
   12.0852   13.2130  -12.8297 H   0  0  0  0  0  0  0  0  0  0  0  0
    8.5261   13.2154   -7.6470 H   0  0  0  0  0  0  0  0  0  0  0  0
    9.4642   13.0319   -5.2876 H   0  0  0  0  0  0  0  0  0  0  0  0
    9.5756   14.7199   -5.8602 H   0  0  0  0  0  0  0  0  0  0  0  0
   10.9897   13.6356   -6.0015 H   0  0  0  0  0  0  0  0  0  0  0  0
    6.9674   10.4538  -12.8191 H   0  0  0  0  0  0  0  0  0  0  0  0
    5.4870   11.3940  -12.6723 H   0  0  0  0  0  0  0  0  0  0  0  0
    7.0021    8.2050  -11.9642 H   0  0  0  0  0  0  0  0  0  0  0  0
    5.4416    7.3244  -12.0876 H   0  0  0  0  0  0  0  0  0  0  0  0
    5.9478    8.0878  -10.5524 H   0  0  0  0  0  0  0  0  0  0  0  0
    3.3471    8.6704  -12.1555 H   0  0  0  0  0  0  0  0  0  0  0  0
    3.4856   10.4446  -12.1694 H   0  0  0  0  0  0  0  0  0  0  0  0
    3.7253    9.5388  -10.6513 H   0  0  0  0  0  0  0  0  0  0  0  0
    7.1885   11.8450   -5.8130 H   0  0  0  0  0  0  0  0  0  0  0  0
    5.4970   11.7943   -5.2356 H   0  0  0  0  0  0  0  0  0  0  0  0
    6.0666   13.1614   -6.2416 H   0  0  0  0  0  0  0  0  0  0  0  0
    4.4041    7.3474   -5.4877 H   0  0  0  0  0  0  0  0  0  0  0  0
    1.4974   10.8933   -9.7829 H   0  0  0  0  0  0  0  0  0  0  0  0
   -1.2556    7.7524   -9.4422 H   0  0  0  0  0  0  0  0  0  0  0  0
    0.5082    3.5395   -8.3231 H   0  0  0  0  0  0  0  0  0  0  0  0
    0.8085    1.4461   -7.0140 H   0  0  0  0  0  0  0  0  0  0  0  0
    0.9226    1.5633   -4.5186 H   0  0  0  0  0  0  0  0  0  0  0  0
    0.6843    3.7492   -3.3791 H   0  0  0  0  0  0  0  0  0  0  0  0
  1 47  1  0  0  0  0
  2 44  1  0  0  0  0
  2  1  1  0  0  0  0
  3  2  2  0  0  0  0
  4  3  1  0  0  0  0
  5  4  1  0  0  0  0
  5  6  2  0  0  0  0
  7  6  1  0  0  0  0
  7 35  1  0  0  0  0
  8  7  2  0  0  0  0
  9  8  1  0  0  0  0
  9 10  2  0  0  0  0
 10 33  1  0  0  0  0
 11 10  1  0  0  0  0
 11 32  1  0  0  0  0
 12 13  2  0  0  0  0
 12 11  1  0  0  0  0
 14 50  1  0  0  0  0
 14 12  1  0  0  0  0
 15 14  1  0  0  0  0
 16 17  1  0  0  0  0
 17 52  1  0  0  0  0
 17 53  1  0  0  0  0
 18 19  1  6  0  0  0
 18 17  1  0  0  0  0
 18 24  1  0  0  0  0
 20 18  1  0  0  0  0
 21 20  1  0  0  0  0
 22 57  1  0  0  0  0
 22 21  1  0  0  0  0
 23 21  2  0  0  0  0
 24 27  2  0  0  0  0
 24 25  1  0  0  0  0
 25 26  1  0  0  0  0
 26 61  1  0  0  0  0
 26 60  1  0  0  0  0
 26 59  1  0  0  0  0
 28 29  1  0  0  0  0
 28 15  1  0  0  0  0
 29 31  1  0  0  0  0
 29 30  1  0  0  0  0
 30 66  1  0  0  0  0
 31 69  1  0  0  0  0
 32 70  1  0  0  0  0
 32 71  1  0  0  0  0
 33 35  2  0  0  0  0
 33 34  1  0  0  0  0
 35 73  1  0  0  0  0
 36  5  1  0  0  0  0
 37 36  1  0  0  0  0
 37  8  1  0  0  0  0
 38 37  1  0  0  0  0
 39 38  2  0  0  0  0
 39 40  1  0  0  0  0
 40 36  2  0  0  0  0
 41  3  1  0  0  0  0
 41 42  2  0  0  0  0
 42 43  1  0  0  0  0
 43 78  1  0  0  0  0
 43 44  2  0  0  0  0
 44 79  1  0  0  0  0
 45  1  1  0  0  0  0
 46  1  1  0  0  0  0
 48  4  1  0  0  0  0
 49  9  1  0  0  0  0
 51 15  1  0  0  0  0
 54 20  1  0  0  0  0
 55 22  1  0  0  0  0
 56 22  1  0  0  0  0
 58 25  1  0  0  0  0
 62 28  1  0  0  0  0
 63 28  1  0  0  0  0
 64 30  1  0  0  0  0
 65 30  1  0  0  0  0
 67 31  1  0  0  0  0
 68 31  1  0  0  0  0
 72 32  1  0  0  0  0
 74 38  1  0  0  0  0
 75 40  1  0  0  0  0
 76 41  1  0  0  0  0
 77 42  1  0  0  0  0
M  END
