76
-1 1
C        -5.040870    4.471456   -4.981868
N        -5.209151    3.299711   -4.163367
C        -5.059631    3.522162   -2.739091
C        -3.729679    3.073541   -2.168374
S        -4.300713    0.664822   -1.964760
C        -3.000096    0.169452   -3.112112
C        -3.292276    0.388823   -4.604894
H        -3.629263    1.426149   -4.753015
N        -4.340104   -0.485647   -5.061777
C        -4.970650   -0.303677   -6.245670
C        -5.866817   -1.454762   -6.670019
O        -4.834621    0.693956   -6.933004
C        -2.006777    0.142316   -5.419939
N        -1.056401    1.098391   -5.289572
C         0.238885    0.972231   -5.904783
O        -1.842666   -0.863556   -6.091089
C        -2.578268    3.202343   -2.926138
C        -1.214240    3.244424   -2.508884
N        -0.911313    3.122553   -1.092703
C         0.221921    3.774168   -0.639365
C         0.480830    5.119199   -1.022207
F        -0.395841    5.743223   -1.801704
C         1.579721    5.815183   -0.583342
C         2.495475    5.230653    0.313017
N         3.583885    5.965492    0.749389
C         4.415427    5.430647    1.579727
N         5.524418    6.098426    2.060334
C         5.987198    7.378627    1.799558
C         7.162450    7.819523    2.443989
Cl         7.993640    6.734870    3.550352
C         7.691119    9.086373    2.235141
C         7.052744    9.964921    1.363665
C         5.890644    9.551495    0.716045
C         5.359905    8.282549    0.924338
C         4.246324    4.079660    2.075997
C         4.916793    3.228812    2.940014
N         4.264152    2.043473    3.023062
C         3.214912    2.145492    2.234513
N         3.151744    3.362902    1.631574
C         2.231935    3.916147    0.727323
C         1.124793    3.201297    0.259220
C        -1.292584    1.889210   -0.429774
O        -0.273000    3.386136   -3.287030
C        -6.342401    2.489615   -4.540118
H        -4.116261    5.000808   -4.706252
H        -5.885928    5.196648   -4.895198
H        -4.956222    4.177479   -6.039931
H        -5.872044    3.025062   -2.189762
H        -5.154212    4.605891   -2.508598
H        -3.655314    3.185464   -1.083008
H        -2.730149   -0.888342   -2.947670
H        -2.092358    0.751728   -2.880891
H        -4.421713   -1.382807   -4.603533
H        -6.365002   -1.934279   -5.814678
H        -5.251557   -2.209648   -7.183529
H        -6.617825   -1.077198   -7.374280
H        -1.206685    1.910003   -4.697725
H         0.612016   -0.058271   -5.805417
H         0.929626    1.663308   -5.404347
H         0.212345    1.211113   -6.982044
H        -2.696777    3.271445   -4.009187
H         1.729493    6.844243   -0.909810
H         6.095581    5.572050    2.708655
H         8.603003    9.375019    2.759631
H         7.464299   10.961591    1.195832
H         5.378060   10.227957    0.028837
H         4.453241    7.954109    0.421936
H         5.832987    3.418574    3.498755
H         2.471754    1.369624    2.064506
H         0.973006    2.174021    0.582631
H        -1.378179    2.053941    0.655658
H        -0.558412    1.079085   -0.605138
H        -2.268672    1.532981   -0.791967
H        -6.263871    2.224108   -5.604891
H        -7.320040    3.001963   -4.373477
H        -6.325842    1.554471   -3.961631
