76
-1 1
C        -4.539253    1.017444   -4.329765
N        -4.876277   -0.264650   -3.741262
C        -4.950259   -0.204478   -2.289896
C        -3.639137   -0.021260   -1.584952
S        -4.197385   -3.461475   -0.090392
C        -3.241655   -3.684478   -1.628937
C        -4.142634   -3.713070   -2.872360
H        -4.698257   -2.766064   -2.902250
N        -5.077500   -4.802904   -2.750050
C        -6.127938   -4.927448   -3.583958
C        -7.094444   -6.050776   -3.253544
O        -6.291212   -4.217326   -4.568047
C        -3.310039   -3.814618   -4.151186
N        -3.108796   -2.605544   -4.745415
C        -2.319991   -2.461528   -5.936767
O        -2.816287   -4.854415   -4.547493
C        -2.428458   -0.186158   -2.125770
C        -1.151336    0.200164   -1.472717
N        -0.971702   -0.077893   -0.113642
C         0.111440    0.555579    0.517322
C         0.236135    1.962743    0.484681
F        -0.695398    2.678999   -0.132622
C         1.275219    2.621049    1.102544
C         2.244739    1.908483    1.829356
N         3.267736    2.603249    2.450447
C         4.154736    1.950089    3.126182
N         5.202469    2.569072    3.770346
C         5.545413    3.911848    3.852106
C         6.687597    4.272940    4.596986
Cl         7.629097    3.018317    5.389339
C         7.098243    5.592987    4.727351
C         6.369897    6.605810    4.108866
C         5.238534    6.272218    3.367997
C         4.825961    4.949983    3.236538
C         4.114500    0.507056    3.260713
C         4.870135   -0.469766    3.887183
N         4.328653   -1.691519    3.659987
C         3.264369   -1.489844    2.912765
N         3.083490   -0.170311    2.637467
C         2.107820    0.510368    1.893101
C         1.063018   -0.152110    1.244861
C        -1.497114   -1.292364    0.507345
O        -0.301451    0.792046   -2.107833
C        -6.095050   -0.800792   -4.324968
H        -3.612190    1.414712   -3.895303
H        -5.341971    1.772829   -4.175236
H        -4.386805    0.902750   -5.413874
H        -5.379896   -1.144625   -1.899024
H        -5.644455    0.602701   -1.959794
H        -3.722108    0.269525   -0.532789
H        -2.659920   -4.621926   -1.612166
H        -2.517461   -2.863976   -1.774873
H        -5.132742   -5.184561   -1.806841
H        -6.991585   -6.419657   -2.223713
H        -6.911174   -6.884842   -3.947465
H        -8.119329   -5.693820   -3.420249
H        -3.645257   -1.804600   -4.402931
H        -1.798390   -3.412002   -6.112213
H        -1.573307   -1.657338   -5.829897
H        -2.942087   -2.242392   -6.822533
H        -2.316467   -0.458752   -3.177187
H         1.335122    3.707904    1.049645
H         5.828497    1.948879    4.267966
H         7.989437    5.817223    5.315008
H         6.688674    7.644721    4.208248
H         4.656989    7.054882    2.876383
H         3.943990    4.683254    2.659563
H         5.772279   -0.345988    4.485841
H         2.592140   -2.262784    2.546177
H         0.989130   -1.237247    1.292571
H        -1.611632   -1.126722    1.587082
H        -0.828791   -2.156014    0.349487
H        -2.482698   -1.583718    0.116639
H        -6.002588   -0.807153   -5.421114
H        -6.988442   -0.194121   -4.059378
H        -6.259489   -1.843798   -4.018783
