76
-1 1
C        -5.204327    0.783886   -3.615786
N        -5.585711   -0.240466   -2.676397
C        -5.268815    0.034198   -1.286309
C        -4.095954   -0.799201   -0.752966
S        -4.760166   -2.629901   -0.650452
C        -3.635313   -3.475400   -1.785564
C        -3.827376   -3.198625   -3.283875
H        -4.073756   -2.137773   -3.427560
N        -4.925737   -3.959229   -3.826868
C        -5.587935   -3.550820   -4.946894
C        -6.417711   -4.637598   -5.607652
O        -5.532092   -2.421726   -5.395296
C        -2.534825   -3.550813   -4.056722
N        -1.454127   -2.789538   -3.797673
C        -0.183886   -3.067878   -4.417912
O        -2.509951   -4.497469   -4.833537
C        -2.873197   -0.663615   -1.549077
C        -1.549909   -0.699162   -1.151464
N        -1.263971   -0.755716    0.308727
C        -0.183596   -0.034433    0.751658
C         0.052268    1.289374    0.274219
F        -0.811410    1.826637   -0.579433
C         1.111793    2.051914    0.695446
C         2.016852    1.570183    1.663081
N         3.066063    2.371361    2.077614
C         3.887454    1.927497    2.968460
N         4.960327    2.667740    3.433096
C         5.388678    3.939298    3.092996
C         6.527814    4.469021    3.736280
Cl         7.359771    3.498660    4.944431
C         7.020225    5.735229    3.449521
C         6.380768    6.524605    2.497213
C         5.253992    6.023058    1.848872
C         4.759668    4.754787    2.135007
C         3.746933    0.611066    3.556081
C         4.416675   -0.152663    4.499399
N         3.799917   -1.350702    4.649193
C         2.773362   -1.340597    3.824316
N         2.690709   -0.172470    3.132879
C         1.781867    0.281473    2.164053
C         0.716262   -0.505614    1.716363
C        -1.524014   -2.027571    0.944333
O        -0.551917   -0.724350   -1.902196
C        -6.907981   -0.760871   -2.915311
H        -4.173608    1.112468   -3.421026
H        -5.863191    1.684628   -3.575388
H        -5.243049    0.374982   -4.637628
H        -6.160117   -0.141182   -0.657889
H        -5.000592    1.099609   -1.152133
H        -3.920664   -0.543422    0.303549
H        -3.748199   -4.553079   -1.582758
H        -2.610018   -3.200437   -1.508120
H        -4.835603   -4.963044   -3.722281
H        -6.947725   -5.255659   -4.868199
H        -5.745332   -5.289550   -6.186825
H        -7.137529   -4.171830   -6.290685
H        -1.457535   -2.001338   -3.141747
H         0.100757   -4.123752   -4.284585
H         0.567216   -2.422649   -3.945107
H        -0.203943   -2.868133   -5.502542
H        -3.001608   -0.614836   -2.630708
H         1.239111    3.057477    0.294328
H         5.526159    2.208844    4.134827
H         7.905083    6.093557    3.977458
H         6.763709    7.520441    2.267777
H         4.740740    6.628528    1.098726
H         3.880697    4.357431    1.632744
H         5.308082    0.108208    5.069515
H         2.060782   -2.150970    3.688998
H         0.598016   -1.513057    2.107967
H        -1.596174   -1.906931    2.037490
H        -0.737985   -2.779251    0.727201
H        -2.486441   -2.425194    0.598351
H        -6.983868   -1.092643   -3.961286
H        -7.714695   -0.012172   -2.724364
H        -7.084003   -1.636504   -2.274024
