79
-1 1
C        -0.270605   -6.261011   -5.799881
C        -0.065317   -6.978614   -4.491164
C        -0.210142   -6.293828   -3.260125
N        -0.549582   -4.941018   -3.312804
C        -0.754250   -4.019530   -2.305490
N        -0.646680   -4.312080   -1.052497
C        -0.865461   -3.324858   -0.106226
C        -1.200032   -1.994587   -0.429611
C        -1.414040   -1.024468    0.540001
C        -1.280041   -1.306386    1.911908
N        -1.501190   -0.360464    2.881917
C        -1.302585    1.085967    2.672658
O        -2.052341    1.840275    3.309589
C        -0.278155    1.459041    1.801838
C        -0.022046    2.890549    1.589876
S         1.118958    3.613816    2.955215
C         0.438870    5.269560    3.247259
C         0.641552    6.318855    2.141907
H        -0.146986    6.210147    1.375463
N         1.926989    6.134963    1.480324
C         2.123300    6.475236    0.181415
C         3.252791    5.758352   -0.520003
O         1.405625    7.272281   -0.413747
C         0.507840    7.744473    2.731489
N         0.409513    8.710103    1.787009
C         0.360142   10.108390    2.119305
O         0.478800    7.958976    3.930428
C         0.461912    3.287928    0.182625
N         1.534197    2.539402   -0.460914
C         2.704341    2.257043    0.335605
C         1.127335    1.427479   -1.287756
C        -2.132944   -0.731272    4.133234
C        -0.931642   -2.650571    2.218363
F        -0.739859   -3.003398    3.498338
C        -0.745662   -3.623342    1.259364
C        -1.104617   -2.685379   -2.758180
N        -1.318820   -1.714023   -1.801879
C        -1.632177   -0.570948   -2.467806
N        -1.630840   -0.749684   -3.772368
C        -1.306652   -2.051676   -3.973534
C        -0.011648   -6.987329   -2.057092
C         0.324585   -8.339033   -2.066217
C         0.462649   -8.998172   -3.275982
F         0.785709  -10.299491   -3.295259
C         0.271566   -8.331823   -4.478801
H         0.435407   -5.421300   -5.919542
H        -1.291985   -5.851727   -5.884918
H        -0.118719   -6.938882   -6.649840
H        -0.662182   -4.563374   -4.240695
H        -1.659124   -0.000296    0.264188
H         0.429402    0.719411    1.428659
H        -0.952383    3.444619    1.793954
H         0.916497    5.633897    4.167557
H        -0.635624    5.184269    3.464815
H         2.418565    5.306903    1.823033
H         2.842609    4.826352   -0.947211
H         4.070711    5.491915    0.163662
H         3.629699    6.386095   -1.336165
H         0.567458    8.414409    0.820107
H         0.229314   10.198048    3.205445
H        -0.483574   10.607020    1.615986
H         1.288993   10.631587    1.834442
H         0.737712    4.353502    0.192513
H        -0.414864    3.213437   -0.480788
H         3.053966    3.168212    0.840302
H         3.514755    1.894877   -0.319689
H         2.542065    1.496355    1.127269
H         0.321621    1.739127   -1.970052
H         0.769529    0.539816   -0.725521
H         1.975266    1.103651   -1.914895
H        -2.877393   -1.527665    3.979012
H        -2.639754    0.173918    4.491880
H        -1.411222   -1.070850    4.893798
H        -0.469597   -4.631894    1.568382
H        -1.847429    0.362046   -1.951622
H        -1.234970   -2.472576   -4.976727
H        -0.126102   -6.443362   -1.122386
H         0.480199   -8.881880   -1.132513
H         0.389164   -8.882360   -5.414501
