-1 1
 OpenBabel05232414493D

 78 80  0  0  1  0  0  0  0  0999 V2000
    1.0746    2.7727   -2.6278 C   0  0  0  0  0  0  0  0  0  0  0  0
    0.5532    3.5283   -1.4389 C   0  0  0  0  0  0  0  0  0  0  0  0
    1.2888    4.5812   -0.8808 C   0  0  0  0  0  0  0  0  0  0  0  0
    2.5491    4.8744   -1.3665 O   0  0  0  0  0  0  0  0  0  0  0  0
    2.6639    5.5721   -2.5152 C   0  0  0  0  0  0  0  0  0  0  0  0
    1.6361    5.9983   -3.1508 N   0  0  0  0  0  0  0  0  0  0  0  0
    1.8345    6.6846   -4.3409 C   0  0  0  0  0  0  0  0  0  0  0  0
    3.1125    6.9135   -4.8847 C   0  0  0  0  0  0  0  0  0  0  0  0
    3.2836    7.4988   -6.1323 C   0  0  0  0  0  0  0  0  0  0  0  0
    2.2044    8.0345   -6.8454 C   0  0  0  0  0  0  0  0  0  0  0  0
    2.3931    8.6970   -8.0568 N   0  0  0  0  0  0  0  0  0  0  0  0
    3.6213    9.3366   -8.3894 C   0  0  0  0  0  0  0  0  0  0  0  0
    3.9255    9.3961   -9.5734 O   0  0  0  0  0  0  0  0  0  0  0  0
    4.4174    9.8847   -7.3159 C   0  0  0  0  0  3  0  0  0  0  0  0
    5.6556   10.4190   -7.5651 C   0  0  0  0  0  3  0  0  0  0  0  0
    5.4028   12.9162   -8.0047 S   0  0  0  0  0  1  0  0  0  0  0  0
    3.6464   12.8973   -7.5815 C   0  0  0  0  0  0  0  0  0  0  0  0
    2.6393   13.3672   -8.6557 C   0  0  2  0  0  0  0  0  0  0  0  0
    2.9179   14.3893   -8.9633 H   0  0  0  0  0  0  0  0  0  0  0  0
    1.2929   13.3797   -8.1279 N   0  0  0  0  0  0  0  0  0  0  0  0
    0.8023   14.3333   -7.3093 C   0  0  0  0  0  0  0  0  0  0  0  0
   -0.6575   14.1512   -6.9183 C   0  0  0  0  0  0  0  0  0  0  0  0
    1.4577   15.2683   -6.8796 O   0  0  0  0  0  0  0  0  0  0  0  0
    2.5762   12.4818   -9.9135 C   0  0  0  0  0  0  0  0  0  0  0  0
    3.7111   12.4132  -10.6235 N   0  0  0  0  0  0  0  0  0  0  0  0
    3.8111   11.5557  -11.7796 C   0  0  0  0  0  0  0  0  0  0  0  0
    1.5273   11.9280  -10.2424 O   0  0  0  0  0  0  0  0  0  0  0  0
    6.6357   10.5726   -6.4283 C   0  0  0  0  0  0  0  0  0  0  0  0
    7.0921    9.2766   -5.9087 N   0  0  0  0  0  0  0  0  0  0  0  0
    7.8026    8.5000   -6.8992 C   0  0  0  0  0  0  0  0  0  0  0  0
    7.8635    9.4325   -4.6966 C   0  0  0  0  0  0  0  0  0  0  0  0
    1.5293    8.4294   -9.2024 C   0  0  0  0  0  0  0  0  0  0  0  0
    0.9316    7.8726   -6.2460 C   0  0  0  0  0  0  0  0  0  0  0  0
   -0.1479    8.3999   -6.8359 F   0  0  0  0  0  0  0  0  0  0  0  0
    0.7415    7.1848   -5.0630 C   0  0  0  0  0  0  0  0  0  0  0  0
    4.0229    5.8076   -2.9265 C   0  0  0  0  0  0  0  0  0  0  0  0
    4.2036    6.5153   -4.1019 N   0  0  0  0  0  0  0  0  0  0  0  0
    5.5382    6.7374   -4.2300 C   0  0  0  0  0  0  0  0  0  0  0  0
    6.2104    6.1977   -3.2302 N   0  0  0  0  0  0  0  0  0  0  0  0
    5.2940    5.6155   -2.4155 C   0  0  0  0  0  0  0  0  0  0  0  0
    0.8261    5.3070    0.2104 C   0  0  0  0  0  0  0  0  0  0  0  0
   -0.4065    4.9900    0.7765 C   0  0  0  0  0  0  0  0  0  0  0  0
   -1.1611    3.9480    0.2427 C   0  0  0  0  0  0  0  0  0  0  0  0
   -0.6792    3.2294   -0.8508 C   0  0  0  0  0  0  0  0  0  0  0  0
    2.1461    2.5499   -2.5179 H   0  0  0  0  0  0  0  0  0  0  0  0
    0.9605    3.3787   -3.5402 H   0  0  0  0  0  0  0  0  0  0  0  0
    0.5309    1.8284   -2.7678 H   0  0  0  0  0  0  0  0  0  0  0  0
    4.2851    7.5948   -6.5471 H   0  0  0  0  0  0  0  0  0  0  0  0
    4.0345    9.8836   -6.2947 H   0  0  0  0  0  0  0  0  0  0  0  0
    6.0506   10.3032   -8.5759 H   0  0  0  0  0  0  0  0  0  0  0  0
    3.4717   13.5375   -6.7057 H   0  0  0  0  0  0  0  0  0  0  0  0
    3.3685   11.8597   -7.3021 H   0  0  0  0  0  0  0  0  0  0  0  0
    0.6863   12.6955   -8.5740 H   0  0  0  0  0  0  0  0  0  0  0  0
   -0.7019   13.8874   -5.8512 H   0  0  0  0  0  0  0  0  0  0  0  0
   -1.1755   13.3738   -7.4970 H   0  0  0  0  0  0  0  0  0  0  0  0
   -1.1760   15.1118   -7.0423 H   0  0  0  0  0  0  0  0  0  0  0  0
    4.5639   12.6583  -10.0983 H   0  0  0  0  0  0  0  0  0  0  0  0
    4.7191   11.8181  -12.3408 H   0  0  0  0  0  0  0  0  0  0  0  0
    2.9355   11.7068  -12.4275 H   0  0  0  0  0  0  0  0  0  0  0  0
    3.8544   10.4972  -11.4830 H   0  0  0  0  0  0  0  0  0  0  0  0
    6.1458   11.1127   -5.6043 H   0  0  0  0  0  0  0  0  0  0  0  0
    7.4972   11.1961   -6.7476 H   0  0  0  0  0  0  0  0  0  0  0  0
    7.1597    8.3159   -7.7722 H   0  0  0  0  0  0  0  0  0  0  0  0
    8.0906    7.5237   -6.4764 H   0  0  0  0  0  0  0  0  0  0  0  0
    8.7311    9.0019   -7.2575 H   0  0  0  0  0  0  0  0  0  0  0  0
    7.2788    9.9907   -3.9498 H   0  0  0  0  0  0  0  0  0  0  0  0
    8.8199    9.9813   -4.8566 H   0  0  0  0  0  0  0  0  0  0  0  0
    8.1015    8.4466   -4.2650 H   0  0  0  0  0  0  0  0  0  0  0  0
    1.3753    9.3620   -9.7627 H   0  0  0  0  0  0  0  0  0  0  0  0
    0.5635    8.0469   -8.8619 H   0  0  0  0  0  0  0  0  0  0  0  0
    1.9971    7.6962   -9.8789 H   0  0  0  0  0  0  0  0  0  0  0  0
   -0.2659    7.0648   -4.6641 H   0  0  0  0  0  0  0  0  0  0  0  0
    5.9497    7.3730   -5.0203 H   0  0  0  0  0  0  0  0  0  0  0  0
    5.5659    5.1021   -1.4956 H   0  0  0  0  0  0  0  0  0  0  0  0
    1.4442    6.1167    0.6015 H   0  0  0  0  0  0  0  0  0  0  0  0
   -0.7749    5.5593    1.6325 H   0  0  0  0  0  0  0  0  0  0  0  0
   -2.1287    3.6904    0.6788 H   0  0  0  0  0  0  0  0  0  0  0  0
   -1.2735    2.4104   -1.2647 H   0  0  0  0  0  0  0  0  0  0  0  0
  1 45  1  0  0  0  0
  1  2  1  0  0  0  0
  2  3  2  0  0  0  0
  2 44  1  0  0  0  0
  3 41  1  0  0  0  0
  4  3  1  0  0  0  0
  5  4  1  0  0  0  0
  6  5  2  0  0  0  0
  7  6  1  0  0  0  0
  8  7  1  0  0  0  0
  8 37  1  0  0  0  0
  9  8  2  0  0  0  0
 10 33  2  0  0  0  0
 10  9  1  0  0  0  0
 11 10  1  0  0  0  0
 12 11  1  0  0  0  0
 12 14  1  0  0  0  0
 13 12  2  0  0  0  0
 14 49  1  0  0  0  0
 15 14  1  0  0  0  0
 15 28  1  0  0  0  0
 16 17  1  0  0  0  0
 17 52  1  0  0  0  0
 17 51  1  0  0  0  0
 18 19  1  6  0  0  0
 18 20  1  0  0  0  0
 18 17  1  0  0  0  0
 20 21  1  0  0  0  0
 21 22  1  0  0  0  0
 21 23  2  0  0  0  0
 22 54  1  0  0  0  0
 24 18  1  0  0  0  0
 25 57  1  0  0  0  0
 25 24  1  0  0  0  0
 26 60  1  0  0  0  0
 26 25  1  0  0  0  0
 27 24  2  0  0  0  0
 28 29  1  0  0  0  0
 28 61  1  0  0  0  0
 29 31  1  0  0  0  0
 30 64  1  0  0  0  0
 30 29  1  0  0  0  0
 31 68  1  0  0  0  0
 31 66  1  0  0  0  0
 32 70  1  0  0  0  0
 32 11  1  0  0  0  0
 33 35  1  0  0  0  0
 34 33  1  0  0  0  0
 35 72  1  0  0  0  0
 35  7  2  0  0  0  0
 36  5  1  0  0  0  0
 36 40  2  0  0  0  0
 37 36  1  0  0  0  0
 38 37  1  0  0  0  0
 38 39  2  0  0  0  0
 39 40  1  0  0  0  0
 40 74  1  0  0  0  0
 41 75  1  0  0  0  0
 41 42  2  0  0  0  0
 42 76  1  0  0  0  0
 43 77  1  0  0  0  0
 43 42  1  0  0  0  0
 44 43  2  0  0  0  0
 46  1  1  0  0  0  0
 47  1  1  0  0  0  0
 48  9  1  0  0  0  0
 50 15  1  0  0  0  0
 53 20  1  0  0  0  0
 55 22  1  0  0  0  0
 56 22  1  0  0  0  0
 58 26  1  0  0  0  0
 59 26  1  0  0  0  0
 62 28  1  0  0  0  0
 63 30  1  0  0  0  0
 65 30  1  0  0  0  0
 67 31  1  0  0  0  0
 69 32  1  0  0  0  0
 71 32  1  0  0  0  0
 73 38  1  0  0  0  0
 78 44  1  0  0  0  0
M  END
