78
-1 1
C         1.074629    2.772651   -2.627828
C         0.553237    3.528277   -1.438922
C         1.288847    4.581207   -0.880801
O         2.549071    4.874373   -1.366498
C         2.663857    5.572071   -2.515151
N         1.636143    5.998279   -3.150788
C         1.834525    6.684588   -4.340854
C         3.112505    6.913473   -4.884698
C         3.283598    7.498759   -6.132309
C         2.204371    8.034494   -6.845384
N         2.393141    8.697047   -8.056815
C         3.621292    9.336574   -8.389402
O         3.925473    9.396072   -9.573447
C         4.417376    9.884705   -7.315852
C         5.655628   10.419006   -7.565120
S         5.402777   12.916225   -8.004653
C         3.646382   12.897277   -7.581513
C         2.639276   13.367159   -8.655696
H         2.917911   14.389257   -8.963318
N         1.292865   13.379694   -8.127869
C         0.802262   14.333295   -7.309278
C        -0.657532   14.151183   -6.918268
O         1.457687   15.268326   -6.879551
C         2.576176   12.481752   -9.913540
N         3.711059   12.413174  -10.623454
C         3.811071   11.555724  -11.779595
O         1.527268   11.927987  -10.242389
C         6.635729   10.572628   -6.428288
N         7.092126    9.276613   -5.908722
C         7.802636    8.499979   -6.899180
C         7.863479    9.432470   -4.696568
C         1.529300    8.429383   -9.202445
C         0.931614    7.872593   -6.245962
F        -0.147851    8.399858   -6.835894
C         0.741486    7.184811   -5.063021
C         4.022905    5.807577   -2.926462
N         4.203642    6.515347   -4.101947
C         5.538157    6.737405   -4.230009
N         6.210413    6.197667   -3.230159
C         5.294039    5.615540   -2.415454
C         0.826126    5.306969    0.210381
C        -0.406519    4.990019    0.776511
C        -1.161132    3.948045    0.242721
C        -0.679174    3.229439   -0.850763
H         2.146137    2.549937   -2.517888
H         0.960536    3.378737   -3.540235
H         0.530944    1.828375   -2.767838
H         4.285084    7.594840   -6.547104
H         4.034497    9.883626   -6.294709
H         6.050627   10.303167   -8.575925
H         3.471675   13.537529   -6.705671
H         3.368462   11.859694   -7.302099
H         0.686251   12.695464   -8.574037
H        -0.701882   13.887442   -5.851214
H        -1.175527   13.373821   -7.496999
H        -1.176006   15.111772   -7.042260
H         4.563891   12.658318  -10.098289
H         4.719090   11.818101  -12.340812
H         2.935548   11.706771  -12.427489
H         3.854439   10.497175  -11.482980
H         6.145814   11.112717   -5.604314
H         7.497171   11.196066   -6.747608
H         7.159675    8.315861   -7.772159
H         8.090638    7.523721   -6.476433
H         8.731128    9.001879   -7.257511
H         7.278806    9.990656   -3.949840
H         8.819929    9.981298   -4.856552
H         8.101487    8.446616   -4.265032
H         1.375264    9.361993   -9.762697
H         0.563507    8.046930   -8.861944
H         1.997139    7.696190   -9.878862
H        -0.265890    7.064785   -4.664090
H         5.949661    7.372978   -5.020340
H         5.565885    5.102112   -1.495564
H         1.444199    6.116668    0.601457
H        -0.774882    5.559304    1.632466
H        -2.128737    3.690375    0.678765
H        -1.273530    2.410415   -1.264717
