-1 1
 OpenBabel05232414493D

 78 81  0  0  1  0  0  0  0  0999 V2000
    3.9007    4.2123  -12.9022 C   0  0  0  0  0  0  0  0  0  0  0  0
    3.1988    3.0210  -12.3214 C   0  0  0  0  0  0  0  0  0  0  0  0
    2.2287    3.1871  -11.3236 C   0  0  0  0  0  0  0  0  0  0  0  0
    1.8781    4.4604  -10.9231 O   0  0  0  0  0  0  0  0  0  0  0  0
    2.6260    5.0590   -9.9674 C   0  0  0  0  0  0  0  0  0  0  0  0
    3.6202    4.4682   -9.4254 N   0  0  0  0  0  0  0  0  0  0  0  0
    4.3525    5.1526   -8.4670 C   0  0  0  0  0  0  0  0  0  0  0  0
    4.0173    6.4486   -8.0276 C   0  0  0  0  0  0  0  0  0  0  0  0
    4.7682    7.1176   -7.0675 C   0  0  0  0  0  0  0  0  0  0  0  0
    5.9081    6.5306   -6.5084 C   0  0  0  0  0  0  0  0  0  0  0  0
    6.6615    7.1788   -5.5250 N   0  0  0  0  0  0  0  0  0  0  0  0
    6.6459    8.6253   -5.4940 C   0  0  0  0  0  0  0  0  0  0  0  0
    6.3871    9.1615   -4.4134 O   0  0  0  0  0  0  0  0  0  0  0  0
    6.9916    9.2468   -6.7262 C   0  0  0  0  0  3  0  0  0  0  0  0
    6.6878   10.5850   -7.0800 C   0  0  1  0  0  0  0  0  0  0  0  0
    4.7563   10.7331   -8.1615 S   0  0  0  0  0  0  0  0  0  0  0  0
    5.4201    9.8255   -9.5855 C   0  0  0  0  0  0  0  0  0  0  0  0
    4.4243    9.4901  -10.7088 C   0  0  2  0  0  0  0  0  0  0  0  0
    3.6975    8.7504  -10.3552 H   0  0  0  0  0  0  0  0  0  0  0  0
    5.1245    8.9095  -11.8365 N   0  0  0  0  0  0  0  0  0  0  0  0
    5.3512    7.5889  -11.9721 C   0  0  0  0  0  0  0  0  0  0  0  0
    6.1065    7.1765  -13.2214 C   0  0  0  0  0  0  0  0  0  0  0  0
    4.9593    6.7559  -11.1666 O   0  0  0  0  0  0  0  0  0  0  0  0
    3.7111   10.7324  -11.2414 C   0  0  0  0  0  0  0  0  0  0  0  0
    2.4553   10.9232  -10.7923 N   0  0  0  0  0  0  0  0  0  0  0  0
    1.7115   12.1221  -11.0764 C   0  0  0  0  0  0  0  0  0  0  0  0
    4.2774   11.4656  -12.0419 O   0  0  0  0  0  0  0  0  0  0  0  0
    6.5144   11.6931   -6.0506 C   0  0  0  0  0  0  0  0  0  0  0  0
    7.7929   12.2787   -5.6491 N   0  0  0  0  0  0  0  0  0  0  0  0
    7.6169   13.5866   -5.0725 C   0  0  0  0  0  0  0  0  0  0  0  0
    8.5997   11.4309   -4.7970 C   0  0  0  0  0  0  0  0  0  0  0  0
    6.7295    6.5230   -4.2311 C   0  0  0  0  0  0  0  0  0  0  0  0
    6.2380    5.2356   -6.9618 C   0  0  0  0  0  0  0  0  0  0  0  0
    7.3319    4.6354   -6.4714 F   0  0  0  0  0  0  0  0  0  0  0  0
    5.4860    4.5559   -7.8992 C   0  0  0  0  0  0  0  0  0  0  0  0
    2.1838    6.3828   -9.6166 C   0  0  0  0  0  0  0  0  0  0  0  0
    2.8792    7.0242   -8.6097 N   0  0  0  0  0  0  0  0  0  0  0  0
    2.2896    8.2321   -8.4297 C   0  0  0  0  0  0  0  0  0  0  0  0
    1.2801    8.4025   -9.2665 N   0  0  0  0  0  0  0  0  0  0  0  0
    1.1954    7.2641  -10.0073 C   0  0  0  0  0  0  0  0  0  0  0  0
    1.5622    2.1051  -10.7631 C   0  0  0  0  0  0  0  0  0  0  0  0
    1.8450    0.8094  -11.1905 C   0  0  0  0  0  0  0  0  0  0  0  0
    2.8042    0.6400  -12.1777 C   0  0  0  0  0  0  0  0  0  0  0  0
    3.0914   -0.5965  -12.6053 F   0  0  0  0  0  0  0  0  0  0  0  0
    3.4747    1.7180  -12.7427 C   0  0  0  0  0  0  0  0  0  0  0  0
    4.4743    4.7523  -12.1310 H   0  0  0  0  0  0  0  0  0  0  0  0
    3.1713    4.9334  -13.3028 H   0  0  0  0  0  0  0  0  0  0  0  0
    4.5811    3.9129  -13.7114 H   0  0  0  0  0  0  0  0  0  0  0  0
    4.4958    8.1290   -6.7619 H   0  0  0  0  0  0  0  0  0  0  0  0
    7.3610    8.5888   -7.5168 H   0  0  0  0  0  0  0  0  0  0  0  0
    7.2468   10.9551   -7.9477 H   0  0  0  0  0  0  0  0  0  0  0  0
    5.8508    8.8708   -9.2383 H   0  0  0  0  0  0  0  0  0  0  0  0
    6.2334   10.4168  -10.0390 H   0  0  0  0  0  0  0  0  0  0  0  0
    5.4685    9.5841  -12.5120 H   0  0  0  0  0  0  0  0  0  0  0  0
    5.4154    6.6442  -13.8916 H   0  0  0  0  0  0  0  0  0  0  0  0
    6.8981    6.4723  -12.9328 H   0  0  0  0  0  0  0  0  0  0  0  0
    6.5482    8.0233  -13.7645 H   0  0  0  0  0  0  0  0  0  0  0  0
    2.0533   10.2455  -10.1463 H   0  0  0  0  0  0  0  0  0  0  0  0
    2.2188   12.6570  -11.8892 H   0  0  0  0  0  0  0  0  0  0  0  0
    1.6652   12.7837  -10.1960 H   0  0  0  0  0  0  0  0  0  0  0  0
    0.6845   11.8777  -11.3882 H   0  0  0  0  0  0  0  0  0  0  0  0
    5.9416   11.3166   -5.1826 H   0  0  0  0  0  0  0  0  0  0  0  0
    5.9348   12.4980   -6.5245 H   0  0  0  0  0  0  0  0  0  0  0  0
    7.0848   14.2494   -5.7733 H   0  0  0  0  0  0  0  0  0  0  0  0
    8.5983   14.0418   -4.8577 H   0  0  0  0  0  0  0  0  0  0  0  0
    7.0407   13.5761   -4.1160 H   0  0  0  0  0  0  0  0  0  0  0  0
    8.7508   10.4554   -5.2774 H   0  0  0  0  0  0  0  0  0  0  0  0
    8.1336   11.2429   -3.8063 H   0  0  0  0  0  0  0  0  0  0  0  0
    9.5852   11.9019   -4.6394 H   0  0  0  0  0  0  0  0  0  0  0  0
    7.1215    5.5034   -4.3426 H   0  0  0  0  0  0  0  0  0  0  0  0
    5.7434    6.4791   -3.7329 H   0  0  0  0  0  0  0  0  0  0  0  0
    7.3975    7.0998   -3.5807 H   0  0  0  0  0  0  0  0  0  0  0  0
    5.7860    3.5598   -8.2245 H   0  0  0  0  0  0  0  0  0  0  0  0
    2.6880    8.9836   -7.7481 H   0  0  0  0  0  0  0  0  0  0  0  0
    0.4459    7.1199  -10.7819 H   0  0  0  0  0  0  0  0  0  0  0  0
    0.8200    2.2907   -9.9852 H   0  0  0  0  0  0  0  0  0  0  0  0
    1.3384   -0.0591  -10.7678 H   0  0  0  0  0  0  0  0  0  0  0  0
    4.2204    1.5309  -13.5179 H   0  0  0  0  0  0  0  0  0  0  0  0
  1  2  1  0  0  0  0
  1 46  1  0  0  0  0
  2  3  1  0  0  0  0
  3  4  1  0  0  0  0
  3 41  2  0  0  0  0
  4  5  1  0  0  0  0
  5 36  1  0  0  0  0
  5  6  2  0  0  0  0
  6  7  1  0  0  0  0
  7  8  2  0  0  0  0
  7 35  1  0  0  0  0
  8  9  1  0  0  0  0
  9 49  1  0  0  0  0
  9 10  2  0  0  0  0
 10 11  1  0  0  0  0
 11 12  1  0  0  0  0
 11 32  1  0  0  0  0
 12 13  2  0  0  0  0
 14 12  1  0  0  0  0
 15 51  1  6  0  0  0
 15 14  1  0  0  0  0
 15 28  1  0  0  0  0
 16 15  1  0  0  0  0
 17 52  1  0  0  0  0
 17 16  1  0  0  0  0
 18 19  1  1  0  0  0
 18 17  1  0  0  0  0
 20 18  1  0  0  0  0
 21 20  1  0  0  0  0
 21 23  2  0  0  0  0
 22 56  1  0  0  0  0
 22 21  1  0  0  0  0
 24 25  1  0  0  0  0
 24 18  1  0  0  0  0
 25 58  1  0  0  0  0
 26 25  1  0  0  0  0
 26 60  1  0  0  0  0
 27 24  2  0  0  0  0
 28 29  1  0  0  0  0
 28 62  1  0  0  0  0
 29 30  1  0  0  0  0
 29 31  1  0  0  0  0
 30 65  1  0  0  0  0
 30 66  1  0  0  0  0
 31 69  1  0  0  0  0
 31 68  1  0  0  0  0
 32 71  1  0  0  0  0
 32 72  1  0  0  0  0
 33 10  1  0  0  0  0
 33 34  1  0  0  0  0
 35 33  2  0  0  0  0
 36 37  1  0  0  0  0
 37 38  1  0  0  0  0
 37  8  1  0  0  0  0
 38 74  1  0  0  0  0
 39 38  2  0  0  0  0
 40 36  2  0  0  0  0
 40 39  1  0  0  0  0
 41 76  1  0  0  0  0
 42 77  1  0  0  0  0
 42 41  1  0  0  0  0
 43 42  2  0  0  0  0
 44 43  1  0  0  0  0
 45  2  2  0  0  0  0
 45 43  1  0  0  0  0
 47  1  1  0  0  0  0
 48  1  1  0  0  0  0
 50 14  1  0  0  0  0
 53 17  1  0  0  0  0
 54 20  1  0  0  0  0
 55 22  1  0  0  0  0
 57 22  1  0  0  0  0
 59 26  1  0  0  0  0
 61 26  1  0  0  0  0
 63 28  1  0  0  0  0
 64 30  1  0  0  0  0
 67 31  1  0  0  0  0
 70 32  1  0  0  0  0
 73 35  1  0  0  0  0
 75 40  1  0  0  0  0
 78 45  1  0  0  0  0
M  END
