-1 1
 OpenBabel05232413483D

 78 80  0  0  1  0  0  0  0  0999 V2000
   -0.1553   -2.6951   -3.5277 C   0  0  0  0  0  0  0  0  0  0  0  0
   -0.5666   -4.1131   -3.2571 C   0  0  0  0  0  0  0  0  0  0  0  0
   -1.7011   -4.3847   -2.4784 C   0  0  0  0  0  0  0  0  0  0  0  0
   -2.4523   -3.3288   -2.0056 O   0  0  0  0  0  0  0  0  0  0  0  0
   -1.9880   -2.6583   -0.9279 C   0  0  0  0  0  0  0  0  0  0  0  0
   -1.0578   -3.1515   -0.1964 N   0  0  0  0  0  0  0  0  0  0  0  0
   -0.6043   -2.3985    0.8742 C   0  0  0  0  0  0  0  0  0  0  0  0
   -1.1064   -1.1141    1.1785 C   0  0  0  0  0  0  0  0  0  0  0  0
   -0.5888   -0.3704    2.2388 C   0  0  0  0  0  0  0  0  0  0  0  0
    0.4187   -0.9038    3.0351 C   0  0  0  0  0  0  0  0  0  0  0  0
    0.9449   -0.1772    4.1363 N   0  0  0  0  0  0  0  0  0  0  0  0
    1.8920    0.8157    3.9810 C   0  0  0  0  0  0  0  0  0  0  0  0
    2.1640    1.5877    4.8839 O   0  0  0  0  0  0  0  0  0  0  0  0
    2.5795    0.8475    2.6609 C   0  0  0  0  0  0  0  0  0  0  0  0
    2.9889    1.9843    2.0870 C   0  0  0  0  0  0  0  0  0  0  0  0
   -0.8873    3.1075    1.9020 S   0  0  0  0  0  1  0  0  0  0  0  0
    0.1379    2.5710    0.4813 C   0  0  0  0  0  0  0  0  0  0  0  0
   -0.4309    2.8559   -0.9256 C   0  0  2  0  0  0  0  0  0  0  0  0
   -1.4694    2.4855   -0.9781 H   0  0  0  0  0  0  0  0  0  0  0  0
    0.3637    2.2318   -1.9655 N   0  0  0  0  0  0  0  0  0  0  0  0
    0.4776    0.9159   -2.2054 C   0  0  0  0  0  0  0  0  0  0  0  0
    1.3322    0.5569   -3.4112 C   0  0  0  0  0  0  0  0  0  0  0  0
   -0.0563    0.0366   -1.5391 O   0  0  0  0  0  0  0  0  0  0  0  0
   -0.4295    4.3551   -1.2796 C   0  0  0  0  0  0  0  0  0  0  0  0
   -1.0833    5.1436   -0.4123 N   0  0  0  0  0  0  0  0  0  0  0  0
   -1.0722    6.5765   -0.5283 C   0  0  0  0  0  0  0  0  0  0  0  0
    0.1371    4.7654   -2.2909 O   0  0  0  0  0  0  0  0  0  0  0  0
    2.7550    3.3827    2.5881 C   0  0  0  0  0  0  0  0  0  0  0  0
    2.9872    4.3619    1.5386 N   0  0  0  0  0  0  0  0  0  0  0  0
    2.1449    5.5310    1.6403 C   0  0  0  0  0  0  0  0  0  0  0  0
    4.3778    4.6805    1.3584 C   0  0  0  0  0  0  0  0  0  0  0  0
    0.2421   -0.2987    5.3969 C   0  0  0  0  0  0  0  0  0  0  0  0
    0.8914   -2.1938    2.7525 C   0  0  0  0  0  0  0  0  0  0  0  0
    1.8548   -2.7087    3.5225 F   0  0  0  0  0  0  0  0  0  0  0  0
    0.4055   -2.9303    1.6918 C   0  0  0  0  0  0  0  0  0  0  0  0
   -2.6045   -1.3874   -0.7052 C   0  0  0  0  0  0  0  0  0  0  0  0
   -2.1340   -0.6372    0.3583 N   0  0  0  0  0  0  0  0  0  0  0  0
   -2.7924    0.5496    0.3208 C   0  0  0  0  0  0  0  0  0  0  0  0
   -3.6535    0.5887   -0.6810 N   0  0  0  0  0  0  0  0  0  0  0  0
   -3.5502   -0.5976   -1.3277 C   0  0  0  0  0  0  0  0  0  0  0  0
   -2.1217   -5.6818   -2.2199 C   0  0  0  0  0  0  0  0  0  0  0  0
   -1.4126   -6.7627   -2.7414 C   0  0  0  0  0  0  0  0  0  0  0  0
   -0.2872   -6.5008   -3.5082 C   0  0  0  0  0  0  0  0  0  0  0  0
    0.4094   -7.5252   -4.0180 F   0  0  0  0  0  0  0  0  0  0  0  0
    0.1381   -5.2037   -3.7707 C   0  0  0  0  0  0  0  0  0  0  0  0
    0.0871   -2.1476   -2.6021 H   0  0  0  0  0  0  0  0  0  0  0  0
   -0.9799   -2.1370   -3.9977 H   0  0  0  0  0  0  0  0  0  0  0  0
    0.7174   -2.6583   -4.1938 H   0  0  0  0  0  0  0  0  0  0  0  0
   -0.9273    0.6585    2.4343 H   0  0  0  0  0  0  0  0  0  0  0  0
    2.7302   -0.1000    2.1386 H   0  0  0  0  0  0  0  0  0  0  0  0
    3.4723    1.9111    1.1059 H   0  0  0  0  0  0  0  0  0  0  0  0
    0.2934    1.4823    0.5334 H   0  0  0  0  0  0  0  0  0  0  0  0
    1.1364    3.0360    0.5251 H   0  0  0  0  0  0  0  0  0  0  0  0
    0.7678    2.9168   -2.6020 H   0  0  0  0  0  0  0  0  0  0  0  0
    0.6820    0.1304   -4.1893 H   0  0  0  0  0  0  0  0  0  0  0  0
    2.0474   -0.2221   -3.1133 H   0  0  0  0  0  0  0  0  0  0  0  0
    1.8784    1.4121   -3.8322 H   0  0  0  0  0  0  0  0  0  0  0  0
   -1.3284    4.6994    0.4937 H   0  0  0  0  0  0  0  0  0  0  0  0
   -0.8658    6.8500   -1.5713 H   0  0  0  0  0  0  0  0  0  0  0  0
   -0.2942    7.0349    0.1075 H   0  0  0  0  0  0  0  0  0  0  0  0
   -2.0472    6.9911   -0.2310 H   0  0  0  0  0  0  0  0  0  0  0  0
    3.3672    3.5737    3.4956 H   0  0  0  0  0  0  0  0  0  0  0  0
    1.7020    3.4522    2.9122 H   0  0  0  0  0  0  0  0  0  0  0  0
    1.0908    5.2198    1.7137 H   0  0  0  0  0  0  0  0  0  0  0  0
    2.2614    6.1524    0.7371 H   0  0  0  0  0  0  0  0  0  0  0  0
    2.3845    6.1673    2.5240 H   0  0  0  0  0  0  0  0  0  0  0  0
    4.9681    3.7618    1.2117 H   0  0  0  0  0  0  0  0  0  0  0  0
    4.8190    5.2212    2.2300 H   0  0  0  0  0  0  0  0  0  0  0  0
    4.5151    5.3115    0.4656 H   0  0  0  0  0  0  0  0  0  0  0  0
    0.1865   -1.3563    5.6981 H   0  0  0  0  0  0  0  0  0  0  0  0
   -0.7811    0.1065    5.3229 H   0  0  0  0  0  0  0  0  0  0  0  0
    0.7932    0.2762    6.1503 H   0  0  0  0  0  0  0  0  0  0  0  0
    0.8016   -3.9213    1.4715 H   0  0  0  0  0  0  0  0  0  0  0  0
   -2.5622    1.3706    1.0117 H   0  0  0  0  0  0  0  0  0  0  0  0
   -4.1420   -0.8443   -2.2070 H   0  0  0  0  0  0  0  0  0  0  0  0
   -3.0080   -5.8341   -1.6026 H   0  0  0  0  0  0  0  0  0  0  0  0
   -1.7170   -7.7935   -2.5556 H   0  0  0  0  0  0  0  0  0  0  0  0
    1.0280   -5.0516   -4.3847 H   0  0  0  0  0  0  0  0  0  0  0  0
  1  2  1  0  0  0  0
  1 46  1  0  0  0  0
  2  3  1  0  0  0  0
  3 41  2  0  0  0  0
  3  4  1  0  0  0  0
  4  5  1  0  0  0  0
  5 36  1  0  0  0  0
  5  6  2  0  0  0  0
  6  7  1  0  0  0  0
  7  8  2  0  0  0  0
  7 35  1  0  0  0  0
  8  9  1  0  0  0  0
  9 49  1  0  0  0  0
  9 10  2  0  0  0  0
 10 11  1  0  0  0  0
 11 32  1  0  0  0  0
 12 11  1  0  0  0  0
 12 13  2  0  0  0  0
 14 12  1  0  0  0  0
 15 28  1  0  0  0  0
 15 14  2  0  0  0  0
 17 53  1  0  0  0  0
 17 52  1  0  0  0  0
 17 16  1  0  0  0  0
 18 19  1  6  0  0  0
 18 17  1  0  0  0  0
 20 18  1  0  0  0  0
 21 20  1  0  0  0  0
 21 23  2  0  0  0  0
 22 56  1  0  0  0  0
 22 21  1  0  0  0  0
 24 18  1  0  0  0  0
 24 25  1  0  0  0  0
 25 58  1  0  0  0  0
 26 25  1  0  0  0  0
 26 61  1  0  0  0  0
 26 60  1  0  0  0  0
 27 24  2  0  0  0  0
 28 63  1  0  0  0  0
 28 62  1  0  0  0  0
 29 30  1  0  0  0  0
 29 28  1  0  0  0  0
 30 64  1  0  0  0  0
 30 66  1  0  0  0  0
 31 29  1  0  0  0  0
 31 68  1  0  0  0  0
 32 70  1  0  0  0  0
 32 72  1  0  0  0  0
 33 10  1  0  0  0  0
 33 34  1  0  0  0  0
 35 33  2  0  0  0  0
 36 37  1  0  0  0  0
 37  8  1  0  0  0  0
 38 37  1  0  0  0  0
 38 74  1  0  0  0  0
 39 38  2  0  0  0  0
 40 36  2  0  0  0  0
 40 39  1  0  0  0  0
 41 76  1  0  0  0  0
 42 77  1  0  0  0  0
 42 41  1  0  0  0  0
 43 42  2  0  0  0  0
 44 43  1  0  0  0  0
 45 43  1  0  0  0  0
 45  2  2  0  0  0  0
 47  1  1  0  0  0  0
 48  1  1  0  0  0  0
 50 14  1  0  0  0  0
 51 15  1  0  0  0  0
 54 20  1  0  0  0  0
 55 22  1  0  0  0  0
 57 22  1  0  0  0  0
 59 26  1  0  0  0  0
 65 30  1  0  0  0  0
 67 31  1  0  0  0  0
 69 31  1  0  0  0  0
 71 32  1  0  0  0  0
 73 35  1  0  0  0  0
 75 40  1  0  0  0  0
 78 45  1  0  0  0  0
M  END
