78
-1 1
C        -0.155303   -2.695072   -3.527701
C        -0.566593   -4.113051   -3.257072
C        -1.701080   -4.384654   -2.478373
O        -2.452268   -3.328841   -2.005585
C        -1.988033   -2.658253   -0.927940
N        -1.057764   -3.151540   -0.196384
C        -0.604262   -2.398530    0.874231
C        -1.106371   -1.114060    1.178498
C        -0.588788   -0.370415    2.238826
C         0.418691   -0.903832    3.035147
N         0.944876   -0.177150    4.136333
C         1.891956    0.815716    3.981012
O         2.164013    1.587723    4.883851
C         2.579492    0.847497    2.660910
C         2.988853    1.984326    2.086966
S        -0.887272    3.107459    1.902014
C         0.137874    2.570956    0.481333
C        -0.430926    2.855902   -0.925552
H        -1.469393    2.485482   -0.978115
N         0.363715    2.231769   -1.965466
C         0.477640    0.915917   -2.205404
C         1.332208    0.556895   -3.411235
O        -0.056266    0.036575   -1.539108
C        -0.429541    4.355129   -1.279613
N        -1.083257    5.143573   -0.412298
C        -1.072205    6.576471   -0.528296
O         0.137088    4.765354   -2.290906
C         2.754999    3.382718    2.588071
N         2.987182    4.361945    1.538625
C         2.144949    5.531030    1.640270
C         4.377791    4.680513    1.358429
C         0.242121   -0.298746    5.396869
C         0.891352   -2.193809    2.752547
F         1.854783   -2.708685    3.522513
C         0.405491   -2.930306    1.691845
C        -2.604460   -1.387374   -0.705159
N        -2.134006   -0.637168    0.358348
C        -2.792378    0.549610    0.320798
N        -3.653502    0.588661   -0.681023
C        -3.550211   -0.597572   -1.327735
C        -2.121666   -5.681801   -2.219889
C        -1.412604   -6.762732   -2.741374
C        -0.287245   -6.500802   -3.508160
F         0.409412   -7.525226   -4.017956
C         0.138117   -5.203667   -3.770714
H         0.087066   -2.147629   -2.602097
H        -0.979895   -2.137000   -3.997675
H         0.717447   -2.658275   -4.193825
H        -0.927295    0.658489    2.434288
H         2.730230   -0.099999    2.138566
H         3.472310    1.911139    1.105927
H         0.293441    1.482330    0.533420
H         1.136436    3.035960    0.525088
H         0.767776    2.916810   -2.602026
H         0.681959    0.130417   -4.189256
H         2.047364   -0.222071   -3.113336
H         1.878374    1.412093   -3.832235
H        -1.328440    4.699385    0.493670
H        -0.865780    6.849997   -1.571328
H        -0.294249    7.034884    0.107505
H        -2.047172    6.991123   -0.230973
H         3.367225    3.573715    3.495616
H         1.701976    3.452221    2.912199
H         1.090823    5.219777    1.713662
H         2.261366    6.152399    0.737145
H         2.384468    6.167316    2.524024
H         4.968065    3.761781    1.211691
H         4.818971    5.221160    2.230001
H         4.515089    5.311456    0.465578
H         0.186503   -1.356322    5.698096
H        -0.781061    0.106483    5.322908
H         0.793209    0.276195    6.150254
H         0.801589   -3.921335    1.471535
H        -2.562158    1.370592    1.011745
H        -4.142008   -0.844274   -2.206969
H        -3.008024   -5.834125   -1.602637
H        -1.717044   -7.793509   -2.555609
H         1.028018   -5.051591   -4.384729
