-1 1
 OpenBabel05192410563D

 54 56  0  0  1  0  0  0  0  0999 V2000
    6.1411   -1.1656    3.6381 C   0  0  0  0  0  0  0  0  0  0  0  0
    5.2589   -0.5261    3.1135 C   0  0  0  0  0  0  0  0  0  0  0  0
    4.1791    0.2798    2.5050 C   0  0  0  0  0  0  0  0  0  0  0  0
    3.9446   -0.0622    1.2097 N   0  0  0  0  0  0  0  0  0  0  0  0
    2.9804    0.5676    0.3661 C   0  0  0  0  0  0  0  0  0  0  0  0
    1.6371    0.5844    0.7519 C   0  0  0  0  0  0  0  0  0  0  0  0
    0.6938    1.2326   -0.0607 C   0  0  0  0  0  0  0  0  0  0  0  0
   -0.7078    1.4771    0.0338 C   0  0  1  0  0  3  0  0  0  0  0  0
   -1.6822    1.1602    1.1085 C   0  0  1  0  0  0  0  0  0  0  0  0
   -2.2791   -0.6246    1.1186 S   0  0  0  0  0  0  0  0  0  0  0  0
   -3.0106   -0.7172   -0.5467 C   0  0  0  0  0  0  0  0  0  0  0  0
   -2.3147   -1.7244   -1.4573 C   0  0  2  0  0  0  0  0  0  0  0  0
   -2.3473   -2.7297   -0.9989 H   0  0  0  0  0  0  0  0  0  0  0  0
   -0.9122   -1.3775   -1.6303 N   0  0  0  0  0  0  0  0  0  0  0  0
    0.0381   -2.3009   -1.8887 C   0  0  0  0  0  0  0  0  0  0  0  0
    1.4685   -1.8523   -1.7204 C   0  0  0  0  0  0  0  0  0  0  0  0
   -0.2349   -3.4526   -2.2292 O   0  0  0  0  0  0  0  0  0  0  0  0
   -3.0708   -1.8379   -2.8023 C   0  0  0  0  0  0  0  0  0  0  0  0
   -2.5629   -2.7831   -3.6315 N   0  0  0  0  0  0  0  0  0  0  0  0
   -3.0957   -3.0215   -4.9443 C   0  0  0  0  0  0  0  0  0  0  0  0
   -4.0493   -1.1610   -3.0620 O   0  0  0  0  0  0  0  0  0  0  0  0
   -1.2475    1.4676    2.5173 C   0  0  0  0  0  0  0  0  0  0  0  0
   -0.1097    2.1777    2.7811 N   0  0  0  0  0  0  0  0  0  0  0  0
    0.5422    2.4715    2.0646 H   0  0  0  0  0  0  0  0  0  0  0  0
    0.0567    2.3375    4.1256 C   0  0  0  0  0  0  0  0  0  0  0  0
   -1.0096    1.7301    4.7547 C   0  0  0  0  0  0  0  0  0  0  0  0
   -1.8368    1.1773    3.7367 C   0  0  0  0  0  0  0  0  0  0  0  0
   -1.1146    2.2064   -1.1368 C   0  0  0  0  0  0  0  0  0  0  0  0
    0.0580    2.3680   -1.9116 N   0  0  0  0  0  0  0  0  0  0  0  0
   -2.2155    2.6249   -1.4954 O   0  0  0  0  0  0  0  0  0  0  0  0
    1.1511    1.8136   -1.2936 C   0  0  0  0  0  0  0  0  0  0  0  0
    2.4798    1.7595   -1.6840 C   0  0  0  0  0  0  0  0  0  0  0  0
    3.4090    1.1395   -0.8351 C   0  0  0  0  0  0  0  0  0  0  0  0
    3.6013    1.1379    3.1342 O   0  0  0  0  0  0  0  0  0  0  0  0
    6.9197   -1.7301    4.1161 H   0  0  0  0  0  0  0  0  0  0  0  0
    4.5539   -0.7587    0.7998 H   0  0  0  0  0  0  0  0  0  0  0  0
    1.3347    0.1143    1.6885 H   0  0  0  0  0  0  0  0  0  0  0  0
   -2.5904    1.7388    0.8775 H   0  0  0  0  0  0  0  0  0  0  0  0
   -2.9888    0.2845   -1.0040 H   0  0  0  0  0  0  0  0  0  0  0  0
   -4.0673   -0.9980   -0.4601 H   0  0  0  0  0  0  0  0  0  0  0  0
   -0.6319   -0.4686   -1.2561 H   0  0  0  0  0  0  0  0  0  0  0  0
    2.1126   -2.4964   -2.3311 H   0  0  0  0  0  0  0  0  0  0  0  0
    1.7514   -1.9613   -0.6627 H   0  0  0  0  0  0  0  0  0  0  0  0
    1.6159   -0.7963   -1.9837 H   0  0  0  0  0  0  0  0  0  0  0  0
   -1.7400   -3.2926   -3.2976 H   0  0  0  0  0  0  0  0  0  0  0  0
   -2.3448   -2.8296   -5.7292 H   0  0  0  0  0  0  0  0  0  0  0  0
   -3.9446   -2.3418   -5.0956 H   0  0  0  0  0  0  0  0  0  0  0  0
   -3.4513   -4.0597   -5.0567 H   0  0  0  0  0  0  0  0  0  0  0  0
    0.9339    2.8412    4.5231 H   0  0  0  0  0  0  0  0  0  0  0  0
   -1.1722    1.6788    5.8297 H   0  0  0  0  0  0  0  0  0  0  0  0
   -2.7628    0.6216    3.8670 H   0  0  0  0  0  0  0  0  0  0  0  0
    0.0503    2.8466   -2.7998 H   0  0  0  0  0  0  0  0  0  0  0  0
    2.8039    2.2075   -2.6268 H   0  0  0  0  0  0  0  0  0  0  0  0
    4.4683    1.1142   -1.1003 H   0  0  0  0  0  0  0  0  0  0  0  0
  1 35  1  0  0  0  0
  2  1  3  0  0  0  0
  3  2  1  0  0  0  0
  3 34  2  0  0  0  0
  4  3  1  0  0  0  0
  5  6  1  0  0  0  0
  5  4  1  0  0  0  0
  6 37  1  0  0  0  0
  7  8  1  0  0  0  0
  7  6  2  0  0  0  0
  8  9  1  1  0  0  0
  9 38  1  6  0  0  0
  9 10  1  0  0  0  0
  9 22  1  0  0  0  0
 11 40  1  0  0  0  0
 11 10  1  0  0  0  0
 12 13  1  1  0  0  0
 12 11  1  0  0  0  0
 14 12  1  0  0  0  0
 14 41  1  0  0  0  0
 15 16  1  0  0  0  0
 15 14  1  0  0  0  0
 16 43  1  0  0  0  0
 17 15  2  0  0  0  0
 18 12  1  0  0  0  0
 19 45  1  0  0  0  0
 19 18  1  0  0  0  0
 20 19  1  0  0  0  0
 21 18  2  0  0  0  0
 22 23  1  0  0  0  0
 22 27  2  0  0  0  0
 23 25  1  0  0  0  0
 24 23  1  0  0  0  0
 25 49  1  0  0  0  0
 25 26  2  0  0  0  0
 26 50  1  0  0  0  0
 27 51  1  0  0  0  0
 27 26  1  0  0  0  0
 28  8  1  0  0  0  0
 29 31  1  0  0  0  0
 29 28  1  0  0  0  0
 30 28  2  0  0  0  0
 31  7  1  0  0  0  0
 32 31  2  0  0  0  0
 32 33  1  0  0  0  0
 33  5  2  0  0  0  0
 36  4  1  0  0  0  0
 39 11  1  0  0  0  0
 42 16  1  0  0  0  0
 44 16  1  0  0  0  0
 46 20  1  0  0  0  0
 47 20  1  0  0  0  0
 48 20  1  0  0  0  0
 52 29  1  0  0  0  0
 53 32  1  0  0  0  0
 54 33  1  0  0  0  0
M  END
