-1 1
 OpenBabel05232414493D

 54 55  0  0  1  0  0  0  0  0999 V2000
   20.0061   -7.1402   -8.1902 C   0  0  0  0  0  0  0  0  0  0  0  0
   18.9861   -6.8057   -8.7466 C   0  0  0  0  0  0  0  0  0  0  0  0
   17.7357   -6.3724   -9.3969 C   0  0  0  0  0  0  0  0  0  0  0  0
   17.5510   -6.9588  -10.6117 N   0  0  0  0  0  0  0  0  0  0  0  0
   16.4678   -6.6937  -11.4920 C   0  0  0  0  0  0  0  0  0  0  0  0
   15.1700   -6.5808  -10.9792 C   0  0  0  0  0  0  0  0  0  0  0  0
   14.1209   -6.2422  -11.8297 C   0  0  0  0  0  0  0  0  0  0  0  0
   12.7017   -6.0166  -11.6393 C   0  0  2  0  0  3  0  0  0  0  0  0
   11.8972   -6.0326  -10.5135 C   0  0  0  0  0  3  0  0  0  0  0  0
   10.9999   -8.5628  -10.1629 S   0  0  0  0  0  1  0  0  0  0  0  0
   10.2424   -8.5761  -11.8211 C   0  0  0  0  0  0  0  0  0  0  0  0
   11.0862   -9.2430  -12.9473 C   0  0  2  0  0  0  0  0  0  0  0  0
   10.8651  -10.3275  -12.9629 H   0  0  0  0  0  0  0  0  0  0  0  0
   12.4957   -9.0738  -12.6407 N   0  0  0  0  0  0  0  0  0  0  0  0
   13.5290   -9.7095  -13.2163 C   0  0  0  0  0  0  0  0  0  0  0  0
   14.8199   -9.7162  -12.4261 C   0  0  0  0  0  0  0  0  0  0  0  0
   13.4787  -10.2422  -14.3275 O   0  0  0  0  0  0  0  0  0  0  0  0
   10.5907   -8.7111  -14.3013 C   0  0  0  0  0  0  0  0  0  0  0  0
   11.5333   -8.4756  -15.2538 N   0  0  0  0  0  0  0  0  0  0  0  0
   11.1108   -8.0313  -16.5555 C   0  0  0  0  0  0  0  0  0  0  0  0
    9.4015   -8.5339  -14.4956 O   0  0  0  0  0  0  0  0  0  0  0  0
   12.2974   -5.7405   -9.1460 C   0  0  0  0  0  0  0  0  0  0  0  0
   13.5138   -5.1969   -8.7994 N   0  0  0  0  0  0  0  0  0  0  0  0
   14.2586   -4.9678   -9.4450 H   0  0  0  0  0  0  0  0  0  0  0  0
   13.5674   -4.9671   -7.4606 C   0  0  0  0  0  0  0  0  0  0  0  0
   12.3609   -5.3623   -6.9112 C   0  0  0  0  0  0  0  0  0  0  0  0
   11.5594   -5.8451   -7.9730 C   0  0  0  0  0  0  0  0  0  0  0  0
   12.1195   -5.8304  -12.9814 C   0  0  0  0  0  0  0  0  0  0  0  0
   13.1963   -5.8838  -13.8752 N   0  0  0  0  0  0  0  0  0  0  0  0
   10.9701   -5.6282  -13.3245 O   0  0  0  0  0  0  0  0  0  0  0  0
   14.3810   -6.1503  -13.2267 C   0  0  0  0  0  0  0  0  0  0  0  0
   15.6568   -6.3160  -13.7445 C   0  0  0  0  0  0  0  0  0  0  0  0
   16.7149   -6.5595  -12.8585 C   0  0  0  0  0  0  0  0  0  0  0  0
   16.9884   -5.5782   -8.8657 O   0  0  0  0  0  0  0  0  0  0  0  0
   20.9073   -7.4335   -7.6847 H   0  0  0  0  0  0  0  0  0  0  0  0
   18.2928   -7.5606  -10.9461 H   0  0  0  0  0  0  0  0  0  0  0  0
   14.9976   -6.7686   -9.9221 H   0  0  0  0  0  0  0  0  0  0  0  0
   10.8318   -5.9081  -10.7135 H   0  0  0  0  0  0  0  0  0  0  0  0
   10.0371   -7.5412  -12.1268 H   0  0  0  0  0  0  0  0  0  0  0  0
    9.2717   -9.0864  -11.7947 H   0  0  0  0  0  0  0  0  0  0  0  0
   12.5968   -8.7805  -11.6555 H   0  0  0  0  0  0  0  0  0  0  0  0
   15.2405  -10.7300  -12.4739 H   0  0  0  0  0  0  0  0  0  0  0  0
   14.6866   -9.4123  -11.3801 H   0  0  0  0  0  0  0  0  0  0  0  0
   15.5331   -9.0300  -12.9057 H   0  0  0  0  0  0  0  0  0  0  0  0
   12.3920   -9.0262  -15.1631 H   0  0  0  0  0  0  0  0  0  0  0  0
   11.9937   -7.7591  -17.1525 H   0  0  0  0  0  0  0  0  0  0  0  0
   10.4628   -7.1491  -16.4505 H   0  0  0  0  0  0  0  0  0  0  0  0
   10.5362   -8.7973  -17.1083 H   0  0  0  0  0  0  0  0  0  0  0  0
   14.4638   -4.5529   -7.0059 H   0  0  0  0  0  0  0  0  0  0  0  0
   12.0960   -5.3204   -5.8567 H   0  0  0  0  0  0  0  0  0  0  0  0
   10.5634   -6.2781   -7.9173 H   0  0  0  0  0  0  0  0  0  0  0  0
   13.0403   -5.9515  -14.8705 H   0  0  0  0  0  0  0  0  0  0  0  0
   15.8390   -6.2456  -14.8187 H   0  0  0  0  0  0  0  0  0  0  0  0
   17.7355   -6.6490  -13.2391 H   0  0  0  0  0  0  0  0  0  0  0  0
  1 35  1  0  0  0  0
  2  1  3  0  0  0  0
  3 34  2  0  0  0  0
  3  2  1  0  0  0  0
  4  3  1  0  0  0  0
  5  6  1  0  0  0  0
  5  4  1  0  0  0  0
  6 37  1  0  0  0  0
  7  8  1  0  0  0  0
  7  6  2  0  0  0  0
  8  9  1  6  0  0  0
  9 22  1  0  0  0  0
 11 40  1  0  0  0  0
 11 10  1  0  0  0  0
 12 13  1  1  0  0  0
 12 14  1  0  0  0  0
 12 11  1  0  0  0  0
 14 41  1  0  0  0  0
 15 14  1  0  0  0  0
 15 16  1  0  0  0  0
 16 43  1  0  0  0  0
 17 15  2  0  0  0  0
 18 12  1  0  0  0  0
 19 45  1  0  0  0  0
 19 18  1  0  0  0  0
 20 47  1  0  0  0  0
 20 19  1  0  0  0  0
 21 18  2  0  0  0  0
 22 23  1  0  0  0  0
 22 27  2  0  0  0  0
 23 25  1  0  0  0  0
 24 23  1  0  0  0  0
 25 49  1  0  0  0  0
 25 26  2  0  0  0  0
 26 50  1  0  0  0  0
 27 51  1  0  0  0  0
 27 26  1  0  0  0  0
 28  8  1  0  0  0  0
 29 31  1  0  0  0  0
 29 28  1  0  0  0  0
 30 28  2  0  0  0  0
 31  7  1  0  0  0  0
 32 31  2  0  0  0  0
 32 33  1  0  0  0  0
 33  5  2  0  0  0  0
 36  4  1  0  0  0  0
 38  9  1  0  0  0  0
 39 11  1  0  0  0  0
 42 16  1  0  0  0  0
 44 16  1  0  0  0  0
 46 20  1  0  0  0  0
 48 20  1  0  0  0  0
 52 29  1  0  0  0  0
 53 32  1  0  0  0  0
 54 33  1  0  0  0  0
M  END
