54
-1 1
C        20.006052   -7.140161   -8.190247
C        18.986098   -6.805708   -8.746631
C        17.735725   -6.372389   -9.396873
N        17.550980   -6.958756  -10.611709
C        16.467779   -6.693746  -11.491987
C        15.169997   -6.580767  -10.979187
C        14.120948   -6.242205  -11.829679
C        12.701687   -6.016596  -11.639263
C        11.897151   -6.032558  -10.513547
S        10.999863   -8.562760  -10.162934
C        10.242450   -8.576060  -11.821144
C        11.086246   -9.242986  -12.947320
H        10.865063  -10.327508  -12.962865
N        12.495674   -9.073821  -12.640656
C        13.529027   -9.709522  -13.216314
C        14.819937   -9.716177  -12.426137
O        13.478717  -10.242248  -14.327469
C        10.590666   -8.711060  -14.301255
N        11.533302   -8.475634  -15.253835
C        11.110781   -8.031331  -16.555523
O         9.401471   -8.533855  -14.495630
C        12.297370   -5.740533   -9.145995
N        13.513827   -5.196903   -8.799390
H        14.258581   -4.967829   -9.445017
C        13.567392   -4.967122   -7.460627
C        12.360853   -5.362252   -6.911185
C        11.559380   -5.845062   -7.973015
C        12.119473   -5.830414  -12.981406
N        13.196278   -5.883831  -13.875169
O        10.970145   -5.628179  -13.324517
C        14.381026   -6.150253  -13.226669
C        15.656848   -6.315977  -13.744467
C        16.714915   -6.559459  -12.858515
O        16.988368   -5.578164   -8.865659
H        20.907280   -7.433458   -7.684694
H        18.292818   -7.560552  -10.946081
H        14.997610   -6.768616   -9.922065
H        10.831811   -5.908123  -10.713504
H        10.037076   -7.541236  -12.126781
H         9.271656   -9.086388  -11.794720
H        12.596767   -8.780462  -11.655540
H        15.240519  -10.729991  -12.473861
H        14.686589   -9.412277  -11.380089
H        15.533080   -9.030013  -12.905700
H        12.391963   -9.026250  -15.163050
H        11.993741   -7.759062  -17.152453
H        10.462809   -7.149108  -16.450470
H        10.536175   -8.797272  -17.108262
H        14.463826   -4.552916   -7.005928
H        12.095963   -5.320446   -5.856660
H        10.563409   -6.278135   -7.917334
H        13.040299   -5.951519  -14.870505
H        15.839023   -6.245595  -14.818727
H        17.735469   -6.648965  -13.239067
