-1 1
 OpenBabel05232413483D

 87 90  0  0  1  0  0  0  0  0999 V2000
    3.4331    2.0770    2.6738 O   0  0  0  0  0  0  0  0  0  0  0  0
    2.8039    1.4208    3.4947 C   0  0  0  0  0  0  0  0  0  0  0  0
    1.6642    0.7433    3.1672 N   0  0  0  0  0  0  0  0  0  0  0  0
    0.8888   -0.1298    4.0334 C   0  0  0  0  0  0  0  0  0  0  0  0
   -0.5692    0.3261    4.1228 C   0  0  0  0  0  0  0  0  0  0  0  0
   -1.1929    0.5109    2.7347 C   0  0  0  0  0  0  0  0  0  0  0  0
   -0.3019    1.4430    1.9112 C   0  0  1  0  0  0  0  0  0  0  0  0
    1.1219    0.8765    1.8273 C   0  0  0  0  0  0  0  0  0  0  0  0
   -0.8253    1.8558    0.6240 N   0  0  0  0  0  0  0  0  0  0  0  0
   -0.9850    1.0848   -0.4544 C   0  0  2  0  0  3  0  0  0  0  0  0
   -0.8388   -0.2437   -0.3856 N   0  0  0  0  0  0  0  0  0  0  0  0
   -1.0109   -0.9984   -1.4871 C   0  0  0  0  0  0  0  0  0  0  0  0
   -0.8286   -2.3419   -1.2357 N   0  0  0  0  0  0  0  0  0  0  0  0
   -0.8873   -3.4646   -2.0570 C   0  0  0  0  0  0  0  0  0  0  0  0
   -1.1761   -3.4343   -3.4321 C   0  0  0  0  0  0  0  0  0  0  0  0
   -1.2194   -4.6131   -4.1652 C   0  0  0  0  0  0  0  0  0  0  0  0
   -0.9621   -5.8658   -3.5882 C   0  0  0  0  0  0  0  0  0  0  0  0
   -1.0225   -7.0348   -4.3830 N   0  0  0  0  0  0  0  0  0  0  0  0
   -1.0936   -8.3085   -3.6967 C   0  0  0  0  0  0  0  0  0  0  0  0
   -1.5003   -9.4093   -4.6804 C   0  0  0  0  0  0  0  0  0  0  0  0
   -0.6402   -9.4954   -5.8469 N   0  0  0  0  0  0  0  0  0  0  0  0
   -0.5469   -8.1951   -6.4876 C   0  0  0  0  0  0  0  0  0  0  0  0
   -0.1286   -7.0769   -5.5327 C   0  0  0  0  0  0  0  0  0  0  0  0
    0.6300  -10.1450   -5.6141 C   0  0  0  0  0  0  0  0  0  0  0  0
   -0.6720   -5.8892   -2.2179 C   0  0  0  0  0  0  0  0  0  0  0  0
   -0.6458   -4.7150   -1.4707 C   0  0  0  0  0  0  0  0  0  0  0  0
   -1.3195   -0.5902   -2.7141 N   0  0  0  0  0  2  0  0  0  0  0  0
   -1.3094    1.6446   -1.7245 C   0  0  0  0  0  0  0  0  0  0  0  0
   -1.4503    0.7400   -2.7711 C   0  0  0  0  0  0  0  0  0  0  0  0
   -1.7321    1.5165   -3.8641 N   0  0  0  0  0  0  0  0  0  0  0  0
   -1.8911    1.1798   -4.8030 H   0  0  0  0  0  0  0  0  0  0  0  0
   -1.7378    2.8259   -3.4280 C   0  0  0  0  0  0  0  0  0  0  0  0
   -1.4885    2.9385   -2.1568 N   0  0  0  0  0  0  0  0  0  0  0  0
    3.3224    1.3362    4.9006 C   0  0  0  0  0  0  0  0  0  0  0  0
    2.7551    1.8974    5.9693 C   0  0  0  0  0  0  0  0  0  0  0  0
    0.1850    4.5468    5.9561 S   0  0  0  0  0  1  0  0  0  0  0  0
    0.2298    4.0403    4.2083 C   0  0  0  0  0  0  0  0  0  0  0  0
    0.8897    5.0541    3.2491 C   0  0  2  0  0  0  0  0  0  0  0  0
    1.9790    5.0656    3.4390 H   0  0  0  0  0  0  0  0  0  0  0  0
    0.3319    6.3535    3.5126 N   0  0  0  0  0  0  0  0  0  0  0  0
    0.6730    7.4509    2.8099 C   0  0  0  0  0  0  0  0  0  0  0  0
    0.0587    8.7495    3.3051 C   0  0  0  0  0  0  0  0  0  0  0  0
    1.3890    7.4200    1.8194 O   0  0  0  0  0  0  0  0  0  0  0  0
    0.6381    4.6417    1.7933 C   0  0  0  0  0  0  0  0  0  0  0  0
    1.7174    4.1561    1.1375 N   0  0  0  0  0  0  0  0  0  0  0  0
    1.7046    3.8359   -0.2660 C   0  0  0  0  0  0  0  0  0  0  0  0
   -0.4801    4.6771    1.2905 O   0  0  0  0  0  0  0  0  0  0  0  0
    1.3491   -0.1611    5.0267 H   0  0  0  0  0  0  0  0  0  0  0  0
    0.9276   -1.1538    3.6121 H   0  0  0  0  0  0  0  0  0  0  0  0
   -0.6126    1.2749    4.6828 H   0  0  0  0  0  0  0  0  0  0  0  0
   -1.1395   -0.4159    4.7037 H   0  0  0  0  0  0  0  0  0  0  0  0
   -2.2011    0.9438    2.8218 H   0  0  0  0  0  0  0  0  0  0  0  0
   -1.2894   -0.4568    2.2161 H   0  0  0  0  0  0  0  0  0  0  0  0
   -0.2298    2.3759    2.4763 H   0  0  0  0  0  0  0  0  0  0  0  0
    1.7766    1.5489    1.2665 H   0  0  0  0  0  0  0  0  0  0  0  0
    1.1068   -0.1075    1.3288 H   0  0  0  0  0  0  0  0  0  0  0  0
   -0.9190    2.8712    0.5093 H   0  0  0  0  0  0  0  0  0  0  0  0
   -0.6028   -2.5076   -0.2637 H   0  0  0  0  0  0  0  0  0  0  0  0
   -1.3805   -2.4755   -3.9021 H   0  0  0  0  0  0  0  0  0  0  0  0
   -1.4823   -4.5597   -5.2244 H   0  0  0  0  0  0  0  0  0  0  0  0
   -1.8466   -8.2439   -2.8969 H   0  0  0  0  0  0  0  0  0  0  0  0
   -0.1272   -8.5759   -3.2117 H   0  0  0  0  0  0  0  0  0  0  0  0
   -2.5278   -9.1983   -5.0236 H   0  0  0  0  0  0  0  0  0  0  0  0
   -1.5162  -10.3836   -4.1665 H   0  0  0  0  0  0  0  0  0  0  0  0
   -1.5389   -7.9415   -6.9004 H   0  0  0  0  0  0  0  0  0  0  0  0
    0.1588   -8.2539   -7.3313 H   0  0  0  0  0  0  0  0  0  0  0  0
   -0.1612   -6.1159   -6.0630 H   0  0  0  0  0  0  0  0  0  0  0  0
    0.9254   -7.2238   -5.2067 H   0  0  0  0  0  0  0  0  0  0  0  0
    0.4583  -11.1567   -5.2139 H   0  0  0  0  0  0  0  0  0  0  0  0
    1.3095   -9.6209   -4.9089 H   0  0  0  0  0  0  0  0  0  0  0  0
    1.1685  -10.2540   -6.5686 H   0  0  0  0  0  0  0  0  0  0  0  0
   -0.4553   -6.8300   -1.7107 H   0  0  0  0  0  0  0  0  0  0  0  0
   -0.4195   -4.7715   -0.4020 H   0  0  0  0  0  0  0  0  0  0  0  0
   -1.9337    3.6525   -4.1105 H   0  0  0  0  0  0  0  0  0  0  0  0
    4.3239    0.8959    4.9669 H   0  0  0  0  0  0  0  0  0  0  0  0
    3.2802    1.8913    6.9290 H   0  0  0  0  0  0  0  0  0  0  0  0
    1.7974    2.4387    5.9513 H   0  0  0  0  0  0  0  0  0  0  0  0
   -0.7961    3.8686    3.8399 H   0  0  0  0  0  0  0  0  0  0  0  0
    0.7834    3.0962    4.0918 H   0  0  0  0  0  0  0  0  0  0  0  0
   -0.0780    6.4139    4.4502 H   0  0  0  0  0  0  0  0  0  0  0  0
   -0.3133    8.6840    4.3369 H   0  0  0  0  0  0  0  0  0  0  0  0
   -0.7802    9.0139    2.6437 H   0  0  0  0  0  0  0  0  0  0  0  0
    0.8107    9.5460    3.2286 H   0  0  0  0  0  0  0  0  0  0  0  0
    2.5800    4.0314    1.6553 H   0  0  0  0  0  0  0  0  0  0  0  0
    0.7271    4.1149   -0.6815 H   0  0  0  0  0  0  0  0  0  0  0  0
    1.8647    2.7604   -0.4518 H   0  0  0  0  0  0  0  0  0  0  0  0
    2.4870    4.3994   -0.7981 H   0  0  0  0  0  0  0  0  0  0  0  0
  1  2  2  0  0  0  0
  2 34  1  0  0  0  0
  3  2  1  0  0  0  0
  3  4  1  0  0  0  0
  4  5  1  0  0  0  0
  4 48  1  0  0  0  0
  5 50  1  0  0  0  0
  5 51  1  0  0  0  0
  6 52  1  0  0  0  0
  6  5  1  0  0  0  0
  7 54  1  1  0  0  0
  7  6  1  0  0  0  0
  8  7  1  0  0  0  0
  8  3  1  0  0  0  0
  9  7  1  0  0  0  0
 10 11  1  0  0  0  0
 10  9  1  6  0  0  0
 12 13  1  0  0  0  0
 12 11  2  0  0  0  0
 13 58  1  0  0  0  0
 14 26  1  0  0  0  0
 14 13  1  0  0  0  0
 15 14  2  0  0  0  0
 16 17  2  0  0  0  0
 16 15  1  0  0  0  0
 17 25  1  0  0  0  0
 18 19  1  0  0  0  0
 18 17  1  0  0  0  0
 19 62  1  0  0  0  0
 19 61  1  0  0  0  0
 20 64  1  0  0  0  0
 20 19  1  0  0  0  0
 21 24  1  0  0  0  0
 21 20  1  0  0  0  0
 22 21  1  0  0  0  0
 22 23  1  0  0  0  0
 23 68  1  0  0  0  0
 23 18  1  0  0  0  0
 24 69  1  0  0  0  0
 24 70  1  0  0  0  0
 25 72  1  0  0  0  0
 25 26  2  0  0  0  0
 26 73  1  0  0  0  0
 27 12  1  0  0  0  0
 28 10  1  0  0  0  0
 29 27  1  0  0  0  0
 29 28  2  0  0  0  0
 30 32  1  0  0  0  0
 30 29  1  0  0  0  0
 31 30  1  0  0  0  0
 32 33  2  0  0  0  0
 33 28  1  0  0  0  0
 34 75  1  0  0  0  0
 34 35  2  0  0  0  0
 35 76  1  0  0  0  0
 37 36  1  0  0  0  0
 38 39  1  1  0  0  0
 38 40  1  0  0  0  0
 38 37  1  0  0  0  0
 40 80  1  0  0  0  0
 41 42  1  0  0  0  0
 41 40  1  0  0  0  0
 42 81  1  0  0  0  0
 43 41  2  0  0  0  0
 44 38  1  0  0  0  0
 45 84  1  0  0  0  0
 45 44  1  0  0  0  0
 46 45  1  0  0  0  0
 47 44  2  0  0  0  0
 49  4  1  0  0  0  0
 53  6  1  0  0  0  0
 55  8  1  0  0  0  0
 56  8  1  0  0  0  0
 57  9  1  0  0  0  0
 59 15  1  0  0  0  0
 60 16  1  0  0  0  0
 63 20  1  0  0  0  0
 65 22  1  0  0  0  0
 66 22  1  0  0  0  0
 67 23  1  0  0  0  0
 71 24  1  0  0  0  0
 74 32  1  0  0  0  0
 77 35  1  0  0  0  0
 78 37  1  0  0  0  0
 79 37  1  0  0  0  0
 82 42  1  0  0  0  0
 83 42  1  0  0  0  0
 85 46  1  0  0  0  0
 86 46  1  0  0  0  0
 87 46  1  0  0  0  0
M  END
