-1 1
 OpenBabel05192410563D

 87 91  0  0  1  0  0  0  0  0999 V2000
    2.9833    2.6631    2.0960 O   0  0  0  0  0  0  0  0  0  0  0  0
    2.3325    2.0968    3.0265 C   0  0  0  0  0  0  0  0  0  0  0  0
    1.3719    1.1457    2.5806 N   0  0  0  0  0  0  0  0  0  0  0  0
    0.6864    0.1674    3.3791 C   0  0  0  0  0  0  0  0  0  0  0  0
   -0.7948    0.5299    3.5333 C   0  0  0  0  0  0  0  0  0  0  0  0
   -1.4373    0.7254    2.1542 C   0  0  0  0  0  0  0  0  0  0  0  0
   -0.6047    1.6680    1.2716 C   0  0  1  0  0  0  0  0  0  0  0  0
    0.8683    1.2211    1.2366 C   0  0  0  0  0  0  0  0  0  0  0  0
   -1.1837    1.8662   -0.0544 N   0  0  0  0  0  0  0  0  0  0  0  0
   -1.3676    0.9570   -1.0216 C   0  0  1  0  0  3  0  0  0  0  0  0
   -1.0529   -0.3275   -0.8559 N   0  0  0  0  0  0  0  0  0  0  0  0
   -1.2529   -1.2045   -1.8599 C   0  0  0  0  0  0  0  0  0  0  0  0
   -0.8665   -2.4813   -1.5222 N   0  0  0  0  0  0  0  0  0  0  0  0
   -0.8764   -3.6807   -2.2313 C   0  0  0  0  0  0  0  0  0  0  0  0
   -1.3606   -3.8301   -3.5418 C   0  0  0  0  0  0  0  0  0  0  0  0
   -1.3378   -5.0738   -4.1598 C   0  0  0  0  0  0  0  0  0  0  0  0
   -0.8220   -6.2157   -3.5287 C   0  0  0  0  0  0  0  0  0  0  0  0
   -0.8253   -7.4583   -4.2048 N   0  0  0  0  0  0  0  0  0  0  0  0
   -0.6062   -8.6520   -3.4137 C   0  0  0  0  0  0  0  0  0  0  0  0
   -0.9853   -9.8934   -4.2260 C   0  0  0  0  0  0  0  0  0  0  0  0
   -0.3023   -9.9849   -5.5039 N   0  0  0  0  0  0  0  0  0  0  0  0
   -0.4974   -8.7577   -6.2558 C   0  0  0  0  0  0  0  0  0  0  0  0
   -0.1136   -7.5004   -5.4755 C   0  0  0  0  0  0  0  0  0  0  0  0
    1.0706  -10.4308   -5.4241 C   0  0  0  0  0  0  0  0  0  0  0  0
   -0.3380   -6.0591   -2.2232 C   0  0  0  0  0  0  0  0  0  0  0  0
   -0.3745   -4.8209   -1.5887 C   0  0  0  0  0  0  0  0  0  0  0  0
   -1.7560   -0.9585   -3.0671 N   0  0  0  0  0  2  0  0  0  0  0  0
   -1.9170    1.3454   -2.2778 C   0  0  0  0  0  0  0  0  0  0  0  0
   -2.0679    0.3327   -3.2167 C   0  0  0  0  0  0  0  0  0  0  0  0
   -2.5993    0.9584   -4.3147 N   0  0  0  0  0  0  0  0  0  0  0  0
   -2.8330    0.5154   -5.1919 H   0  0  0  0  0  0  0  0  0  0  0  0
   -2.7362    2.2906   -3.9845 C   0  0  0  0  0  0  0  0  0  0  0  0
   -2.3389    2.5577   -2.7741 N   0  0  0  0  0  0  0  0  0  0  0  0
    2.5400    2.3864    4.3827 C   0  0  0  0  0  3  0  0  0  0  0  0
    1.6330    2.3122    5.5352 C   0  0  0  0  0  0  0  0  0  0  0  0
    0.4439    3.8263    5.7986 S   0  0  0  0  0  0  0  0  0  0  0  0
    0.2046    4.3455    4.0857 C   0  0  0  0  0  0  0  0  0  0  0  0
    1.2318    5.3607    3.5522 C   0  0  2  0  0  0  0  0  0  0  0  0
    2.2404    4.9442    3.6745 H   0  0  0  0  0  0  0  0  0  0  0  0
    1.1613    6.6194    4.2490 N   0  0  0  0  0  0  0  0  0  0  0  0
    2.1460    7.1104    5.0446 C   0  0  0  0  0  0  0  0  0  0  0  0
    1.8293    8.4649    5.6622 C   0  0  0  0  0  0  0  0  0  0  0  0
    3.1824    6.5273    5.2949 O   0  0  0  0  0  0  0  0  0  0  0  0
    0.9122    5.6141    2.0737 C   0  0  0  0  0  0  0  0  0  0  0  0
    1.4683    4.7413    1.2175 N   0  0  0  0  0  0  0  0  0  0  0  0
    1.1902    4.7800   -0.1936 C   0  0  0  0  0  0  0  0  0  0  0  0
    0.1455    6.5209    1.7564 O   0  0  0  0  0  0  0  0  0  0  0  0
    1.1951    0.0540    4.3424 H   0  0  0  0  0  0  0  0  0  0  0  0
    0.7532   -0.8186    2.8702 H   0  0  0  0  0  0  0  0  0  0  0  0
   -0.8770    1.4556    4.1278 H   0  0  0  0  0  0  0  0  0  0  0  0
   -1.3350   -0.2575    4.0858 H   0  0  0  0  0  0  0  0  0  0  0  0
   -2.4627    1.1182    2.2507 H   0  0  0  0  0  0  0  0  0  0  0  0
   -1.5079   -0.2464    1.6394 H   0  0  0  0  0  0  0  0  0  0  0  0
   -0.6110    2.6698    1.7275 H   0  0  0  0  0  0  0  0  0  0  0  0
    1.4900    1.9291    0.6774 H   0  0  0  0  0  0  0  0  0  0  0  0
    0.9322    0.2371    0.7370 H   0  0  0  0  0  0  0  0  0  0  0  0
   -1.4499    2.8090   -0.3094 H   0  0  0  0  0  0  0  0  0  0  0  0
   -0.4870   -2.5160   -0.5847 H   0  0  0  0  0  0  0  0  0  0  0  0
   -1.7647   -2.9602   -4.0533 H   0  0  0  0  0  0  0  0  0  0  0  0
   -1.7544   -5.1645   -5.1658 H   0  0  0  0  0  0  0  0  0  0  0  0
   -1.2354   -8.6061   -2.5121 H   0  0  0  0  0  0  0  0  0  0  0  0
    0.4495   -8.7360   -3.0688 H   0  0  0  0  0  0  0  0  0  0  0  0
   -2.0718   -9.8584   -4.4169 H   0  0  0  0  0  0  0  0  0  0  0  0
   -0.7815  -10.8022   -3.6378 H   0  0  0  0  0  0  0  0  0  0  0  0
   -1.5658   -8.6831   -6.5240 H   0  0  0  0  0  0  0  0  0  0  0  0
    0.0776   -8.8091   -7.1939 H   0  0  0  0  0  0  0  0  0  0  0  0
   -0.3652   -6.6128   -6.0711 H   0  0  0  0  0  0  0  0  0  0  0  0
    0.9867   -7.4707   -5.3112 H   0  0  0  0  0  0  0  0  0  0  0  0
    1.1112  -11.4092   -4.9201 H   0  0  0  0  0  0  0  0  0  0  0  0
    1.7603   -9.7499   -4.8816 H   0  0  0  0  0  0  0  0  0  0  0  0
    1.4740  -10.5650   -6.4400 H   0  0  0  0  0  0  0  0  0  0  0  0
    0.0843   -6.9055   -1.6806 H   0  0  0  0  0  0  0  0  0  0  0  0
    0.0104   -4.7360   -0.5685 H   0  0  0  0  0  0  0  0  0  0  0  0
   -3.1398    3.0132   -4.6934 H   0  0  0  0  0  0  0  0  0  0  0  0
    3.3929    3.0583    4.5168 H   0  0  0  0  0  0  0  0  0  0  0  0
    2.1791    2.3274    6.4894 H   0  0  0  0  0  0  0  0  0  0  0  0
    0.9421    1.4638    5.5623 H   0  0  0  0  0  0  0  0  0  0  0  0
   -0.8063    4.7751    3.9995 H   0  0  0  0  0  0  0  0  0  0  0  0
    0.2440    3.4467    3.4571 H   0  0  0  0  0  0  0  0  0  0  0  0
    0.4162    7.2297    3.9326 H   0  0  0  0  0  0  0  0  0  0  0  0
    1.1212    9.0582    5.0652 H   0  0  0  0  0  0  0  0  0  0  0  0
    2.7660    9.0219    5.7901 H   0  0  0  0  0  0  0  0  0  0  0  0
    1.3910    8.2991    6.6580 H   0  0  0  0  0  0  0  0  0  0  0  0
    2.1305    4.0103    1.5762 H   0  0  0  0  0  0  0  0  0  0  0  0
    0.4354    5.5546   -0.3850 H   0  0  0  0  0  0  0  0  0  0  0  0
    0.8088    3.8083   -0.5495 H   0  0  0  0  0  0  0  0  0  0  0  0
    2.0950    5.0172   -0.7774 H   0  0  0  0  0  0  0  0  0  0  0  0
  1  2  2  0  0  0  0
  2 34  1  0  0  0  0
  3  2  1  0  0  0  0
  3  4  1  0  0  0  0
  4  5  1  0  0  0  0
  4 48  1  0  0  0  0
  5 51  1  0  0  0  0
  5 50  1  0  0  0  0
  6 52  1  0  0  0  0
  6  5  1  0  0  0  0
  7 54  1  1  0  0  0
  7  6  1  0  0  0  0
  8  7  1  0  0  0  0
  8  3  1  0  0  0  0
  9  7  1  0  0  0  0
 10 11  1  0  0  0  0
 10  9  1  1  0  0  0
 12 13  1  0  0  0  0
 12 11  2  0  0  0  0
 13 58  1  0  0  0  0
 14 26  1  0  0  0  0
 14 13  1  0  0  0  0
 15 14  2  0  0  0  0
 16 15  1  0  0  0  0
 16 17  2  0  0  0  0
 17 25  1  0  0  0  0
 18 17  1  0  0  0  0
 18 19  1  0  0  0  0
 19 62  1  0  0  0  0
 19 61  1  0  0  0  0
 20 64  1  0  0  0  0
 20 19  1  0  0  0  0
 21 24  1  0  0  0  0
 21 20  1  0  0  0  0
 22 21  1  0  0  0  0
 22 23  1  0  0  0  0
 23 68  1  0  0  0  0
 23 18  1  0  0  0  0
 24 69  1  0  0  0  0
 24 70  1  0  0  0  0
 25 72  1  0  0  0  0
 25 26  2  0  0  0  0
 26 73  1  0  0  0  0
 27 12  1  0  0  0  0
 28 10  1  0  0  0  0
 29 27  1  0  0  0  0
 29 28  2  0  0  0  0
 30 32  1  0  0  0  0
 30 29  1  0  0  0  0
 31 30  1  0  0  0  0
 32 33  2  0  0  0  0
 33 28  1  0  0  0  0
 34 75  1  0  0  0  0
 34 35  1  0  0  0  0
 35 77  1  0  0  0  0
 35 36  1  0  0  0  0
 35 76  1  0  0  0  0
 37 36  1  0  0  0  0
 38 39  1  1  0  0  0
 38 37  1  0  0  0  0
 38 40  1  0  0  0  0
 40 41  1  0  0  0  0
 41 43  2  0  0  0  0
 41 42  1  0  0  0  0
 42 82  1  0  0  0  0
 42 83  1  0  0  0  0
 44 38  1  0  0  0  0
 45 84  1  0  0  0  0
 45 44  1  0  0  0  0
 46 45  1  0  0  0  0
 47 44  2  0  0  0  0
 49  4  1  0  0  0  0
 53  6  1  0  0  0  0
 55  8  1  0  0  0  0
 56  8  1  0  0  0  0
 57  9  1  0  0  0  0
 59 15  1  0  0  0  0
 60 16  1  0  0  0  0
 63 20  1  0  0  0  0
 65 22  1  0  0  0  0
 66 22  1  0  0  0  0
 67 23  1  0  0  0  0
 71 24  1  0  0  0  0
 74 32  1  0  0  0  0
 78 37  1  0  0  0  0
 79 37  1  0  0  0  0
 80 40  1  0  0  0  0
 81 42  1  0  0  0  0
 85 46  1  0  0  0  0
 86 46  1  0  0  0  0
 87 46  1  0  0  0  0
M  END
