87
-1 1
O         2.983321    2.663092    2.096028
C         2.332458    2.096779    3.026489
N         1.371896    1.145722    2.580599
C         0.686448    0.167361    3.379077
C        -0.794847    0.529908    3.533297
C        -1.437253    0.725385    2.154190
C        -0.604689    1.667998    1.271571
C         0.868336    1.221124    1.236609
N        -1.183673    1.866163   -0.054436
C        -1.367638    0.956977   -1.021623
N        -1.052916   -0.327548   -0.855888
C        -1.252870   -1.204498   -1.859873
N        -0.866516   -2.481304   -1.522240
C        -0.876440   -3.680725   -2.231307
C        -1.360642   -3.830062   -3.541845
C        -1.337812   -5.073840   -4.159814
C        -0.822039   -6.215706   -3.528679
N        -0.825331   -7.458275   -4.204766
C        -0.606202   -8.652018   -3.413733
C        -0.985262   -9.893437   -4.225969
N        -0.302300   -9.984897   -5.503925
C        -0.497436   -8.757654   -6.255829
C        -0.113601   -7.500377   -5.475523
C         1.070595  -10.430779   -5.424056
C        -0.338022   -6.059109   -2.223235
C        -0.374531   -4.820922   -1.588670
N        -1.756032   -0.958543   -3.067060
C        -1.916955    1.345398   -2.277794
C        -2.067879    0.332722   -3.216732
N        -2.599319    0.958374   -4.314652
H        -2.832970    0.515406   -5.191896
C        -2.736234    2.290589   -3.984532
N        -2.338931    2.557746   -2.774124
C         2.539967    2.386412    4.382654
C         1.632963    2.312191    5.535167
S         0.443868    3.826252    5.798556
C         0.204636    4.345545    4.085749
C         1.231811    5.360674    3.552151
H         2.240420    4.944245    3.674487
N         1.161259    6.619419    4.249042
C         2.146011    7.110369    5.044562
C         1.829296    8.464869    5.662174
O         3.182371    6.527349    5.294940
C         0.912217    5.614111    2.073749
N         1.468257    4.741312    1.217466
C         1.190184    4.779996   -0.193616
O         0.145461    6.520871    1.756353
H         1.195117    0.054010    4.342395
H         0.753171   -0.818562    2.870226
H        -0.876957    1.455602    4.127818
H        -1.334975   -0.257521    4.085787
H        -2.462684    1.118246    2.250700
H        -1.507898   -0.246419    1.639408
H        -0.610985    2.669750    1.727493
H         1.490034    1.929053    0.677447
H         0.932230    0.237060    0.736962
H        -1.449915    2.809037   -0.309369
H        -0.486996   -2.515955   -0.584650
H        -1.764701   -2.960150   -4.053326
H        -1.754393   -5.164524   -5.165826
H        -1.235428   -8.606150   -2.512102
H         0.449460   -8.735951   -3.068811
H        -2.071846   -9.858379   -4.416884
H        -0.781501  -10.802198   -3.637812
H        -1.565804   -8.683085   -6.524026
H         0.077633   -8.809087   -7.193934
H        -0.365237   -6.612815   -6.071086
H         0.986737   -7.470734   -5.311221
H         1.111224  -11.409196   -4.920112
H         1.760308   -9.749919   -4.881570
H         1.474017  -10.565024   -6.440045
H         0.084323   -6.905500   -1.680557
H         0.010392   -4.735983   -0.568509
H        -3.139840    3.013244   -4.693406
H         3.392885    3.058304    4.516777
H         2.179145    2.327416    6.489357
H         0.942131    1.463766    5.562314
H        -0.806276    4.775140    3.999478
H         0.244017    3.446695    3.457144
H         0.416207    7.229655    3.932594
H         1.121245    9.058162    5.065247
H         2.766012    9.021877    5.790122
H         1.390952    8.299070    6.658011
H         2.130487    4.010345    1.576175
H         0.435429    5.554583   -0.385025
H         0.808842    3.808296   -0.549465
H         2.094954    5.017196   -0.777444
