89
-1 1
O         1.057465   -7.084054   -5.769219
C         0.778452   -5.903032   -6.011988
N         1.463511   -5.271622   -7.085765
C         2.045141   -3.950566   -6.929847
C         3.493429   -4.027919   -6.435450
C         4.341209   -4.929149   -7.329420
C         3.677863   -6.300582   -7.477872
C         2.227630   -6.138063   -7.947359
N         4.385035   -7.155610   -8.418936
C         5.497250   -7.863112   -8.190725
N         6.006001   -8.561425   -9.223577
C         7.102504   -9.297705   -9.055568
N         7.619871   -9.996856  -10.131519
C         7.216103  -10.125009  -11.451759
C         8.073777  -10.826902  -12.322293
C         7.744461  -11.011924  -13.655171
C         6.562340  -10.480092  -14.181290
C         6.223909  -10.771421  -15.611950
N         5.589096   -9.787643  -16.337098
C         5.697583   -8.356560  -16.088864
C         6.530064   -7.692914  -17.195934
N         6.066265   -7.986894  -18.539320
C         5.963716   -9.424512  -18.736416
C         5.108513  -10.116211  -17.671578
C         4.899328   -7.238781  -18.949639
O         6.476378  -11.862424  -16.096881
C         5.700437   -9.805177  -13.310653
C         6.008309   -9.624438  -11.967067
N         7.816357   -9.456988   -7.935903
C         6.173861   -7.936717   -6.943817
C         7.306684   -8.758341   -6.925312
N         7.775398   -8.676260   -5.641500
H         8.585050   -9.159251   -5.278960
C         6.928427   -7.825122   -4.962463
N         5.968100   -7.364268   -5.703509
C        -0.215459   -5.147333   -5.300794
C        -0.981964   -4.116494   -5.850647
S        -2.784563   -4.715718   -7.144602
C        -4.097024   -4.758597   -5.881322
C        -4.798588   -6.123080   -5.718191
H        -5.031156   -6.497750   -6.730626
N        -6.021835   -6.014868   -4.953405
C        -7.174248   -5.498439   -5.431214
C        -8.362876   -5.599952   -4.485309
O        -7.286034   -4.971812   -6.525485
C        -3.957878   -7.186922   -4.981798
N        -2.729262   -7.407992   -5.461835
C        -1.821369   -8.340338   -4.834774
O        -4.424025   -7.781649   -4.010895
H         1.444548   -3.376536   -6.217127
H         2.010478   -3.419668   -7.900980
H         3.490749   -4.432556   -5.409235
H         3.929086   -3.016360   -6.384799
H         5.355107   -5.050028   -6.918382
H         4.439188   -4.477009   -8.334519
H         3.649924   -6.802203   -6.499848
H         1.740923   -7.120621   -7.974705
H         2.230729   -5.709461   -8.971514
H         4.052860   -7.190307   -9.376320
H         8.470264  -10.482600   -9.877143
H         9.010609  -11.237045  -11.934859
H         8.405413  -11.581084  -14.311815
H         6.174662   -8.175354  -15.119602
H         4.685574   -7.914618  -16.046175
H         7.569649   -8.054215  -17.101365
H         6.548011   -6.601863  -17.044876
H         6.978781   -9.856259  -18.697002
H         5.559820   -9.626277  -19.741194
H         5.149448  -11.205615  -17.786192
H         4.055292   -9.792901  -17.753887
H         5.100395   -6.160195  -18.856730
H         3.971784   -7.452239  -18.376110
H         4.683169   -7.444792  -20.009559
H         4.745768   -9.424212  -13.681948
H         5.329668   -9.101341  -11.299166
H         7.083106   -7.587364   -3.910270
H        -0.572444   -5.636800   -4.390956
H        -0.583234   -3.525564   -6.677563
H        -1.619031   -3.533692   -5.178309
H        -4.878437   -4.038159   -6.158168
H        -3.686357   -4.449388   -4.903051
H        -6.005598   -6.591453   -4.113842
H        -9.175499   -6.130853   -5.001262
H        -8.722355   -4.583995   -4.267495
H        -8.134511   -6.112313   -3.540499
H        -2.393097   -6.777504   -6.199000
H        -1.922731   -8.285119   -3.740581
H        -0.790311   -8.086020   -5.119739
H        -2.043181   -9.379141   -5.134849
