-1 1
 OpenBabel05232413483D

 86 88  0  0  1  0  0  0  0  0999 V2000
    2.7460   -3.8756   -0.5238 O   0  0  0  0  0  0  0  0  0  0  0  0
    2.9294   -2.7182   -0.8808 C   0  0  0  0  0  0  0  0  0  0  0  0
    2.0180   -1.7276   -0.5890 N   0  0  0  0  0  0  0  0  0  0  0  0
    1.8123   -0.5206   -1.3867 C   0  0  0  0  0  0  0  0  0  0  0  0
    0.6824   -0.7318   -2.3946 C   0  0  0  0  0  0  0  0  0  0  0  0
   -0.6021   -1.2233   -1.7245 C   0  0  0  0  0  0  0  0  0  0  0  0
   -0.3028   -2.4291   -0.8271 C   0  0  1  0  0  0  0  0  0  0  0  0
    0.8377   -2.1209    0.1561 C   0  0  0  0  0  0  0  0  0  0  0  0
   -1.4862   -3.0276   -0.1927 N   0  0  0  0  0  0  0  0  0  0  0  0
   -2.2548   -2.3619    0.6918 C   0  0  1  0  0  3  0  0  0  0  0  0
   -1.9023   -1.1160    1.0278 N   0  0  0  0  0  0  0  0  0  0  0  0
   -2.6236   -0.3856    1.8893 C   0  0  0  0  0  0  0  0  0  0  0  0
   -2.0898    0.8666    2.0972 N   0  0  0  0  0  0  0  0  0  0  0  0
   -2.5011    1.9408    2.8806 C   0  0  0  0  0  0  0  0  0  0  0  0
   -3.6665    1.9575    3.6634 C   0  0  0  0  0  0  0  0  0  0  0  0
   -4.0055    3.0894    4.3973 C   0  0  0  0  0  0  0  0  0  0  0  0
   -3.1974    4.2277    4.3896 C   0  0  0  0  0  0  0  0  0  0  0  0
   -3.5556    5.4076    5.1118 N   0  0  0  0  0  0  0  0  0  0  0  0
   -3.8773    5.3303    6.4508 C   0  0  0  0  0  0  0  0  0  0  0  0
   -4.1339    6.6553    7.1650 C   0  0  0  0  0  0  0  0  0  0  0  0
   -4.3876    6.4600    8.6511 C   0  0  0  0  0  0  0  0  0  0  0  0
   -3.9587    4.2757    7.0464 O   0  0  0  0  0  0  0  0  0  0  0  0
   -3.4066    6.6816    4.4295 C   0  0  0  0  0  0  0  0  0  0  0  0
   -2.0279    4.2062    3.6247 C   0  0  0  0  0  0  0  0  0  0  0  0
   -1.6892    3.0872    2.8763 C   0  0  0  0  0  0  0  0  0  0  0  0
   -3.7363   -0.7520    2.5166 N   0  0  0  0  0  2  0  0  0  0  0  0
   -3.4425   -2.8766    1.3150 C   0  0  0  0  0  0  0  0  0  0  0  0
   -4.0861   -1.9971    2.1910 C   0  0  0  0  0  0  0  0  0  0  0  0
   -5.1738   -2.6874    2.6543 N   0  0  0  0  0  0  0  0  0  0  0  0
   -5.8507   -2.3341    3.3160 H   0  0  0  0  0  0  0  0  0  0  0  0
   -5.1455   -3.9246    2.0568 C   0  0  0  0  0  0  0  0  0  0  0  0
   -4.1341   -4.0732    1.2545 N   0  0  0  0  0  0  0  0  0  0  0  0
   -1.7383   -4.4085   -0.5663 C   0  0  0  0  0  0  0  0  0  0  0  0
    4.1775   -2.3611   -1.6138 C   0  0  0  0  0  0  0  0  0  0  0  0
    4.9212   -1.2680   -1.4312 C   0  0  0  0  0  0  0  0  0  0  0  0
    3.9381    1.6684   -3.4386 S   0  0  0  0  0  1  0  0  0  0  0  0
    4.9803    0.7197   -4.6101 C   0  0  0  0  0  0  0  0  0  0  0  0
    4.4382   -0.6755   -4.9972 C   0  0  2  0  0  0  0  0  0  0  0  0
    4.1761   -1.1957   -4.0615 H   0  0  0  0  0  0  0  0  0  0  0  0
    5.4080   -1.4639   -5.7301 N   0  0  0  0  0  0  0  0  0  0  0  0
    6.4584   -2.0975   -5.1756 C   0  0  0  0  0  0  0  0  0  0  0  0
    7.2842   -2.9395   -6.1377 C   0  0  0  0  0  0  0  0  0  0  0  0
    6.7679   -2.0234   -3.9954 O   0  0  0  0  0  0  0  0  0  0  0  0
    3.1884   -0.6322   -5.8908 C   0  0  0  0  0  0  0  0  0  0  0  0
    2.1601    0.0647   -5.3793 N   0  0  0  0  0  0  0  0  0  0  0  0
    0.9473    0.2934   -6.1149 C   0  0  0  0  0  0  0  0  0  0  0  0
    3.1624   -1.2121   -6.9754 O   0  0  0  0  0  0  0  0  0  0  0  0
    2.7215   -0.2045   -1.9141 H   0  0  0  0  0  0  0  0  0  0  0  0
    1.5520    0.3022   -0.6974 H   0  0  0  0  0  0  0  0  0  0  0  0
    1.0249   -1.4552   -3.1545 H   0  0  0  0  0  0  0  0  0  0  0  0
    0.5019    0.2135   -2.9285 H   0  0  0  0  0  0  0  0  0  0  0  0
   -1.3572   -1.5031   -2.4777 H   0  0  0  0  0  0  0  0  0  0  0  0
   -1.0342   -0.4206   -1.1100 H   0  0  0  0  0  0  0  0  0  0  0  0
    0.0918   -3.2271   -1.4745 H   0  0  0  0  0  0  0  0  0  0  0  0
    1.0723   -3.0137    0.7472 H   0  0  0  0  0  0  0  0  0  0  0  0
    0.5440   -1.3019    0.8274 H   0  0  0  0  0  0  0  0  0  0  0  0
   -1.2395    1.0007    1.5646 H   0  0  0  0  0  0  0  0  0  0  0  0
   -4.3007    1.0751    3.6798 H   0  0  0  0  0  0  0  0  0  0  0  0
   -4.9135    3.0812    4.9993 H   0  0  0  0  0  0  0  0  0  0  0  0
   -4.9978    7.1512    6.6898 H   0  0  0  0  0  0  0  0  0  0  0  0
   -3.2775    7.3306    7.0021 H   0  0  0  0  0  0  0  0  0  0  0  0
   -5.2491    5.7989    8.8165 H   0  0  0  0  0  0  0  0  0  0  0  0
   -4.5827    7.4252    9.1410 H   0  0  0  0  0  0  0  0  0  0  0  0
   -3.5227    5.9881    9.1375 H   0  0  0  0  0  0  0  0  0  0  0  0
   -3.4439    6.5078    3.3471 H   0  0  0  0  0  0  0  0  0  0  0  0
   -2.4535    7.1875    4.6634 H   0  0  0  0  0  0  0  0  0  0  0  0
   -4.2278    7.3666    4.6807 H   0  0  0  0  0  0  0  0  0  0  0  0
   -1.3643    5.0735    3.6100 H   0  0  0  0  0  0  0  0  0  0  0  0
   -0.7719    3.0979    2.2816 H   0  0  0  0  0  0  0  0  0  0  0  0
   -5.9075   -4.6767    2.2588 H   0  0  0  0  0  0  0  0  0  0  0  0
   -0.8562   -5.0240   -0.3269 H   0  0  0  0  0  0  0  0  0  0  0  0
   -1.9184   -4.4785   -1.6518 H   0  0  0  0  0  0  0  0  0  0  0  0
   -2.6112   -4.8050   -0.0397 H   0  0  0  0  0  0  0  0  0  0  0  0
    4.5349   -3.1500   -2.2823 H   0  0  0  0  0  0  0  0  0  0  0  0
    5.8470   -1.1483   -1.9992 H   0  0  0  0  0  0  0  0  0  0  0  0
    4.6260   -0.4647   -0.7523 H   0  0  0  0  0  0  0  0  0  0  0  0
    5.9652    0.5395   -4.1545 H   0  0  0  0  0  0  0  0  0  0  0  0
    5.1522    1.2902   -5.5399 H   0  0  0  0  0  0  0  0  0  0  0  0
    5.1077   -1.6799   -6.6778 H   0  0  0  0  0  0  0  0  0  0  0  0
    6.9047   -2.9342   -7.1689 H   0  0  0  0  0  0  0  0  0  0  0  0
    7.3097   -3.9729   -5.7634 H   0  0  0  0  0  0  0  0  0  0  0  0
    8.3171   -2.5630   -6.1302 H   0  0  0  0  0  0  0  0  0  0  0  0
    2.4119    0.6863   -4.5776 H   0  0  0  0  0  0  0  0  0  0  0  0
    0.8963    1.3230   -6.5090 H   0  0  0  0  0  0  0  0  0  0  0  0
    0.0670    0.1296   -5.4721 H   0  0  0  0  0  0  0  0  0  0  0  0
    0.9072   -0.4050   -6.9612 H   0  0  0  0  0  0  0  0  0  0  0  0
  2  3  1  0  0  0  0
  2  1  2  0  0  0  0
  3  8  1  0  0  0  0
  4 49  1  0  0  0  0
  4  3  1  0  0  0  0
  5  6  1  0  0  0  0
  5  4  1  0  0  0  0
  6 53  1  0  0  0  0
  6  7  1  0  0  0  0
  7 54  1  6  0  0  0
  7  9  1  0  0  0  0
  7  8  1  0  0  0  0
  8 55  1  0  0  0  0
  8 56  1  0  0  0  0
 10  9  1  6  0  0  0
 10 11  1  0  0  0  0
 10 27  1  0  0  0  0
 11 12  2  0  0  0  0
 12 13  1  0  0  0  0
 12 26  1  0  0  0  0
 13 14  1  0  0  0  0
 14 15  1  0  0  0  0
 15 58  1  0  0  0  0
 15 16  2  0  0  0  0
 16 59  1  0  0  0  0
 17 16  1  0  0  0  0
 17 18  1  0  0  0  0
 18 19  1  0  0  0  0
 19 22  2  0  0  0  0
 19 20  1  0  0  0  0
 20 21  1  0  0  0  0
 21 62  1  0  0  0  0
 21 64  1  0  0  0  0
 21 63  1  0  0  0  0
 23 66  1  0  0  0  0
 23 67  1  0  0  0  0
 23 18  1  0  0  0  0
 24 17  2  0  0  0  0
 25 14  2  0  0  0  0
 25 24  1  0  0  0  0
 27 28  2  0  0  0  0
 28 26  1  0  0  0  0
 28 29  1  0  0  0  0
 29 30  1  0  0  0  0
 31 70  1  0  0  0  0
 31 29  1  0  0  0  0
 32 27  1  0  0  0  0
 32 31  2  0  0  0  0
 33 71  1  0  0  0  0
 33  9  1  0  0  0  0
 33 73  1  0  0  0  0
 34 35  2  0  0  0  0
 34  2  1  0  0  0  0
 35 76  1  0  0  0  0
 37 77  1  0  0  0  0
 37 36  1  0  0  0  0
 38 37  1  0  0  0  0
 38 39  1  1  0  0  0
 40 41  1  0  0  0  0
 40 38  1  0  0  0  0
 41 43  2  0  0  0  0
 42 82  1  0  0  0  0
 42 81  1  0  0  0  0
 42 41  1  0  0  0  0
 44 45  1  0  0  0  0
 44 38  1  0  0  0  0
 45 83  1  0  0  0  0
 46 85  1  0  0  0  0
 46 45  1  0  0  0  0
 47 44  2  0  0  0  0
 48  4  1  0  0  0  0
 50  5  1  0  0  0  0
 51  5  1  0  0  0  0
 52  6  1  0  0  0  0
 57 13  1  0  0  0  0
 60 20  1  0  0  0  0
 61 20  1  0  0  0  0
 65 23  1  0  0  0  0
 68 24  1  0  0  0  0
 69 25  1  0  0  0  0
 72 33  1  0  0  0  0
 74 34  1  0  0  0  0
 75 35  1  0  0  0  0
 78 37  1  0  0  0  0
 79 40  1  0  0  0  0
 80 42  1  0  0  0  0
 84 46  1  0  0  0  0
 86 46  1  0  0  0  0
M  END
