86
-1 1
O         2.745989   -3.875580   -0.523772
C         2.929405   -2.718231   -0.880764
N         2.018030   -1.727636   -0.588953
C         1.812255   -0.520571   -1.386713
C         0.682435   -0.731774   -2.394647
C        -0.602085   -1.223288   -1.724526
C        -0.302778   -2.429050   -0.827115
C         0.837685   -2.120899    0.156088
N        -1.486159   -3.027608   -0.192689
C        -2.254797   -2.361853    0.691797
N        -1.902309   -1.116002    1.027773
C        -2.623634   -0.385640    1.889260
N        -2.089761    0.866601    2.097188
C        -2.501103    1.940845    2.880556
C        -3.666537    1.957473    3.663374
C        -4.005476    3.089363    4.397271
C        -3.197378    4.227672    4.389642
N        -3.555628    5.407615    5.111798
C        -3.877321    5.330304    6.450760
C        -4.133873    6.655306    7.165003
C        -4.387643    6.459991    8.651111
O        -3.958744    4.275651    7.046444
C        -3.406597    6.681575    4.429489
C        -2.027875    4.206250    3.624676
C        -1.689175    3.087208    2.876288
N        -3.736320   -0.752050    2.516585
C        -3.442541   -2.876645    1.314983
C        -4.086067   -1.997123    2.190987
N        -5.173810   -2.687367    2.654300
H        -5.850683   -2.334140    3.316006
C        -5.145482   -3.924600    2.056776
N        -4.134056   -4.073189    1.254546
C        -1.738311   -4.408482   -0.566330
C         4.177513   -2.361143   -1.613798
C         4.921156   -1.267989   -1.431237
S         3.938075    1.668367   -3.438615
C         4.980346    0.719727   -4.610059
C         4.438203   -0.675476   -4.997220
H         4.176143   -1.195748   -4.061457
N         5.407965   -1.463880   -5.730055
C         6.458385   -2.097510   -5.175602
C         7.284162   -2.939525   -6.137659
O         6.767878   -2.023433   -3.995398
C         3.188378   -0.632174   -5.890811
N         2.160146    0.064713   -5.379315
C         0.947335    0.293448   -6.114911
O         3.162361   -1.212069   -6.975406
H         2.721468   -0.204462   -1.914145
H         1.551979    0.302176   -0.697374
H         1.024889   -1.455188   -3.154472
H         0.501929    0.213529   -2.928534
H        -1.357151   -1.503062   -2.477750
H        -1.034219   -0.420631   -1.109996
H         0.091755   -3.227149   -1.474479
H         1.072260   -3.013673    0.747218
H         0.543988   -1.301897    0.827354
H        -1.239465    1.000749    1.564607
H        -4.300746    1.075146    3.679849
H        -4.913505    3.081194    4.999329
H        -4.997771    7.151228    6.689846
H        -3.277521    7.330634    7.002081
H        -5.249130    5.798897    8.816466
H        -4.582732    7.425210    9.140988
H        -3.522664    5.988141    9.137453
H        -3.443853    6.507784    3.347140
H        -2.453493    7.187490    4.663421
H        -4.227760    7.366550    4.680720
H        -1.364261    5.073490    3.610029
H        -0.771947    3.097932    2.281561
H        -5.907510   -4.676693    2.258829
H        -0.856237   -5.024015   -0.326894
H        -1.918407   -4.478514   -1.651750
H        -2.611189   -4.804962   -0.039689
H         4.534917   -3.149960   -2.282318
H         5.847005   -1.148292   -1.999176
H         4.625986   -0.464729   -0.752254
H         5.965174    0.539500   -4.154453
H         5.152190    1.290175   -5.539879
H         5.107661   -1.679885   -6.677845
H         6.904726   -2.934239   -7.168869
H         7.309676   -3.972865   -5.763449
H         8.317055   -2.563048   -6.130243
H         2.411925    0.686328   -4.577648
H         0.896344    1.322986   -6.508980
H         0.066971    0.129571   -5.472143
H         0.907217   -0.404995   -6.961249
