-1 1
 OpenBabel05192410563D

 86 89  0  0  1  0  0  0  0  0999 V2000
    1.7741   -3.5551   -1.6806 O   0  0  0  0  0  0  0  0  0  0  0  0
    2.2516   -2.4079   -1.7350 C   0  0  0  0  0  0  0  0  0  0  0  0
    1.5165   -1.3455   -1.0812 N   0  0  0  0  0  0  0  0  0  0  0  0
    1.1139   -0.1928   -1.8669 C   0  0  0  0  0  0  0  0  0  0  0  0
   -0.1632   -0.4593   -2.6750 C   0  0  0  0  0  0  0  0  0  0  0  0
   -1.3030   -0.9481   -1.7794 C   0  0  0  0  0  0  0  0  0  0  0  0
   -0.8084   -2.1388   -0.9567 C   0  0  1  0  0  0  0  0  0  0  0  0
    0.4718   -1.7828   -0.1820 C   0  0  0  0  0  0  0  0  0  0  0  0
   -1.8366   -2.8045   -0.1415 N   0  0  0  0  0  0  0  0  0  0  0  0
   -2.5076   -2.1889    0.8446 C   0  0  1  0  0  3  0  0  0  0  0  0
   -2.2072   -0.9119    1.1219 N   0  0  0  0  0  0  0  0  0  0  0  0
   -2.8428   -0.2304    2.0803 C   0  0  0  0  0  0  0  0  0  0  0  0
   -2.3746    1.0623    2.2074 N   0  0  0  0  0  0  0  0  0  0  0  0
   -2.7441    2.1128    3.0374 C   0  0  0  0  0  0  0  0  0  0  0  0
   -3.7894    2.0595    3.9748 C   0  0  0  0  0  0  0  0  0  0  0  0
   -4.1021    3.1740    4.7455 C   0  0  0  0  0  0  0  0  0  0  0  0
   -3.3847    4.3652    4.6235 C   0  0  0  0  0  0  0  0  0  0  0  0
   -3.7238    5.5268    5.3850 N   0  0  0  0  0  0  0  0  0  0  0  0
   -3.8297    5.4487    6.7574 C   0  0  0  0  0  0  0  0  0  0  0  0
   -4.0871    6.7616    7.4939 C   0  0  0  0  0  0  0  0  0  0  0  0
   -4.0926    6.5751    9.0026 C   0  0  0  0  0  0  0  0  0  0  0  0
   -3.7291    4.4027    7.3652 O   0  0  0  0  0  0  0  0  0  0  0  0
   -3.7918    6.7944    4.6792 C   0  0  0  0  0  0  0  0  0  0  0  0
   -2.3320    4.4150    3.7059 C   0  0  0  0  0  0  0  0  0  0  0  0
   -2.0219    3.3131    2.9205 C   0  0  0  0  0  0  0  0  0  0  0  0
   -3.8194   -0.6656    2.8701 N   0  0  0  0  0  2  0  0  0  0  0  0
   -3.5479   -2.7804    1.6445 C   0  0  0  0  0  0  0  0  0  0  0  0
   -4.1186   -1.9388    2.6035 C   0  0  0  0  0  0  0  0  0  0  0  0
   -5.0703   -2.7006    3.2271 N   0  0  0  0  0  0  0  0  0  0  0  0
   -5.6635   -2.3892    3.9832 H   0  0  0  0  0  0  0  0  0  0  0  0
   -5.0373   -3.9414    2.6368 C   0  0  0  0  0  0  0  0  0  0  0  0
   -4.1485   -4.0255    1.6925 N   0  0  0  0  0  0  0  0  0  0  0  0
   -2.0113   -4.2141   -0.4511 C   0  0  0  0  0  0  0  0  0  0  0  0
    3.4671   -2.0495   -2.3666 C   0  0  0  0  0  3  0  0  0  0  0  0
    4.2777   -0.8766   -1.9544 C   0  0  0  0  0  0  0  0  0  0  0  0
    4.4380    0.6090   -3.1211 S   0  0  0  0  0  0  0  0  0  0  0  0
    5.6592    0.0094   -4.3180 C   0  0  0  0  0  0  0  0  0  0  0  0
    5.3086   -1.2514   -5.1372 C   0  0  2  0  0  0  0  0  0  0  0  0
    5.2442   -2.1094   -4.4532 H   0  0  0  0  0  0  0  0  0  0  0  0
    6.3377   -1.5001   -6.1225 N   0  0  0  0  0  0  0  0  0  0  0  0
    7.5405   -2.0465   -5.8438 C   0  0  0  0  0  0  0  0  0  0  0  0
    8.4571   -2.2344   -7.0428 C   0  0  0  0  0  0  0  0  0  0  0  0
    7.8888   -2.3786   -4.7234 O   0  0  0  0  0  0  0  0  0  0  0  0
    4.0011   -1.1075   -5.9279 C   0  0  0  0  0  0  0  0  0  0  0  0
    2.8911   -1.4298   -5.2586 N   0  0  0  0  0  0  0  0  0  0  0  0
    1.5833   -1.2530   -5.8289 C   0  0  0  0  0  0  0  0  0  0  0  0
    4.0359   -0.7313   -7.0995 O   0  0  0  0  0  0  0  0  0  0  0  0
    1.9247    0.0982   -2.5473 H   0  0  0  0  0  0  0  0  0  0  0  0
    0.9396    0.6637   -1.1855 H   0  0  0  0  0  0  0  0  0  0  0  0
    0.0635   -1.2281   -3.4316 H   0  0  0  0  0  0  0  0  0  0  0  0
   -0.4628    0.4515   -3.2204 H   0  0  0  0  0  0  0  0  0  0  0  0
   -2.1786   -1.2448   -2.3817 H   0  0  0  0  0  0  0  0  0  0  0  0
   -1.6276   -0.1404   -1.1063 H   0  0  0  0  0  0  0  0  0  0  0  0
   -0.4708   -2.9128   -1.6599 H   0  0  0  0  0  0  0  0  0  0  0  0
    0.8180   -2.6725    0.3596 H   0  0  0  0  0  0  0  0  0  0  0  0
    0.2586   -0.9822    0.5447 H   0  0  0  0  0  0  0  0  0  0  0  0
   -1.6145    1.2417    1.5633 H   0  0  0  0  0  0  0  0  0  0  0  0
   -4.3498    1.1343    4.0809 H   0  0  0  0  0  0  0  0  0  0  0  0
   -4.9153    3.1111    5.4684 H   0  0  0  0  0  0  0  0  0  0  0  0
   -5.0531    7.1735    7.1544 H   0  0  0  0  0  0  0  0  0  0  0  0
   -3.3273    7.5033    7.1963 H   0  0  0  0  0  0  0  0  0  0  0  0
   -4.8583    5.8471    9.3031 H   0  0  0  0  0  0  0  0  0  0  0  0
   -4.2928    7.5299    9.5107 H   0  0  0  0  0  0  0  0  0  0  0  0
   -3.1260    6.1871    9.3527 H   0  0  0  0  0  0  0  0  0  0  0  0
   -3.9692    6.5946    3.6154 H   0  0  0  0  0  0  0  0  0  0  0  0
   -2.8646    7.3877    4.7669 H   0  0  0  0  0  0  0  0  0  0  0  0
   -4.6265    7.4098    5.0422 H   0  0  0  0  0  0  0  0  0  0  0  0
   -1.7388    5.3261    3.6001 H   0  0  0  0  0  0  0  0  0  0  0  0
   -1.1966    3.3781    2.2066 H   0  0  0  0  0  0  0  0  0  0  0  0
   -5.7009   -4.7454    2.9540 H   0  0  0  0  0  0  0  0  0  0  0  0
   -1.0297   -4.7118   -0.4221 H   0  0  0  0  0  0  0  0  0  0  0  0
   -2.4165   -4.3289   -1.4702 H   0  0  0  0  0  0  0  0  0  0  0  0
   -2.6965   -4.6929    0.2540 H   0  0  0  0  0  0  0  0  0  0  0  0
    4.0111   -2.9217   -2.7454 H   0  0  0  0  0  0  0  0  0  0  0  0
    5.3270   -1.1379   -1.7400 H   0  0  0  0  0  0  0  0  0  0  0  0
    3.8648   -0.3983   -1.0522 H   0  0  0  0  0  0  0  0  0  0  0  0
    6.6094   -0.1969   -3.8022 H   0  0  0  0  0  0  0  0  0  0  0  0
    5.8262    0.8425   -5.0182 H   0  0  0  0  0  0  0  0  0  0  0  0
    6.0644   -1.2261   -7.0629 H   0  0  0  0  0  0  0  0  0  0  0  0
    8.0321   -1.8659   -7.9866 H   0  0  0  0  0  0  0  0  0  0  0  0
    8.6852   -3.3053   -7.1423 H   0  0  0  0  0  0  0  0  0  0  0  0
    9.4048   -1.7150   -6.8424 H   0  0  0  0  0  0  0  0  0  0  0  0
    2.9735   -1.6720   -4.2425 H   0  0  0  0  0  0  0  0  0  0  0  0
    1.1151   -0.3123   -5.4919 H   0  0  0  0  0  0  0  0  0  0  0  0
    0.9297   -2.0877   -5.5350 H   0  0  0  0  0  0  0  0  0  0  0  0
    1.6683   -1.2238   -6.9234 H   0  0  0  0  0  0  0  0  0  0  0  0
  2  1  2  0  0  0  0
  2  3  1  0  0  0  0
  3  8  1  0  0  0  0
  4 49  1  0  0  0  0
  4  3  1  0  0  0  0
  5  4  1  0  0  0  0
  5  6  1  0  0  0  0
  6 53  1  0  0  0  0
  6  7  1  0  0  0  0
  7 54  1  6  0  0  0
  7  8  1  0  0  0  0
  7  9  1  0  0  0  0
  8 55  1  0  0  0  0
  8 56  1  0  0  0  0
 10  9  1  6  0  0  0
 10 11  1  0  0  0  0
 10 27  1  0  0  0  0
 11 12  2  0  0  0  0
 12 13  1  0  0  0  0
 12 26  1  0  0  0  0
 13 14  1  0  0  0  0
 14 15  1  0  0  0  0
 15 58  1  0  0  0  0
 15 16  2  0  0  0  0
 16 59  1  0  0  0  0
 17 16  1  0  0  0  0
 17 18  1  0  0  0  0
 18 19  1  0  0  0  0
 19 22  2  0  0  0  0
 19 20  1  0  0  0  0
 20 21  1  0  0  0  0
 21 62  1  0  0  0  0
 21 64  1  0  0  0  0
 21 63  1  0  0  0  0
 23 66  1  0  0  0  0
 23 67  1  0  0  0  0
 23 18  1  0  0  0  0
 24 17  2  0  0  0  0
 25 14  2  0  0  0  0
 25 24  1  0  0  0  0
 27 32  1  0  0  0  0
 27 28  2  0  0  0  0
 28 26  1  0  0  0  0
 28 29  1  0  0  0  0
 29 30  1  0  0  0  0
 31 70  1  0  0  0  0
 31 29  1  0  0  0  0
 32 31  2  0  0  0  0
 33 71  1  0  0  0  0
 33  9  1  0  0  0  0
 33 73  1  0  0  0  0
 34 35  1  0  0  0  0
 34  2  1  0  0  0  0
 35 75  1  0  0  0  0
 35 76  1  0  0  0  0
 36 35  1  0  0  0  0
 37 77  1  0  0  0  0
 37 36  1  0  0  0  0
 38 39  1  1  0  0  0
 38 37  1  0  0  0  0
 40 41  1  0  0  0  0
 40 38  1  0  0  0  0
 41 43  2  0  0  0  0
 42 82  1  0  0  0  0
 42 41  1  0  0  0  0
 44 45  1  0  0  0  0
 44 38  1  0  0  0  0
 45 83  1  0  0  0  0
 46 85  1  0  0  0  0
 46 84  1  0  0  0  0
 46 45  1  0  0  0  0
 47 44  2  0  0  0  0
 48  4  1  0  0  0  0
 50  5  1  0  0  0  0
 51  5  1  0  0  0  0
 52  6  1  0  0  0  0
 57 13  1  0  0  0  0
 60 20  1  0  0  0  0
 61 20  1  0  0  0  0
 65 23  1  0  0  0  0
 68 24  1  0  0  0  0
 69 25  1  0  0  0  0
 72 33  1  0  0  0  0
 74 34  1  0  0  0  0
 78 37  1  0  0  0  0
 79 40  1  0  0  0  0
 80 42  1  0  0  0  0
 81 42  1  0  0  0  0
 86 46  1  0  0  0  0
M  END
