-1 1
 OpenBabel05192410563D

 83 87  0  0  1  0  0  0  0  0999 V2000
   -1.6264   -6.3646   -1.0602 O   0  0  0  0  0  0  0  0  0  0  0  0
   -1.2030   -5.2456   -0.7504 C   0  0  0  0  0  0  0  0  0  0  0  0
   -2.2043   -4.1691   -0.8611 N   0  0  0  0  0  0  0  0  0  0  0  0
   -2.1464   -3.0373   -1.6241 C   0  0  0  0  0  0  0  0  0  0  0  0
   -0.9552   -2.6437   -2.2587 C   0  0  0  0  0  0  0  0  0  0  0  0
   -0.8883   -1.4490   -2.9588 C   0  0  0  0  0  0  0  0  0  0  0  0
    0.3258   -1.0613   -3.5137 O   0  0  0  0  0  0  0  0  0  0  0  0
    1.3739   -1.2214   -2.6753 C   0  0  0  0  0  0  0  0  0  0  0  0
    1.5502   -0.3131   -1.7338 N   0  0  0  0  0  0  0  0  0  0  0  0
    2.5148   -0.4905   -0.8115 C   0  0  0  0  0  0  0  0  0  0  0  0
    2.7172    0.4929    0.1281 N   0  0  0  0  0  0  0  0  0  0  0  0
    2.0077    1.6962    0.2379 C   0  0  0  0  0  0  0  0  0  0  0  0
    1.7171    2.1865    1.5134 C   0  0  0  0  0  0  0  0  0  0  0  0
    0.8994    3.2974    1.6870 C   0  0  0  0  0  0  0  0  0  0  0  0
    0.3492    3.9613    0.5874 C   0  0  0  0  0  0  0  0  0  0  0  0
   -0.6452    4.9553    0.7271 N   0  0  0  0  0  0  0  0  0  0  0  0
   -0.3494    6.2806    0.2147 C   0  0  0  0  0  0  0  0  0  0  0  0
   -1.6449    7.0779    0.0531 C   0  0  0  0  0  0  0  0  0  0  0  0
   -2.4451    7.1307    1.2642 N   0  0  0  0  0  0  0  0  0  0  0  0
   -2.6835    5.7848    1.7637 C   0  0  0  0  0  0  0  0  0  0  0  0
   -1.4068    4.9666    1.9621 C   0  0  0  0  0  0  0  0  0  0  0  0
   -1.9668    8.0636    2.2581 C   0  0  0  0  0  0  0  0  0  0  0  0
    0.7485    3.5429   -0.6909 C   0  0  0  0  0  0  0  0  0  0  0  0
    1.5675    2.4380   -0.8698 C   0  0  0  0  0  0  0  0  0  0  0  0
    3.2853   -1.5747   -0.6844 N   0  0  0  0  0  0  0  0  0  0  0  0
    2.1931   -2.3503   -2.7259 C   0  0  0  0  0  0  0  0  0  0  0  0
    3.0712   -2.4704   -1.6322 C   0  0  0  0  0  0  0  0  0  0  0  0
    3.6036   -3.7235   -1.7567 N   0  0  0  0  0  0  0  0  0  0  0  0
    4.1982   -4.1790   -1.0785 H   0  0  0  0  0  0  0  0  0  0  0  0
    3.0237   -4.2863   -2.8757 C   0  0  0  0  0  0  0  0  0  0  0  0
    2.1950   -3.5004   -3.4893 N   0  0  0  0  0  0  0  0  0  0  0  0
   -1.9921   -0.6158   -3.1175 C   0  0  0  0  0  0  0  0  0  0  0  0
   -3.1912   -1.0267   -2.5255 C   0  0  0  0  0  0  0  0  0  0  0  0
   -3.2771   -2.1982   -1.7841 C   0  0  0  0  0  0  0  0  0  0  0  0
    0.0675   -4.8917   -0.2722 C   0  0  0  0  0  3  0  0  0  0  0  0
    0.4244   -3.6440    0.4266 C   0  0  0  0  0  0  0  0  0  0  0  0
   -0.4846   -3.2865    2.0636 S   0  0  0  0  0  0  0  0  0  0  0  0
   -1.2921   -1.7277    1.6345 C   0  0  0  0  0  0  0  0  0  0  0  0
   -0.3979   -0.4750    1.7408 C   0  0  2  0  0  0  0  0  0  0  0  0
    0.4794   -0.5910    1.0904 H   0  0  0  0  0  0  0  0  0  0  0  0
    0.0716   -0.2876    3.0893 N   0  0  0  0  0  0  0  0  0  0  0  0
    1.3258   -0.5454    3.5199 C   0  0  0  0  0  0  0  0  0  0  0  0
    1.4853   -0.5714    5.0271 C   0  0  0  0  0  0  0  0  0  0  0  0
    2.2784   -0.7517    2.7811 O   0  0  0  0  0  0  0  0  0  0  0  0
   -1.2393    0.7319    1.3202 C   0  0  0  0  0  0  0  0  0  0  0  0
   -1.3183    0.9408   -0.0055 N   0  0  0  0  0  0  0  0  0  0  0  0
   -2.2170    1.9189   -0.5673 C   0  0  0  0  0  0  0  0  0  0  0  0
   -1.8706    1.3792    2.1484 O   0  0  0  0  0  0  0  0  0  0  0  0
   -3.1322   -4.5612   -0.7470 H   0  0  0  0  0  0  0  0  0  0  0  0
   -0.1002   -3.3174   -2.1991 H   0  0  0  0  0  0  0  0  0  0  0  0
    3.0440    0.1018    1.0117 H   0  0  0  0  0  0  0  0  0  0  0  0
    2.1010    1.6524    2.3821 H   0  0  0  0  0  0  0  0  0  0  0  0
    0.6439    3.6033    2.7015 H   0  0  0  0  0  0  0  0  0  0  0  0
    0.1536    6.1955   -0.7591 H   0  0  0  0  0  0  0  0  0  0  0  0
    0.3527    6.8213    0.8893 H   0  0  0  0  0  0  0  0  0  0  0  0
   -2.2468    6.5947   -0.7363 H   0  0  0  0  0  0  0  0  0  0  0  0
   -1.4202    8.1040   -0.2805 H   0  0  0  0  0  0  0  0  0  0  0  0
   -3.3215    5.2548    1.0359 H   0  0  0  0  0  0  0  0  0  0  0  0
   -3.2437    5.8429    2.7102 H   0  0  0  0  0  0  0  0  0  0  0  0
   -1.6700    3.9287    2.2211 H   0  0  0  0  0  0  0  0  0  0  0  0
   -0.8198    5.3885    2.8094 H   0  0  0  0  0  0  0  0  0  0  0  0
   -1.9082    9.0729    1.8201 H   0  0  0  0  0  0  0  0  0  0  0  0
   -0.9686    7.8311    2.6873 H   0  0  0  0  0  0  0  0  0  0  0  0
   -2.6806    8.1069    3.0960 H   0  0  0  0  0  0  0  0  0  0  0  0
    0.3456    4.0519   -1.5701 H   0  0  0  0  0  0  0  0  0  0  0  0
    1.8036    2.1018   -1.8771 H   0  0  0  0  0  0  0  0  0  0  0  0
    3.2630   -5.3052   -3.1794 H   0  0  0  0  0  0  0  0  0  0  0  0
   -1.9009    0.3158   -3.6768 H   0  0  0  0  0  0  0  0  0  0  0  0
   -4.0801   -0.3981   -2.6285 H   0  0  0  0  0  0  0  0  0  0  0  0
   -4.2203   -2.4780   -1.3079 H   0  0  0  0  0  0  0  0  0  0  0  0
    0.7445   -5.7427   -0.1552 H   0  0  0  0  0  0  0  0  0  0  0  0
    0.2375   -2.7099   -0.1357 H   0  0  0  0  0  0  0  0  0  0  0  0
    1.4897   -3.6311    0.6953 H   0  0  0  0  0  0  0  0  0  0  0  0
   -2.1528   -1.6003    2.3105 H   0  0  0  0  0  0  0  0  0  0  0  0
   -1.6941   -1.8019    0.6132 H   0  0  0  0  0  0  0  0  0  0  0  0
   -0.6455   -0.0396    3.7595 H   0  0  0  0  0  0  0  0  0  0  0  0
    2.5021   -0.2521    5.2862 H   0  0  0  0  0  0  0  0  0  0  0  0
    1.3525   -1.6112    5.3624 H   0  0  0  0  0  0  0  0  0  0  0  0
    0.7494    0.0588    5.5470 H   0  0  0  0  0  0  0  0  0  0  0  0
   -0.7103    0.4183   -0.6315 H   0  0  0  0  0  0  0  0  0  0  0  0
   -1.9888    2.9343   -0.2087 H   0  0  0  0  0  0  0  0  0  0  0  0
   -3.2615    1.6827   -0.3089 H   0  0  0  0  0  0  0  0  0  0  0  0
   -2.1135    1.8966   -1.6585 H   0  0  0  0  0  0  0  0  0  0  0  0
  1  2  2  0  0  0  0
  2 35  1  0  0  0  0
  3  2  1  0  0  0  0
  3 49  1  0  0  0  0
  4  3  1  0  0  0  0
  5 50  1  0  0  0  0
  5  4  2  0  0  0  0
  6  5  1  0  0  0  0
  7  6  1  0  0  0  0
  7  8  1  0  0  0  0
  8  9  2  0  0  0  0
  9 10  1  0  0  0  0
 10 25  2  0  0  0  0
 10 11  1  0  0  0  0
 11 12  1  0  0  0  0
 11 51  1  0  0  0  0
 12 13  1  0  0  0  0
 13 14  2  0  0  0  0
 13 52  1  0  0  0  0
 14 53  1  0  0  0  0
 15 16  1  0  0  0  0
 15 14  1  0  0  0  0
 16 21  1  0  0  0  0
 17 16  1  0  0  0  0
 17 55  1  0  0  0  0
 18 17  1  0  0  0  0
 18 19  1  0  0  0  0
 19 20  1  0  0  0  0
 19 22  1  0  0  0  0
 20 21  1  0  0  0  0
 20 59  1  0  0  0  0
 21 60  1  0  0  0  0
 21 61  1  0  0  0  0
 22 63  1  0  0  0  0
 22 64  1  0  0  0  0
 23 15  2  0  0  0  0
 24 23  1  0  0  0  0
 24 12  2  0  0  0  0
 26  8  1  0  0  0  0
 26 27  2  0  0  0  0
 27 25  1  0  0  0  0
 28 27  1  0  0  0  0
 28 29  1  0  0  0  0
 30 28  1  0  0  0  0
 31 30  2  0  0  0  0
 31 26  1  0  0  0  0
 32  6  2  0  0  0  0
 32 33  1  0  0  0  0
 33 34  2  0  0  0  0
 34  4  1  0  0  0  0
 34 70  1  0  0  0  0
 35 71  1  0  0  0  0
 35 36  1  0  0  0  0
 36 73  1  0  0  0  0
 36 37  1  0  0  0  0
 38 39  1  0  0  0  0
 38 37  1  0  0  0  0
 38 74  1  0  0  0  0
 39 40  1  6  0  0  0
 39 41  1  0  0  0  0
 41 42  1  0  0  0  0
 41 76  1  0  0  0  0
 42 43  1  0  0  0  0
 43 77  1  0  0  0  0
 43 78  1  0  0  0  0
 43 79  1  0  0  0  0
 44 42  2  0  0  0  0
 45 39  1  0  0  0  0
 45 48  2  0  0  0  0
 46 45  1  0  0  0  0
 47 82  1  0  0  0  0
 47 81  1  0  0  0  0
 47 46  1  0  0  0  0
 54 17  1  0  0  0  0
 56 18  1  0  0  0  0
 57 18  1  0  0  0  0
 58 20  1  0  0  0  0
 62 22  1  0  0  0  0
 65 23  1  0  0  0  0
 66 24  1  0  0  0  0
 67 30  1  0  0  0  0
 68 32  1  0  0  0  0
 69 33  1  0  0  0  0
 72 36  1  0  0  0  0
 75 38  1  0  0  0  0
 80 46  1  0  0  0  0
 83 47  1  0  0  0  0
M  END
