-1 1
 OpenBabel05232413483D

 83 86  0  0  1  0  0  0  0  0999 V2000
   -4.1456   -5.1391   -2.4550 O   0  0  0  0  0  0  0  0  0  0  0  0
   -3.3119   -4.2941   -2.1917 C   0  0  0  0  0  0  0  0  0  0  0  0
   -3.5468   -2.9769   -2.5338 N   0  0  0  0  0  0  0  0  0  0  0  0
   -2.6893   -1.8733   -2.7084 C   0  0  0  0  0  0  0  0  0  0  0  0
   -1.3323   -2.0114   -3.0151 C   0  0  0  0  0  0  0  0  0  0  0  0
   -0.5529   -0.8715   -3.1919 C   0  0  0  0  0  0  0  0  0  0  0  0
    0.7878   -1.0484   -3.4548 O   0  0  0  0  0  0  0  0  0  0  0  0
    1.5467   -1.1563   -2.3261 C   0  0  0  0  0  0  0  0  0  0  0  0
    1.7775   -0.0591   -1.6386 N   0  0  0  0  0  0  0  0  0  0  0  0
    2.4535   -0.1427   -0.4757 C   0  0  0  0  0  0  0  0  0  0  0  0
    2.5181    0.9643    0.3345 N   0  0  0  0  0  0  0  0  0  0  0  0
    1.6043    2.0344    0.2666 C   0  0  0  0  0  0  0  0  0  0  0  0
    0.9384    2.4240    1.4324 C   0  0  0  0  0  0  0  0  0  0  0  0
    0.0007    3.4538    1.4082 C   0  0  0  0  0  0  0  0  0  0  0  0
   -0.3234    4.1115    0.2146 C   0  0  0  0  0  0  0  0  0  0  0  0
   -1.3127    5.1219    0.1397 N   0  0  0  0  0  0  0  0  0  0  0  0
   -0.8769    6.4158   -0.3644 C   0  0  0  0  0  0  0  0  0  0  0  0
   -2.0869    7.2717   -0.7395 C   0  0  0  0  0  0  0  0  0  0  0  0
   -3.0439    7.4247    0.3430 N   0  0  0  0  0  0  0  0  0  0  0  0
   -3.4200    6.1182    0.8562 C   0  0  0  0  0  0  0  0  0  0  0  0
   -2.2263    5.2480    1.2568 C   0  0  0  0  0  0  0  0  0  0  0  0
   -2.6561    8.3798    1.3563 C   0  0  0  0  0  0  0  0  0  0  0  0
    0.3586    3.7196   -0.9483 C   0  0  0  0  0  0  0  0  0  0  0  0
    1.3177    2.7154   -0.9248 C   0  0  0  0  0  0  0  0  0  0  0  0
    3.0111   -1.2509    0.0154 N   0  0  0  0  0  0  0  0  0  0  0  0
    1.9868   -2.4004   -1.8743 C   0  0  0  0  0  0  0  0  0  0  0  0
    2.7185   -2.3502   -0.6672 C   0  0  0  0  0  0  0  0  0  0  0  0
    2.9176   -3.6479   -0.3026 N   0  0  0  0  0  0  0  0  0  0  0  0
    3.0969   -3.9716    0.6995 H   0  0  0  0  0  0  0  0  0  0  0  0
    2.2905   -4.3971   -1.2661 C   0  0  0  0  0  0  0  0  0  0  0  0
    1.7410   -3.7111   -2.2334 N   0  0  0  0  0  0  0  0  0  0  0  0
   -1.0897    0.4097   -3.1024 C   0  0  0  0  0  0  0  0  0  0  0  0
   -2.4477    0.5375   -2.8230 C   0  0  0  0  0  0  0  0  0  0  0  0
   -3.2419   -0.5879   -2.6183 C   0  0  0  0  0  0  0  0  0  0  0  0
   -2.0832   -4.6636   -1.4301 C   0  0  0  0  0  0  0  0  0  0  0  0
   -1.5493   -3.9530   -0.4372 C   0  0  0  0  0  0  0  0  0  0  0  0
    2.5693   -4.4424    2.7083 S   0  0  0  0  0  1  0  0  0  0  0  0
    1.1059   -3.3679    2.5045 C   0  0  0  0  0  0  0  0  0  0  0  0
    1.4142   -1.8659    2.6316 C   0  0  2  0  0  0  0  0  0  0  0  0
    2.1434   -1.6101    1.8507 H   0  0  0  0  0  0  0  0  0  0  0  0
    2.0224   -1.5710    3.9027 N   0  0  0  0  0  0  0  0  0  0  0  0
    2.7232   -0.4407    4.0902 C   0  0  0  0  0  0  0  0  0  0  0  0
    3.4356   -0.3116    5.4204 C   0  0  0  0  0  0  0  0  0  0  0  0
    2.7839    0.4640    3.2605 O   0  0  0  0  0  0  0  0  0  0  0  0
    0.1782   -0.9887    2.3922 C   0  0  0  0  0  0  0  0  0  0  0  0
   -0.2216   -0.9756    1.0849 N   0  0  0  0  0  0  0  0  0  0  0  0
   -1.2615   -0.1150    0.5798 C   0  0  0  0  0  0  0  0  0  0  0  0
   -0.3885   -0.3569    3.2629 O   0  0  0  0  0  0  0  0  0  0  0  0
   -4.4923   -2.8558   -2.8816 H   0  0  0  0  0  0  0  0  0  0  0  0
   -0.8449   -2.9830   -3.1019 H   0  0  0  0  0  0  0  0  0  0  0  0
    2.8027    0.7228    1.2902 H   0  0  0  0  0  0  0  0  0  0  0  0
    1.1488    1.8946    2.3644 H   0  0  0  0  0  0  0  0  0  0  0  0
   -0.4925    3.7209    2.3434 H   0  0  0  0  0  0  0  0  0  0  0  0
   -0.2434    6.2746   -1.2504 H   0  0  0  0  0  0  0  0  0  0  0  0
   -0.2523    6.9440    0.3909 H   0  0  0  0  0  0  0  0  0  0  0  0
   -2.6006    6.7864   -1.5878 H   0  0  0  0  0  0  0  0  0  0  0  0
   -1.7561    8.2671   -1.0767 H   0  0  0  0  0  0  0  0  0  0  0  0
   -3.9816    5.5874    0.0680 H   0  0  0  0  0  0  0  0  0  0  0  0
   -4.0968    6.2461    1.7159 H   0  0  0  0  0  0  0  0  0  0  0  0
   -2.5864    4.2479    1.5408 H   0  0  0  0  0  0  0  0  0  0  0  0
   -1.7302    5.6794    2.1555 H   0  0  0  0  0  0  0  0  0  0  0  0
   -2.4851    9.3630    0.8898 H   0  0  0  0  0  0  0  0  0  0  0  0
   -1.7395    8.1206    1.9275 H   0  0  0  0  0  0  0  0  0  0  0  0
   -3.4742    8.4966    2.0845 H   0  0  0  0  0  0  0  0  0  0  0  0
    0.1171    4.2009   -1.8994 H   0  0  0  0  0  0  0  0  0  0  0  0
    1.8232    2.4241   -1.8435 H   0  0  0  0  0  0  0  0  0  0  0  0
    2.2634   -5.4842   -1.1849 H   0  0  0  0  0  0  0  0  0  0  0  0
   -0.4366    1.2741   -3.2178 H   0  0  0  0  0  0  0  0  0  0  0  0
   -2.8892    1.5322   -2.7328 H   0  0  0  0  0  0  0  0  0  0  0  0
   -4.3002   -0.4766   -2.3706 H   0  0  0  0  0  0  0  0  0  0  0  0
   -1.7126   -5.6651   -1.6630 H   0  0  0  0  0  0  0  0  0  0  0  0
   -1.9203   -2.9630   -0.1581 H   0  0  0  0  0  0  0  0  0  0  0  0
   -0.7115   -4.3466    0.1433 H   0  0  0  0  0  0  0  0  0  0  0  0
    0.3194   -3.6374    3.2307 H   0  0  0  0  0  0  0  0  0  0  0  0
    0.6654   -3.5177    1.5057 H   0  0  0  0  0  0  0  0  0  0  0  0
    2.2132   -2.3762    4.4911 H   0  0  0  0  0  0  0  0  0  0  0  0
    2.9705    0.5091    5.9852 H   0  0  0  0  0  0  0  0  0  0  0  0
    4.4816   -0.0356    5.2300 H   0  0  0  0  0  0  0  0  0  0  0  0
    3.4012   -1.2286    6.0237 H   0  0  0  0  0  0  0  0  0  0  0  0
    0.3280   -1.4971    0.4144 H   0  0  0  0  0  0  0  0  0  0  0  0
   -1.6531    0.4652    1.4246 H   0  0  0  0  0  0  0  0  0  0  0  0
   -2.0872   -0.6882    0.1246 H   0  0  0  0  0  0  0  0  0  0  0  0
   -0.8655    0.5801   -0.1770 H   0  0  0  0  0  0  0  0  0  0  0  0
  1  2  2  0  0  0  0
  2 35  1  0  0  0  0
  3  2  1  0  0  0  0
  4 34  1  0  0  0  0
  4  3  1  0  0  0  0
  5  4  2  0  0  0  0
  6 32  2  0  0  0  0
  6  5  1  0  0  0  0
  7  6  1  0  0  0  0
  7  8  1  0  0  0  0
  8 26  1  0  0  0  0
  8  9  2  0  0  0  0
  9 10  1  0  0  0  0
 10 25  2  0  0  0  0
 10 11  1  0  0  0  0
 11 51  1  0  0  0  0
 12 11  1  0  0  0  0
 12 13  1  0  0  0  0
 13 52  1  0  0  0  0
 14 13  2  0  0  0  0
 14 53  1  0  0  0  0
 15 14  1  0  0  0  0
 16 15  1  0  0  0  0
 16 21  1  0  0  0  0
 17 16  1  0  0  0  0
 17 55  1  0  0  0  0
 18 17  1  0  0  0  0
 18 19  1  0  0  0  0
 19 20  1  0  0  0  0
 19 22  1  0  0  0  0
 20 21  1  0  0  0  0
 20 59  1  0  0  0  0
 21 60  1  0  0  0  0
 21 61  1  0  0  0  0
 22 63  1  0  0  0  0
 22 64  1  0  0  0  0
 23 24  1  0  0  0  0
 23 15  2  0  0  0  0
 24 12  2  0  0  0  0
 26 27  2  0  0  0  0
 27 28  1  0  0  0  0
 27 25  1  0  0  0  0
 28 29  1  0  0  0  0
 30 67  1  0  0  0  0
 30 28  1  0  0  0  0
 31 26  1  0  0  0  0
 31 30  2  0  0  0  0
 32 33  1  0  0  0  0
 33 69  1  0  0  0  0
 33 34  2  0  0  0  0
 34 70  1  0  0  0  0
 35 36  2  0  0  0  0
 36 72  1  0  0  0  0
 36 73  1  0  0  0  0
 38 39  1  0  0  0  0
 38 37  1  0  0  0  0
 38 74  1  0  0  0  0
 39 40  1  6  0  0  0
 39 41  1  0  0  0  0
 41 42  1  0  0  0  0
 41 76  1  0  0  0  0
 42 43  1  0  0  0  0
 43 77  1  0  0  0  0
 43 79  1  0  0  0  0
 44 42  2  0  0  0  0
 45 39  1  0  0  0  0
 45 48  2  0  0  0  0
 46 45  1  0  0  0  0
 47 46  1  0  0  0  0
 47 81  1  0  0  0  0
 49  3  1  0  0  0  0
 50  5  1  0  0  0  0
 54 17  1  0  0  0  0
 56 18  1  0  0  0  0
 57 18  1  0  0  0  0
 58 20  1  0  0  0  0
 62 22  1  0  0  0  0
 65 23  1  0  0  0  0
 66 24  1  0  0  0  0
 68 32  1  0  0  0  0
 71 35  1  0  0  0  0
 75 38  1  0  0  0  0
 78 43  1  0  0  0  0
 80 46  1  0  0  0  0
 82 47  1  0  0  0  0
 83 47  1  0  0  0  0
M  END
