83
-1 1
O        -1.626377   -6.364556   -1.060179
C        -1.203033   -5.245638   -0.750369
N        -2.204281   -4.169091   -0.861051
C        -2.146383   -3.037344   -1.624139
C        -0.955189   -2.643654   -2.258651
C        -0.888336   -1.448959   -2.958807
O         0.325762   -1.061267   -3.513702
C         1.373859   -1.221397   -2.675343
N         1.550206   -0.313142   -1.733839
C         2.514820   -0.490517   -0.811495
N         2.717184    0.492911    0.128117
C         2.007718    1.696199    0.237858
C         1.717082    2.186538    1.513444
C         0.899437    3.297445    1.686975
C         0.349235    3.961331    0.587355
N        -0.645174    4.955268    0.727114
C        -0.349412    6.280597    0.214702
C        -1.644898    7.077918    0.053100
N        -2.445055    7.130660    1.264152
C        -2.683485    5.784772    1.763654
C        -1.406778    4.966610    1.962058
C        -1.966777    8.063587    2.258144
C         0.748470    3.542875   -0.690889
C         1.567513    2.437952   -0.869820
N         3.285297   -1.574713   -0.684445
C         2.193119   -2.350268   -2.725898
C         3.071218   -2.470380   -1.632219
N         3.603619   -3.723520   -1.756715
H         4.198211   -4.178985   -1.078537
C         3.023681   -4.286285   -2.875661
N         2.195033   -3.500414   -3.489268
C        -1.992137   -0.615770   -3.117538
C        -3.191229   -1.026660   -2.525460
C        -3.277126   -2.198203   -1.784085
C         0.067530   -4.891715   -0.272227
C         0.424432   -3.643952    0.426590
S        -0.484584   -3.286464    2.063586
C        -1.292097   -1.727717    1.634469
C        -0.397937   -0.474969    1.740780
H         0.479408   -0.590985    1.090364
N         0.071557   -0.287628    3.089277
C         1.325844   -0.545363    3.519906
C         1.485296   -0.571409    5.027113
O         2.278412   -0.751650    2.781132
C        -1.239323    0.731929    1.320193
N        -1.318254    0.940837   -0.005511
C        -2.217017    1.918917   -0.567337
O        -1.870575    1.379237    2.148398
H        -3.132167   -4.561168   -0.746981
H        -0.100168   -3.317447   -2.199113
H         3.044023    0.101778    1.011701
H         2.100964    1.652422    2.382069
H         0.643933    3.603253    2.701517
H         0.153645    6.195456   -0.759118
H         0.352682    6.821276    0.889336
H        -2.246762    6.594696   -0.736308
H        -1.420199    8.103952   -0.280538
H        -3.321521    5.254820    1.035855
H        -3.243667    5.842869    2.710173
H        -1.670044    3.928660    2.221084
H        -0.819765    5.388494    2.809380
H        -1.908231    9.072935    1.820079
H        -0.968606    7.831146    2.687292
H        -2.680560    8.106884    3.096005
H         0.345582    4.051916   -1.570051
H         1.803562    2.101786   -1.877092
H         3.263028   -5.305209   -3.179397
H        -1.900898    0.315803   -3.676810
H        -4.080115   -0.398130   -2.628458
H        -4.220333   -2.477978   -1.307941
H         0.744530   -5.742743   -0.155197
H         0.237463   -2.709893   -0.135678
H         1.489662   -3.631073    0.695273
H        -2.152788   -1.600274    2.310504
H        -1.694103   -1.801861    0.613235
H        -0.645522   -0.039574    3.759458
H         2.502125   -0.252137    5.286245
H         1.352492   -1.611164    5.362400
H         0.749444    0.058790    5.546971
H        -0.710301    0.418334   -0.631518
H        -1.988827    2.934303   -0.208661
H        -3.261530    1.682750   -0.308851
H        -2.113501    1.896639   -1.658467
