83
-1 1
O        -4.145610   -5.139127   -2.455021
C        -3.311859   -4.294061   -2.191666
N        -3.546833   -2.976932   -2.533769
C        -2.689320   -1.873273   -2.708365
C        -1.332316   -2.011441   -3.015136
C        -0.552902   -0.871544   -3.191857
O         0.787764   -1.048355   -3.454812
C         1.546701   -1.156272   -2.326055
N         1.777519   -0.059117   -1.638558
C         2.453533   -0.142719   -0.475747
N         2.518099    0.964253    0.334462
C         1.604266    2.034415    0.266574
C         0.938398    2.424038    1.432388
C         0.000740    3.453847    1.408220
C        -0.323405    4.111520    0.214608
N        -1.312660    5.121901    0.139748
C        -0.876884    6.415799   -0.364429
C        -2.086893    7.271693   -0.739456
N        -3.043880    7.424679    0.343048
C        -3.420022    6.118236    0.856214
C        -2.226279    5.247959    1.256760
C        -2.656111    8.379771    1.356302
C         0.358602    3.719613   -0.948348
C         1.317668    2.715354   -0.924799
N         3.011080   -1.250938    0.015393
C         1.986760   -2.400368   -1.874334
C         2.718544   -2.350209   -0.667171
N         2.917593   -3.647946   -0.302614
H         3.096926   -3.971609    0.699546
C         2.290544   -4.397096   -1.266144
N         1.741004   -3.711052   -2.233387
C        -1.089660    0.409707   -3.102397
C        -2.447673    0.537484   -2.822959
C        -3.241879   -0.587862   -2.618320
C        -2.083190   -4.663560   -1.430098
C        -1.549307   -3.952970   -0.437212
S         2.569269   -4.442367    2.708343
C         1.105938   -3.367857    2.504542
C         1.414159   -1.865923    2.631600
H         2.143356   -1.610127    1.850686
N         2.022405   -1.570972    3.902703
C         2.723163   -0.440661    4.090222
C         3.435643   -0.311599    5.420352
O         2.783859    0.463967    3.260462
C         0.178244   -0.988694    2.392243
N        -0.221627   -0.975607    1.084894
C        -1.261519   -0.114999    0.579802
O        -0.388455   -0.356932    3.262919
H        -4.492335   -2.855773   -2.881597
H        -0.844892   -2.983009   -3.101869
H         2.802742    0.722758    1.290190
H         1.148812    1.894618    2.364406
H        -0.492476    3.720861    2.343393
H        -0.243415    6.274593   -1.250362
H        -0.252288    6.944014    0.390920
H        -2.600596    6.786411   -1.587769
H        -1.756102    8.267121   -1.076651
H        -3.981584    5.587430    0.067983
H        -4.096760    6.246082    1.715934
H        -2.586394    4.247910    1.540762
H        -1.730205    5.679428    2.155550
H        -2.485071    9.363000    0.889829
H        -1.739520    8.120587    1.927531
H        -3.474190    8.496590    2.084520
H         0.117101    4.200872   -1.899359
H         1.823215    2.424060   -1.843469
H         2.263376   -5.484163   -1.184921
H        -0.436646    1.274139   -3.217766
H        -2.889190    1.532205   -2.732761
H        -4.300204   -0.476622   -2.370571
H        -1.712601   -5.665128   -1.662962
H        -1.920270   -2.963010   -0.158110
H        -0.711533   -4.346568    0.143308
H         0.319388   -3.637416    3.230665
H         0.665367   -3.517680    1.505737
H         2.213184   -2.376205    4.491097
H         2.970457    0.509150    5.985237
H         4.481564   -0.035551    5.229951
H         3.401183   -1.228609    6.023682
H         0.327998   -1.497099    0.414352
H        -1.653113    0.465153    1.424560
H        -2.087165   -0.688213    0.124590
H        -0.865476    0.580128   -0.176992
