-1 1
 OpenBabel05232414493D

 64 66  0  0  1  0  0  0  0  0999 V2000
    6.8895   -9.6932   -2.3001 O   0  0  0  0  0  0  0  0  0  0  0  0
    6.8952  -10.9314   -2.3031 C   0  0  0  0  0  0  0  0  0  0  0  0
    5.6397  -11.5458   -2.1268 N   0  0  0  0  0  0  0  0  0  0  0  0
    5.2521  -12.7875   -1.6527 C   0  0  0  0  0  0  0  0  0  0  0  0
    6.0665  -13.5656   -0.8187 C   0  0  0  0  0  0  0  0  0  0  0  0
    5.6178  -14.8070   -0.3954 C   0  0  0  0  0  0  0  0  0  0  0  0
    6.4396  -15.5780    0.4248 O   0  0  0  0  0  0  0  0  0  0  0  0
    7.5666  -16.0898   -0.0735 C   0  0  0  0  0  0  0  0  0  0  0  0
    7.8149  -16.0318   -1.3643 N   0  0  0  0  0  0  0  0  0  0  0  0
    8.9674  -16.5305   -1.8309 C   0  0  0  0  0  0  0  0  0  0  0  0
    9.9292  -17.1010   -1.1260 N   0  0  0  0  0  0  0  0  0  0  0  0
    8.4806  -16.7030    0.8100 C   0  0  0  0  0  0  0  0  0  0  0  0
    9.6523  -17.1638    0.1777 C   0  0  0  0  0  0  0  0  0  0  0  0
   10.4724  -17.6713    1.1432 N   0  0  0  0  0  0  0  0  0  0  0  0
   11.3817  -18.0701    0.9593 H   0  0  0  0  0  0  0  0  0  0  0  0
    9.8599  -17.5430    2.3681 C   0  0  0  0  0  0  0  0  0  0  0  0
    8.6265  -16.9510    2.2251 C   0  0  0  0  0  0  0  0  0  0  0  0
    7.6898  -16.6756    3.3272 C   0  0  0  0  0  0  0  0  0  0  0  0
    6.3086  -16.9005    3.1977 C   0  0  0  0  0  0  0  0  0  0  0  0
    5.4314  -16.7093    4.1764 N   0  0  0  0  0  0  0  0  0  0  0  0
    5.8835  -16.2746    5.3510 C   0  0  0  0  0  0  0  0  0  0  0  0
    7.2291  -16.0130    5.5982 C   0  0  0  0  0  0  0  0  0  0  0  0
    8.1425  -16.2136    4.5677 C   0  0  0  0  0  0  0  0  0  0  0  0
    4.3577  -15.2967   -0.7100 C   0  0  0  0  0  0  0  0  0  0  0  0
    3.5322  -14.4948   -1.5003 C   0  0  0  0  0  0  0  0  0  0  0  0
    3.9668  -13.2649   -1.9781 C   0  0  0  0  0  0  0  0  0  0  0  0
    8.0752  -11.7087   -2.5832 C   0  0  0  0  0  3  0  0  0  0  0  0
    8.1172  -12.9827   -3.1270 C   0  0  0  0  0  3  0  0  0  0  0  0
    7.8558  -13.0619   -5.5720 S   0  0  0  0  0  1  0  0  0  0  0  0
    7.5262  -11.2927   -5.7765 C   0  0  0  0  0  0  0  0  0  0  0  0
    6.0837  -10.8593   -5.4491 C   0  0  2  0  0  0  0  0  0  0  0  0
    5.9496  -10.9048   -4.3677 H   0  0  0  0  0  0  0  0  0  0  0  0
    5.1099  -11.7506   -6.0275 N   0  0  0  0  0  0  0  0  0  0  0  0
    3.9196  -11.9375   -5.4220 C   0  0  0  0  0  0  0  0  0  0  0  0
    3.1300  -13.1444   -5.8872 C   0  0  0  0  0  0  0  0  0  0  0  0
    3.5038  -11.2155   -4.5215 O   0  0  0  0  0  0  0  0  0  0  0  0
    5.8722   -9.4051   -5.8786 C   0  0  0  0  0  0  0  0  0  0  0  0
    6.2250   -8.5176   -4.9139 N   0  0  0  0  0  0  0  0  0  0  0  0
    6.1688   -7.0981   -5.1238 C   0  0  0  0  0  0  0  0  0  0  0  0
    5.4876   -9.0895   -6.9918 O   0  0  0  0  0  0  0  0  0  0  0  0
    4.8807  -10.9448   -2.4360 H   0  0  0  0  0  0  0  0  0  0  0  0
    7.0616  -13.2178   -0.5435 H   0  0  0  0  0  0  0  0  0  0  0  0
    9.1205  -16.4442   -2.9118 H   0  0  0  0  0  0  0  0  0  0  0  0
   10.3378  -17.9108    3.2734 H   0  0  0  0  0  0  0  0  0  0  0  0
    5.9092  -17.2511    2.2418 H   0  0  0  0  0  0  0  0  0  0  0  0
    5.1360  -16.1226    6.1378 H   0  0  0  0  0  0  0  0  0  0  0  0
    7.5525  -15.6460    6.5742 H   0  0  0  0  0  0  0  0  0  0  0  0
    9.2032  -15.9939    4.7132 H   0  0  0  0  0  0  0  0  0  0  0  0
    4.0450  -16.2771   -0.3496 H   0  0  0  0  0  0  0  0  0  0  0  0
    2.5331  -14.8478   -1.7671 H   0  0  0  0  0  0  0  0  0  0  0  0
    3.3364  -12.6585   -2.6337 H   0  0  0  0  0  0  0  0  0  0  0  0
    8.9829  -11.0997   -2.5832 H   0  0  0  0  0  0  0  0  0  0  0  0
    7.2839  -13.6765   -3.0337 H   0  0  0  0  0  0  0  0  0  0  0  0
    9.0908  -13.4603   -3.2381 H   0  0  0  0  0  0  0  0  0  0  0  0
    7.7693  -10.9953   -6.8091 H   0  0  0  0  0  0  0  0  0  0  0  0
    8.1834  -10.7170   -5.1032 H   0  0  0  0  0  0  0  0  0  0  0  0
    5.5021  -12.5213   -6.5622 H   0  0  0  0  0  0  0  0  0  0  0  0
    3.3248  -13.9687   -5.1831 H   0  0  0  0  0  0  0  0  0  0  0  0
    3.4073  -13.4749   -6.8976 H   0  0  0  0  0  0  0  0  0  0  0  0
    2.0591  -12.9069   -5.8514 H   0  0  0  0  0  0  0  0  0  0  0  0
    6.4857   -8.8688   -3.9875 H   0  0  0  0  0  0  0  0  0  0  0  0
    5.4257   -6.6173   -4.4649 H   0  0  0  0  0  0  0  0  0  0  0  0
    5.8772   -6.9212   -6.1676 H   0  0  0  0  0  0  0  0  0  0  0  0
    7.1469   -6.6231   -4.9391 H   0  0  0  0  0  0  0  0  0  0  0  0
  2  1  2  0  0  0  0
  2  3  1  0  0  0  0
  3  4  1  0  0  0  0
  4  5  1  0  0  0  0
  5 42  1  0  0  0  0
  5  6  2  0  0  0  0
  6  7  1  0  0  0  0
  8  7  1  0  0  0  0
  8 12  1  0  0  0  0
  9  8  2  0  0  0  0
 10  9  1  0  0  0  0
 10 11  2  0  0  0  0
 11 13  1  0  0  0  0
 12 17  1  0  0  0  0
 13 12  2  0  0  0  0
 13 14  1  0  0  0  0
 14 16  1  0  0  0  0
 15 14  1  0  0  0  0
 16 44  1  0  0  0  0
 17 16  2  0  0  0  0
 17 18  1  0  0  0  0
 18 23  1  0  0  0  0
 19 18  2  0  0  0  0
 19 20  1  0  0  0  0
 20 21  2  0  0  0  0
 21 22  1  0  0  0  0
 21 46  1  0  0  0  0
 22 47  1  0  0  0  0
 23 48  1  0  0  0  0
 23 22  2  0  0  0  0
 24  6  1  0  0  0  0
 24 49  1  0  0  0  0
 25 24  2  0  0  0  0
 26  4  2  0  0  0  0
 26 25  1  0  0  0  0
 27 52  1  0  0  0  0
 27  2  1  0  0  0  0
 28 53  1  0  0  0  0
 28 27  1  0  0  0  0
 30 29  1  0  0  0  0
 30 31  1  0  0  0  0
 30 56  1  0  0  0  0
 31 32  1  1  0  0  0
 33 31  1  0  0  0  0
 33 34  1  0  0  0  0
 34 36  2  0  0  0  0
 35 60  1  0  0  0  0
 35 34  1  0  0  0  0
 35 58  1  0  0  0  0
 37 31  1  0  0  0  0
 37 38  1  0  0  0  0
 38 61  1  0  0  0  0
 39 64  1  0  0  0  0
 39 38  1  0  0  0  0
 39 62  1  0  0  0  0
 40 37  2  0  0  0  0
 41  3  1  0  0  0  0
 43 10  1  0  0  0  0
 45 19  1  0  0  0  0
 50 25  1  0  0  0  0
 51 26  1  0  0  0  0
 54 28  1  0  0  0  0
 55 30  1  0  0  0  0
 57 33  1  0  0  0  0
 59 35  1  0  0  0  0
 63 39  1  0  0  0  0
M  END
