64
-1 1
O         0.441114    3.903054   -0.790919
C         0.343933    2.691781   -0.651052
N        -0.903036    2.113588   -0.569199
C        -1.317945    0.890421   -0.041067
C        -0.524454    0.113096    0.809461
C        -1.006923   -1.104578    1.268531
O        -0.210852   -1.877569    2.106095
C         0.937151   -2.387757    1.648602
N         1.250960   -2.294261    0.375025
C         2.418292   -2.798893   -0.048370
N         3.335988   -3.400139    0.688500
C         1.797010   -3.035457    2.560282
C         2.994068   -3.494166    1.974582
N         3.757481   -4.039848    2.964930
H         4.667475   -4.451562    2.814780
C         3.084262   -3.939722    4.160046
C         1.867001   -3.327046    3.972780
C         0.877657   -3.070716    5.032813
C        -0.496878   -3.277057    4.825858
N        -1.422510   -3.098849    5.761197
C        -1.028313   -2.698968    6.968639
C         0.305238   -2.460723    7.292864
C         1.269470   -2.646054    6.306823
C        -2.282386   -1.561847    0.971728
C        -3.092159   -0.750423    0.175957
C        -2.624071    0.454880   -0.331082
C         1.569077    1.850719   -0.718837
C         1.648003    0.758222   -1.484540
S         1.147860    0.710790   -5.089137
C         0.739597    2.493433   -5.067752
C        -0.413497    2.833324   -4.099313
H        -0.035142    2.720191   -3.073808
N        -1.487470    1.896991   -4.321944
C        -2.581161    1.829081   -3.562573
C        -3.508390    0.666587   -3.856700
O        -2.835979    2.624372   -2.649586
C        -0.893278    4.272633   -4.306633
N        -0.483501    5.135805   -3.339677
C        -0.845075    6.525869   -3.365184
O        -1.525172    4.614248   -5.290808
H        -1.629810    2.652648   -1.054080
H         0.479090    0.425747    1.087535
H         2.624579   -2.691168   -1.118419
H         3.510478   -4.340894    5.076998
H        -0.848645   -3.601806    3.842380
H        -1.814553   -2.557265    7.718630
H         0.580721   -2.123699    8.294011
H         2.323506   -2.443854    6.513720
H        -2.623498   -2.521944    1.359826
H        -4.108051   -1.071386   -0.065289
H        -3.250063    1.083785   -0.967332
H         2.460513    2.316613   -0.289970
H         0.785915    0.334371   -2.006195
H         2.605481    0.267158   -1.669353
H         0.439457    2.834016   -6.072265
H         1.605225    3.101130   -4.760434
H        -1.172845    1.083383   -4.869561
H        -3.302641   -0.138148   -3.133521
H        -3.374605    0.266801   -4.870545
H        -4.546007    0.996985   -3.717283
H        -0.097131    4.754693   -2.478389
H        -1.627519    6.762756   -2.623116
H        -1.238199    6.754775   -4.364428
H         0.027518    7.168121   -3.163293
