-1 1
 OpenBabel05192410563D

 64 67  0  0  1  0  0  0  0  0999 V2000
   -0.4278    3.6742   -0.6658 O   0  0  0  0  0  0  0  0  0  0  0  0
   -0.2407    2.4283   -0.7630 C   0  0  0  0  0  0  0  0  0  0  0  0
   -1.4373    1.6470   -0.6552 N   0  0  0  0  0  0  0  0  0  0  0  0
   -1.6553    0.4042   -0.1324 C   0  0  0  0  0  0  0  0  0  0  0  0
   -0.7489   -0.2185    0.7466 C   0  0  0  0  0  0  0  0  0  0  0  0
   -1.0336   -1.4811    1.2387 C   0  0  0  0  0  0  0  0  0  0  0  0
   -0.1288   -2.0793    2.1231 O   0  0  0  0  0  0  0  0  0  0  0  0
    1.0612   -2.4777    1.6872 C   0  0  0  0  0  0  0  0  0  0  0  0
    1.3434   -2.4908    0.4000 N   0  0  0  0  0  0  0  0  0  0  0  0
    2.5631   -2.8736    0.0035 C   0  0  0  0  0  0  0  0  0  0  0  0
    3.5685   -3.2607    0.7702 N   0  0  0  0  0  0  0  0  0  0  0  0
    2.0199   -2.9025    2.6346 C   0  0  0  0  0  0  0  0  0  0  0  0
    3.2594   -3.2572    2.0689 C   0  0  0  0  0  0  0  0  0  0  0  0
    4.1052   -3.5803    3.0904 N   0  0  0  0  0  0  0  0  0  0  0  0
    5.0628   -3.8723    2.9599 H   0  0  0  0  0  0  0  0  0  0  0  0
    3.4414   -3.4378    4.2871 C   0  0  0  0  0  0  0  0  0  0  0  0
    2.1490   -3.0207    4.0680 C   0  0  0  0  0  0  0  0  0  0  0  0
    1.1498   -2.7865    5.1238 C   0  0  0  0  0  0  0  0  0  0  0  0
   -0.1861   -3.2004    4.9835 C   0  0  0  0  0  0  0  0  0  0  0  0
   -1.1094   -3.0558    5.9271 N   0  0  0  0  0  0  0  0  0  0  0  0
   -0.7537   -2.4785    7.0731 C   0  0  0  0  0  0  0  0  0  0  0  0
    0.5375   -2.0221    7.3260 C   0  0  0  0  0  0  0  0  0  0  0  0
    1.5001   -2.1769    6.3331 C   0  0  0  0  0  0  0  0  0  0  0  0
   -2.2044   -2.1658    0.9438 C   0  0  0  0  0  0  0  0  0  0  0  0
   -3.1158   -1.5321    0.0933 C   0  0  0  0  0  0  0  0  0  0  0  0
   -2.8527   -0.2816   -0.4455 C   0  0  0  0  0  0  0  0  0  0  0  0
    0.9559    1.7999   -1.0909 C   0  0  0  0  0  3  0  0  0  0  0  0
    1.1027    0.4743   -1.7348 C   0  0  0  0  0  0  0  0  0  0  0  0
    0.2959    0.2712   -3.4524 S   0  0  0  0  0  0  0  0  0  0  0  0
    0.4173    1.9632   -4.0901 C   0  0  0  0  0  0  0  0  0  0  0  0
   -0.8263    2.8377   -3.8591 C   0  0  2  0  0  0  0  0  0  0  0  0
   -1.1478    2.7514   -2.8221 H   0  0  0  0  0  0  0  0  0  0  0  0
   -1.9426    2.4346   -4.6774 N   0  0  0  0  0  0  0  0  0  0  0  0
   -3.1504    2.0822   -4.1764 C   0  0  0  0  0  0  0  0  0  0  0  0
   -4.1849    1.6909   -5.2162 C   0  0  0  0  0  0  0  0  0  0  0  0
   -3.4155    2.0353   -2.9856 O   0  0  0  0  0  0  0  0  0  0  0  0
   -0.4639    4.2956   -4.1481 C   0  0  0  0  0  0  0  0  0  0  0  0
   -0.0305    4.9649   -3.0665 N   0  0  0  0  0  0  0  0  0  0  0  0
    0.4271    6.3249   -3.1469 C   0  0  0  0  0  0  0  0  0  0  0  0
   -0.5281    4.7420   -5.2904 O   0  0  0  0  0  0  0  0  0  0  0  0
   -2.2329    2.0730   -1.1240 H   0  0  0  0  0  0  0  0  0  0  0  0
    0.1825    0.2869    1.0051 H   0  0  0  0  0  0  0  0  0  0  0  0
    2.7388   -2.8536   -1.0774 H   0  0  0  0  0  0  0  0  0  0  0  0
    3.9314   -3.6715    5.2298 H   0  0  0  0  0  0  0  0  0  0  0  0
   -0.5079   -3.6684    4.0489 H   0  0  0  0  0  0  0  0  0  0  0  0
   -1.5382   -2.3689    7.8305 H   0  0  0  0  0  0  0  0  0  0  0  0
    0.7801   -1.5423    8.2762 H   0  0  0  0  0  0  0  0  0  0  0  0
    2.5182   -1.8081    6.4818 H   0  0  0  0  0  0  0  0  0  0  0  0
   -2.3837   -3.1581    1.3585 H   0  0  0  0  0  0  0  0  0  0  0  0
   -4.0473   -2.0404   -0.1693 H   0  0  0  0  0  0  0  0  0  0  0  0
   -3.5501    0.1893   -1.1421 H   0  0  0  0  0  0  0  0  0  0  0  0
    1.8095    2.4813   -1.1540 H   0  0  0  0  0  0  0  0  0  0  0  0
    0.6646   -0.3819   -1.1996 H   0  0  0  0  0  0  0  0  0  0  0  0
    2.1671    0.2471   -1.8892 H   0  0  0  0  0  0  0  0  0  0  0  0
    0.6318    1.9138   -5.1693 H   0  0  0  0  0  0  0  0  0  0  0  0
    1.2728    2.4462   -3.5978 H   0  0  0  0  0  0  0  0  0  0  0  0
   -1.8557    2.6377   -5.6657 H   0  0  0  0  0  0  0  0  0  0  0  0
   -4.2677    0.5939   -5.2203 H   0  0  0  0  0  0  0  0  0  0  0  0
   -3.9348    2.0286   -6.2318 H   0  0  0  0  0  0  0  0  0  0  0  0
   -5.1583    2.1008   -4.9175 H   0  0  0  0  0  0  0  0  0  0  0  0
   -0.1046    4.5096   -2.1243 H   0  0  0  0  0  0  0  0  0  0  0  0
   -0.2468    7.0107   -2.6059 H   0  0  0  0  0  0  0  0  0  0  0  0
    0.4587    6.6257   -4.2028 H   0  0  0  0  0  0  0  0  0  0  0  0
    1.4342    6.4288   -2.7113 H   0  0  0  0  0  0  0  0  0  0  0  0
  2  1  2  0  0  0  0
  2  3  1  0  0  0  0
  3  4  1  0  0  0  0
  4  5  1  0  0  0  0
  5 42  1  0  0  0  0
  5  6  2  0  0  0  0
  6  7  1  0  0  0  0
  8  7  1  0  0  0  0
  8 12  1  0  0  0  0
  9  8  2  0  0  0  0
 10  9  1  0  0  0  0
 10 11  2  0  0  0  0
 11 13  1  0  0  0  0
 12 17  1  0  0  0  0
 13 12  2  0  0  0  0
 13 14  1  0  0  0  0
 14 16  1  0  0  0  0
 15 14  1  0  0  0  0
 16 44  1  0  0  0  0
 17 16  2  0  0  0  0
 17 18  1  0  0  0  0
 18 23  1  0  0  0  0
 19 18  2  0  0  0  0
 19 20  1  0  0  0  0
 20 21  2  0  0  0  0
 21 22  1  0  0  0  0
 21 46  1  0  0  0  0
 22 47  1  0  0  0  0
 23 48  1  0  0  0  0
 23 22  2  0  0  0  0
 24  6  1  0  0  0  0
 24 49  1  0  0  0  0
 25 24  2  0  0  0  0
 26  4  2  0  0  0  0
 26 25  1  0  0  0  0
 27  2  1  0  0  0  0
 28 53  1  0  0  0  0
 28 27  1  0  0  0  0
 29 28  1  0  0  0  0
 30 31  1  0  0  0  0
 30 56  1  0  0  0  0
 30 29  1  0  0  0  0
 31 32  1  1  0  0  0
 33 34  1  0  0  0  0
 33 31  1  0  0  0  0
 34 36  2  0  0  0  0
 35 60  1  0  0  0  0
 35 34  1  0  0  0  0
 37 31  1  0  0  0  0
 37 38  1  0  0  0  0
 38 61  1  0  0  0  0
 39 38  1  0  0  0  0
 39 64  1  0  0  0  0
 39 62  1  0  0  0  0
 40 37  2  0  0  0  0
 41  3  1  0  0  0  0
 43 10  1  0  0  0  0
 45 19  1  0  0  0  0
 50 25  1  0  0  0  0
 51 26  1  0  0  0  0
 52 27  1  0  0  0  0
 54 28  1  0  0  0  0
 55 30  1  0  0  0  0
 57 33  1  0  0  0  0
 58 35  1  0  0  0  0
 59 35  1  0  0  0  0
 63 39  1  0  0  0  0
M  END
