-1 1
 OpenBabel05232413483D

 64 66  0  0  1  0  0  0  0  0999 V2000
    0.4411    3.9031   -0.7909 O   0  0  0  0  0  0  0  0  0  0  0  0
    0.3439    2.6918   -0.6511 C   0  0  0  0  0  0  0  0  0  0  0  0
   -0.9030    2.1136   -0.5692 N   0  0  0  0  0  0  0  0  0  0  0  0
   -1.3179    0.8904   -0.0411 C   0  0  0  0  0  0  0  0  0  0  0  0
   -0.5245    0.1131    0.8095 C   0  0  0  0  0  0  0  0  0  0  0  0
   -1.0069   -1.1046    1.2685 C   0  0  0  0  0  0  0  0  0  0  0  0
   -0.2109   -1.8776    2.1061 O   0  0  0  0  0  0  0  0  0  0  0  0
    0.9372   -2.3878    1.6486 C   0  0  0  0  0  0  0  0  0  0  0  0
    1.2510   -2.2943    0.3750 N   0  0  0  0  0  0  0  0  0  0  0  0
    2.4183   -2.7989   -0.0484 C   0  0  0  0  0  0  0  0  0  0  0  0
    3.3360   -3.4001    0.6885 N   0  0  0  0  0  0  0  0  0  0  0  0
    1.7970   -3.0355    2.5603 C   0  0  0  0  0  0  0  0  0  0  0  0
    2.9941   -3.4942    1.9746 C   0  0  0  0  0  0  0  0  0  0  0  0
    3.7575   -4.0398    2.9649 N   0  0  0  0  0  0  0  0  0  0  0  0
    4.6675   -4.4516    2.8148 H   0  0  0  0  0  0  0  0  0  0  0  0
    3.0843   -3.9397    4.1600 C   0  0  0  0  0  0  0  0  0  0  0  0
    1.8670   -3.3270    3.9728 C   0  0  0  0  0  0  0  0  0  0  0  0
    0.8777   -3.0707    5.0328 C   0  0  0  0  0  0  0  0  0  0  0  0
   -0.4969   -3.2771    4.8259 C   0  0  0  0  0  0  0  0  0  0  0  0
   -1.4225   -3.0988    5.7612 N   0  0  0  0  0  0  0  0  0  0  0  0
   -1.0283   -2.6990    6.9686 C   0  0  0  0  0  0  0  0  0  0  0  0
    0.3052   -2.4607    7.2929 C   0  0  0  0  0  0  0  0  0  0  0  0
    1.2695   -2.6461    6.3068 C   0  0  0  0  0  0  0  0  0  0  0  0
   -2.2824   -1.5618    0.9717 C   0  0  0  0  0  0  0  0  0  0  0  0
   -3.0922   -0.7504    0.1760 C   0  0  0  0  0  0  0  0  0  0  0  0
   -2.6241    0.4549   -0.3311 C   0  0  0  0  0  0  0  0  0  0  0  0
    1.5691    1.8507   -0.7188 C   0  0  0  0  0  0  0  0  0  0  0  0
    1.6480    0.7582   -1.4845 C   0  0  0  0  0  0  0  0  0  0  0  0
    1.1479    0.7108   -5.0891 S   0  0  0  0  0  1  0  0  0  0  0  0
    0.7396    2.4934   -5.0678 C   0  0  0  0  0  0  0  0  0  0  0  0
   -0.4135    2.8333   -4.0993 C   0  0  2  0  0  0  0  0  0  0  0  0
   -0.0351    2.7202   -3.0738 H   0  0  0  0  0  0  0  0  0  0  0  0
   -1.4875    1.8970   -4.3219 N   0  0  0  0  0  0  0  0  0  0  0  0
   -2.5812    1.8291   -3.5626 C   0  0  0  0  0  0  0  0  0  0  0  0
   -3.5084    0.6666   -3.8567 C   0  0  0  0  0  0  0  0  0  0  0  0
   -2.8360    2.6244   -2.6496 O   0  0  0  0  0  0  0  0  0  0  0  0
   -0.8933    4.2726   -4.3066 C   0  0  0  0  0  0  0  0  0  0  0  0
   -0.4835    5.1358   -3.3397 N   0  0  0  0  0  0  0  0  0  0  0  0
   -0.8451    6.5259   -3.3652 C   0  0  0  0  0  0  0  0  0  0  0  0
   -1.5252    4.6142   -5.2908 O   0  0  0  0  0  0  0  0  0  0  0  0
   -1.6298    2.6526   -1.0541 H   0  0  0  0  0  0  0  0  0  0  0  0
    0.4791    0.4257    1.0875 H   0  0  0  0  0  0  0  0  0  0  0  0
    2.6246   -2.6912   -1.1184 H   0  0  0  0  0  0  0  0  0  0  0  0
    3.5105   -4.3409    5.0770 H   0  0  0  0  0  0  0  0  0  0  0  0
   -0.8486   -3.6018    3.8424 H   0  0  0  0  0  0  0  0  0  0  0  0
   -1.8146   -2.5573    7.7186 H   0  0  0  0  0  0  0  0  0  0  0  0
    0.5807   -2.1237    8.2940 H   0  0  0  0  0  0  0  0  0  0  0  0
    2.3235   -2.4439    6.5137 H   0  0  0  0  0  0  0  0  0  0  0  0
   -2.6235   -2.5219    1.3598 H   0  0  0  0  0  0  0  0  0  0  0  0
   -4.1081   -1.0714   -0.0653 H   0  0  0  0  0  0  0  0  0  0  0  0
   -3.2501    1.0838   -0.9673 H   0  0  0  0  0  0  0  0  0  0  0  0
    2.4605    2.3166   -0.2900 H   0  0  0  0  0  0  0  0  0  0  0  0
    0.7859    0.3344   -2.0062 H   0  0  0  0  0  0  0  0  0  0  0  0
    2.6055    0.2672   -1.6694 H   0  0  0  0  0  0  0  0  0  0  0  0
    0.4395    2.8340   -6.0723 H   0  0  0  0  0  0  0  0  0  0  0  0
    1.6052    3.1011   -4.7604 H   0  0  0  0  0  0  0  0  0  0  0  0
   -1.1728    1.0834   -4.8696 H   0  0  0  0  0  0  0  0  0  0  0  0
   -3.3026   -0.1381   -3.1335 H   0  0  0  0  0  0  0  0  0  0  0  0
   -3.3746    0.2668   -4.8705 H   0  0  0  0  0  0  0  0  0  0  0  0
   -4.5460    0.9970   -3.7173 H   0  0  0  0  0  0  0  0  0  0  0  0
   -0.0971    4.7547   -2.4784 H   0  0  0  0  0  0  0  0  0  0  0  0
   -1.6275    6.7628   -2.6231 H   0  0  0  0  0  0  0  0  0  0  0  0
   -1.2382    6.7548   -4.3644 H   0  0  0  0  0  0  0  0  0  0  0  0
    0.0275    7.1681   -3.1633 H   0  0  0  0  0  0  0  0  0  0  0  0
  1  2  2  0  0  0  0
  2  3  1  0  0  0  0
  3  4  1  0  0  0  0
  4  5  1  0  0  0  0
  5 42  1  0  0  0  0
  5  6  2  0  0  0  0
  6  7  1  0  0  0  0
  8  7  1  0  0  0  0
  8 12  1  0  0  0  0
  9  8  2  0  0  0  0
 10  9  1  0  0  0  0
 10 11  2  0  0  0  0
 11 13  1  0  0  0  0
 12 17  1  0  0  0  0
 13 12  2  0  0  0  0
 13 14  1  0  0  0  0
 14 16  1  0  0  0  0
 15 14  1  0  0  0  0
 16 44  1  0  0  0  0
 17 16  2  0  0  0  0
 17 18  1  0  0  0  0
 18 23  1  0  0  0  0
 19 18  2  0  0  0  0
 19 20  1  0  0  0  0
 20 21  2  0  0  0  0
 21 22  1  0  0  0  0
 21 46  1  0  0  0  0
 22 47  1  0  0  0  0
 23 48  1  0  0  0  0
 23 22  2  0  0  0  0
 24  6  1  0  0  0  0
 24 49  1  0  0  0  0
 25 24  2  0  0  0  0
 26  4  2  0  0  0  0
 26 25  1  0  0  0  0
 27  2  1  0  0  0  0
 27 52  1  0  0  0  0
 28 27  2  0  0  0  0
 29 30  1  0  0  0  0
 30 56  1  0  0  0  0
 30 31  1  0  0  0  0
 31 32  1  1  0  0  0
 33 31  1  0  0  0  0
 33 34  1  0  0  0  0
 34 36  2  0  0  0  0
 35 60  1  0  0  0  0
 35 34  1  0  0  0  0
 35 58  1  0  0  0  0
 37 31  1  0  0  0  0
 37 38  1  0  0  0  0
 38 61  1  0  0  0  0
 39 38  1  0  0  0  0
 39 64  1  0  0  0  0
 39 62  1  0  0  0  0
 40 37  2  0  0  0  0
 41  3  1  0  0  0  0
 43 10  1  0  0  0  0
 45 19  1  0  0  0  0
 50 25  1  0  0  0  0
 51 26  1  0  0  0  0
 53 28  1  0  0  0  0
 54 28  1  0  0  0  0
 55 30  1  0  0  0  0
 57 33  1  0  0  0  0
 59 35  1  0  0  0  0
 63 39  1  0  0  0  0
M  END
