70
-1 1
O         1.190672    3.122585   -3.000115
C         2.296956    2.561677   -2.714752
N         3.055527    3.215392   -1.675485
C         2.229267    3.579020   -0.582993
C         1.268003    2.639449   -0.221646
C         0.116498    3.026465    0.424288
O        -0.953384    2.151465    0.422272
C        -1.214908    1.445707   -0.692429
N        -0.849596    1.881838   -1.923858
H        -0.071013    2.592248   -2.164230
C        -1.210878    1.185551   -3.046444
N        -1.953767    0.125704   -3.069597
C        -1.900365    0.249665   -0.611676
C        -2.309058   -0.368097   -1.856442
N        -2.990017   -1.492605   -1.646456
C        -3.015108   -1.638104   -0.295179
C        -2.374849   -0.624919    0.414999
C        -2.059689   -0.640876    1.842853
C        -0.734099   -0.329709    2.291934
N        -0.325385   -0.402380    3.528922
C        -2.958608   -1.043962    2.805861
C        -2.557135   -1.139836    4.163231
C        -1.212842   -0.801306    4.482274
C        -0.778863   -0.886296    5.831083
C        -1.644366   -1.287249    6.821252
C        -2.984019   -1.622218    6.505466
C        -3.429611   -1.550001    5.206867
C         0.010548    4.293209    0.991984
C         1.080173    5.174863    0.812016
C         2.164037    4.850095   -0.012368
C         2.773317    1.386094   -3.270396
C         3.796744    0.509293   -2.677778
S         3.262060   -0.362029   -1.042253
C         1.544005   -0.807323   -1.424187
C         1.216000   -2.314011   -1.455147
H         2.081390   -2.843129   -1.888538
N         0.052924   -2.577238   -2.256102
C         0.099098   -2.528787   -3.612098
C        -1.206714   -2.835661   -4.312694
O         1.133064   -2.287656   -4.216768
C         0.936149   -2.839118   -0.039288
N         1.962694   -2.698950    0.834543
C         1.823013   -2.981958    2.243500
O        -0.145049   -3.311616    0.268127
H         3.925017    2.758580   -1.422760
H         1.364214    1.634825   -0.625704
H        -0.787194    1.604893   -3.962603
H        -3.446693   -2.536584    0.151964
H         0.011987   -0.031310    1.546263
H        -3.987073   -1.289487    2.527387
H         0.258704   -0.620906    6.042896
H        -1.301671   -1.349052    7.856921
H        -3.663607   -1.940004    7.299902
H        -4.462273   -1.808886    4.957796
H        -0.895457    4.586208    1.523926
H         1.021052    6.173803    1.250994
H         2.910341    5.600792   -0.278916
H         2.176365    0.977291   -4.088189
H         4.725342    0.998412   -2.339162
H         4.078419   -0.300768   -3.361561
H         1.338561   -0.372177   -2.413319
H         0.865724   -0.321868   -0.706689
H        -0.820148   -2.748753   -1.764558
H        -1.172385   -3.874155   -4.678204
H        -1.296151   -2.168472   -5.178689
H        -2.077015   -2.696700   -3.656394
H         2.806962   -2.241160    0.502461
H         1.723909   -2.060813    2.840488
H         2.684181   -3.561569    2.609600
H         0.908630   -3.572757    2.380133
