-1 1
 OpenBabel05232414493D

 70 73  0  0  1  0  0  0  0  0999 V2000
    6.1298   -0.5024    9.3807 O   0  0  0  0  0  0  0  0  0  0  0  0
    7.2442   -0.9870    9.6597 C   0  0  0  0  0  0  0  0  0  0  0  0
    7.9566   -0.4107   10.7502 N   0  0  0  0  0  0  0  0  0  0  0  0
    7.0673    0.0275   11.7726 C   0  0  0  0  0  0  0  0  0  0  0  0
    6.1960   -0.9368   12.2723 C   0  0  0  0  0  0  0  0  0  0  0  0
    5.0170   -0.5517   12.8751 C   0  0  0  0  0  0  0  0  0  0  0  0
    4.0132   -1.4991   12.9903 O   0  0  0  0  0  0  0  0  0  0  0  0
    3.6620   -2.1720   11.8815 C   0  0  0  0  0  0  0  0  0  0  0  0
    3.9715   -1.6974   10.6466 N   0  0  0  0  0  0  0  0  0  0  0  0
    4.6943   -0.9721   10.4668 H   0  0  0  0  0  0  0  0  0  0  0  0
    3.5503   -2.3326    9.5059 C   0  0  0  0  0  3  0  0  0  0  0  0
    2.7848   -3.3713    9.4823 N   0  0  0  0  0  0  0  0  0  0  0  0
    2.9542   -3.3520   11.9459 C   0  0  0  0  0  0  0  0  0  0  0  0
    2.4776   -3.9090   10.6919 C   0  0  0  0  0  0  0  0  0  0  0  0
    1.7810   -5.0224   10.8839 N   0  0  0  0  0  0  0  0  0  0  0  0
    1.8062   -5.2240   12.2291 C   0  0  0  0  0  0  0  0  0  0  0  0
    2.4952   -4.2556   12.9536 C   0  0  1  0  0  3  0  0  0  0  0  0
    2.8335   -4.3125   14.3756 C   0  0  0  0  0  0  0  0  0  0  0  0
    4.1696   -4.0345   14.8139 C   0  0  0  0  0  0  0  0  0  0  0  0
    4.5849   -4.1254   16.0478 N   0  0  0  0  0  0  0  0  0  0  0  0
    1.9352   -4.7110   15.3409 C   0  0  0  0  0  0  0  0  0  0  0  0
    2.3458   -4.8302   16.6935 C   0  0  0  0  0  0  0  0  0  0  0  0
    3.6981   -4.5169   17.0042 C   0  0  0  0  0  0  0  0  0  0  0  0
    4.1413   -4.6217   18.3489 C   0  0  0  0  0  0  0  0  0  0  0  0
    3.2769   -5.0177   19.3419 C   0  0  0  0  0  0  0  0  0  0  0  0
    1.9294   -5.3280   19.0339 C   0  0  0  0  0  0  0  0  0  0  0  0
    1.4747   -5.2362   17.7398 C   0  0  0  0  0  0  0  0  0  0  0  0
    4.7918    0.7747   13.2334 C   0  0  0  0  0  0  0  0  0  0  0  0
    5.7652    1.7167   12.8942 C   0  0  0  0  0  0  0  0  0  0  0  0
    6.8756    1.3618   12.1200 C   0  0  0  0  0  0  0  0  0  0  0  0
    7.8051   -2.1287    9.0163 C   0  0  0  0  0  3  0  0  0  0  0  0
    8.8651   -2.8769    9.5349 C   0  0  0  0  0  3  0  0  0  0  0  0
    8.2443   -3.9987   11.4706 S   0  0  0  0  0  1  0  0  0  0  0  0
    6.5133   -4.2886   11.0223 C   0  0  0  0  0  0  0  0  0  0  0  0
    6.0878   -5.7662   10.9002 C   0  0  2  0  0  0  0  0  0  0  0  0
    6.9269   -6.3156   10.4389 H   0  0  0  0  0  0  0  0  0  0  0  0
    4.9086   -5.9264   10.0903 N   0  0  0  0  0  0  0  0  0  0  0  0
    4.9334   -5.8246    8.7389 C   0  0  0  0  0  0  0  0  0  0  0  0
    3.6216   -6.1388    8.0480 C   0  0  0  0  0  0  0  0  0  0  0  0
    5.9453   -5.5324    8.1195 O   0  0  0  0  0  0  0  0  0  0  0  0
    5.7707   -6.3847   12.2738 C   0  0  0  0  0  0  0  0  0  0  0  0
    6.7460   -6.2520   13.1990 N   0  0  0  0  0  0  0  0  0  0  0  0
    6.5856   -6.6781   14.5668 C   0  0  0  0  0  0  0  0  0  0  0  0
    4.7015   -6.9358   12.4934 O   0  0  0  0  0  0  0  0  0  0  0  0
    8.6888   -1.0198   11.1051 H   0  0  0  0  0  0  0  0  0  0  0  0
    6.3770   -1.9799   12.0144 H   0  0  0  0  0  0  0  0  0  0  0  0
    3.9404   -1.8823    8.5899 H   0  0  0  0  0  0  0  0  0  0  0  0
    1.3685   -6.1290   12.6561 H   0  0  0  0  0  0  0  0  0  0  0  0
    4.9167   -3.7495   14.0641 H   0  0  0  0  0  0  0  0  0  0  0  0
    0.8993   -4.9315   15.0688 H   0  0  0  0  0  0  0  0  0  0  0  0
    5.1850   -4.3765   18.5544 H   0  0  0  0  0  0  0  0  0  0  0  0
    3.6268   -5.0955   20.3740 H   0  0  0  0  0  0  0  0  0  0  0  0
    1.2512   -5.6425   19.8309 H   0  0  0  0  0  0  0  0  0  0  0  0
    0.4360   -5.4759   17.4966 H   0  0  0  0  0  0  0  0  0  0  0  0
    3.8600    1.0594   13.7238 H   0  0  0  0  0  0  0  0  0  0  0  0
    5.6086    2.7635   13.1644 H   0  0  0  0  0  0  0  0  0  0  0  0
    7.5543    2.1200   11.7263 H   0  0  0  0  0  0  0  0  0  0  0  0
    7.1806   -2.5622    8.2329 H   0  0  0  0  0  0  0  0  0  0  0  0
    9.6886   -2.3935   10.0683 H   0  0  0  0  0  0  0  0  0  0  0  0
    9.1837   -3.7533    8.9678 H   0  0  0  0  0  0  0  0  0  0  0  0
    6.3529   -3.7968   10.0461 H   0  0  0  0  0  0  0  0  0  0  0  0
    5.8298   -3.8098   11.7430 H   0  0  0  0  0  0  0  0  0  0  0  0
    4.0660   -6.2207   10.5771 H   0  0  0  0  0  0  0  0  0  0  0  0
    3.6976   -7.1418    7.5993 H   0  0  0  0  0  0  0  0  0  0  0  0
    3.4747   -5.4123    7.2392 H   0  0  0  0  0  0  0  0  0  0  0  0
    2.7611   -6.0974    8.7297 H   0  0  0  0  0  0  0  0  0  0  0  0
    7.5675   -5.7054   12.9337 H   0  0  0  0  0  0  0  0  0  0  0  0
    6.5464   -5.8203   15.2570 H   0  0  0  0  0  0  0  0  0  0  0  0
    7.4077   -7.3459   14.8709 H   0  0  0  0  0  0  0  0  0  0  0  0
    5.6365   -7.2234   14.6444 H   0  0  0  0  0  0  0  0  0  0  0  0
  1  2  2  0  0  0  0
  2  3  1  0  0  0  0
  3 45  1  0  0  0  0
  3  4  1  0  0  0  0
  4 30  2  0  0  0  0
  4  5  1  0  0  0  0
  5  6  2  0  0  0  0
  6  7  1  0  0  0  0
  6 28  1  0  0  0  0
  8 13  2  0  0  0  0
  8  7  1  0  0  0  0
  9  8  1  0  0  0  0
 10  9  1  0  0  0  0
 11  9  1  0  0  0  0
 12 11  1  0  0  0  0
 12 14  2  0  0  0  0
 13 17  1  0  0  0  0
 14 15  1  0  0  0  0
 14 13  1  0  0  0  0
 15 16  2  0  0  0  0
 16 48  1  0  0  0  0
 16 17  1  0  0  0  0
 17 18  1  6  0  0  0
 18 19  2  0  0  0  0
 18 21  1  0  0  0  0
 19 20  1  0  0  0  0
 20 23  2  0  0  0  0
 21 22  2  0  0  0  0
 22 23  1  0  0  0  0
 22 27  1  0  0  0  0
 23 24  1  0  0  0  0
 24 51  1  0  0  0  0
 24 25  2  0  0  0  0
 25 52  1  0  0  0  0
 26 25  1  0  0  0  0
 26 53  1  0  0  0  0
 27 26  2  0  0  0  0
 28 55  1  0  0  0  0
 29 56  1  0  0  0  0
 29 28  2  0  0  0  0
 30 29  1  0  0  0  0
 31 32  1  0  0  0  0
 31  2  1  0  0  0  0
 32 59  1  0  0  0  0
 34 33  1  0  0  0  0
 34 62  1  0  0  0  0
 35 36  1  6  0  0  0
 35 34  1  0  0  0  0
 35 41  1  0  0  0  0
 37 63  1  0  0  0  0
 37 35  1  0  0  0  0
 38 37  1  0  0  0  0
 39 66  1  0  0  0  0
 39 38  1  0  0  0  0
 40 38  2  0  0  0  0
 41 44  2  0  0  0  0
 41 42  1  0  0  0  0
 42 43  1  0  0  0  0
 43 70  1  0  0  0  0
 43 69  1  0  0  0  0
 43 68  1  0  0  0  0
 46  5  1  0  0  0  0
 47 11  1  0  0  0  0
 49 19  1  0  0  0  0
 50 21  1  0  0  0  0
 54 27  1  0  0  0  0
 57 30  1  0  0  0  0
 58 31  1  0  0  0  0
 60 32  1  0  0  0  0
 61 34  1  0  0  0  0
 64 39  1  0  0  0  0
 65 39  1  0  0  0  0
 67 42  1  0  0  0  0
M  END
