70
-1 1
O         1.035093    2.874632   -2.900318
C         2.215373    2.529929   -2.999796
N         3.040235    2.316177   -1.926301
C         2.438177    2.403987   -0.646035
C         1.315712    1.618016   -0.420321
C         0.481190    1.884033    0.648772
O        -0.757107    1.290161    0.740896
C        -1.418488    0.881613   -0.345081
N        -1.206089    1.465768   -1.557039
H        -0.449634    2.146900   -1.715869
C        -1.867497    1.049463   -2.686379
N        -2.780998    0.140127   -2.707823
C        -2.382974   -0.097526   -0.277221
C        -3.074749   -0.443233   -1.511525
N        -3.980781   -1.388448   -1.317085
C        -3.917544   -1.662418    0.015528
C        -2.970985   -0.928591    0.725860
C        -2.688686   -1.013971    2.163824
C        -1.340204   -1.014144    2.655100
N        -1.016165   -1.093277    3.920096
C        -3.697043   -1.129836    3.095302
C        -3.384438   -1.233854    4.475553
C        -2.011034   -1.198358    4.843913
C        -1.664652   -1.281982    6.218709
C        -2.638830   -1.394571    7.182263
C        -4.006662   -1.429537    6.815066
C        -4.370493   -1.350684    5.491562
C         0.862714    2.788501    1.636997
C         2.072560    3.465275    1.483356
C         2.845204    3.313743    0.327469
C         2.808595    2.334839   -4.349238
C         4.104415    2.152997   -4.608185
S         4.422275   -0.500479   -2.229119
C         2.698500   -0.915088   -2.684398
C         1.904378   -1.871743   -1.758615
H         2.424936   -2.846114   -1.776180
N         0.542321   -2.033676   -2.226396
C         0.194350   -2.787452   -3.303167
C        -1.302148   -2.910669   -3.522013
O         1.011070   -3.296415   -4.051638
C         1.778303   -1.441731   -0.285979
N         2.920751   -1.195031    0.362318
C         2.933256   -0.677137    1.707632
O         0.665221   -1.351487    0.237788
H         3.762296    1.546170   -2.031536
H         1.057929    0.861956   -1.153901
H        -1.544860    1.558257   -3.598573
H        -4.561545   -2.433757    0.446331
H        -0.522786   -0.973447    1.927210
H        -4.743917   -1.121693    2.778522
H        -0.602549   -1.254743    6.469713
H        -2.361237   -1.458745    8.237180
H        -4.772694   -1.519797    7.588997
H        -5.424632   -1.376002    5.201800
H         0.211502    2.957053    2.495443
H         2.389898    4.169247    2.255731
H         3.735930    3.920648    0.158887
H         2.063371    2.345293   -5.148574
H         4.858326    2.134996   -3.819388
H         4.450756    1.985744   -5.630846
H         2.691716   -1.403894   -3.667718
H         2.093039    0.001301   -2.800364
H        -0.156246   -1.810225   -1.519349
H        -1.489476   -3.734525   -4.220774
H        -1.699740   -1.978060   -3.950776
H        -1.853127   -3.079576   -2.584929
H         3.745615   -1.047268   -0.251348
H         2.863478    0.424845    1.725082
H         3.867018   -0.973566    2.206125
H         2.082045   -1.079216    2.273340
