69
-1 1
O         3.509527   -4.712878   -2.508577
C         2.789874   -3.739094   -2.378913
N         1.635917   -3.844311   -1.633255
C         0.541486   -2.962861   -1.484710
C         0.071519   -2.700137   -0.196831
C        -1.001244   -1.827151   -0.031669
O        -1.408663   -1.389867    1.207355
C        -1.490797   -2.135127    2.312217
N        -1.584775   -3.448076    2.247398
C        -1.712635   -4.132023    3.395698
N        -1.749922   -3.643295    4.621913
C        -1.513076   -1.458367    3.546061
C        -1.638128   -2.311754    4.661198
N        -1.590469   -1.535917    5.777869
H        -1.656554   -1.891103    6.720598
C        -1.424605   -0.214751    5.402405
C        -1.369110   -0.106442    4.034712
C        -1.126125    1.112687    3.238163
C        -0.063978    1.968126    3.538686
C         0.253317    3.054989    2.721774
C        -0.501159    3.299800    1.569277
O        -0.252322    4.284620    0.690926
C         0.951978    5.010172    0.790212
C        -1.591043    2.465957    1.272026
C        -1.893710    1.397089    2.095438
C        -1.596985   -1.199621   -1.118336
C        -1.116556   -1.469210   -2.398026
C        -0.071419   -2.364163   -2.591953
C         3.196384   -2.432727   -2.978799
C         2.915887   -1.203694   -2.539816
S         1.897681    3.554367   -4.289833
C         1.713988    2.171836   -3.105379
C         0.712939    2.409732   -1.952234
H         0.954255    3.390140   -1.511554
N         0.815017    1.391530   -0.925036
C         1.744975    1.414457    0.056264
C         1.649715    0.273533    1.053061
O         2.626572    2.258558    0.133084
C        -0.753613    2.445534   -2.401306
N        -1.016606    3.279991   -3.411061
C        -2.329710    3.357006   -3.987636
O        -1.618678    1.750065   -1.858585
H         1.573813   -4.737771   -1.156692
H         0.562785   -3.148255    0.666306
H        -1.794038   -5.219906    3.294557
H        -1.360431    0.573720    6.148834
H         0.571071    1.751484    4.401810
H         1.121678    3.668307    2.960531
H         0.981679    5.674084   -0.082264
H         1.821276    4.333782    0.751578
H         0.977532    5.622375    1.710160
H        -2.138261    2.636700    0.344233
H        -2.722724    0.739853    1.828816
H        -2.373930   -0.452960   -0.960986
H        -1.560735   -0.949660   -3.248174
H         0.301937   -2.574804   -3.594403
H         3.901268   -2.573068   -3.802997
H         3.357338   -0.326053   -3.017776
H         2.234197   -0.998001   -1.711303
H         2.681296    1.986122   -2.613849
H         1.421580    1.237820   -3.620690
H        -0.010360    0.806524   -0.824118
H         2.211083    0.548999    1.953149
H         2.100129   -0.633592    0.620041
H         0.608509    0.049898    1.321307
H        -0.177859    3.660422   -3.913644
H        -3.089044    3.531353   -3.209554
H        -2.611911    2.429907   -4.518268
H        -2.356562    4.188544   -4.705027
