69
-1 1
O        -0.188205   -2.211118   -5.121187
C         0.854014   -1.881497   -4.530989
N         0.932002   -2.104145   -3.110030
C        -0.116557   -2.088911   -2.213136
C         0.141124   -1.793850   -0.856186
C        -0.908100   -1.693696    0.043524
O        -0.627546   -1.233170    1.331278
C        -1.091905   -1.906292    2.390930
N        -1.150850   -3.224129    2.346808
C        -1.576423   -3.889958    3.425026
N        -1.956243   -3.378531    4.584182
C        -1.488312   -1.203520    3.548520
C        -1.898215   -2.045919    4.607547
N        -2.241159   -1.254259    5.660647
H        -2.592039   -1.603575    6.540251
C        -2.073351    0.067923    5.302455
C        -1.612212    0.162856    4.012786
C        -1.289758    1.414581    3.302432
C        -0.582157    2.435003    3.944414
C        -0.174264    3.581264    3.260852
C        -0.476891    3.721516    1.902814
O        -0.063654    4.754553    1.136371
C         1.083541    5.463135    1.527053
C        -1.235520    2.734230    1.262741
C        -1.628436    1.599181    1.951531
C        -2.229104   -1.906064   -0.330205
C        -2.473733   -2.241160   -1.660494
C        -1.451997   -2.338298   -2.595223
C         1.984071   -1.298422   -5.134393
C         3.167706   -0.759384   -4.496345
S         3.149260    1.122513   -3.839622
C         2.649504    0.882424   -2.104927
C         1.409312    1.626135   -1.565956
H         1.570951    2.711411   -1.692730
N         1.317913    1.332368   -0.152257
C         2.151463    1.858430    0.773385
C         2.059380    1.222800    2.144003
O         2.976465    2.725458    0.517105
C         0.027450    1.308720   -2.180253
N        -0.012647    1.097534   -3.502668
C        -1.235897    0.778824   -4.203988
O        -0.964638    1.302220   -1.459631
H         1.831355   -1.900149   -2.699035
H         1.156216   -1.591319   -0.507468
H        -1.606307   -4.981424    3.332755
H        -2.315378    0.870230    5.995847
H        -0.284153    2.306580    4.988326
H         0.419010    4.333218    3.782501
H         1.326748    6.142251    0.700189
H         1.936391    4.780251    1.682000
H         0.911860    6.068583    2.435727
H        -1.432086    2.816667    0.193771
H        -2.167185    0.821509    1.407738
H        -3.036586   -1.806564    0.396824
H        -3.502127   -2.422684   -1.983746
H        -1.638076   -2.579625   -3.639088
H         1.876198   -1.152507   -6.211834
H         4.020432   -0.684610   -5.184217
H         3.527070   -1.273170   -3.588462
H         3.485578    1.198277   -1.467187
H         2.499571   -0.193124   -1.936518
H         0.512597    0.787973    0.141229
H         2.209663    1.988152    2.914290
H         2.877480    0.490056    2.223894
H         1.108835    0.701542    2.312216
H         0.871248    1.059837   -4.014087
H        -1.556202    1.619160   -4.843117
H        -2.017550    0.580075   -3.460376
H        -1.088517   -0.121998   -4.818138
