-1 1
 OpenBabel05192410563D

 69 72  0  0  1  0  0  0  0  0999 V2000
   -0.1882   -2.2111   -5.1212 O   0  0  0  0  0  0  0  0  0  0  0  0
    0.8540   -1.8815   -4.5310 C   0  0  0  0  0  0  0  0  0  0  0  0
    0.9320   -2.1041   -3.1100 N   0  0  0  0  0  0  0  0  0  0  0  0
   -0.1166   -2.0889   -2.2131 C   0  0  0  0  0  0  0  0  0  0  0  0
    0.1411   -1.7938   -0.8562 C   0  0  0  0  0  0  0  0  0  0  0  0
   -0.9081   -1.6937    0.0435 C   0  0  0  0  0  0  0  0  0  0  0  0
   -0.6275   -1.2332    1.3313 O   0  0  0  0  0  0  0  0  0  0  0  0
   -1.0919   -1.9063    2.3909 C   0  0  0  0  0  0  0  0  0  0  0  0
   -1.1508   -3.2241    2.3468 N   0  0  0  0  0  0  0  0  0  0  0  0
   -1.5764   -3.8900    3.4250 C   0  0  0  0  0  0  0  0  0  0  0  0
   -1.9562   -3.3785    4.5842 N   0  0  0  0  0  0  0  0  0  0  0  0
   -1.4883   -1.2035    3.5485 C   0  0  0  0  0  0  0  0  0  0  0  0
   -1.8982   -2.0459    4.6075 C   0  0  0  0  0  0  0  0  0  0  0  0
   -2.2412   -1.2543    5.6606 N   0  0  0  0  0  0  0  0  0  0  0  0
   -2.5920   -1.6036    6.5403 H   0  0  0  0  0  0  0  0  0  0  0  0
   -2.0734    0.0679    5.3025 C   0  0  0  0  0  0  0  0  0  0  0  0
   -1.6122    0.1629    4.0128 C   0  0  0  0  0  0  0  0  0  0  0  0
   -1.2898    1.4146    3.3024 C   0  0  0  0  0  0  0  0  0  0  0  0
   -0.5822    2.4350    3.9444 C   0  0  0  0  0  0  0  0  0  0  0  0
   -0.1743    3.5813    3.2609 C   0  0  0  0  0  0  0  0  0  0  0  0
   -0.4769    3.7215    1.9028 C   0  0  0  0  0  0  0  0  0  0  0  0
   -0.0637    4.7546    1.1364 O   0  0  0  0  0  0  0  0  0  0  0  0
    1.0835    5.4631    1.5271 C   0  0  0  0  0  0  0  0  0  0  0  0
   -1.2355    2.7342    1.2627 C   0  0  0  0  0  0  0  0  0  0  0  0
   -1.6284    1.5992    1.9515 C   0  0  0  0  0  0  0  0  0  0  0  0
   -2.2291   -1.9061   -0.3302 C   0  0  0  0  0  0  0  0  0  0  0  0
   -2.4737   -2.2412   -1.6605 C   0  0  0  0  0  0  0  0  0  0  0  0
   -1.4520   -2.3383   -2.5952 C   0  0  0  0  0  0  0  0  0  0  0  0
    1.9841   -1.2984   -5.1344 C   0  0  0  0  0  3  0  0  0  0  0  0
    3.1677   -0.7594   -4.4963 C   0  0  0  0  0  0  0  0  0  0  0  0
    3.1493    1.1225   -3.8396 S   0  0  0  0  0  0  0  0  0  0  0  0
    2.6495    0.8824   -2.1049 C   0  0  0  0  0  0  0  0  0  0  0  0
    1.4093    1.6261   -1.5660 C   0  0  2  0  0  0  0  0  0  0  0  0
    1.5710    2.7114   -1.6927 H   0  0  0  0  0  0  0  0  0  0  0  0
    1.3179    1.3324   -0.1523 N   0  0  0  0  0  0  0  0  0  0  0  0
    2.1515    1.8584    0.7734 C   0  0  0  0  0  0  0  0  0  0  0  0
    2.0594    1.2228    2.1440 C   0  0  0  0  0  0  0  0  0  0  0  0
    2.9765    2.7255    0.5171 O   0  0  0  0  0  0  0  0  0  0  0  0
    0.0274    1.3087   -2.1803 C   0  0  0  0  0  0  0  0  0  0  0  0
   -0.0126    1.0975   -3.5027 N   0  0  0  0  0  0  0  0  0  0  0  0
   -1.2359    0.7788   -4.2040 C   0  0  0  0  0  0  0  0  0  0  0  0
   -0.9646    1.3022   -1.4596 O   0  0  0  0  0  0  0  0  0  0  0  0
    1.8314   -1.9001   -2.6990 H   0  0  0  0  0  0  0  0  0  0  0  0
    1.1562   -1.5913   -0.5075 H   0  0  0  0  0  0  0  0  0  0  0  0
   -1.6063   -4.9814    3.3328 H   0  0  0  0  0  0  0  0  0  0  0  0
   -2.3154    0.8702    5.9958 H   0  0  0  0  0  0  0  0  0  0  0  0
   -0.2842    2.3066    4.9883 H   0  0  0  0  0  0  0  0  0  0  0  0
    0.4190    4.3332    3.7825 H   0  0  0  0  0  0  0  0  0  0  0  0
    1.3267    6.1423    0.7002 H   0  0  0  0  0  0  0  0  0  0  0  0
    1.9364    4.7803    1.6820 H   0  0  0  0  0  0  0  0  0  0  0  0
    0.9119    6.0686    2.4357 H   0  0  0  0  0  0  0  0  0  0  0  0
   -1.4321    2.8167    0.1938 H   0  0  0  0  0  0  0  0  0  0  0  0
   -2.1672    0.8215    1.4077 H   0  0  0  0  0  0  0  0  0  0  0  0
   -3.0366   -1.8066    0.3968 H   0  0  0  0  0  0  0  0  0  0  0  0
   -3.5021   -2.4227   -1.9837 H   0  0  0  0  0  0  0  0  0  0  0  0
   -1.6381   -2.5796   -3.6391 H   0  0  0  0  0  0  0  0  0  0  0  0
    1.8762   -1.1525   -6.2118 H   0  0  0  0  0  0  0  0  0  0  0  0
    4.0204   -0.6846   -5.1842 H   0  0  0  0  0  0  0  0  0  0  0  0
    3.5271   -1.2732   -3.5885 H   0  0  0  0  0  0  0  0  0  0  0  0
    3.4856    1.1983   -1.4672 H   0  0  0  0  0  0  0  0  0  0  0  0
    2.4996   -0.1931   -1.9365 H   0  0  0  0  0  0  0  0  0  0  0  0
    0.5126    0.7880    0.1412 H   0  0  0  0  0  0  0  0  0  0  0  0
    2.2097    1.9882    2.9143 H   0  0  0  0  0  0  0  0  0  0  0  0
    2.8775    0.4901    2.2239 H   0  0  0  0  0  0  0  0  0  0  0  0
    1.1088    0.7015    2.3122 H   0  0  0  0  0  0  0  0  0  0  0  0
    0.8712    1.0598   -4.0141 H   0  0  0  0  0  0  0  0  0  0  0  0
   -1.5562    1.6192   -4.8431 H   0  0  0  0  0  0  0  0  0  0  0  0
   -2.0175    0.5801   -3.4604 H   0  0  0  0  0  0  0  0  0  0  0  0
   -1.0885   -0.1220   -4.8181 H   0  0  0  0  0  0  0  0  0  0  0  0
  1  2  2  0  0  0  0
  2  3  1  0  0  0  0
  3 43  1  0  0  0  0
  3  4  1  0  0  0  0
  4  5  1  0  0  0  0
  5 44  1  0  0  0  0
  5  6  2  0  0  0  0
  6  7  1  0  0  0  0
  7  8  1  0  0  0  0
  8 12  1  0  0  0  0
  9  8  2  0  0  0  0
  9 10  1  0  0  0  0
 10 11  2  0  0  0  0
 11 13  1  0  0  0  0
 12 17  1  0  0  0  0
 12 13  2  0  0  0  0
 13 14  1  0  0  0  0
 14 15  1  0  0  0  0
 16 14  1  0  0  0  0
 16 46  1  0  0  0  0
 17 16  2  0  0  0  0
 18 19  1  0  0  0  0
 18 17  1  0  0  0  0
 19 47  1  0  0  0  0
 20 48  1  0  0  0  0
 20 19  2  0  0  0  0
 21 20  1  0  0  0  0
 22 23  1  0  0  0  0
 22 21  1  0  0  0  0
 23 50  1  0  0  0  0
 23 51  1  0  0  0  0
 24 21  2  0  0  0  0
 24 25  1  0  0  0  0
 25 18  2  0  0  0  0
 26  6  1  0  0  0  0
 26 54  1  0  0  0  0
 27 26  2  0  0  0  0
 28  4  2  0  0  0  0
 28 27  1  0  0  0  0
 29  2  1  0  0  0  0
 29 30  1  0  0  0  0
 30 31  1  0  0  0  0
 30 59  1  0  0  0  0
 31 32  1  0  0  0  0
 32 61  1  0  0  0  0
 32 33  1  0  0  0  0
 32 60  1  0  0  0  0
 33 34  1  6  0  0  0
 33 35  1  0  0  0  0
 35 62  1  0  0  0  0
 35 36  1  0  0  0  0
 36 37  1  0  0  0  0
 37 64  1  0  0  0  0
 37 65  1  0  0  0  0
 37 63  1  0  0  0  0
 38 36  2  0  0  0  0
 39 33  1  0  0  0  0
 39 42  2  0  0  0  0
 40 39  1  0  0  0  0
 41 40  1  0  0  0  0
 41 68  1  0  0  0  0
 45 10  1  0  0  0  0
 49 23  1  0  0  0  0
 52 24  1  0  0  0  0
 53 25  1  0  0  0  0
 55 27  1  0  0  0  0
 56 28  1  0  0  0  0
 57 29  1  0  0  0  0
 58 30  1  0  0  0  0
 66 40  1  0  0  0  0
 67 41  1  0  0  0  0
 69 41  1  0  0  0  0
M  END
