-1 1
 OpenBabel05232413483D

 69 71  0  0  1  0  0  0  0  0999 V2000
    3.5095   -4.7129   -2.5086 O   0  0  0  0  0  0  0  0  0  0  0  0
    2.7899   -3.7391   -2.3789 C   0  0  0  0  0  0  0  0  0  0  0  0
    1.6359   -3.8443   -1.6333 N   0  0  0  0  0  0  0  0  0  0  0  0
    0.5415   -2.9629   -1.4847 C   0  0  0  0  0  0  0  0  0  0  0  0
    0.0715   -2.7001   -0.1968 C   0  0  0  0  0  0  0  0  0  0  0  0
   -1.0012   -1.8272   -0.0317 C   0  0  0  0  0  0  0  0  0  0  0  0
   -1.4087   -1.3899    1.2074 O   0  0  0  0  0  0  0  0  0  0  0  0
   -1.4908   -2.1351    2.3122 C   0  0  0  0  0  0  0  0  0  0  0  0
   -1.5848   -3.4481    2.2474 N   0  0  0  0  0  0  0  0  0  0  0  0
   -1.7126   -4.1320    3.3957 C   0  0  0  0  0  0  0  0  0  0  0  0
   -1.7499   -3.6433    4.6219 N   0  0  0  0  0  0  0  0  0  0  0  0
   -1.5131   -1.4584    3.5461 C   0  0  0  0  0  0  0  0  0  0  0  0
   -1.6381   -2.3118    4.6612 C   0  0  0  0  0  0  0  0  0  0  0  0
   -1.5905   -1.5359    5.7779 N   0  0  0  0  0  0  0  0  0  0  0  0
   -1.6566   -1.8911    6.7206 H   0  0  0  0  0  0  0  0  0  0  0  0
   -1.4246   -0.2148    5.4024 C   0  0  0  0  0  0  0  0  0  0  0  0
   -1.3691   -0.1064    4.0347 C   0  0  0  0  0  0  0  0  0  0  0  0
   -1.1261    1.1127    3.2382 C   0  0  0  0  0  0  0  0  0  0  0  0
   -0.0640    1.9681    3.5387 C   0  0  0  0  0  0  0  0  0  0  0  0
    0.2533    3.0550    2.7218 C   0  0  0  0  0  0  0  0  0  0  0  0
   -0.5012    3.2998    1.5693 C   0  0  0  0  0  0  0  0  0  0  0  0
   -0.2523    4.2846    0.6909 O   0  0  0  0  0  0  0  0  0  0  0  0
    0.9520    5.0102    0.7902 C   0  0  0  0  0  0  0  0  0  0  0  0
   -1.5910    2.4660    1.2720 C   0  0  0  0  0  0  0  0  0  0  0  0
   -1.8937    1.3971    2.0954 C   0  0  0  0  0  0  0  0  0  0  0  0
   -1.5970   -1.1996   -1.1183 C   0  0  0  0  0  0  0  0  0  0  0  0
   -1.1166   -1.4692   -2.3980 C   0  0  0  0  0  0  0  0  0  0  0  0
   -0.0714   -2.3642   -2.5920 C   0  0  0  0  0  0  0  0  0  0  0  0
    3.1964   -2.4327   -2.9788 C   0  0  0  0  0  0  0  0  0  0  0  0
    2.9159   -1.2037   -2.5398 C   0  0  0  0  0  0  0  0  0  0  0  0
    1.8977    3.5544   -4.2898 S   0  0  0  0  0  1  0  0  0  0  0  0
    1.7140    2.1718   -3.1054 C   0  0  0  0  0  0  0  0  0  0  0  0
    0.7129    2.4097   -1.9522 C   0  0  2  0  0  0  0  0  0  0  0  0
    0.9543    3.3901   -1.5116 H   0  0  0  0  0  0  0  0  0  0  0  0
    0.8150    1.3915   -0.9250 N   0  0  0  0  0  0  0  0  0  0  0  0
    1.7450    1.4145    0.0563 C   0  0  0  0  0  0  0  0  0  0  0  0
    1.6497    0.2735    1.0531 C   0  0  0  0  0  0  0  0  0  0  0  0
    2.6266    2.2586    0.1331 O   0  0  0  0  0  0  0  0  0  0  0  0
   -0.7536    2.4455   -2.4013 C   0  0  0  0  0  0  0  0  0  0  0  0
   -1.0166    3.2800   -3.4111 N   0  0  0  0  0  0  0  0  0  0  0  0
   -2.3297    3.3570   -3.9876 C   0  0  0  0  0  0  0  0  0  0  0  0
   -1.6187    1.7501   -1.8586 O   0  0  0  0  0  0  0  0  0  0  0  0
    1.5738   -4.7378   -1.1567 H   0  0  0  0  0  0  0  0  0  0  0  0
    0.5628   -3.1483    0.6663 H   0  0  0  0  0  0  0  0  0  0  0  0
   -1.7940   -5.2199    3.2946 H   0  0  0  0  0  0  0  0  0  0  0  0
   -1.3604    0.5737    6.1488 H   0  0  0  0  0  0  0  0  0  0  0  0
    0.5711    1.7515    4.4018 H   0  0  0  0  0  0  0  0  0  0  0  0
    1.1217    3.6683    2.9605 H   0  0  0  0  0  0  0  0  0  0  0  0
    0.9817    5.6741   -0.0823 H   0  0  0  0  0  0  0  0  0  0  0  0
    1.8213    4.3338    0.7516 H   0  0  0  0  0  0  0  0  0  0  0  0
    0.9775    5.6224    1.7102 H   0  0  0  0  0  0  0  0  0  0  0  0
   -2.1383    2.6367    0.3442 H   0  0  0  0  0  0  0  0  0  0  0  0
   -2.7227    0.7399    1.8288 H   0  0  0  0  0  0  0  0  0  0  0  0
   -2.3739   -0.4530   -0.9610 H   0  0  0  0  0  0  0  0  0  0  0  0
   -1.5607   -0.9497   -3.2482 H   0  0  0  0  0  0  0  0  0  0  0  0
    0.3019   -2.5748   -3.5944 H   0  0  0  0  0  0  0  0  0  0  0  0
    3.9013   -2.5731   -3.8030 H   0  0  0  0  0  0  0  0  0  0  0  0
    3.3573   -0.3261   -3.0178 H   0  0  0  0  0  0  0  0  0  0  0  0
    2.2342   -0.9980   -1.7113 H   0  0  0  0  0  0  0  0  0  0  0  0
    2.6813    1.9861   -2.6138 H   0  0  0  0  0  0  0  0  0  0  0  0
    1.4216    1.2378   -3.6207 H   0  0  0  0  0  0  0  0  0  0  0  0
   -0.0104    0.8065   -0.8241 H   0  0  0  0  0  0  0  0  0  0  0  0
    2.2111    0.5490    1.9531 H   0  0  0  0  0  0  0  0  0  0  0  0
    2.1001   -0.6336    0.6200 H   0  0  0  0  0  0  0  0  0  0  0  0
    0.6085    0.0499    1.3213 H   0  0  0  0  0  0  0  0  0  0  0  0
   -0.1779    3.6604   -3.9136 H   0  0  0  0  0  0  0  0  0  0  0  0
   -3.0890    3.5314   -3.2096 H   0  0  0  0  0  0  0  0  0  0  0  0
   -2.6119    2.4299   -4.5183 H   0  0  0  0  0  0  0  0  0  0  0  0
   -2.3566    4.1885   -4.7050 H   0  0  0  0  0  0  0  0  0  0  0  0
  1  2  2  0  0  0  0
  2  3  1  0  0  0  0
  3  4  1  0  0  0  0
  3 43  1  0  0  0  0
  4  5  1  0  0  0  0
  5  6  2  0  0  0  0
  5 44  1  0  0  0  0
  6  7  1  0  0  0  0
  7  8  1  0  0  0  0
  8 12  1  0  0  0  0
  9  8  2  0  0  0  0
  9 10  1  0  0  0  0
 10 11  2  0  0  0  0
 11 13  1  0  0  0  0
 12 17  1  0  0  0  0
 12 13  2  0  0  0  0
 13 14  1  0  0  0  0
 14 15  1  0  0  0  0
 16 14  1  0  0  0  0
 16 46  1  0  0  0  0
 17 16  2  0  0  0  0
 18 19  1  0  0  0  0
 18 17  1  0  0  0  0
 19 47  1  0  0  0  0
 20 48  1  0  0  0  0
 20 19  2  0  0  0  0
 21 20  1  0  0  0  0
 22 23  1  0  0  0  0
 22 21  1  0  0  0  0
 23 51  1  0  0  0  0
 24 21  2  0  0  0  0
 24 25  1  0  0  0  0
 25 18  2  0  0  0  0
 26 54  1  0  0  0  0
 26  6  1  0  0  0  0
 27 26  2  0  0  0  0
 28 27  1  0  0  0  0
 28  4  2  0  0  0  0
 29 30  2  0  0  0  0
 29  2  1  0  0  0  0
 30 59  1  0  0  0  0
 31 32  1  0  0  0  0
 32 60  1  0  0  0  0
 32 33  1  0  0  0  0
 33 34  1  1  0  0  0
 33 35  1  0  0  0  0
 35 62  1  0  0  0  0
 35 36  1  0  0  0  0
 36 38  2  0  0  0  0
 36 37  1  0  0  0  0
 37 65  1  0  0  0  0
 37 63  1  0  0  0  0
 39 33  1  0  0  0  0
 39 42  2  0  0  0  0
 40 39  1  0  0  0  0
 41 40  1  0  0  0  0
 41 67  1  0  0  0  0
 45 10  1  0  0  0  0
 49 23  1  0  0  0  0
 50 23  1  0  0  0  0
 52 24  1  0  0  0  0
 53 25  1  0  0  0  0
 55 27  1  0  0  0  0
 56 28  1  0  0  0  0
 57 29  1  0  0  0  0
 58 30  1  0  0  0  0
 61 32  1  0  0  0  0
 64 37  1  0  0  0  0
 66 40  1  0  0  0  0
 68 41  1  0  0  0  0
 69 41  1  0  0  0  0
M  END
