64
-1 1
O        12.304570   13.086760   -0.412098
C        11.587607   13.945333   -0.904714
N        10.168794   13.752134   -0.758720
C         9.198554   13.666469   -1.750956
C         7.922613   13.180895   -1.397816
C         6.903592   13.068320   -2.333481
C         7.141789   13.437015   -3.651540
O         6.114996   13.403396   -4.596049
C         5.685346   12.243912   -5.087543
N         6.249623   11.106773   -4.734268
C         5.771571    9.962013   -5.239849
N         4.757124    9.815935   -6.073554
C         4.606746   12.260068   -5.999605
C         4.201968   10.979180   -6.423273
N         3.126706   11.134756   -7.247572
H         2.646855   10.371518   -7.702587
C         2.835431   12.475153   -7.359458
C         3.716079   13.219044   -6.609389
C         3.709530   14.688600   -6.509729
C         4.898202   15.436656   -6.552036
N         4.940092   16.762793   -6.509405
C         3.790025   17.427150   -6.416842
C         2.549376   16.795561   -6.365348
C         2.512478   15.405184   -6.409256
C         8.389726   13.908979   -4.031144
C         9.412666   14.022480   -3.094482
C        12.051587   15.144606   -1.552750
C        11.304588   16.293629   -1.749467
S        11.389546   17.818535    0.134543
C        12.411426   16.762433    1.194999
C        11.688486   16.177279    2.426099
H        12.331996   15.418621    2.896691
N        10.453714   15.569400    1.994523
C         9.679331   14.811330    2.802093
C         8.387146   14.314119    2.173320
O         9.975680   14.531537    3.950350
C        11.503718   17.252671    3.506163
N        10.415550   18.051229    3.332267
C        10.207525   19.225390    4.134779
O        12.307548   17.390069    4.410371
H        10.019356   13.094317   -0.000328
H         7.733696   12.887094   -0.362980
H         5.922157   12.690892   -2.041289
H         6.282391    9.048472   -4.916404
H         2.024030   12.819756   -7.996780
H         5.858390   14.917421   -6.622917
H         3.857868   18.520036   -6.378581
H         1.632254   17.381431   -6.279617
H         1.560896   14.870985   -6.346173
H         8.564259   14.189406   -5.071680
H        10.392417   14.386237   -3.400908
H        13.129705   15.158250   -1.729953
H        10.215456   16.254874   -1.702530
H        11.705209   17.080929   -2.387223
H        13.303424   17.302236    1.543604
H        12.757526   15.912580    0.574263
H        10.146434   15.818170    1.056175
H         8.201523   14.721352    1.170216
H         7.554593   14.580901    2.839115
H         8.421120   13.215215    2.120356
H         9.995392   18.013941    2.406325
H        10.786273   19.109419    5.060336
H         9.142546   19.345371    4.389171
H        10.551603   20.143202    3.626205
