64
-1 1
O         4.082733   -2.463931    1.739113
C         3.659262   -1.336104    1.464829
N         2.195861   -1.155122    1.731912
C         1.248063   -1.180074    0.712111
C        -0.045495   -1.677741    0.972383
C        -1.038522   -1.669079   -0.000142
C        -0.752788   -1.170499   -1.263149
O        -1.770638   -1.095734   -2.219262
C        -1.943054   -2.086871   -3.088987
N        -1.154301   -3.142198   -3.077284
C        -1.372119   -4.124175   -3.961425
N        -2.322131   -4.181117   -4.878400
C        -2.994145   -1.983709   -4.028087
C        -3.109385   -3.102418   -4.875854
N        -4.183679   -2.897509   -5.691234
H        -4.481988   -3.543904   -6.407387
C        -4.756259   -1.684501   -5.384944
C        -4.065361   -1.074906   -4.363569
C        -4.398433    0.240503   -3.790490
C        -3.406163    1.181327   -3.465772
N        -3.664125    2.393476   -2.988901
C        -4.935612    2.740912   -2.802225
C        -6.004495    1.893354   -3.084325
C        -5.727707    0.623724   -3.581923
C         0.518779   -0.698380   -1.560338
C         1.511245   -0.702331   -0.587216
C         4.335275   -0.222959    0.972394
C         3.809874    1.148961    0.881195
S         4.555561    2.403695    2.097090
C         4.622446    1.449456    3.634952
C         3.417419    1.572501    4.574355
H         3.659889    1.038030    5.508768
N         2.222328    1.003617    3.986773
C         1.132885    0.765291    4.771572
C         0.008420    0.003038    4.098549
O         1.062848    1.132691    5.930157
C         3.255196    3.033914    5.014903
N         2.286491    3.731537    4.377244
C         2.096900    5.141954    4.566100
O         4.002376    3.511524    5.850618
H         1.973983   -1.857153    2.434370
H        -0.270248   -2.085499    1.960687
H        -2.036871   -2.053657    0.217217
H        -0.683002   -4.974120   -3.908432
H        -5.616046   -1.315999   -5.940217
H        -2.352484    0.922045   -3.602548
H        -5.115062    3.745933   -2.404151
H        -7.031572    2.217343   -2.905464
H        -6.537119   -0.080379   -3.791628
H         0.735624   -0.330106   -2.565196
H         2.519115   -0.361871   -0.824563
H         5.392915   -0.383689    0.745798
H         2.720066    1.193557    1.016510
H         4.040084    1.658266   -0.070366
H         5.511672    1.786209    4.183878
H         4.775618    0.395093    3.343165
H         2.298389    0.477760    3.110369
H        -0.036275    0.182658    3.016192
H        -0.939064    0.286951    4.572932
H         0.160273   -1.075774    4.259512
H         1.815691    3.254236    3.619390
H         2.706083    5.445573    5.427408
H         1.041157    5.379734    4.772931
H         2.424030    5.720625    3.685639
