-1 1
 OpenBabel05232413483D

 64 66  0  0  1  0  0  0  0  0999 V2000
    4.7571   -0.2108    1.6096 O   0  0  0  0  0  0  0  0  0  0  0  0
    3.7904    0.1085    0.9491 C   0  0  0  0  0  0  0  0  0  0  0  0
    2.5976   -0.5823    1.0715 N   0  0  0  0  0  0  0  0  0  0  0  0
    1.5514   -0.7593    0.1674 C   0  0  0  0  0  0  0  0  0  0  0  0
    0.3169   -1.2183    0.6618 C   0  0  0  0  0  0  0  0  0  0  0  0
   -0.7513   -1.4490   -0.1941 C   0  0  0  0  0  0  0  0  0  0  0  0
   -0.5992   -1.2277   -1.5586 C   0  0  0  0  0  0  0  0  0  0  0  0
   -1.6734   -1.3659   -2.4340 O   0  0  0  0  0  0  0  0  0  0  0  0
   -2.2220   -2.5560   -2.6702 C   0  0  0  0  0  0  0  0  0  0  0  0
   -1.7127   -3.6544   -2.1514 N   0  0  0  0  0  0  0  0  0  0  0  0
   -2.3128   -4.8263   -2.4008 C   0  0  0  0  0  0  0  0  0  0  0  0
   -3.4012   -5.0315   -3.1208 N   0  0  0  0  0  0  0  0  0  0  0  0
   -3.3658   -2.6115   -3.4960 C   0  0  0  0  0  0  0  0  0  0  0  0
   -3.8978   -3.9074   -3.6435 C   0  0  0  0  0  0  0  0  0  0  0  0
   -5.0244   -3.8090   -4.4055 N   0  0  0  0  0  0  0  0  0  0  0  0
   -5.5980   -4.5961   -4.6729 H   0  0  0  0  0  0  0  0  0  0  0  0
   -5.2240   -2.4904   -4.7461 C   0  0  0  0  0  0  0  0  0  0  0  0
   -4.2302   -1.7041   -4.2122 C   0  0  0  0  0  0  0  0  0  0  0  0
   -4.1121   -0.2468   -4.3903 C   0  0  0  0  0  0  0  0  0  0  0  0
   -2.8769    0.3614   -4.6700 C   0  0  0  0  0  0  0  0  0  0  0  0
   -2.7219    1.6633   -4.8772 N   0  0  0  0  0  0  0  0  0  0  0  0
   -3.7994    2.4432   -4.8137 C   0  0  0  0  0  0  0  0  0  0  0  0
   -5.0762    1.9554   -4.5444 C   0  0  0  0  0  0  0  0  0  0  0  0
   -5.2311    0.5897   -4.3266 C   0  0  0  0  0  0  0  0  0  0  0  0
    0.6133   -0.7892   -2.0702 C   0  0  0  0  0  0  0  0  0  0  0  0
    1.6889   -0.5653   -1.2150 C   0  0  0  0  0  0  0  0  0  0  0  0
    3.8381    1.3365    0.0996 C   0  0  0  0  0  0  0  0  0  0  0  0
    2.8886    2.2722    0.1384 C   0  0  0  0  0  0  0  0  0  0  0  0
    3.3849    4.3028    3.4887 S   0  0  0  0  0  1  0  0  0  0  0  0
    4.1976    2.6566    3.5847 C   0  0  0  0  0  0  0  0  0  0  0  0
    3.3097    1.5407    4.1963 C   0  0  2  0  0  0  0  0  0  0  0  0
    3.6864    0.5493    3.9097 H   0  0  0  0  0  0  0  0  0  0  0  0
    1.9608    1.7131    3.6983 N   0  0  0  0  0  0  0  0  0  0  0  0
    1.0459    0.7636    3.4815 C   0  0  0  0  0  0  0  0  0  0  0  0
   -0.2922    1.2827    2.9814 C   0  0  0  0  0  0  0  0  0  0  0  0
    1.2420   -0.4464    3.6151 O   0  0  0  0  0  0  0  0  0  0  0  0
    3.3431    1.5666    5.7352 C   0  0  0  0  0  0  0  0  0  0  0  0
    2.9584    2.7525    6.2729 N   0  0  0  0  0  0  0  0  0  0  0  0
    3.0192    3.0034    7.6853 C   0  0  0  0  0  0  0  0  0  0  0  0
    3.6911    0.6001    6.3940 O   0  0  0  0  0  0  0  0  0  0  0  0
    2.4665   -0.9994    1.9953 H   0  0  0  0  0  0  0  0  0  0  0  0
    0.2144   -1.3676    1.7398 H   0  0  0  0  0  0  0  0  0  0  0  0
   -1.7064   -1.7998    0.1998 H   0  0  0  0  0  0  0  0  0  0  0  0
   -1.8441   -5.7072   -1.9487 H   0  0  0  0  0  0  0  0  0  0  0  0
   -6.0589   -2.1965   -5.3783 H   0  0  0  0  0  0  0  0  0  0  0  0
   -1.9751   -0.2555   -4.7243 H   0  0  0  0  0  0  0  0  0  0  0  0
   -3.6394    3.5137   -4.9831 H   0  0  0  0  0  0  0  0  0  0  0  0
   -5.9292    2.6346   -4.4930 H   0  0  0  0  0  0  0  0  0  0  0  0
   -6.2121    0.1711   -4.0873 H   0  0  0  0  0  0  0  0  0  0  0  0
    0.7163   -0.6273   -3.1446 H   0  0  0  0  0  0  0  0  0  0  0  0
    2.6405   -0.2367   -1.6309 H   0  0  0  0  0  0  0  0  0  0  0  0
    4.7972    1.5172   -0.3936 H   0  0  0  0  0  0  0  0  0  0  0  0
    1.9675    2.1232    0.7078 H   0  0  0  0  0  0  0  0  0  0  0  0
    3.0190    3.2404   -0.3486 H   0  0  0  0  0  0  0  0  0  0  0  0
    5.1225    2.7127    4.1800 H   0  0  0  0  0  0  0  0  0  0  0  0
    4.4933    2.3325    2.5772 H   0  0  0  0  0  0  0  0  0  0  0  0
    1.7641    2.7081    3.5067 H   0  0  0  0  0  0  0  0  0  0  0  0
   -0.3543    1.1256    1.8934 H   0  0  0  0  0  0  0  0  0  0  0  0
   -0.4412    2.3506    3.1919 H   0  0  0  0  0  0  0  0  0  0  0  0
   -1.0939    0.6952    3.4485 H   0  0  0  0  0  0  0  0  0  0  0  0
    2.8817    3.5438    5.6150 H   0  0  0  0  0  0  0  0  0  0  0  0
    3.1586    2.0425    8.1987 H   0  0  0  0  0  0  0  0  0  0  0  0
    2.0896    3.4730    8.0474 H   0  0  0  0  0  0  0  0  0  0  0  0
    3.8621    3.6648    7.9531 H   0  0  0  0  0  0  0  0  0  0  0  0
  2  3  1  0  0  0  0
  2  1  2  0  0  0  0
  3 41  1  0  0  0  0
  4  5  1  0  0  0  0
  4  3  1  0  0  0  0
  5 42  1  0  0  0  0
  6 43  1  0  0  0  0
  6  5  2  0  0  0  0
  7  6  1  0  0  0  0
  8  7  1  0  0  0  0
  9  8  1  0  0  0  0
  9 10  2  0  0  0  0
 11 10  1  0  0  0  0
 11 44  1  0  0  0  0
 12 11  2  0  0  0  0
 13  9  1  0  0  0  0
 14 13  2  0  0  0  0
 14 12  1  0  0  0  0
 15 14  1  0  0  0  0
 16 15  1  0  0  0  0
 17 15  1  0  0  0  0
 17 18  2  0  0  0  0
 18 13  1  0  0  0  0
 19 24  1  0  0  0  0
 19 18  1  0  0  0  0
 20 19  2  0  0  0  0
 21 22  2  0  0  0  0
 21 20  1  0  0  0  0
 22 23  1  0  0  0  0
 23 48  1  0  0  0  0
 23 24  2  0  0  0  0
 24 49  1  0  0  0  0
 25  7  2  0  0  0  0
 25 26  1  0  0  0  0
 26  4  2  0  0  0  0
 27 28  2  0  0  0  0
 27  2  1  0  0  0  0
 28 53  1  0  0  0  0
 29 30  1  0  0  0  0
 30 55  1  0  0  0  0
 30 31  1  0  0  0  0
 31 32  1  6  0  0  0
 31 37  1  0  0  0  0
 33 31  1  0  0  0  0
 34 36  2  0  0  0  0
 34 33  1  0  0  0  0
 35 59  1  0  0  0  0
 35 60  1  0  0  0  0
 35 34  1  0  0  0  0
 37 38  1  0  0  0  0
 37 40  2  0  0  0  0
 38 39  1  0  0  0  0
 39 64  1  0  0  0  0
 39 63  1  0  0  0  0
 39 62  1  0  0  0  0
 45 17  1  0  0  0  0
 46 20  1  0  0  0  0
 47 22  1  0  0  0  0
 50 25  1  0  0  0  0
 51 26  1  0  0  0  0
 52 27  1  0  0  0  0
 54 28  1  0  0  0  0
 56 30  1  0  0  0  0
 57 33  1  0  0  0  0
 58 35  1  0  0  0  0
 61 38  1  0  0  0  0
M  END
