70
-1 1
O        -1.713466   -3.044239    2.452909
C        -1.479264   -2.298604    1.462109
N        -1.141211   -0.941801    1.817908
C        -1.652322    0.246305    1.329984
C        -1.326020    1.451192    1.987443
C        -1.807252    2.675238    1.543389
C        -2.622037    2.729364    0.418010
O        -3.086849    3.971068   -0.004124
C        -3.206269    4.209447   -1.317210
N        -4.322518    4.805680   -1.698186
C        -4.538136    5.002255   -3.003957
N        -3.768727    4.623808   -4.011061
C        -2.220754    3.864573   -2.269829
C        -2.629024    4.061270   -3.607991
N        -1.641083    3.588778   -4.419208
H        -1.673332    3.616276   -5.427904
C        -0.599825    3.133596   -3.639671
C        -0.896670    3.285543   -2.308594
C         0.036859    3.031076   -1.197010
C         0.331922    4.083726   -0.278631
N         1.180705    3.994384    0.707834
C         0.693160    1.835646   -1.024934
C         1.630780    1.695330    0.030639
C         1.839497    2.814509    0.884201
C         2.767719    2.698772    1.952006
C         3.459993    1.526979    2.147305
C         3.260700    0.415294    1.291271
C         2.357981    0.497307    0.256559
C        -2.983496    1.554055   -0.232396
C        -2.498669    0.327406    0.208262
C        -1.422791   -2.680795    0.126514
C        -0.529383   -2.057897   -0.864672
S         1.194143   -2.860459   -0.957912
C         1.634857   -2.855371    0.803467
C         2.103394   -4.196818    1.368569
H         2.251477   -4.042422    2.453551
N         3.346256   -4.635108    0.780795
C         4.518502   -3.984969    0.918905
C         5.685814   -4.591253    0.160209
O         4.654397   -2.964409    1.580073
C         1.108205   -5.359052    1.189315
N        -0.109216   -5.196157    1.718669
C        -1.137243   -6.181953    1.497773
O         1.462332   -6.383783    0.610986
H        -0.881839   -0.909633    2.797341
H        -0.662224    1.420355    2.855279
H        -1.524254    3.600235    2.047519
H        -5.472896    5.512166   -3.263615
H         0.316781    2.757645   -4.088697
H        -0.190427    5.041617   -0.400871
H         0.490732    0.985358   -1.681757
H         2.905902    3.568430    2.597270
H         4.173804    1.445300    2.970643
H         3.821388   -0.509247    1.458773
H         2.184446   -0.358199   -0.404125
H        -3.648295    1.588738   -1.098458
H        -2.784789   -0.595843   -0.296799
H        -1.733075   -3.710040   -0.071502
H        -0.347371   -0.991958   -0.671428
H        -0.866937   -2.158587   -1.908371
H         0.752716   -2.510471    1.353772
H         2.435203   -2.132962    0.989647
H         3.259844   -5.521455    0.286784
H         5.501058   -5.622410   -0.170953
H         6.577866   -4.558700    0.799455
H         5.884369   -3.967461   -0.724044
H        -0.471179   -4.299242    2.090025
H        -2.082344   -5.750064    1.850865
H        -0.931275   -7.118629    2.041772
H        -1.226720   -6.430486    0.427930
