70
-1 1
O        -4.188499   -3.609385    3.877634
C        -3.746378   -3.026359    2.902641
N        -3.261922   -1.746197    3.044021
C        -2.917534   -0.756950    2.095842
C        -1.773628    0.019110    2.308439
C        -1.398181    0.982310    1.386027
C        -2.161165    1.177379    0.235898
O        -1.612250    2.095892   -0.633310
C        -2.032493    2.473469   -1.833118
N        -3.255635    2.240593   -2.272662
C        -3.609364    2.712481   -3.478549
N        -2.874090    3.424251   -4.310707
C        -1.112970    3.191835   -2.627880
C        -1.637948    3.646590   -3.851759
N        -0.662196    4.358349   -4.481672
H        -0.765566    4.781925   -5.392206
C         0.469936    4.363206   -3.693599
C         0.249569    3.654410   -2.536362
C         1.233402    3.433713   -1.461346
C         2.032874    4.521996   -1.002721
N         2.943807    4.442739   -0.068736
C         1.436842    2.202603   -0.873357
C         2.418995    2.073179    0.139944
C         3.153267    3.232437    0.518209
C         4.134161    3.119289    1.540183
C         4.369428    1.907231    2.143181
C         3.647357    0.748181    1.757057
C         2.692611    0.828127    0.770836
C        -3.328568    0.447600    0.027841
C        -3.704631   -0.504518    0.971984
C        -3.692533   -3.737751    1.589561
C        -2.842467   -3.551569    0.576811
S         0.156767   -1.651844   -0.526394
C         0.557094   -2.097779    1.210484
C         1.641456   -3.186164    1.357572
H         2.047025   -3.191240    2.378049
N         2.748808   -2.907904    0.464771
C         3.989882   -2.573576    0.886668
C         4.920536   -2.091307   -0.212501
O         4.355023   -2.615851    2.052654
C         1.106521   -4.611216    1.132098
N         0.343842   -4.765686    0.023214
C        -0.263500   -6.029336   -0.290724
O         1.365188   -5.528342    1.894544
H        -3.213460   -1.476309    4.020682
H        -1.145151   -0.173653    3.180161
H        -0.477709    1.554147    1.512878
H        -4.632379    2.481754   -3.795689
H         1.380061    4.857170   -4.026395
H         1.868513    5.512691   -1.447937
H         0.863678    1.314712   -1.160934
H         4.682733    4.021492    1.817654
H         5.126171    1.826324    2.927512
H         3.866786   -0.212074    2.231732
H         2.129069   -0.048242    0.433198
H        -3.930412    0.622520   -0.858687
H        -4.616521   -1.081668    0.813607
H        -4.385713   -4.584148    1.578827
H        -2.099381   -2.748545    0.507705
H        -2.868225   -4.235760   -0.276083
H        -0.344463   -2.439016    1.748290
H         0.910623   -1.203370    1.750650
H         2.438508   -2.612755   -0.463925
H         4.635404   -2.461038   -1.207188
H         5.943423   -2.408112    0.027727
H         4.897984   -0.990548   -0.228857
H         0.104467   -3.912750   -0.504813
H        -1.130709   -6.251438    0.357380
H         0.461805   -6.845507   -0.153925
H        -0.602495   -6.022040   -1.336577
