-1 1
 OpenBabel05232413483D

 70 73  0  0  1  0  0  0  0  0999 V2000
   -4.1885   -3.6094    3.8776 O   0  0  0  0  0  0  0  0  0  0  0  0
   -3.7464   -3.0264    2.9026 C   0  0  0  0  0  0  0  0  0  0  0  0
   -3.2619   -1.7462    3.0440 N   0  0  0  0  0  0  0  0  0  0  0  0
   -2.9175   -0.7570    2.0958 C   0  0  0  0  0  0  0  0  0  0  0  0
   -1.7736    0.0191    2.3084 C   0  0  0  0  0  0  0  0  0  0  0  0
   -1.3982    0.9823    1.3860 C   0  0  0  0  0  0  0  0  0  0  0  0
   -2.1612    1.1774    0.2359 C   0  0  0  0  0  0  0  0  0  0  0  0
   -1.6122    2.0959   -0.6333 O   0  0  0  0  0  0  0  0  0  0  0  0
   -2.0325    2.4735   -1.8331 C   0  0  0  0  0  0  0  0  0  0  0  0
   -3.2556    2.2406   -2.2727 N   0  0  0  0  0  0  0  0  0  0  0  0
   -3.6094    2.7125   -3.4785 C   0  0  0  0  0  0  0  0  0  0  0  0
   -2.8741    3.4243   -4.3107 N   0  0  0  0  0  0  0  0  0  0  0  0
   -1.1130    3.1918   -2.6279 C   0  0  0  0  0  0  0  0  0  0  0  0
   -1.6379    3.6466   -3.8518 C   0  0  0  0  0  0  0  0  0  0  0  0
   -0.6622    4.3583   -4.4817 N   0  0  0  0  0  0  0  0  0  0  0  0
   -0.7656    4.7819   -5.3922 H   0  0  0  0  0  0  0  0  0  0  0  0
    0.4699    4.3632   -3.6936 C   0  0  0  0  0  0  0  0  0  0  0  0
    0.2496    3.6544   -2.5364 C   0  0  0  0  0  0  0  0  0  0  0  0
    1.2334    3.4337   -1.4613 C   0  0  0  0  0  0  0  0  0  0  0  0
    2.0329    4.5220   -1.0027 C   0  0  0  0  0  0  0  0  0  0  0  0
    2.9438    4.4427   -0.0687 N   0  0  0  0  0  0  0  0  0  0  0  0
    1.4368    2.2026   -0.8734 C   0  0  0  0  0  0  0  0  0  0  0  0
    2.4190    2.0732    0.1399 C   0  0  0  0  0  0  0  0  0  0  0  0
    3.1533    3.2324    0.5182 C   0  0  0  0  0  0  0  0  0  0  0  0
    4.1342    3.1193    1.5402 C   0  0  0  0  0  0  0  0  0  0  0  0
    4.3694    1.9072    2.1432 C   0  0  0  0  0  0  0  0  0  0  0  0
    3.6474    0.7482    1.7571 C   0  0  0  0  0  0  0  0  0  0  0  0
    2.6926    0.8281    0.7708 C   0  0  0  0  0  0  0  0  0  0  0  0
   -3.3286    0.4476    0.0278 C   0  0  0  0  0  0  0  0  0  0  0  0
   -3.7046   -0.5045    0.9720 C   0  0  0  0  0  0  0  0  0  0  0  0
   -3.6925   -3.7378    1.5896 C   0  0  0  0  0  0  0  0  0  0  0  0
   -2.8425   -3.5516    0.5768 C   0  0  0  0  0  0  0  0  0  0  0  0
    0.1568   -1.6518   -0.5264 S   0  0  0  0  0  1  0  0  0  0  0  0
    0.5571   -2.0978    1.2105 C   0  0  0  0  0  0  0  0  0  0  0  0
    1.6415   -3.1862    1.3576 C   0  0  2  0  0  0  0  0  0  0  0  0
    2.0470   -3.1912    2.3780 H   0  0  0  0  0  0  0  0  0  0  0  0
    2.7488   -2.9079    0.4648 N   0  0  0  0  0  0  0  0  0  0  0  0
    3.9899   -2.5736    0.8867 C   0  0  0  0  0  0  0  0  0  0  0  0
    4.9205   -2.0913   -0.2125 C   0  0  0  0  0  0  0  0  0  0  0  0
    4.3550   -2.6159    2.0527 O   0  0  0  0  0  0  0  0  0  0  0  0
    1.1065   -4.6112    1.1321 C   0  0  0  0  0  0  0  0  0  0  0  0
    0.3438   -4.7657    0.0232 N   0  0  0  0  0  0  0  0  0  0  0  0
   -0.2635   -6.0293   -0.2907 C   0  0  0  0  0  0  0  0  0  0  0  0
    1.3652   -5.5283    1.8945 O   0  0  0  0  0  0  0  0  0  0  0  0
   -3.2135   -1.4763    4.0207 H   0  0  0  0  0  0  0  0  0  0  0  0
   -1.1452   -0.1737    3.1802 H   0  0  0  0  0  0  0  0  0  0  0  0
   -0.4777    1.5541    1.5129 H   0  0  0  0  0  0  0  0  0  0  0  0
   -4.6324    2.4818   -3.7957 H   0  0  0  0  0  0  0  0  0  0  0  0
    1.3801    4.8572   -4.0264 H   0  0  0  0  0  0  0  0  0  0  0  0
    1.8685    5.5127   -1.4479 H   0  0  0  0  0  0  0  0  0  0  0  0
    0.8637    1.3147   -1.1609 H   0  0  0  0  0  0  0  0  0  0  0  0
    4.6827    4.0215    1.8177 H   0  0  0  0  0  0  0  0  0  0  0  0
    5.1262    1.8263    2.9275 H   0  0  0  0  0  0  0  0  0  0  0  0
    3.8668   -0.2121    2.2317 H   0  0  0  0  0  0  0  0  0  0  0  0
    2.1291   -0.0482    0.4332 H   0  0  0  0  0  0  0  0  0  0  0  0
   -3.9304    0.6225   -0.8587 H   0  0  0  0  0  0  0  0  0  0  0  0
   -4.6165   -1.0817    0.8136 H   0  0  0  0  0  0  0  0  0  0  0  0
   -4.3857   -4.5841    1.5788 H   0  0  0  0  0  0  0  0  0  0  0  0
   -2.0994   -2.7485    0.5077 H   0  0  0  0  0  0  0  0  0  0  0  0
   -2.8682   -4.2358   -0.2761 H   0  0  0  0  0  0  0  0  0  0  0  0
   -0.3445   -2.4390    1.7483 H   0  0  0  0  0  0  0  0  0  0  0  0
    0.9106   -1.2034    1.7507 H   0  0  0  0  0  0  0  0  0  0  0  0
    2.4385   -2.6128   -0.4639 H   0  0  0  0  0  0  0  0  0  0  0  0
    4.6354   -2.4610   -1.2072 H   0  0  0  0  0  0  0  0  0  0  0  0
    5.9434   -2.4081    0.0277 H   0  0  0  0  0  0  0  0  0  0  0  0
    4.8980   -0.9905   -0.2289 H   0  0  0  0  0  0  0  0  0  0  0  0
    0.1045   -3.9127   -0.5048 H   0  0  0  0  0  0  0  0  0  0  0  0
   -1.1307   -6.2514    0.3574 H   0  0  0  0  0  0  0  0  0  0  0  0
    0.4618   -6.8455   -0.1539 H   0  0  0  0  0  0  0  0  0  0  0  0
   -0.6025   -6.0220   -1.3366 H   0  0  0  0  0  0  0  0  0  0  0  0
  2  3  1  0  0  0  0
  2  1  2  0  0  0  0
  3 45  1  0  0  0  0
  4  5  1  0  0  0  0
  4  3  1  0  0  0  0
  5 46  1  0  0  0  0
  6 47  1  0  0  0  0
  6  5  2  0  0  0  0
  7  6  1  0  0  0  0
  8  7  1  0  0  0  0
  9  8  1  0  0  0  0
 10  9  2  0  0  0  0
 11 10  1  0  0  0  0
 12 14  1  0  0  0  0
 12 11  2  0  0  0  0
 13 18  1  0  0  0  0
 13  9  1  0  0  0  0
 14 13  2  0  0  0  0
 15 14  1  0  0  0  0
 15 17  1  0  0  0  0
 16 15  1  0  0  0  0
 17 18  2  0  0  0  0
 18 19  1  0  0  0  0
 19 20  2  0  0  0  0
 19 22  1  0  0  0  0
 20 21  1  0  0  0  0
 21 24  2  0  0  0  0
 22 23  2  0  0  0  0
 23 24  1  0  0  0  0
 23 28  1  0  0  0  0
 24 25  1  0  0  0  0
 25 52  1  0  0  0  0
 25 26  2  0  0  0  0
 26 53  1  0  0  0  0
 27 26  1  0  0  0  0
 27 54  1  0  0  0  0
 28 27  2  0  0  0  0
 29  7  2  0  0  0  0
 29 30  1  0  0  0  0
 30  4  2  0  0  0  0
 31  2  1  0  0  0  0
 32 31  2  0  0  0  0
 33 34  1  0  0  0  0
 34 35  1  0  0  0  0
 34 61  1  0  0  0  0
 34 62  1  0  0  0  0
 35 36  1  1  0  0  0
 37 38  1  0  0  0  0
 37 35  1  0  0  0  0
 38 40  2  0  0  0  0
 39 65  1  0  0  0  0
 39 38  1  0  0  0  0
 41 35  1  0  0  0  0
 41 44  2  0  0  0  0
 42 41  1  0  0  0  0
 43 69  1  0  0  0  0
 43 42  1  0  0  0  0
 43 68  1  0  0  0  0
 48 11  1  0  0  0  0
 49 17  1  0  0  0  0
 50 20  1  0  0  0  0
 51 22  1  0  0  0  0
 55 28  1  0  0  0  0
 56 29  1  0  0  0  0
 57 30  1  0  0  0  0
 58 31  1  0  0  0  0
 59 32  1  0  0  0  0
 60 32  1  0  0  0  0
 63 37  1  0  0  0  0
 64 39  1  0  0  0  0
 66 39  1  0  0  0  0
 67 42  1  0  0  0  0
 70 43  1  0  0  0  0
M  END
