67
-1 1
O         8.185952  -16.210529    5.653231
C         7.340047  -15.339908    5.486896
N         7.437692  -14.212249    6.344615
C         6.470991  -13.245171    6.640071
C         6.003062  -13.116309    7.953578
C         5.014460  -12.187152    8.249898
O         4.497947  -12.106576    9.542236
C         3.788017  -13.138230   10.003144
C         3.231999  -13.068448   11.299872
Cl         3.434293  -11.674731   12.312622
C         2.511505  -14.177076   11.711328
N         2.346267  -15.267061   10.961815
C         2.922339  -15.237267    9.757524
N         2.859760  -16.295183    8.910168
C         2.349639  -17.585022    9.060991
C         2.686953  -18.480069    8.011051
O         3.445935  -17.943770    7.039014
C         3.934394  -18.741943    5.987440
C         2.241595  -19.797215    8.038550
C         1.460808  -20.216476    9.115646
F         1.037216  -21.486580    9.133146
C         1.119854  -19.366828   10.150155
C         1.569008  -18.041098   10.118741
N         3.614434  -14.199273    9.260446
C         4.493594  -11.337187    7.284752
C         4.988390  -11.440407    5.983777
C         5.962811  -12.377162    5.659123
C         6.255252  -15.399313    4.534575
C         6.066944  -16.533811    3.779219
S         7.326725  -16.766737    1.626724
C         8.902306  -17.297818    2.393466
C        10.116820  -16.396162    2.090345
H        10.150091  -16.236931    0.997643
N        11.358787  -17.001843    2.520006
C        11.982595  -18.004506    1.867294
C        13.315743  -18.427391    2.469654
O        11.531186  -18.567670    0.883781
C        10.082789  -15.016279    2.773910
N         8.959389  -14.304299    2.595991
C         8.796463  -13.017908    3.217877
O        11.048201  -14.600145    3.408331
H         8.092961  -14.422512    7.089690
H         6.364412  -13.794092    8.727962
H         2.048131  -14.179022   12.703300
H         3.376736  -16.151740    8.047455
H         4.562452  -18.088525    5.370941
H         3.109576  -19.144623    5.375811
H         4.545343  -19.574996    6.372650
H         2.486858  -20.506024    7.248803
H         0.509931  -19.735558   10.975422
H         1.326422  -17.348750   10.922450
H         3.714994  -10.622409    7.553519
H         4.605577  -10.774238    5.207554
H         6.349628  -12.444152    4.643055
H         5.603712  -14.538408    4.389936
H         5.149867  -16.656614    3.202768
H         6.588149  -17.449331    4.062898
H         9.160793  -18.294008    2.009484
H         8.782394  -17.362410    3.486538
H        11.842359  -16.454787    3.228212
H        14.058454  -18.494901    1.662840
H        13.201103  -19.434398    2.897310
H        13.681850  -17.748792    3.252672
H         8.153411  -14.810772    2.194211
H         7.900914  -12.533422    2.803196
H         9.669522  -12.379158    3.014661
H         8.687651  -13.094936    4.313126
