67
-1 1
O         3.221253   -1.006358   -0.247926
C         2.326923   -0.189122   -0.076891
N         2.424674    1.073642   -0.604127
C         1.602525    2.177264   -0.353304
C         1.041790    2.393397    0.907637
C         0.124032    3.422969    1.079987
O        -0.518028    3.560535    2.306428
C        -1.272945    2.547984    2.740517
C        -1.764564    2.581376    4.063435
Cl        -1.441930    3.910580    5.129726
C        -2.498506    1.478294    4.465771
N        -2.747009    0.435013    3.676119
C        -2.252098    0.506006    2.437645
N        -2.429847   -0.503845    1.548884
C        -2.867417   -1.822111    1.716347
C        -2.592772   -2.675887    0.613635
O        -1.981665   -2.085413   -0.422619
C        -1.560319   -2.856773   -1.536913
C        -2.949149   -4.020751    0.668602
C        -3.582562   -4.500369    1.813895
F        -3.921230   -5.795221    1.854686
C        -3.865989   -3.687811    2.895183
C        -3.503638   -2.336851    2.841081
N        -1.541087    1.538595    1.951709
C        -0.159944    4.329904    0.071826
C         0.493327    4.171231   -1.154217
C         1.350285    3.102081   -1.381388
C         1.064526   -0.575225    0.626479
C         0.984157   -1.728711    1.290016
S         0.303618   -2.156215   -4.565838
C         1.717470   -1.956655   -3.421018
C         2.868025   -1.042989   -3.905196
H         3.162459   -1.357999   -4.917925
N         4.013255   -1.187582   -3.041657
C         5.276265   -0.933148   -3.459269
C         6.321352   -0.966264   -2.354501
O         5.581455   -0.721872   -4.620045
C         2.462345    0.437858   -3.992015
N         1.459842    0.691557   -4.842005
C         0.878295    2.000568   -4.968727
O         3.023001    1.316978   -3.325767
H         3.013832    1.133984   -1.449716
H         1.275752    1.736576    1.744840
H        -2.897693    1.439766    5.484583
H        -2.022175   -0.329266    0.635105
H        -1.093895   -2.186046   -2.272423
H        -2.420016   -3.351392   -2.016634
H        -0.823168   -3.614329   -1.225692
H        -2.742898   -4.702050   -0.155261
H        -4.362086   -4.104502    3.772217
H        -3.701327   -1.670982    3.678446
H        -0.878172    5.131471    0.246976
H         0.299667    4.879904   -1.962442
H         1.827346    2.936632   -2.349832
H         0.195285    0.078274    0.535103
H         0.047866   -2.051311    1.752176
H         1.859837   -2.378990    1.366371
H         2.182703   -2.936230   -3.231786
H         1.373200   -1.584480   -2.437169
H         3.836418   -1.244620   -2.040246
H         6.940931   -0.063151   -2.442027
H         6.978393   -1.834886   -2.510064
H         5.882436   -1.015734   -1.348425
H         0.903245   -0.146734   -5.116190
H         0.191961    2.240510   -4.137136
H         0.311324    2.056560   -5.908468
H         1.670582    2.763064   -4.986762
