-1 1
 OpenBabel05232413483D

 80 82  0  0  1  0  0  0  0  0999 V2000
    0.3690   -3.1987    2.3040 O   0  0  0  0  0  0  0  0  0  0  0  0
   -0.2190   -2.1706    2.5981 C   0  0  0  0  0  0  0  0  0  0  0  0
   -1.5304   -2.0224    2.1656 N   0  0  0  0  0  0  0  0  0  0  0  0
   -2.2810   -0.9030    1.7431 C   0  0  0  0  0  0  0  0  0  0  0  0
   -3.1824   -1.1217    0.6883 C   0  0  0  0  0  0  0  0  0  0  0  0
   -3.9174   -0.0625    0.1773 C   0  0  0  0  0  0  0  0  0  0  0  0
   -4.7862   -0.2830   -0.8917 O   0  0  0  0  0  0  0  0  0  0  0  0
   -4.2742   -0.2657   -2.1227 C   0  0  0  0  0  0  0  0  0  0  0  0
   -5.1399   -0.3028   -3.2295 C   0  0  1  0  0  3  0  0  0  0  0  0
   -6.8651   -0.3749   -3.0513 Cl  0  0  0  0  0  0  0  0  0  0  0  0
   -4.5315   -0.2547   -4.4790 C   0  0  0  0  0  0  0  0  0  0  0  0
   -3.2186   -0.2051   -4.6490 N   0  0  0  0  0  0  0  0  0  0  0  0
   -2.4780   -0.2016   -3.5254 C   0  0  2  0  0  3  0  0  0  0  0  0
   -1.1345   -0.1901   -3.7051 N   0  0  0  0  0  0  0  0  0  0  0  0
   -0.0900   -0.3707   -2.7833 C   0  0  0  0  0  0  0  0  0  0  0  0
    1.1773   -0.6391   -3.3386 C   0  0  0  0  0  0  0  0  0  0  0  0
    1.2190   -0.6608   -4.7004 O   0  0  0  0  0  0  0  0  0  0  0  0
    2.4472   -0.8462   -5.3423 C   0  0  0  0  0  0  0  0  0  0  0  0
    2.2819   -0.8765   -2.5245 C   0  0  0  0  0  0  0  0  0  0  0  0
    2.1587   -0.8338   -1.1267 C   0  0  0  0  0  0  0  0  0  0  0  0
    3.2559   -1.0517   -0.2711 N   0  0  0  0  0  0  0  0  0  0  0  0
    4.5895   -0.9696   -0.8311 C   0  0  0  0  0  0  0  0  0  0  0  0
    5.6102   -0.9572    0.3011 C   0  0  0  0  0  0  0  0  0  0  0  0
    5.5022   -2.1171    1.0835 O   0  0  0  0  0  0  0  0  0  0  0  0
    4.2217   -2.1937    1.6772 C   0  0  0  0  0  0  0  0  0  0  0  0
    3.1299   -2.2058    0.6214 C   0  0  0  0  0  0  0  0  0  0  0  0
    0.9068   -0.5356   -0.5804 C   0  0  0  0  0  0  0  0  0  0  0  0
   -0.1994   -0.3070   -1.3910 C   0  0  0  0  0  0  0  0  0  0  0  0
   -2.9716   -0.2136   -2.2850 N   0  0  0  0  0  0  0  0  0  0  0  0
   -3.8066    1.2235    0.6880 C   0  0  0  0  0  0  0  0  0  0  0  0
   -2.9254    1.4279    1.7459 C   0  0  0  0  0  0  0  0  0  0  0  0
   -2.1756    0.3838    2.2804 C   0  0  0  0  0  0  0  0  0  0  0  0
    0.4496   -1.1571    3.4530 C   0  0  0  0  0  0  0  0  0  0  0  0
   -0.0929   -0.6090    4.5439 C   0  0  0  0  0  0  0  0  0  0  0  0
   -0.1421    2.7333    3.9591 S   0  0  0  0  0  1  0  0  0  0  0  0
    0.5962    2.2068    2.3769 C   0  0  0  0  0  0  0  0  0  0  0  0
    2.1180    2.4193    2.1958 C   0  0  2  0  0  0  0  0  0  0  0  0
    2.3331    3.4795    2.4094 H   0  0  0  0  0  0  0  0  0  0  0  0
    2.5222    2.1315    0.8371 N   0  0  0  0  0  0  0  0  0  0  0  0
    2.3429    3.0143   -0.1724 C   0  0  0  0  0  0  0  0  0  0  0  0
    2.7299    2.5068   -1.5501 C   0  0  0  0  0  0  0  0  0  0  0  0
    1.8787    4.1312   -0.0146 O   0  0  0  0  0  0  0  0  0  0  0  0
    2.9725    1.5461    3.1188 C   0  0  0  0  0  0  0  0  0  0  0  0
    2.6787    1.6307    4.4253 N   0  0  0  0  0  0  0  0  0  0  0  0
    3.3324    0.7819    5.3844 C   0  0  0  0  0  0  0  0  0  0  0  0
    3.8609    0.8142    2.6815 O   0  0  0  0  0  0  0  0  0  0  0  0
   -1.7857   -2.8721    1.6714 H   0  0  0  0  0  0  0  0  0  0  0  0
   -3.2741   -2.1055    0.2232 H   0  0  0  0  0  0  0  0  0  0  0  0
   -5.1555   -0.2588   -5.3794 H   0  0  0  0  0  0  0  0  0  0  0  0
   -0.8482   -0.2153   -4.6767 H   0  0  0  0  0  0  0  0  0  0  0  0
    2.2535   -0.7844   -6.4206 H   0  0  0  0  0  0  0  0  0  0  0  0
    2.8839   -1.8346   -5.1154 H   0  0  0  0  0  0  0  0  0  0  0  0
    3.1752   -0.0644   -5.0634 H   0  0  0  0  0  0  0  0  0  0  0  0
    3.2447   -1.1070   -2.9749 H   0  0  0  0  0  0  0  0  0  0  0  0
    4.6853   -0.0468   -1.4245 H   0  0  0  0  0  0  0  0  0  0  0  0
    4.8125   -1.8309   -1.5009 H   0  0  0  0  0  0  0  0  0  0  0  0
    5.4478   -0.0549    0.9197 H   0  0  0  0  0  0  0  0  0  0  0  0
    6.6293   -0.9354   -0.1138 H   0  0  0  0  0  0  0  0  0  0  0  0
    4.0704   -1.3371    2.3559 H   0  0  0  0  0  0  0  0  0  0  0  0
    4.1843   -3.1293    2.2528 H   0  0  0  0  0  0  0  0  0  0  0  0
    2.1486   -2.2159    1.1098 H   0  0  0  0  0  0  0  0  0  0  0  0
    3.2031   -3.1424    0.0271 H   0  0  0  0  0  0  0  0  0  0  0  0
    0.8004   -0.4366    0.5009 H   0  0  0  0  0  0  0  0  0  0  0  0
   -1.1579   -0.0659   -0.9391 H   0  0  0  0  0  0  0  0  0  0  0  0
   -4.3888    2.0360    0.2516 H   0  0  0  0  0  0  0  0  0  0  0  0
   -2.7830    2.4191    2.1842 H   0  0  0  0  0  0  0  0  0  0  0  0
   -1.5072    0.6344    3.1032 H   0  0  0  0  0  0  0  0  0  0  0  0
    1.5120   -1.0143    3.2285 H   0  0  0  0  0  0  0  0  0  0  0  0
    0.4858    0.0420    5.1976 H   0  0  0  0  0  0  0  0  0  0  0  0
   -1.1379   -0.7810    4.8156 H   0  0  0  0  0  0  0  0  0  0  0  0
    0.1206    2.7585    1.5530 H   0  0  0  0  0  0  0  0  0  0  0  0
    0.3989    1.1324    2.1934 H   0  0  0  0  0  0  0  0  0  0  0  0
    2.9527    1.2233    0.6727 H   0  0  0  0  0  0  0  0  0  0  0  0
    1.8628    1.9994   -2.0004 H   0  0  0  0  0  0  0  0  0  0  0  0
    3.5594    1.7877   -1.5157 H   0  0  0  0  0  0  0  0  0  0  0  0
    2.9994    3.3656   -2.1772 H   0  0  0  0  0  0  0  0  0  0  0  0
    1.7777    2.1055    4.6525 H   0  0  0  0  0  0  0  0  0  0  0  0
    4.4250    0.8301    5.2641 H   0  0  0  0  0  0  0  0  0  0  0  0
    3.0393   -0.2789    5.2786 H   0  0  0  0  0  0  0  0  0  0  0  0
    3.0692    1.1155    6.3977 H   0  0  0  0  0  0  0  0  0  0  0  0
  1  2  2  0  0  0  0
  2 33  1  0  0  0  0
  3  2  1  0  0  0  0
  4  3  1  0  0  0  0
  4 32  1  0  0  0  0
  5  4  2  0  0  0  0
  6 30  2  0  0  0  0
  6  5  1  0  0  0  0
  7  6  1  0  0  0  0
  8  7  1  0  0  0  0
  9 10  1  1  0  0  0
  9  8  1  0  0  0  0
 11  9  1  0  0  0  0
 12 11  2  0  0  0  0
 12 13  1  0  0  0  0
 13 14  1  6  0  0  0
 13 29  1  0  0  0  0
 14 15  1  0  0  0  0
 15 28  1  0  0  0  0
 16 15  2  0  0  0  0
 16 19  1  0  0  0  0
 17 16  1  0  0  0  0
 18 52  1  0  0  0  0
 18 53  1  0  0  0  0
 18 17  1  0  0  0  0
 19 20  2  0  0  0  0
 20 27  1  0  0  0  0
 20 21  1  0  0  0  0
 21 26  1  0  0  0  0
 22 21  1  0  0  0  0
 22 23  1  0  0  0  0
 23 57  1  0  0  0  0
 23 24  1  0  0  0  0
 24 25  1  0  0  0  0
 25 60  1  0  0  0  0
 25 59  1  0  0  0  0
 26 61  1  0  0  0  0
 26 25  1  0  0  0  0
 27 63  1  0  0  0  0
 28 64  1  0  0  0  0
 28 27  2  0  0  0  0
 29  8  2  0  0  0  0
 30 31  1  0  0  0  0
 31 66  1  0  0  0  0
 31 32  2  0  0  0  0
 32 67  1  0  0  0  0
 33 34  2  0  0  0  0
 34 70  1  0  0  0  0
 34 69  1  0  0  0  0
 36 35  1  0  0  0  0
 37 36  1  0  0  0  0
 37 38  1  1  0  0  0
 37 43  1  0  0  0  0
 39 37  1  0  0  0  0
 40 42  2  0  0  0  0
 40 39  1  0  0  0  0
 41 75  1  0  0  0  0
 41 40  1  0  0  0  0
 43 44  1  0  0  0  0
 44 77  1  0  0  0  0
 44 45  1  0  0  0  0
 45 80  1  0  0  0  0
 46 43  2  0  0  0  0
 47  3  1  0  0  0  0
 48  5  1  0  0  0  0
 49 11  1  0  0  0  0
 50 14  1  0  0  0  0
 51 18  1  0  0  0  0
 54 19  1  0  0  0  0
 55 22  1  0  0  0  0
 56 22  1  0  0  0  0
 58 23  1  0  0  0  0
 62 26  1  0  0  0  0
 65 30  1  0  0  0  0
 68 33  1  0  0  0  0
 71 36  1  0  0  0  0
 72 36  1  0  0  0  0
 73 39  1  0  0  0  0
 74 41  1  0  0  0  0
 76 41  1  0  0  0  0
 78 45  1  0  0  0  0
 79 45  1  0  0  0  0
M  END
