-1 1
 OpenBabel05232413483D

 85 87  0  0  1  0  0  0  0  0999 V2000
   -0.5335    1.6088    3.4741 O   0  0  0  0  0  0  0  0  0  0  0  0
    0.3969    1.4095    2.7115 C   0  0  0  0  0  0  0  0  0  0  0  0
    0.3471    1.9952    1.4591 N   0  0  0  0  0  0  0  0  0  0  0  0
    1.0136    1.7864    0.2390 C   0  0  0  0  0  0  0  0  0  0  0  0
    0.8966    2.7979   -0.7240 C   0  0  0  0  0  0  0  0  0  0  0  0
    1.4382    2.6086   -1.9872 C   0  0  0  0  0  0  0  0  0  0  0  0
    1.2465    3.5864   -2.9645 O   0  0  0  0  0  0  0  0  0  0  0  0
    0.0614    3.6171   -3.5729 C   0  0  0  0  0  0  0  0  0  0  0  0
   -0.1568    4.5289   -4.6202 C   0  0  1  0  0  3  0  0  0  0  0  0
    1.0715    5.6315   -5.1558 Cl  0  0  0  0  0  0  0  0  0  0  0  0
   -1.4151    4.4868   -5.2108 C   0  0  0  0  0  0  0  0  0  0  0  0
   -2.3761    3.6607   -4.8228 N   0  0  0  0  0  0  0  0  0  0  0  0
   -2.0697    2.8389   -3.8028 C   0  0  2  0  0  3  0  0  0  0  0  0
   -3.0621    2.0094   -3.3955 N   0  0  0  0  0  0  0  0  0  0  0  0
   -3.1255    1.0911   -2.3365 C   0  0  0  0  0  0  0  0  0  0  0  0
   -4.3701    0.4380   -2.1839 C   0  0  0  0  0  0  0  0  0  0  0  0
   -5.3242    0.7933   -3.0912 O   0  0  0  0  0  0  0  0  0  0  0  0
   -6.5831    0.1895   -3.0255 C   0  0  0  0  0  0  0  0  0  0  0  0
   -4.5602   -0.4841   -1.1645 C   0  0  0  0  0  0  0  0  0  0  0  0
   -3.5311   -0.7925   -0.2587 C   0  0  0  0  0  0  0  0  0  0  0  0
   -3.8078   -1.8462    0.7981 C   0  0  1  0  0  0  0  0  0  0  0  0
   -3.4812   -3.2635    0.2869 C   0  0  0  0  0  0  0  0  0  0  0  0
   -1.9817   -3.5349    0.3352 C   0  0  0  0  0  0  0  0  0  0  0  0
   -1.4528   -3.2982    1.7426 C   0  0  0  0  0  0  0  0  0  0  0  0
   -1.7228   -1.9456    2.1936 N   0  0  0  0  0  0  0  0  0  0  0  0
   -3.1336   -1.6171    2.1580 C   0  0  0  0  0  0  0  0  0  0  0  0
   -1.1772   -1.7086    3.5145 C   0  0  0  0  0  0  0  0  0  0  0  0
   -2.3064   -0.1464   -0.4122 C   0  0  0  0  0  0  0  0  0  0  0  0
   -2.1019    0.7804   -1.4404 C   0  0  0  0  0  0  0  0  0  0  0  0
   -0.8877    2.7936   -3.1873 N   0  0  0  0  0  0  0  0  0  0  0  0
    2.1601    1.4705   -2.3150 C   0  0  0  0  0  0  0  0  0  0  0  0
    2.3036    0.4851   -1.3392 C   0  0  0  0  0  0  0  0  0  0  0  0
    1.7164    0.6205   -0.0862 C   0  0  0  0  0  0  0  0  0  0  0  0
    1.5734    0.6186    3.1614 C   0  0  0  0  0  0  0  0  0  0  0  0
    2.8446    0.8338    2.8159 C   0  0  0  0  0  0  0  0  0  0  0  0
    3.8954   -2.0452    0.9641 S   0  0  0  0  0  1  0  0  0  0  0  0
    2.2904   -2.6850    1.5814 C   0  0  0  0  0  0  0  0  0  0  0  0
    2.3833   -3.4832    2.8987 C   0  0  2  0  0  0  0  0  0  0  0  0
    1.3912   -3.5933    3.3564 H   0  0  0  0  0  0  0  0  0  0  0  0
    3.2094   -2.7650    3.8485 N   0  0  0  0  0  0  0  0  0  0  0  0
    2.7259   -2.1943    4.9752 C   0  0  0  0  0  0  0  0  0  0  0  0
    3.7122   -1.3096    5.7196 C   0  0  0  0  0  0  0  0  0  0  0  0
    1.5892   -2.3500    5.3952 O   0  0  0  0  0  0  0  0  0  0  0  0
    2.8857   -4.9261    2.7202 C   0  0  0  0  0  0  0  0  0  0  0  0
    4.0184   -5.0438    1.9875 N   0  0  0  0  0  0  0  0  0  0  0  0
    4.6112   -6.3165    1.6864 C   0  0  0  0  0  0  0  0  0  0  0  0
    2.2947   -5.8713    3.2204 O   0  0  0  0  0  0  0  0  0  0  0  0
   -0.4757    2.5862    1.3950 H   0  0  0  0  0  0  0  0  0  0  0  0
    0.3391    3.7113   -0.5082 H   0  0  0  0  0  0  0  0  0  0  0  0
   -1.6404    5.1659   -6.0402 H   0  0  0  0  0  0  0  0  0  0  0  0
   -3.9227    2.1053   -3.9217 H   0  0  0  0  0  0  0  0  0  0  0  0
   -7.1809    0.6121   -3.8429 H   0  0  0  0  0  0  0  0  0  0  0  0
   -7.0889    0.4003   -2.0667 H   0  0  0  0  0  0  0  0  0  0  0  0
   -6.5192   -0.9050   -3.1576 H   0  0  0  0  0  0  0  0  0  0  0  0
   -5.5250   -0.9823   -1.0527 H   0  0  0  0  0  0  0  0  0  0  0  0
   -4.8931   -1.8087    0.9916 H   0  0  0  0  0  0  0  0  0  0  0  0
   -3.8818   -3.3987   -0.7305 H   0  0  0  0  0  0  0  0  0  0  0  0
   -3.9946   -3.9946    0.9371 H   0  0  0  0  0  0  0  0  0  0  0  0
   -1.4512   -2.8746   -0.3699 H   0  0  0  0  0  0  0  0  0  0  0  0
   -1.7677   -4.5713    0.0313 H   0  0  0  0  0  0  0  0  0  0  0  0
   -0.3674   -3.4662    1.7770 H   0  0  0  0  0  0  0  0  0  0  0  0
   -1.9112   -4.0460    2.4355 H   0  0  0  0  0  0  0  0  0  0  0  0
   -3.2514   -0.5638    2.4598 H   0  0  0  0  0  0  0  0  0  0  0  0
   -3.6901   -2.2294    2.9108 H   0  0  0  0  0  0  0  0  0  0  0  0
   -0.1097   -1.9619    3.5481 H   0  0  0  0  0  0  0  0  0  0  0  0
   -1.6775   -2.3319    4.2895 H   0  0  0  0  0  0  0  0  0  0  0  0
   -1.2880   -0.6512    3.7930 H   0  0  0  0  0  0  0  0  0  0  0  0
   -1.4938   -0.3746    0.2816 H   0  0  0  0  0  0  0  0  0  0  0  0
   -1.1345    1.2629   -1.5500 H   0  0  0  0  0  0  0  0  0  0  0  0
    2.5810    1.3611   -3.3152 H   0  0  0  0  0  0  0  0  0  0  0  0
    2.8730   -0.4276   -1.5300 H   0  0  0  0  0  0  0  0  0  0  0  0
    1.8429   -0.1907    0.6258 H   0  0  0  0  0  0  0  0  0  0  0  0
    1.3163   -0.1200    3.9265 H   0  0  0  0  0  0  0  0  0  0  0  0
    3.6502    0.2349    3.2422 H   0  0  0  0  0  0  0  0  0  0  0  0
    3.1342    1.5831    2.0752 H   0  0  0  0  0  0  0  0  0  0  0  0
    1.8077   -3.3201    0.8197 H   0  0  0  0  0  0  0  0  0  0  0  0
    1.5969   -1.8451    1.7735 H   0  0  0  0  0  0  0  0  0  0  0  0
    4.0550   -2.3857    3.4158 H   0  0  0  0  0  0  0  0  0  0  0  0
    4.7280   -1.3370    5.3015 H   0  0  0  0  0  0  0  0  0  0  0  0
    3.7390   -1.6267    6.7712 H   0  0  0  0  0  0  0  0  0  0  0  0
    3.3384   -0.2752    5.6968 H   0  0  0  0  0  0  0  0  0  0  0  0
    4.3536   -4.1879    1.5180 H   0  0  0  0  0  0  0  0  0  0  0  0
    4.5260   -6.5655    0.6144 H   0  0  0  0  0  0  0  0  0  0  0  0
    4.0844   -7.0863    2.2659 H   0  0  0  0  0  0  0  0  0  0  0  0
    5.6803   -6.3345    1.9559 H   0  0  0  0  0  0  0  0  0  0  0  0
  2 34  1  0  0  0  0
  2  1  2  0  0  0  0
  3  2  1  0  0  0  0
  4  3  1  0  0  0  0
  5 49  1  0  0  0  0
  5  4  2  0  0  0  0
  6  5  1  0  0  0  0
  7  6  1  0  0  0  0
  8 30  2  0  0  0  0
  8  7  1  0  0  0  0
  9 10  1  6  0  0  0
  9  8  1  0  0  0  0
 11 12  2  0  0  0  0
 11  9  1  0  0  0  0
 12 13  1  0  0  0  0
 13 14  1  1  0  0  0
 13 30  1  0  0  0  0
 14 15  1  0  0  0  0
 15 16  2  0  0  0  0
 15 29  1  0  0  0  0
 16 19  1  0  0  0  0
 17 18  1  0  0  0  0
 17 16  1  0  0  0  0
 18 53  1  0  0  0  0
 19 55  1  0  0  0  0
 19 20  2  0  0  0  0
 20 21  1  0  0  0  0
 21 56  1  1  0  0  0
 21 26  1  0  0  0  0
 22 23  1  0  0  0  0
 22 21  1  0  0  0  0
 22 58  1  0  0  0  0
 23 24  1  0  0  0  0
 24 61  1  0  0  0  0
 24 25  1  0  0  0  0
 24 62  1  0  0  0  0
 25 27  1  0  0  0  0
 26 25  1  0  0  0  0
 26 63  1  0  0  0  0
 26 64  1  0  0  0  0
 27 65  1  0  0  0  0
 27 67  1  0  0  0  0
 27 66  1  0  0  0  0
 28 20  1  0  0  0  0
 28 68  1  0  0  0  0
 29 28  2  0  0  0  0
 31  6  2  0  0  0  0
 31 32  1  0  0  0  0
 32 33  2  0  0  0  0
 33  4  1  0  0  0  0
 33 72  1  0  0  0  0
 34 73  1  0  0  0  0
 35 34  2  0  0  0  0
 35 74  1  0  0  0  0
 36 37  1  0  0  0  0
 37 77  1  0  0  0  0
 37 38  1  0  0  0  0
 38 39  1  1  0  0  0
 38 40  1  0  0  0  0
 40 41  1  0  0  0  0
 41 43  2  0  0  0  0
 41 42  1  0  0  0  0
 42 80  1  0  0  0  0
 44 38  1  0  0  0  0
 44 47  2  0  0  0  0
 45 44  1  0  0  0  0
 46 85  1  0  0  0  0
 46 45  1  0  0  0  0
 46 84  1  0  0  0  0
 48  3  1  0  0  0  0
 50 11  1  0  0  0  0
 51 14  1  0  0  0  0
 52 18  1  0  0  0  0
 54 18  1  0  0  0  0
 57 22  1  0  0  0  0
 59 23  1  0  0  0  0
 60 23  1  0  0  0  0
 69 29  1  0  0  0  0
 70 31  1  0  0  0  0
 71 32  1  0  0  0  0
 75 35  1  0  0  0  0
 76 37  1  0  0  0  0
 78 40  1  0  0  0  0
 79 42  1  0  0  0  0
 81 42  1  0  0  0  0
 82 45  1  0  0  0  0
 83 46  1  0  0  0  0
M  END
