85
-1 1
O        -0.533530    1.608777    3.474086
C         0.396909    1.409531    2.711480
N         0.347056    1.995204    1.459105
C         1.013612    1.786398    0.238970
C         0.896612    2.797925   -0.724038
C         1.438221    2.608557   -1.987244
O         1.246486    3.586427   -2.964491
C         0.061370    3.617131   -3.572854
C        -0.156850    4.528919   -4.620179
Cl         1.071531    5.631500   -5.155768
C        -1.415075    4.486771   -5.210768
N        -2.376149    3.660746   -4.822802
C        -2.069650    2.838888   -3.802840
N        -3.062106    2.009372   -3.395540
C        -3.125471    1.091089   -2.336487
C        -4.370139    0.437993   -2.183923
O        -5.324227    0.793328   -3.091231
C        -6.583133    0.189491   -3.025453
C        -4.560182   -0.484092   -1.164537
C        -3.531050   -0.792505   -0.258664
C        -3.807795   -1.846152    0.798078
C        -3.481160   -3.263522    0.286929
C        -1.981691   -3.534878    0.335214
C        -1.452803   -3.298189    1.742577
N        -1.722814   -1.945613    2.193641
C        -3.133631   -1.617092    2.157951
C        -1.177179   -1.708634    3.514495
C        -2.306390   -0.146370   -0.412173
C        -2.101943    0.780407   -1.440420
N        -0.887698    2.793551   -3.187306
C         2.160072    1.470477   -2.315000
C         2.303633    0.485088   -1.339189
C         1.716391    0.620463   -0.086218
C         1.573397    0.618609    3.161450
C         2.844634    0.833803    2.815945
S         3.895441   -2.045206    0.964086
C         2.290353   -2.685026    1.581380
C         2.383319   -3.483209    2.898673
H         1.391180   -3.593284    3.356392
N         3.209412   -2.765001    3.848476
C         2.725932   -2.194340    4.975222
C         3.712194   -1.309565    5.719566
O         1.589237   -2.350009    5.395169
C         2.885700   -4.926059    2.720238
N         4.018414   -5.043751    1.987536
C         4.611225   -6.316549    1.686376
O         2.294692   -5.871281    3.220379
H        -0.475728    2.586241    1.395016
H         0.339097    3.711271   -0.508246
H        -1.640380    5.165916   -6.040240
H        -3.922699    2.105329   -3.921710
H        -7.180926    0.612101   -3.842882
H        -7.088855    0.400273   -2.066675
H        -6.519191   -0.904952   -3.157561
H        -5.524970   -0.982345   -1.052684
H        -4.893060   -1.808659    0.991581
H        -3.881785   -3.398719   -0.730536
H        -3.994639   -3.994610    0.937105
H        -1.451172   -2.874605   -0.369897
H        -1.767679   -4.571278    0.031253
H        -0.367394   -3.466223    1.776979
H        -1.911206   -4.045983    2.435537
H        -3.251440   -0.563766    2.459837
H        -3.690101   -2.229405    2.910820
H        -0.109718   -1.961913    3.548060
H        -1.677526   -2.331928    4.289504
H        -1.287973   -0.651173    3.793002
H        -1.493837   -0.374644    0.281649
H        -1.134476    1.262897   -1.550045
H         2.580971    1.361148   -3.315203
H         2.873042   -0.427580   -1.530013
H         1.842949   -0.190719    0.625821
H         1.316275   -0.119968    3.926469
H         3.650188    0.234936    3.242216
H         3.134180    1.583101    2.075179
H         1.807694   -3.320143    0.819748
H         1.596896   -1.845149    1.773485
H         4.054951   -2.385654    3.415791
H         4.728040   -1.336954    5.301499
H         3.739008   -1.626737    6.771208
H         3.338414   -0.275156    5.696798
H         4.353591   -4.187939    1.517983
H         4.525953   -6.565466    0.614435
H         4.084352   -7.086302    2.265947
H         5.680337   -6.334504    1.955940
