83
-1 1
O        -4.599798    3.602150   -0.205469
C        -3.557778    3.836995   -0.795574
N        -2.438190    3.074506   -0.599661
C        -1.102172    3.378902   -0.854512
C        -0.200083    2.309010   -0.991923
C         1.140429    2.569231   -1.248276
O         2.074101    1.566778   -1.378856
C         1.714349    0.286635   -1.596170
C         1.170051   -0.144281   -2.809478
Cl         0.816175    0.948474   -4.107352
C         0.930610   -1.514648   -2.936095
N         1.207263   -2.368240   -1.965857
C         1.712783   -1.852613   -0.835277
N         1.965847   -2.773186    0.142228
C         2.452821   -2.632025    1.435826
C         2.564159   -3.831394    2.185156
O         2.185218   -4.954864    1.520060
C         2.153828   -6.175070    2.201023
C         3.039249   -3.815271    3.486972
C         3.420255   -2.609262    4.106123
C         3.903510   -2.587215    5.510596
C         3.531691   -3.504041    6.420613
C         4.019936   -3.505259    7.850396
N         4.617539   -2.252955    8.277520
C         5.524535   -1.761004    7.255340
C         4.832775   -1.463888    5.920612
C         3.641206   -1.272007    8.702922
C         3.322774   -1.437626    3.355232
C         2.841955   -1.439550    2.044270
N         1.979133   -0.564834   -0.623287
C         1.627749    3.870493   -1.356626
C         0.736658    4.922429   -1.172660
C        -0.610886    4.693361   -0.912912
C        -3.571675    4.907679   -1.846232
C        -3.075083    4.750788   -3.072256
S        -2.945320   -0.021503    0.068252
C        -2.320586   -0.632627   -1.536513
C        -2.740949    0.218581   -2.749703
H        -2.157089    1.160073   -2.760516
N        -4.152376    0.552447   -2.604132
C        -4.790273    1.557870   -3.233097
C        -6.115418    1.960976   -2.629341
O        -4.346501    2.139306   -4.227671
C        -2.397961   -0.512218   -4.068884
N        -2.735070    0.156753   -5.192426
C        -2.469326   -0.359764   -6.506274
O        -1.817729   -1.590392   -4.082618
H        -2.634425    2.105241   -0.223162
H        -0.573073    1.290076   -0.866819
H         0.470603   -1.903899   -3.847665
H         1.696526   -3.715629   -0.114866
H         3.161030   -6.486979    2.530309
H         1.764447   -6.920543    1.496677
H         1.489478   -6.132284    3.081862
H         3.143173   -4.750908    4.035792
H         2.843853   -4.306639    6.136744
H         4.759198   -4.320610    7.979631
H         3.187511   -3.751879    8.529581
H         6.301456   -2.528903    7.097425
H         6.039447   -0.861427    7.629745
H         5.585962   -1.296927    5.133758
H         4.261105   -0.521313    5.990573
H         3.094017   -1.647138    9.581862
H         2.888900   -1.006691    7.930188
H         4.156397   -0.346447    9.003851
H         3.601850   -0.478547    3.794481
H         2.753860   -0.513370    1.481735
H         2.686187    4.031712   -1.562561
H         1.101969    5.951065   -1.225023
H        -1.281797    5.535659   -0.753310
H        -4.186603    5.775529   -1.589347
H        -2.516722    3.855370   -3.355687
H        -3.242306    5.498775   -3.851254
H        -2.666889   -1.662420   -1.707478
H        -1.223348   -0.692228   -1.542216
H        -4.453948    0.339776   -1.639518
H        -6.740342    2.410573   -3.410591
H        -5.926290    2.707033   -1.840813
H        -6.632581    1.108078   -2.169064
H        -3.245079    1.039302   -5.065447
H        -1.702601    0.233838   -7.033506
H        -3.383030   -0.365016   -7.122542
H        -2.099566   -1.388569   -6.406152
