-1 1
 OpenBabel05232413483D

 80 82  0  0  1  0  0  0  0  0999 V2000
    2.8652   -1.1615    3.0908 O   0  0  0  0  0  0  0  0  0  0  0  0
    2.0650   -1.3782    2.1918 C   0  0  0  0  0  0  0  0  0  0  0  0
    0.7259   -1.1597    2.3619 N   0  0  0  0  0  0  0  0  0  0  0  0
   -0.3615   -1.6511    1.6274 C   0  0  0  0  0  0  0  0  0  0  0  0
   -0.3068   -2.8523    0.9089 C   0  0  0  0  0  0  0  0  0  0  0  0
   -1.4275   -3.2788    0.2118 C   0  0  0  0  0  0  0  0  0  0  0  0
   -1.3319   -4.4571   -0.5275 O   0  0  0  0  0  0  0  0  0  0  0  0
   -0.9309   -4.3464   -1.7942 C   0  0  0  0  0  0  0  0  0  0  0  0
   -0.7605   -5.5049   -2.5709 C   0  0  2  0  0  3  0  0  0  0  0  0
   -1.0527   -7.0934   -1.9373 Cl  0  0  0  0  0  0  0  0  0  0  0  0
   -0.3364   -5.3006   -3.8797 C   0  0  0  0  0  0  0  0  0  0  0  0
   -0.1081   -4.1006   -4.3928 N   0  0  0  0  0  0  0  0  0  0  0  0
   -0.3098   -3.0570   -3.5669 C   0  0  1  0  0  3  0  0  0  0  0  0
   -0.0886   -1.8320   -4.1036 N   0  0  0  0  0  0  0  0  0  0  0  0
   -0.2341   -0.5355   -3.5663 C   0  0  0  0  0  0  0  0  0  0  0  0
   -0.0531    0.5382   -4.4510 C   0  0  0  0  0  0  0  0  0  0  0  0
   -0.1654    1.8510   -4.0247 C   0  0  0  0  0  0  0  0  0  0  0  0
   -0.4731    2.1659   -2.6861 C   0  0  0  0  0  0  0  0  0  0  0  0
   -0.5780    3.4979   -2.2784 N   0  0  0  0  0  0  0  0  0  0  0  0
   -0.6552    3.7767   -0.8517 C   0  0  0  0  0  0  0  0  0  0  0  0
   -0.3982    5.2582   -0.5827 C   0  0  0  0  0  0  0  0  0  0  0  0
   -1.2574    6.1531   -1.3454 N   0  0  0  0  0  0  0  0  0  0  0  0
   -1.1477    5.8416   -2.7549 C   0  0  0  0  0  0  0  0  0  0  0  0
   -1.4226    4.3722   -3.0801 C   0  0  0  0  0  0  0  0  0  0  0  0
   -2.6099    6.2518   -0.8516 C   0  0  0  0  0  0  0  0  0  0  0  0
   -0.6463    1.0833   -1.8082 C   0  0  0  0  0  0  0  0  0  0  0  0
   -0.5324   -0.2410   -2.2322 C   0  0  0  0  0  0  0  0  0  0  0  0
   -0.7042   -3.1535   -2.2960 N   0  0  0  0  0  0  0  0  0  0  0  0
   -2.6287   -2.5848    0.2355 C   0  0  0  0  0  0  0  0  0  0  0  0
   -2.6871   -1.4128    0.9883 C   0  0  0  0  0  0  0  0  0  0  0  0
   -1.5727   -0.9415    1.6735 C   0  0  0  0  0  0  0  0  0  0  0  0
    2.5966   -1.7863    0.8547 C   0  0  0  0  0  0  0  0  0  0  0  0
    2.2576   -1.1739   -0.2793 C   0  0  0  0  0  0  0  0  0  0  0  0
    2.1408    4.0438    1.5997 S   0  0  0  0  0  1  0  0  0  0  0  0
    2.4837    2.5139    2.5393 C   0  0  0  0  0  0  0  0  0  0  0  0
    1.6590    2.3283    3.8336 C   0  0  2  0  0  0  0  0  0  0  0  0
    1.7263    3.2525    4.4270 H   0  0  0  0  0  0  0  0  0  0  0  0
    2.1903    1.2432    4.6202 N   0  0  0  0  0  0  0  0  0  0  0  0
    1.9421    1.1270    5.9471 C   0  0  0  0  0  0  0  0  0  0  0  0
    2.4480   -0.1632    6.5729 C   0  0  0  0  0  0  0  0  0  0  0  0
    1.3860    1.9850    6.6106 O   0  0  0  0  0  0  0  0  0  0  0  0
    0.1754    2.0814    3.5318 C   0  0  0  0  0  0  0  0  0  0  0  0
   -0.4620    3.1154    2.9662 N   0  0  0  0  0  0  0  0  0  0  0  0
   -1.8143    2.9877    2.4939 C   0  0  0  0  0  0  0  0  0  0  0  0
   -0.3793    1.0018    3.7705 O   0  0  0  0  0  0  0  0  0  0  0  0
    0.4773   -0.5121    3.1303 H   0  0  0  0  0  0  0  0  0  0  0  0
    0.5986   -3.4550    0.8681 H   0  0  0  0  0  0  0  0  0  0  0  0
   -0.1788   -6.1653   -4.5334 H   0  0  0  0  0  0  0  0  0  0  0  0
    0.1958   -1.8811   -5.0736 H   0  0  0  0  0  0  0  0  0  0  0  0
    0.1968    0.3393   -5.4978 H   0  0  0  0  0  0  0  0  0  0  0  0
    0.0193    2.6529   -4.7411 H   0  0  0  0  0  0  0  0  0  0  0  0
    0.1263    3.2210   -0.3102 H   0  0  0  0  0  0  0  0  0  0  0  0
   -1.6444    3.4740   -0.4429 H   0  0  0  0  0  0  0  0  0  0  0  0
    0.6534    5.4721   -0.8320 H   0  0  0  0  0  0  0  0  0  0  0  0
   -0.5029    5.4567    0.4934 H   0  0  0  0  0  0  0  0  0  0  0  0
   -0.1199    6.0781   -3.0808 H   0  0  0  0  0  0  0  0  0  0  0  0
   -1.8362    6.4813   -3.3319 H   0  0  0  0  0  0  0  0  0  0  0  0
   -1.2372    4.2053   -4.1495 H   0  0  0  0  0  0  0  0  0  0  0  0
   -2.4967    4.1390   -2.9047 H   0  0  0  0  0  0  0  0  0  0  0  0
   -2.5918    6.5791    0.1997 H   0  0  0  0  0  0  0  0  0  0  0  0
   -3.2019    5.3111   -0.8920 H   0  0  0  0  0  0  0  0  0  0  0  0
   -3.1631    7.0120   -1.4274 H   0  0  0  0  0  0  0  0  0  0  0  0
   -0.8829    1.2596   -0.7585 H   0  0  0  0  0  0  0  0  0  0  0  0
   -0.6895   -1.0444   -1.5169 H   0  0  0  0  0  0  0  0  0  0  0  0
   -3.4838   -2.9528   -0.3322 H   0  0  0  0  0  0  0  0  0  0  0  0
   -3.6193   -0.8458    1.0342 H   0  0  0  0  0  0  0  0  0  0  0  0
   -1.6130   -0.0324    2.2775 H   0  0  0  0  0  0  0  0  0  0  0  0
    3.4205   -2.5047    0.8927 H   0  0  0  0  0  0  0  0  0  0  0  0
    1.4753   -0.4109   -0.3128 H   0  0  0  0  0  0  0  0  0  0  0  0
    2.7643   -1.3979   -1.2210 H   0  0  0  0  0  0  0  0  0  0  0  0
    3.5390    2.4960    2.8520 H   0  0  0  0  0  0  0  0  0  0  0  0
    2.3320    1.6227    1.9018 H   0  0  0  0  0  0  0  0  0  0  0  0
    2.5627    0.4342    4.1258 H   0  0  0  0  0  0  0  0  0  0  0  0
    2.7693   -0.9040    5.8280 H   0  0  0  0  0  0  0  0  0  0  0  0
    1.6419   -0.5838    7.1895 H   0  0  0  0  0  0  0  0  0  0  0  0
    3.2894    0.0710    7.2420 H   0  0  0  0  0  0  0  0  0  0  0  0
    0.1808    3.8089    2.5229 H   0  0  0  0  0  0  0  0  0  0  0  0
   -2.1819    3.9746    2.1800 H   0  0  0  0  0  0  0  0  0  0  0  0
   -2.4656    2.6041    3.2932 H   0  0  0  0  0  0  0  0  0  0  0  0
   -1.9006    2.2996    1.6334 H   0  0  0  0  0  0  0  0  0  0  0  0
  2  3  1  0  0  0  0
  2  1  2  0  0  0  0
  3 46  1  0  0  0  0
  4 31  1  0  0  0  0
  4  3  1  0  0  0  0
  5  4  2  0  0  0  0
  6 29  2  0  0  0  0
  6  5  1  0  0  0  0
  7  6  1  0  0  0  0
  8  7  1  0  0  0  0
  9 10  1  1  0  0  0
  9  8  1  0  0  0  0
 11  9  1  0  0  0  0
 12 11  2  0  0  0  0
 12 13  1  0  0  0  0
 13 14  1  6  0  0  0
 13 28  1  0  0  0  0
 14 15  1  0  0  0  0
 15 27  1  0  0  0  0
 16 17  1  0  0  0  0
 16 15  2  0  0  0  0
 17 18  2  0  0  0  0
 18 19  1  0  0  0  0
 18 26  1  0  0  0  0
 19 20  1  0  0  0  0
 20 21  1  0  0  0  0
 20 53  1  0  0  0  0
 20 52  1  0  0  0  0
 21 55  1  0  0  0  0
 22 25  1  0  0  0  0
 22 21  1  0  0  0  0
 23 22  1  0  0  0  0
 24 59  1  0  0  0  0
 24 23  1  0  0  0  0
 24 19  1  0  0  0  0
 25 60  1  0  0  0  0
 26 63  1  0  0  0  0
 27 26  2  0  0  0  0
 27 64  1  0  0  0  0
 28  8  2  0  0  0  0
 29 30  1  0  0  0  0
 30 66  1  0  0  0  0
 30 31  2  0  0  0  0
 31 67  1  0  0  0  0
 32 68  1  0  0  0  0
 32  2  1  0  0  0  0
 33 32  2  0  0  0  0
 34 35  1  0  0  0  0
 35 71  1  0  0  0  0
 35 36  1  0  0  0  0
 36 37  1  1  0  0  0
 36 38  1  0  0  0  0
 38 39  1  0  0  0  0
 39 40  1  0  0  0  0
 39 41  2  0  0  0  0
 40 75  1  0  0  0  0
 40 76  1  0  0  0  0
 42 45  2  0  0  0  0
 42 36  1  0  0  0  0
 43 42  1  0  0  0  0
 44 43  1  0  0  0  0
 44 79  1  0  0  0  0
 47  5  1  0  0  0  0
 48 11  1  0  0  0  0
 49 14  1  0  0  0  0
 50 16  1  0  0  0  0
 51 17  1  0  0  0  0
 54 21  1  0  0  0  0
 56 23  1  0  0  0  0
 57 23  1  0  0  0  0
 58 24  1  0  0  0  0
 61 25  1  0  0  0  0
 62 25  1  0  0  0  0
 65 29  1  0  0  0  0
 69 33  1  0  0  0  0
 70 33  1  0  0  0  0
 72 35  1  0  0  0  0
 73 38  1  0  0  0  0
 74 40  1  0  0  0  0
 77 43  1  0  0  0  0
 78 44  1  0  0  0  0
 80 44  1  0  0  0  0
M  END
