-1 1
 OpenBabel05232414493D

 82 85  0  0  1  0  0  0  0  0999 V2000
    4.0851  -12.0999   -3.7527 O   0  0  0  0  0  0  0  0  0  0  0  0
    4.6648  -11.4586   -2.8811 C   0  0  0  0  0  0  0  0  0  0  0  0
    5.8000  -12.0852   -2.2517 N   0  0  0  0  0  0  0  0  0  0  0  0
    5.8849  -12.4184   -0.9030 C   0  0  0  0  0  0  0  0  0  0  0  0
    7.0883  -12.9589   -0.4183 C   0  0  0  0  0  0  0  0  0  0  0  0
    7.1794  -13.3595    0.9052 C   0  0  0  0  0  0  0  0  0  0  0  0
    8.4110  -13.8583    1.3357 O   0  0  0  0  0  0  0  0  0  0  0  0
    8.4916  -14.9259    2.1201 C   0  0  0  0  0  0  0  0  0  0  0  0
    7.7673  -16.1231    1.9333 C   0  0  1  0  0  3  0  0  0  0  0  0
    6.6925  -16.4052    0.6050 Cl  0  0  0  0  0  0  0  0  0  0  0  0
    8.0045  -17.1382    2.8540 C   0  0  0  0  0  0  0  0  0  0  0  0
    8.8783  -17.0348    3.8445 N   0  0  0  0  0  0  0  0  0  0  0  0
    9.5497  -15.8770    3.9064 C   0  0  2  0  0  3  0  0  0  0  0  0
   10.4801  -15.8244    4.9161 N   0  0  0  0  0  0  0  0  0  0  0  0
   11.3826  -14.8380    5.3048 C   0  0  0  0  0  0  0  0  0  0  0  0
   11.4538  -13.5561    4.7349 C   0  0  0  0  0  0  0  0  0  0  0  0
   12.3924  -12.6440    5.2055 C   0  0  0  0  0  0  0  0  0  0  0  0
   13.2993  -12.9769    6.2143 C   0  0  0  0  0  0  0  0  0  0  0  0
   14.2501  -11.9326    6.7187 C   0  0  0  0  0  0  0  0  0  0  0  0
   15.5473  -12.3257    6.9690 N   0  0  0  0  0  0  0  0  0  0  0  0
   16.4481  -11.3756    7.6011 C   0  0  0  0  0  0  0  0  0  0  0  0
   17.3651  -12.1218    8.5738 C   0  0  0  0  0  0  0  0  0  0  0  0
   18.0814  -13.2322    7.9664 N   0  0  0  0  0  0  0  0  0  0  0  0
   17.1571  -14.1315    7.2973 C   0  0  0  0  0  0  0  0  0  0  0  0
   16.2363  -13.4206    6.3023 C   0  0  0  0  0  0  0  0  0  0  0  0
   19.2258  -12.8469    7.1714 C   0  0  0  0  0  0  0  0  0  0  0  0
   13.8734  -10.7961    6.9376 O   0  0  0  0  0  0  0  0  0  0  0  0
   13.2123  -14.2490    6.7912 C   0  0  0  0  0  0  0  0  0  0  0  0
   12.2680  -15.1631    6.3491 C   0  0  0  0  0  0  0  0  0  0  0  0
    9.3800  -14.8366    3.1009 N   0  0  0  0  0  0  0  0  0  0  0  0
    6.1232  -13.2259    1.7981 C   0  0  0  0  0  0  0  0  0  0  0  0
    4.9283  -12.6980    1.3058 C   0  0  0  0  0  0  0  0  0  0  0  0
    4.8022  -12.2932   -0.0155 C   0  0  0  0  0  0  0  0  0  0  0  0
    4.3980  -10.1006   -2.5243 C   0  0  0  0  0  3  0  0  0  0  0  0
    5.3217   -9.2443   -1.9004 C   0  0  0  0  0  0  0  0  0  0  0  0
    4.9839   -8.6976    0.2436 S   0  0  0  0  0  0  0  0  0  0  0  0
    3.2061   -9.0178    0.2900 C   0  0  0  0  0  0  0  0  0  0  0  0
    2.6866   -9.5859    1.6254 C   0  0  2  0  0  0  0  0  0  0  0  0
    3.3016  -10.4618    1.8811 H   0  0  0  0  0  0  0  0  0  0  0  0
    1.3052   -9.9971    1.5312 N   0  0  0  0  0  0  0  0  0  0  0  0
    0.9218  -11.2631    1.2535 C   0  0  0  0  0  0  0  0  0  0  0  0
   -0.5789  -11.4964    1.2437 C   0  0  0  0  0  0  0  0  0  0  0  0
    1.7015  -12.1655    0.9983 O   0  0  0  0  0  0  0  0  0  0  0  0
    2.7558   -8.5661    2.7714 C   0  0  0  0  0  0  0  0  0  0  0  0
    4.0011   -8.2888    3.2110 N   0  0  0  0  0  0  0  0  0  0  0  0
    4.2639   -7.2260    4.1463 C   0  0  0  0  0  0  0  0  0  0  0  0
    1.7394   -8.0635    3.2353 O   0  0  0  0  0  0  0  0  0  0  0  0
    6.1650  -12.8093   -2.8622 H   0  0  0  0  0  0  0  0  0  0  0  0
    7.9520  -13.0709   -1.0756 H   0  0  0  0  0  0  0  0  0  0  0  0
    7.4584  -18.0825    2.7593 H   0  0  0  0  0  0  0  0  0  0  0  0
   10.5051  -16.6883    5.4429 H   0  0  0  0  0  0  0  0  0  0  0  0
   10.7693  -13.2890    3.9333 H   0  0  0  0  0  0  0  0  0  0  0  0
   12.4243  -11.6401    4.7773 H   0  0  0  0  0  0  0  0  0  0  0  0
   15.8438  -10.6192    8.1162 H   0  0  0  0  0  0  0  0  0  0  0  0
   17.0417  -10.8450    6.8314 H   0  0  0  0  0  0  0  0  0  0  0  0
   16.7438  -12.5192    9.3955 H   0  0  0  0  0  0  0  0  0  0  0  0
   18.0903  -11.4236    9.0199 H   0  0  0  0  0  0  0  0  0  0  0  0
   16.5298  -14.6203    8.0641 H   0  0  0  0  0  0  0  0  0  0  0  0
   17.7257  -14.9235    6.7852 H   0  0  0  0  0  0  0  0  0  0  0  0
   15.5144  -14.1220    5.8699 H   0  0  0  0  0  0  0  0  0  0  0  0
   16.8333  -13.0155    5.4617 H   0  0  0  0  0  0  0  0  0  0  0  0
   19.9197  -12.2543    7.7877 H   0  0  0  0  0  0  0  0  0  0  0  0
   18.9941  -12.2469    6.2655 H   0  0  0  0  0  0  0  0  0  0  0  0
   19.7655  -13.7476    6.8396 H   0  0  0  0  0  0  0  0  0  0  0  0
   13.8816  -14.5227    7.6109 H   0  0  0  0  0  0  0  0  0  0  0  0
   12.2076  -16.1486    6.8191 H   0  0  0  0  0  0  0  0  0  0  0  0
    6.2264  -13.5346    2.8403 H   0  0  0  0  0  0  0  0  0  0  0  0
    4.0502  -12.6180    1.9497 H   0  0  0  0  0  0  0  0  0  0  0  0
    3.8432  -11.9112   -0.3645 H   0  0  0  0  0  0  0  0  0  0  0  0
    3.5011   -9.6827   -2.9882 H   0  0  0  0  0  0  0  0  0  0  0  0
    5.2940   -8.1934   -2.1935 H   0  0  0  0  0  0  0  0  0  0  0  0
    6.3334   -9.6308   -1.7470 H   0  0  0  0  0  0  0  0  0  0  0  0
    2.9978   -9.7687   -0.4975 H   0  0  0  0  0  0  0  0  0  0  0  0
    2.6247   -8.1132    0.0435 H   0  0  0  0  0  0  0  0  0  0  0  0
    0.6464   -9.3251    1.9121 H   0  0  0  0  0  0  0  0  0  0  0  0
   -0.8995  -11.6390    0.2012 H   0  0  0  0  0  0  0  0  0  0  0  0
   -1.1547  -10.6700    1.6831 H   0  0  0  0  0  0  0  0  0  0  0  0
   -0.7928  -12.4273    1.7855 H   0  0  0  0  0  0  0  0  0  0  0  0
    4.7612   -8.6032    2.6025 H   0  0  0  0  0  0  0  0  0  0  0  0
    3.3307   -6.9893    4.6730 H   0  0  0  0  0  0  0  0  0  0  0  0
    4.6199   -6.3141    3.6378 H   0  0  0  0  0  0  0  0  0  0  0  0
    5.0237   -7.5351    4.8800 H   0  0  0  0  0  0  0  0  0  0  0  0
  1  2  2  0  0  0  0
  2 34  1  0  0  0  0
  2  3  1  0  0  0  0
  3  4  1  0  0  0  0
  4  5  2  0  0  0  0
  4 33  1  0  0  0  0
  5  6  1  0  0  0  0
  6  7  1  0  0  0  0
  6 31  2  0  0  0  0
  7  8  1  0  0  0  0
  8 30  2  0  0  0  0
  9 10  1  6  0  0  0
  9  8  1  0  0  0  0
  9 11  1  0  0  0  0
 11 12  2  0  0  0  0
 12 13  1  0  0  0  0
 13 14  1  1  0  0  0
 14 15  1  0  0  0  0
 14 51  1  0  0  0  0
 15 29  1  0  0  0  0
 16 17  1  0  0  0  0
 16 15  2  0  0  0  0
 17 18  2  0  0  0  0
 18 19  1  0  0  0  0
 18 28  1  0  0  0  0
 19 27  2  0  0  0  0
 19 20  1  0  0  0  0
 20 21  1  0  0  0  0
 21 54  1  0  0  0  0
 21 22  1  0  0  0  0
 22 57  1  0  0  0  0
 22 56  1  0  0  0  0
 23 22  1  0  0  0  0
 24 23  1  0  0  0  0
 24 58  1  0  0  0  0
 25 20  1  0  0  0  0
 25 24  1  0  0  0  0
 26 62  1  0  0  0  0
 26 23  1  0  0  0  0
 28 65  1  0  0  0  0
 29 28  2  0  0  0  0
 29 66  1  0  0  0  0
 30 13  1  0  0  0  0
 31 67  1  0  0  0  0
 32 31  1  0  0  0  0
 32 68  1  0  0  0  0
 33 32  2  0  0  0  0
 34 35  1  0  0  0  0
 35 72  1  0  0  0  0
 35 36  1  0  0  0  0
 36 37  1  0  0  0  0
 37 38  1  0  0  0  0
 38 39  1  1  0  0  0
 38 44  1  0  0  0  0
 40 38  1  0  0  0  0
 40 75  1  0  0  0  0
 41 40  1  0  0  0  0
 42 41  1  0  0  0  0
 42 77  1  0  0  0  0
 42 78  1  0  0  0  0
 43 41  2  0  0  0  0
 44 45  1  0  0  0  0
 44 47  2  0  0  0  0
 45 46  1  0  0  0  0
 46 80  1  0  0  0  0
 46 82  1  0  0  0  0
 48  3  1  0  0  0  0
 49  5  1  0  0  0  0
 50 11  1  0  0  0  0
 52 16  1  0  0  0  0
 53 17  1  0  0  0  0
 55 21  1  0  0  0  0
 59 24  1  0  0  0  0
 60 25  1  0  0  0  0
 61 25  1  0  0  0  0
 63 26  1  0  0  0  0
 64 26  1  0  0  0  0
 69 33  1  0  0  0  0
 70 34  1  0  0  0  0
 71 35  1  0  0  0  0
 73 37  1  0  0  0  0
 74 37  1  0  0  0  0
 76 42  1  0  0  0  0
 79 45  1  0  0  0  0
 81 46  1  0  0  0  0
M  END
