82
-1 1
O        -3.758632    0.592210   -5.842542
C        -3.343884    0.739773   -4.705773
N        -2.882424   -0.334987   -3.986955
C        -2.618233   -0.433215   -2.598436
C        -1.442760   -1.065105   -2.181794
C        -1.167108   -1.136309   -0.822525
O         0.027126   -1.747573   -0.452294
C         0.104045   -2.517809    0.631795
C        -0.810123   -3.542433    0.948132
Cl        -2.142588   -3.988743   -0.064451
C        -0.558448   -4.253104    2.117955
N         0.492221   -4.028453    2.891354
C         1.329439   -3.067750    2.475169
N         2.430792   -2.899737    3.275743
C         3.537295   -2.058143    3.179454
C         3.702780   -1.072302    2.193261
C         4.849968   -0.285974    2.191122
C         5.868267   -0.469318    3.129116
C         7.053550    0.449843    3.108937
N         8.293357   -0.108862    3.333313
C         9.435987    0.779253    3.475351
C        10.383780    0.214151    4.536527
N        10.788721   -1.160031    4.286111
C         9.625334   -2.008460    4.094338
C         8.663963   -1.482300    3.025584
C        11.815102   -1.310889    3.279211
O         6.912302    1.647274    2.943600
C         5.688524   -1.438381    4.122600
C         4.541624   -2.217366    4.151593
N         1.164432   -2.310155    1.396941
C        -1.998362   -0.549882    0.125967
C        -3.178075    0.059430   -0.302300
C        -3.507049    0.089476   -1.655065
C        -3.237028    2.109526   -4.116399
C        -2.227784    2.559451   -3.372340
S        -5.180269    2.949862    0.751097
C        -5.368337    3.294589   -1.037805
C        -6.783003    3.020971   -1.597806
H        -7.099151    2.038814   -1.205853
N        -6.831270    2.990800   -3.046659
C        -6.541041    1.899175   -3.780017
C        -6.811284    2.005916   -5.268593
O        -6.068798    0.872877   -3.305238
C        -7.809820    4.085606   -1.175195
N        -7.911996    4.272415    0.149264
C        -8.731846    5.307234    0.716446
O        -8.465339    4.700827   -2.016013
H        -2.906456   -1.196754   -4.521586
H        -0.740409   -1.486697   -2.902363
H        -1.246666   -5.049569    2.419236
H         2.422219   -3.541047    4.058966
H         2.927602   -0.929390    1.444316
H         4.960950    0.497869    1.439143
H         9.067010    1.773590    3.753960
H         9.955407    0.888381    2.503497
H         9.868297    0.250560    5.512208
H        11.281028    0.847390    4.616681
H         9.079200   -2.073141    5.052440
H         9.955543   -3.026705    3.835772
H         7.772324   -2.115075    2.957817
H         9.154362   -1.511857    2.032659
H        12.696476   -0.713368    3.559330
H        11.521427   -1.004623    2.252279
H        12.132306   -2.364222    3.229779
H         6.448268   -1.573629    4.896472
H         4.413666   -2.962348    4.941675
H        -1.730897   -0.567665    1.184874
H        -3.850163    0.557851    0.405630
H        -4.450730    0.525234   -1.991456
H        -4.035363    2.786993   -4.429136
H        -2.201003    3.599851   -3.040553
H        -1.409034    1.912987   -3.045936
H        -4.679760    2.658766   -1.612676
H        -5.099698    4.340470   -1.272064
H        -7.394746    3.742953   -3.438509
H        -5.879930    1.771097   -5.805830
H        -7.188272    2.991435   -5.575591
H        -7.544490    1.233892   -5.543398
H        -7.160741    3.825888    0.718322
H        -9.438411    5.659504   -0.046706
H        -8.128532    6.167151    1.055565
H        -9.296581    4.925376    1.581756
