86
-1 1
O         0.322457    1.305953   -0.658182
C         0.632035    1.853280    0.439103
N         0.450523    1.013932    1.605921
C         1.406440    0.601456    2.502221
C         1.088022   -0.425979    3.419004
C         2.057725   -0.911896    4.282992
O         1.764361   -1.909156    5.215078
C         1.400449   -3.133262    4.855317
C         1.338897   -4.126860    5.852701
Cl         1.723899   -3.791277    7.511728
C         0.981445   -5.399834    5.430767
N         0.673572   -5.687141    4.173815
C         0.730482   -4.664076    3.304859
N         0.356377   -4.967734    2.031856
C         0.049989   -4.129820    0.952785
C        -0.734119   -4.715737   -0.071164
O        -1.048601   -6.027465    0.124522
C        -1.875984   -6.666391   -0.805640
C        -1.148646   -3.961241   -1.158674
C        -0.766446   -2.618424   -1.269306
C        -1.389415   -1.774971   -2.350619
N        -0.609274   -0.826677   -2.942770
C         0.849059   -0.786616   -2.886099
C         1.405541   -0.358224   -4.247690
N         0.854356    0.897220   -4.728680
C        -0.594419    0.771532   -4.820238
C        -1.253150    0.353582   -3.508786
C         1.301580    2.037069   -3.944275
O        -2.574690   -1.921171   -2.613993
C         0.019497   -2.042460   -0.274563
C         0.430954   -2.793865    0.827710
N         1.107686   -3.418638    3.604235
C         3.347703   -0.395281    4.322625
C         3.649618    0.642936    3.440340
C         2.711774    1.139813    2.545745
C         1.081854    3.140225    0.651867
C         1.373942    4.049126   -0.474987
S        -0.009483    5.209411   -0.995295
C        -1.332178    3.995440   -1.343753
C        -2.121865    4.330884   -2.616628
H        -2.750690    3.464262   -2.872010
N        -1.228411    4.594475   -3.721201
C        -1.557798    4.342469   -5.017115
C        -0.460940    4.605418   -6.032428
O        -2.650520    3.923497   -5.350533
C        -3.120158    5.466004   -2.334477
N        -2.837704    6.657678   -2.920070
C        -3.644222    7.831215   -2.722102
O        -4.072647    5.282705   -1.601310
H        -0.303885    0.352360    1.460549
H         0.088073   -0.861850    3.424151
H         0.942971   -6.217564    6.158572
H         0.032615   -5.922339    1.924332
H        -2.010508   -7.697246   -0.454356
H        -1.420328   -6.686456   -1.811153
H        -2.863348   -6.178164   -0.876445
H        -1.807083   -4.375459   -1.922328
H         1.228884   -1.785832   -2.636718
H         1.168939   -0.084178   -2.098901
H         1.183110   -1.140799   -4.995217
H         2.502126   -0.271450   -4.175641
H        -0.818960    0.016242   -5.593755
H        -1.037652    1.719894   -5.159268
H        -2.313188    0.119635   -3.661928
H        -1.176271    1.165374   -2.764088
H         2.400393    2.103596   -3.995419
H         1.012795    2.005653   -2.874995
H         0.893934    2.960006   -4.377272
H         0.280996   -0.980786   -0.336810
H         1.032104   -2.334838    1.608582
H         4.075362   -0.796160    5.028429
H         4.654178    1.073845    3.445204
H         2.967512    1.941764    1.854085
H         1.154790    3.520814    1.672663
H         1.648289    3.486064   -1.378094
H         2.183814    4.761972   -0.252796
H        -2.035634    3.951609   -0.503005
H        -0.851282    3.008690   -1.429623
H        -0.287609    4.882722   -3.457890
H         0.362600    5.216756   -5.637330
H        -0.904994    5.097418   -6.907654
H        -0.049682    3.639715   -6.364182
H        -2.011293    6.700471   -3.500114
H        -4.471556    7.552688   -2.056451
H        -4.062958    8.201615   -3.672084
H        -3.068351    8.642888   -2.249123
