-1 1
 OpenBabel05232414493D

 90 93  0  0  1  0  0  0  0  0999 V2000
    1.5105    2.1531    5.6695 O   0  0  0  0  0  0  0  0  0  0  0  0
    1.4151    3.3623    5.8657 C   0  0  0  0  0  0  0  0  0  0  0  0
    2.1673    3.8803    6.9978 N   0  0  0  0  0  0  0  0  0  0  0  0
    1.6320    4.5126    8.1036 C   0  0  0  0  0  0  0  0  0  0  0  0
    2.4811    4.8598    9.1749 C   0  0  0  0  0  0  0  0  0  0  0  0
    1.9628    5.5125   10.2809 C   0  0  0  0  0  0  0  0  0  0  0  0
    2.8052    5.8158   11.3514 O   0  0  0  0  0  0  0  0  0  0  0  0
    3.3285    7.0339   11.4422 C   0  0  0  0  0  0  0  0  0  0  0  0
    3.8131    7.4579   12.6989 C   0  0  2  0  0  3  0  0  0  0  0  0
    3.7593    6.4288   14.0942 Cl  0  0  0  0  0  0  0  0  0  0  0  0
    4.2799    8.7582   12.7651 C   0  0  0  0  0  0  0  0  0  0  0  0
    4.3261    9.5667   11.7111 N   0  0  0  0  0  0  0  0  0  0  0  0
    3.9033    9.0580   10.5507 C   0  0  1  0  0  3  0  0  0  0  0  0
    3.9877    9.7910    9.4106 N   0  0  0  0  0  0  0  0  0  0  0  0
    4.2015   11.1603    9.2306 C   0  0  0  0  0  0  0  0  0  0  0  0
    4.4238   11.5643    7.8905 C   0  0  0  0  0  0  0  0  0  0  0  0
    4.5541   10.5671    6.9964 O   0  0  0  0  0  0  0  0  0  0  0  0
    4.7715   10.8908    5.6399 C   0  0  0  0  0  0  0  0  0  0  0  0
    4.4720   12.9139    7.5759 C   0  0  0  0  0  0  0  0  0  0  0  0
    4.3303   13.8866    8.5764 C   0  0  0  0  0  0  0  0  0  0  0  0
    4.1750   15.3391    8.2259 C   0  0  0  0  0  0  0  0  0  0  0  0
    3.6307   15.5203    6.9855 N   0  0  0  0  0  0  0  0  0  0  0  0
    3.0606   16.7598    6.5309 C   0  0  0  0  0  0  0  0  0  0  0  0
    1.5390   16.5718    6.3529 C   0  0  0  0  0  0  0  0  0  0  0  0
    1.2488   15.2644    5.8007 N   0  0  0  0  0  0  0  0  0  0  0  0
    0.0627   14.5617    6.2610 C   0  0  0  0  0  0  0  0  0  0  0  0
   -1.1678   14.9247    5.4366 C   0  0  0  0  0  0  0  0  0  0  0  0
   -0.9349   14.7099    4.0617 O   0  0  0  0  0  0  0  0  0  0  0  0
    0.1749   15.4352    3.5878 C   0  0  0  0  0  0  0  0  0  0  0  0
    1.4361   15.0810    4.3710 C   0  0  0  0  0  0  0  0  0  0  0  0
    4.4585   16.2513    8.9822 O   0  0  0  0  0  0  0  0  0  0  0  0
    4.2167   13.4878    9.9035 C   0  0  0  0  0  0  0  0  0  0  0  0
    4.1449   12.1324   10.2306 C   0  0  0  0  0  0  0  0  0  0  0  0
    3.3872    7.8221   10.3930 N   0  0  0  0  0  0  0  0  0  0  0  0
    0.6171    5.8429   10.3899 C   0  0  0  0  0  0  0  0  0  0  0  0
   -0.2205    5.4848    9.3333 C   0  0  0  0  0  0  0  0  0  0  0  0
    0.2649    4.8304    8.2090 C   0  0  0  0  0  0  0  0  0  0  0  0
    0.7490    4.3054    5.0386 C   0  0  0  0  0  3  0  0  0  0  0  0
    0.9617    5.6996    5.0646 C   0  0  0  0  0  0  0  0  0  0  0  0
   -0.6775    6.9960    5.8322 S   0  0  0  0  0  0  0  0  0  0  0  0
    0.0571    8.1143    7.0715 C   0  0  0  0  0  0  0  0  0  0  0  0
    1.1138    9.0897    6.5181 C   0  0  2  0  0  0  0  0  0  0  0  0
    1.3395    9.8609    7.2749 H   0  0  0  0  0  0  0  0  0  0  0  0
    0.5848    9.7413    5.3530 N   0  0  0  0  0  0  0  0  0  0  0  0
    0.9343   10.9656    4.9240 C   0  0  0  0  0  0  0  0  0  0  0  0
    0.3209   11.3972    3.6083 C   0  0  0  0  0  0  0  0  0  0  0  0
    1.6787   11.7184    5.5503 O   0  0  0  0  0  0  0  0  0  0  0  0
    2.4526    8.4008    6.1912 C   0  0  0  0  0  0  0  0  0  0  0  0
    3.0256    7.7338    7.2341 N   0  0  0  0  0  0  0  0  0  0  0  0
    4.2182    6.9378    7.0538 C   0  0  0  0  0  0  0  0  0  0  0  0
    2.9736    8.4847    5.0966 O   0  0  0  0  0  0  0  0  0  0  0  0
    2.9185    3.2347    7.2187 H   0  0  0  0  0  0  0  0  0  0  0  0
    3.5481    4.6340    9.1354 H   0  0  0  0  0  0  0  0  0  0  0  0
    4.6287    9.1610   13.7218 H   0  0  0  0  0  0  0  0  0  0  0  0
    3.7799    9.2735    8.5542 H   0  0  0  0  0  0  0  0  0  0  0  0
    3.9331   11.4858    5.2482 H   0  0  0  0  0  0  0  0  0  0  0  0
    4.8000    9.9382    5.1015 H   0  0  0  0  0  0  0  0  0  0  0  0
    5.7261   11.4333    5.5198 H   0  0  0  0  0  0  0  0  0  0  0  0
    4.6053   13.2168    6.5389 H   0  0  0  0  0  0  0  0  0  0  0  0
    3.1224   14.7241    6.6007 H   0  0  0  0  0  0  0  0  0  0  0  0
    3.5250   17.0683    5.5771 H   0  0  0  0  0  0  0  0  0  0  0  0
    3.2740   17.5459    7.2691 H   0  0  0  0  0  0  0  0  0  0  0  0
    1.1287   17.4176    5.7622 H   0  0  0  0  0  0  0  0  0  0  0  0
    1.0680   16.6212    7.3466 H   0  0  0  0  0  0  0  0  0  0  0  0
   -0.1067   14.7797    7.3264 H   0  0  0  0  0  0  0  0  0  0  0  0
    0.2627   13.4814    6.1708 H   0  0  0  0  0  0  0  0  0  0  0  0
   -1.4448   15.9872    5.6063 H   0  0  0  0  0  0  0  0  0  0  0  0
   -2.0293   14.3002    5.7145 H   0  0  0  0  0  0  0  0  0  0  0  0
   -0.0285   16.5249    3.6637 H   0  0  0  0  0  0  0  0  0  0  0  0
    0.2885   15.1866    2.5221 H   0  0  0  0  0  0  0  0  0  0  0  0
    2.2888   15.6845    4.0215 H   0  0  0  0  0  0  0  0  0  0  0  0
    1.6827   14.0190    4.2017 H   0  0  0  0  0  0  0  0  0  0  0  0
    4.1366   14.2509   10.6797 H   0  0  0  0  0  0  0  0  0  0  0  0
    4.0241   11.8150   11.2636 H   0  0  0  0  0  0  0  0  0  0  0  0
    0.2475    6.3562   11.2784 H   0  0  0  0  0  0  0  0  0  0  0  0
   -1.2839    5.7305    9.3777 H   0  0  0  0  0  0  0  0  0  0  0  0
   -0.4042    4.5811    7.3870 H   0  0  0  0  0  0  0  0  0  0  0  0
    0.1770    3.8607    4.2211 H   0  0  0  0  0  0  0  0  0  0  0  0
    0.9532    6.2250    4.1083 H   0  0  0  0  0  0  0  0  0  0  0  0
    1.7547    6.0491    5.7287 H   0  0  0  0  0  0  0  0  0  0  0  0
   -0.7665    8.7108    7.4929 H   0  0  0  0  0  0  0  0  0  0  0  0
    0.4746    7.5327    7.9060 H   0  0  0  0  0  0  0  0  0  0  0  0
    0.0072    9.1262    4.7789 H   0  0  0  0  0  0  0  0  0  0  0  0
   -0.3739   10.6574    3.1887 H   0  0  0  0  0  0  0  0  0  0  0  0
    1.1370   11.5646    2.8902 H   0  0  0  0  0  0  0  0  0  0  0  0
   -0.2026   12.3551    3.7495 H   0  0  0  0  0  0  0  0  0  0  0  0
    2.4751    7.5251    8.0622 H   0  0  0  0  0  0  0  0  0  0  0  0
    4.8753    7.4351    6.3297 H   0  0  0  0  0  0  0  0  0  0  0  0
    3.9781    5.9265    6.6823 H   0  0  0  0  0  0  0  0  0  0  0  0
    4.7365    6.8520    8.0189 H   0  0  0  0  0  0  0  0  0  0  0  0
  1  2  2  0  0  0  0
  2  3  1  0  0  0  0
  3 52  1  0  0  0  0
  3  4  1  0  0  0  0
  4 37  2  0  0  0  0
  4  5  1  0  0  0  0
  5  6  2  0  0  0  0
  6 35  1  0  0  0  0
  6  7  1  0  0  0  0
  7  8  1  0  0  0  0
  8  9  1  0  0  0  0
  9 11  1  0  0  0  0
  9 10  1  1  0  0  0
 11 54  1  0  0  0  0
 12 11  2  0  0  0  0
 13 14  1  6  0  0  0
 13 12  1  0  0  0  0
 15 14  1  0  0  0  0
 15 33  1  0  0  0  0
 16 15  2  0  0  0  0
 17 16  1  0  0  0  0
 18 17  1  0  0  0  0
 19 16  1  0  0  0  0
 19 20  2  0  0  0  0
 20 32  1  0  0  0  0
 21 20  1  0  0  0  0
 21 31  2  0  0  0  0
 22 21  1  0  0  0  0
 23 22  1  0  0  0  0
 23 62  1  0  0  0  0
 24 23  1  0  0  0  0
 24 64  1  0  0  0  0
 25 26  1  0  0  0  0
 25 24  1  0  0  0  0
 26 65  1  0  0  0  0
 27 67  1  0  0  0  0
 27 68  1  0  0  0  0
 27 26  1  0  0  0  0
 28 27  1  0  0  0  0
 29 69  1  0  0  0  0
 29 28  1  0  0  0  0
 29 30  1  0  0  0  0
 30 25  1  0  0  0  0
 32 33  2  0  0  0  0
 32 73  1  0  0  0  0
 33 74  1  0  0  0  0
 34 13  1  0  0  0  0
 34  8  2  0  0  0  0
 35 75  1  0  0  0  0
 36 76  1  0  0  0  0
 36 35  2  0  0  0  0
 37 36  1  0  0  0  0
 38 39  1  0  0  0  0
 38  2  1  0  0  0  0
 39 80  1  0  0  0  0
 39 40  1  0  0  0  0
 40 41  1  0  0  0  0
 41 81  1  0  0  0  0
 41 82  1  0  0  0  0
 42 41  1  0  0  0  0
 42 43  1  1  0  0  0
 44 42  1  0  0  0  0
 45 44  1  0  0  0  0
 45 47  2  0  0  0  0
 46 86  1  0  0  0  0
 46 45  1  0  0  0  0
 48 42  1  0  0  0  0
 48 49  1  0  0  0  0
 49 87  1  0  0  0  0
 50 49  1  0  0  0  0
 50 90  1  0  0  0  0
 51 48  2  0  0  0  0
 53  5  1  0  0  0  0
 55 14  1  0  0  0  0
 56 18  1  0  0  0  0
 57 18  1  0  0  0  0
 58 18  1  0  0  0  0
 59 19  1  0  0  0  0
 60 22  1  0  0  0  0
 61 23  1  0  0  0  0
 63 24  1  0  0  0  0
 66 26  1  0  0  0  0
 70 29  1  0  0  0  0
 71 30  1  0  0  0  0
 72 30  1  0  0  0  0
 77 37  1  0  0  0  0
 78 38  1  0  0  0  0
 79 39  1  0  0  0  0
 83 44  1  0  0  0  0
 84 46  1  0  0  0  0
 85 46  1  0  0  0  0
 88 50  1  0  0  0  0
 89 50  1  0  0  0  0
M  END
