89
-1 1
O         2.400482   -3.834189    5.514635
C         1.196999   -3.665789    5.445178
N         0.668213   -2.532853    4.869325
C        -0.550531   -1.910158    5.109373
C        -1.039834   -1.028858    4.130087
C        -2.252857   -0.384513    4.329482
O        -2.768728    0.485602    3.392373
C        -2.360013    0.410776    2.110484
C        -2.668163   -0.689166    1.292525
Cl        -3.585541   -2.038004    1.877445
C        -2.200959   -0.648961   -0.015611
N        -1.538827    0.403077   -0.491277
C        -1.330138    1.407708    0.352098
N        -0.687094    2.545732   -0.072525
C        -0.159083    2.894978   -1.303324
C         0.259690    4.238478   -1.434784
O         0.121980    5.072889   -0.353716
C        -1.063946    5.835268   -0.353652
C         0.818212    4.702124   -2.614679
C         0.965559    3.849014   -3.716352
C         1.558932    4.281112   -5.025684
N         1.512539    5.622734   -5.267852
C         2.018624    6.359907   -6.426156
C         3.545643    6.258031   -6.634971
C         3.987400    5.113014   -7.560269
N         3.258925    5.079437   -8.818700
C         1.830731    4.948019   -8.580826
C         1.251905    6.097184   -7.741803
C         3.623405    6.112042   -9.756610
O         2.030389    3.471646   -5.806790
C         0.568175    2.516317   -3.579556
C         0.009457    2.036660   -2.400181
N        -1.706570    1.448006    1.636483
C        -2.998057   -0.562176    5.493537
C        -2.484826   -1.404907    6.475249
C        -1.274853   -2.071012    6.302505
C         0.287442   -4.780565    5.862189
C        -0.768849   -5.168750    5.147375
S         1.549174   -2.186028    1.826155
C        -0.034978   -3.070679    1.607553
C         0.029023   -4.481853    0.994062
H         0.639773   -4.421450    0.075780
N        -1.292730   -4.985369    0.674157
C        -2.098284   -4.519240   -0.296354
C        -3.435562   -5.229952   -0.420064
O        -1.824467   -3.572824   -1.024031
C         0.645173   -5.551514    1.917035
N         1.849875   -5.253584    2.418000
C         2.576651   -6.150375    3.281894
O         0.039169   -6.599436    2.145801
H         1.213431   -2.198865    4.038598
H        -0.444212   -0.873699    3.224432
H        -2.345853   -1.509808   -0.678656
H        -0.557291    3.235206    0.659297
H        -1.066625    6.435985    0.565309
H        -1.960209    5.190138   -0.365542
H        -1.107462    6.511182   -1.226009
H         1.164273    5.738722   -2.628938
H         0.955054    6.164799   -4.624579
H         1.815463    7.405906   -6.149055
H         4.040239    6.174311   -5.655094
H         3.877073    7.215999   -7.071411
H         3.829222    4.154113   -7.049800
H         5.064670    5.208416   -7.773515
H         1.660129    3.996966   -8.057876
H         1.308813    4.898477   -9.550752
H         0.190882    5.911764   -7.512674
H         1.285676    7.027001   -8.335686
H         4.704992    6.062660   -9.960981
H         3.399663    7.154957   -9.436301
H         3.098899    5.948156  -10.711739
H         0.712987    1.844246   -4.427033
H        -0.303075    0.999176   -2.304085
H        -3.947881   -0.040139    5.611573
H        -3.041152   -1.545566    7.405337
H        -0.891419   -2.714470    7.093695
H         0.655922   -5.378505    6.700988
H        -1.108135   -4.604453    4.274096
H        -1.318373   -6.080286    5.393203
H        -0.668651   -2.492035    0.926204
H        -0.581812   -3.151185    2.563686
H        -1.503329   -5.853953    1.162821
H        -4.213111   -4.566643   -0.012185
H        -3.473446   -6.190459    0.112375
H        -3.654673   -5.386172   -1.484619
H         2.174510   -4.280350    2.277439
H         1.913187   -6.976387    3.569246
H         2.907163   -5.618158    4.184627
H         3.458278   -6.571402    2.768507
