-1 1
 OpenBabel05192410563D

 89 92  0  0  1  0  0  0  0  0999 V2000
    2.9771   -1.8384    6.6623 O   0  0  0  0  0  0  0  0  0  0  0  0
    2.0690   -2.3866    6.0330 C   0  0  0  0  0  0  0  0  0  0  0  0
    1.2202   -1.4867    5.2459 N   0  0  0  0  0  0  0  0  0  0  0  0
   -0.1333   -1.3477    5.2140 C   0  0  0  0  0  0  0  0  0  0  0  0
   -0.7243   -0.4986    4.2500 C   0  0  0  0  0  0  0  0  0  0  0  0
   -2.1012   -0.3376    4.2056 C   0  0  0  0  0  0  0  0  0  0  0  0
   -2.6635    0.4886    3.2327 O   0  0  0  0  0  0  0  0  0  0  0  0
   -2.1664    0.4214    1.9911 C   0  0  0  0  0  0  0  0  0  0  0  0
   -2.2006   -0.7646    1.2266 C   0  0  0  0  0  0  0  0  0  0  0  0
   -2.9907   -2.1961    1.7968 Cl  0  0  0  0  0  0  0  0  0  0  0  0
   -1.6036   -0.7262   -0.0243 C   0  0  0  0  0  0  0  0  0  0  0  0
   -1.0863    0.3977   -0.5243 N   0  0  0  0  0  0  0  0  0  0  0  0
   -1.1757    1.4806    0.2389 C   0  0  0  0  0  0  0  0  0  0  0  0
   -0.7306    2.6962   -0.2257 N   0  0  0  0  0  0  0  0  0  0  0  0
   -0.1792    3.0713   -1.4383 C   0  0  0  0  0  0  0  0  0  0  0  0
    0.0222    4.4589   -1.6194 C   0  0  0  0  0  0  0  0  0  0  0  0
   -0.3284    5.3025   -0.5963 O   0  0  0  0  0  0  0  0  0  0  0  0
   -1.5925    5.9108   -0.7431 C   0  0  0  0  0  0  0  0  0  0  0  0
    0.5827    4.9542   -2.7857 C   0  0  0  0  0  0  0  0  0  0  0  0
    0.9494    4.0879   -3.8239 C   0  0  0  0  0  0  0  0  0  0  0  0
    1.5658    4.5520   -5.1123 C   0  0  0  0  0  0  0  0  0  0  0  0
    1.3073    5.8491   -5.4425 N   0  0  0  0  0  0  0  0  0  0  0  0
    1.7745    6.6078   -6.6041 C   0  0  0  0  0  0  0  0  0  0  0  0
    3.3074    6.7774   -6.6844 C   0  0  0  0  0  0  0  0  0  0  0  0
    4.0267    5.6853   -7.4921 C   0  0  0  0  0  0  0  0  0  0  0  0
    3.4332    5.4549   -8.7996 N   0  0  0  0  0  0  0  0  0  0  0  0
    2.0352    5.0781   -8.6694 C   0  0  0  0  0  0  0  0  0  0  0  0
    1.1881    6.1426   -7.9557 C   0  0  0  0  0  0  0  0  0  0  0  0
    3.6936    6.4867   -9.7727 C   0  0  0  0  0  0  0  0  0  0  0  0
    2.2342    3.7990   -5.8006 O   0  0  0  0  0  0  0  0  0  0  0  0
    0.7646    2.7157   -3.6382 C   0  0  0  0  0  0  0  0  0  0  0  0
    0.2059    2.2044   -2.4720 C   0  0  0  0  0  0  0  0  0  0  0  0
   -1.6720    1.5303    1.4822 N   0  0  0  0  0  0  0  0  0  0  0  0
   -2.9554   -0.9655    5.1043 C   0  0  0  0  0  0  0  0  0  0  0  0
   -2.3710   -1.8079    6.0533 C   0  0  0  0  0  0  0  0  0  0  0  0
   -0.9992   -2.0140    6.1136 C   0  0  0  0  0  0  0  0  0  0  0  0
    1.7876   -3.7569    5.9084 C   0  0  0  0  0  3  0  0  0  0  0  0
    0.9029   -4.3471    4.9048 C   0  0  0  0  0  0  0  0  0  0  0  0
    1.5077   -4.1255    3.0780 S   0  0  0  0  0  0  0  0  0  0  0  0
   -0.0656   -4.2057    2.1669 C   0  0  0  0  0  0  0  0  0  0  0  0
   -0.3404   -5.4827    1.3440 C   0  0  2  0  0  0  0  0  0  0  0  0
    0.4941   -5.6112    0.6329 H   0  0  0  0  0  0  0  0  0  0  0  0
   -1.5834   -5.3833    0.6121 N   0  0  0  0  0  0  0  0  0  0  0  0
   -1.8009   -4.5575   -0.4303 C   0  0  0  0  0  0  0  0  0  0  0  0
   -3.1919   -4.6225   -1.0303 C   0  0  0  0  0  0  0  0  0  0  0  0
   -0.9599   -3.7777   -0.8588 O   0  0  0  0  0  0  0  0  0  0  0  0
   -0.4633   -6.7674    2.1841 C   0  0  0  0  0  0  0  0  0  0  0  0
    0.6501   -7.1262    2.8500 N   0  0  0  0  0  0  0  0  0  0  0  0
    0.6660   -8.2365    3.7687 C   0  0  0  0  0  0  0  0  0  0  0  0
   -1.5062   -7.4102    2.2014 O   0  0  0  0  0  0  0  0  0  0  0  0
    1.7580   -0.7352    4.8329 H   0  0  0  0  0  0  0  0  0  0  0  0
   -0.0882    0.0222    3.5307 H   0  0  0  0  0  0  0  0  0  0  0  0
   -1.5299   -1.6386   -0.6288 H   0  0  0  0  0  0  0  0  0  0  0  0
   -0.8132    3.4446    0.4535 H   0  0  0  0  0  0  0  0  0  0  0  0
   -1.7612    6.5319    0.1461 H   0  0  0  0  0  0  0  0  0  0  0  0
   -2.3969    5.1578   -0.8160 H   0  0  0  0  0  0  0  0  0  0  0  0
   -1.6293    6.5514   -1.6417 H   0  0  0  0  0  0  0  0  0  0  0  0
    0.7565    6.0319   -2.8393 H   0  0  0  0  0  0  0  0  0  0  0  0
    0.6130    6.3146   -4.8769 H   0  0  0  0  0  0  0  0  0  0  0  0
    1.3632    7.6110   -6.4128 H   0  0  0  0  0  0  0  0  0  0  0  0
    3.7193    6.8383   -5.6654 H   0  0  0  0  0  0  0  0  0  0  0  0
    3.5002    7.7553   -7.1581 H   0  0  0  0  0  0  0  0  0  0  0  0
    3.9950    4.7412   -6.9326 H   0  0  0  0  0  0  0  0  0  0  0  0
    5.0850    5.9638   -7.6241 H   0  0  0  0  0  0  0  0  0  0  0  0
    1.9883    4.1384   -8.1021 H   0  0  0  0  0  0  0  0  0  0  0  0
    1.6203    4.8874   -9.6729 H   0  0  0  0  0  0  0  0  0  0  0  0
    0.1607    5.7783   -7.7999 H   0  0  0  0  0  0  0  0  0  0  0  0
    1.1091    7.0319   -8.6046 H   0  0  0  0  0  0  0  0  0  0  0  0
    4.7809    6.6245   -9.8853 H   0  0  0  0  0  0  0  0  0  0  0  0
    3.2604    7.4864   -9.5425 H   0  0  0  0  0  0  0  0  0  0  0  0
    3.2962    6.1806  -10.7537 H   0  0  0  0  0  0  0  0  0  0  0  0
    1.0773    2.0396   -4.4357 H   0  0  0  0  0  0  0  0  0  0  0  0
    0.0569    1.1353   -2.3382 H   0  0  0  0  0  0  0  0  0  0  0  0
   -4.0330   -0.8195    5.0312 H   0  0  0  0  0  0  0  0  0  0  0  0
   -3.0128   -2.3280    6.7695 H   0  0  0  0  0  0  0  0  0  0  0  0
   -0.5592   -2.6839    6.8544 H   0  0  0  0  0  0  0  0  0  0  0  0
    2.4698   -4.4169    6.4499 H   0  0  0  0  0  0  0  0  0  0  0  0
   -0.1111   -3.9212    4.8338 H   0  0  0  0  0  0  0  0  0  0  0  0
    0.7962   -5.4318    5.0493 H   0  0  0  0  0  0  0  0  0  0  0  0
   -0.0898   -3.3671    1.4590 H   0  0  0  0  0  0  0  0  0  0  0  0
   -0.8836   -4.0489    2.8885 H   0  0  0  0  0  0  0  0  0  0  0  0
   -2.2767   -6.0676    0.9067 H   0  0  0  0  0  0  0  0  0  0  0  0
   -3.7628   -3.7558   -0.6641 H   0  0  0  0  0  0  0  0  0  0  0  0
   -3.7377   -5.5389   -0.7665 H   0  0  0  0  0  0  0  0  0  0  0  0
   -3.1097   -4.5386   -2.1216 H   0  0  0  0  0  0  0  0  0  0  0  0
    1.3835   -6.4112    2.9097 H   0  0  0  0  0  0  0  0  0  0  0  0
   -0.0957   -8.9639    3.4601 H   0  0  0  0  0  0  0  0  0  0  0  0
    0.4426   -7.9205    4.8021 H   0  0  0  0  0  0  0  0  0  0  0  0
    1.6539   -8.7185    3.7589 H   0  0  0  0  0  0  0  0  0  0  0  0
  2  1  2  0  0  0  0
  3  2  1  0  0  0  0
  4  3  1  0  0  0  0
  4 36  1  0  0  0  0
  5  4  2  0  0  0  0
  6  5  1  0  0  0  0
  6 34  2  0  0  0  0
  7  6  1  0  0  0  0
  8  7  1  0  0  0  0
  9 10  1  0  0  0  0
  9  8  1  0  0  0  0
 11  9  2  0  0  0  0
 12 11  1  0  0  0  0
 12 13  2  0  0  0  0
 13 33  1  0  0  0  0
 14 13  1  0  0  0  0
 14 54  1  0  0  0  0
 15 14  1  0  0  0  0
 16 15  1  0  0  0  0
 16 17  1  0  0  0  0
 18 17  1  0  0  0  0
 18 55  1  0  0  0  0
 19 16  2  0  0  0  0
 20 31  2  0  0  0  0
 20 19  1  0  0  0  0
 21 20  1  0  0  0  0
 22 21  1  0  0  0  0
 22 59  1  0  0  0  0
 23 60  1  0  0  0  0
 23 22  1  0  0  0  0
 24 23  1  0  0  0  0
 24 61  1  0  0  0  0
 25 63  1  0  0  0  0
 25 24  1  0  0  0  0
 26 27  1  0  0  0  0
 26 25  1  0  0  0  0
 27 65  1  0  0  0  0
 27 28  1  0  0  0  0
 28 67  1  0  0  0  0
 28 23  1  0  0  0  0
 29 70  1  0  0  0  0
 29 26  1  0  0  0  0
 30 21  2  0  0  0  0
 31 32  1  0  0  0  0
 32 73  1  0  0  0  0
 32 15  2  0  0  0  0
 33  8  2  0  0  0  0
 34 35  1  0  0  0  0
 35 36  2  0  0  0  0
 35 75  1  0  0  0  0
 36 76  1  0  0  0  0
 37  2  1  0  0  0  0
 37 77  1  0  0  0  0
 38 79  1  0  0  0  0
 38 37  1  0  0  0  0
 39 38  1  0  0  0  0
 40 81  1  0  0  0  0
 40 39  1  0  0  0  0
 41 42  1  6  0  0  0
 41 40  1  0  0  0  0
 41 47  1  0  0  0  0
 43 82  1  0  0  0  0
 43 41  1  0  0  0  0
 44 43  1  0  0  0  0
 45 84  1  0  0  0  0
 45 83  1  0  0  0  0
 45 44  1  0  0  0  0
 46 44  2  0  0  0  0
 47 50  2  0  0  0  0
 47 48  1  0  0  0  0
 48 86  1  0  0  0  0
 48 49  1  0  0  0  0
 49 88  1  0  0  0  0
 51  3  1  0  0  0  0
 52  5  1  0  0  0  0
 53 11  1  0  0  0  0
 56 18  1  0  0  0  0
 57 18  1  0  0  0  0
 58 19  1  0  0  0  0
 62 24  1  0  0  0  0
 64 25  1  0  0  0  0
 66 27  1  0  0  0  0
 68 28  1  0  0  0  0
 69 29  1  0  0  0  0
 71 29  1  0  0  0  0
 72 31  1  0  0  0  0
 74 34  1  0  0  0  0
 78 38  1  0  0  0  0
 80 40  1  0  0  0  0
 85 45  1  0  0  0  0
 87 49  1  0  0  0  0
 89 49  1  0  0  0  0
M  END
