-1 1
 OpenBabel05232414493D

 83 85  0  0  1  0  0  0  0  0999 V2000
    0.6946   -8.0559    7.1629 O   0  0  0  0  0  0  0  0  0  0  0  0
    1.9285   -8.0766    7.0273 C   0  0  0  0  0  0  0  0  0  0  0  0
    2.4907   -9.3072    6.6503 N   0  0  0  0  0  0  0  0  0  0  0  0
    3.8428   -9.6299    6.5532 C   0  0  0  0  0  0  0  0  0  0  0  0
    4.3338  -10.1899    5.3678 C   0  0  0  0  0  0  0  0  0  0  0  0
    5.6944  -10.4289    5.2447 C   0  0  0  0  0  0  0  0  0  0  0  0
    6.1950  -10.9749    4.0693 O   0  0  0  0  0  0  0  0  0  0  0  0
    6.2675  -10.2464    2.9554 C   0  0  0  0  0  0  0  0  0  0  0  0
    6.8031  -10.8782    1.8103 C   0  0  2  0  0  3  0  0  0  0  0  0
    7.3297  -12.5336    1.8321 Cl  0  0  0  0  0  0  0  0  0  0  0  0
    6.8981  -10.0955    0.6762 C   0  0  0  0  0  0  0  0  0  0  0  0
    6.5062   -8.8276    0.6372 N   0  0  0  0  0  0  0  0  0  0  0  0
    5.9925   -8.3164    1.7638 C   0  0  1  0  0  3  0  0  0  0  0  0
    5.5432   -7.0360    1.7859 N   0  0  0  0  0  0  0  0  0  0  0  0
    5.4865   -6.0938    0.7446 C   0  0  0  0  0  0  0  0  0  0  0  0
    4.6000   -5.0132    0.9113 C   0  0  0  0  0  0  0  0  0  0  0  0
    4.5028   -4.0236   -0.0552 C   0  0  0  0  0  0  0  0  0  0  0  0
    5.2754   -4.0699   -1.2222 C   0  0  0  0  0  0  0  0  0  0  0  0
    5.1467   -2.9959   -2.2764 C   0  0  0  0  0  0  0  0  0  0  0  0
    5.2438   -1.6541   -1.7226 N   0  0  0  0  0  0  0  0  0  0  0  0
    6.5024   -1.3460   -1.0654 C   0  0  0  0  0  0  0  0  0  0  0  0
    7.6288   -1.0374   -2.0513 C   0  0  0  0  0  0  0  0  0  0  0  0
    7.2409    0.0309   -2.9578 N   0  0  0  0  0  0  0  0  0  0  0  0
    6.0008   -0.2722   -3.6484 C   0  0  0  0  0  0  0  0  0  0  0  0
    4.8922   -0.5919   -2.6427 C   0  0  0  0  0  0  0  0  0  0  0  0
    8.2989    0.3978   -3.8622 C   0  0  0  0  0  0  0  0  0  0  0  0
    6.1568   -5.1384   -1.3754 C   0  0  0  0  0  0  0  0  0  0  0  0
    6.2706   -6.1444   -0.4155 C   0  0  0  0  0  0  0  0  0  0  0  0
    5.8731   -8.9974    2.9242 N   0  0  0  0  0  0  0  0  0  0  0  0
    6.5888  -10.1733    6.2757 C   0  0  0  0  0  0  0  0  0  0  0  0
    6.0824   -9.6638    7.4732 C   0  0  0  0  0  0  0  0  0  0  0  0
    4.7268   -9.4009    7.6205 C   0  0  0  0  0  0  0  0  0  0  0  0
    2.7379   -6.8933    7.1303 C   0  0  0  0  0  3  0  0  0  0  0  0
    3.8452   -6.5996    6.3385 C   0  0  0  0  0  3  0  0  0  0  0  0
    3.3723   -5.8985    4.1553 S   0  0  0  0  0  1  0  0  0  0  0  0
    2.6358   -7.3685    3.3800 C   0  0  0  0  0  0  0  0  0  0  0  0
    1.2168   -7.7764    3.8176 C   0  0  2  0  0  0  0  0  0  0  0  0
    1.2394   -8.2256    4.8110 H   0  0  0  0  0  0  0  0  0  0  0  0
    0.6914   -8.7794    2.9098 N   0  0  0  0  0  0  0  0  0  0  0  0
    0.8059  -10.1042    3.1119 C   0  0  0  0  0  0  0  0  0  0  0  0
    0.2477  -10.9890    2.0140 C   0  0  0  0  0  0  0  0  0  0  0  0
    1.3312  -10.5983    4.1040 O   0  0  0  0  0  0  0  0  0  0  0  0
    0.2349   -6.6089    3.8112 C   0  0  0  0  0  0  0  0  0  0  0  0
   -0.1407   -6.1820    5.0296 N   0  0  0  0  0  0  0  0  0  0  0  0
   -0.9760   -5.0271    5.2141 C   0  0  0  0  0  0  0  0  0  0  0  0
   -0.1717   -6.1538    2.7478 O   0  0  0  0  0  0  0  0  0  0  0  0
    1.8637   -9.8671    6.0719 H   0  0  0  0  0  0  0  0  0  0  0  0
    3.6478  -10.3896    4.5432 H   0  0  0  0  0  0  0  0  0  0  0  0
    7.3144  -10.5209   -0.2436 H   0  0  0  0  0  0  0  0  0  0  0  0
    5.0879   -6.7439    2.6654 H   0  0  0  0  0  0  0  0  0  0  0  0
    3.9906   -4.9646    1.8196 H   0  0  0  0  0  0  0  0  0  0  0  0
    3.8169   -3.1870    0.0978 H   0  0  0  0  0  0  0  0  0  0  0  0
    4.1545   -3.0718   -2.7549 H   0  0  0  0  0  0  0  0  0  0  0  0
    5.8875   -3.2004   -3.0797 H   0  0  0  0  0  0  0  0  0  0  0  0
    6.7866   -2.1833   -0.4119 H   0  0  0  0  0  0  0  0  0  0  0  0
    6.3484   -0.4613   -0.4243 H   0  0  0  0  0  0  0  0  0  0  0  0
    7.9059   -1.9621   -2.6114 H   0  0  0  0  0  0  0  0  0  0  0  0
    8.5279   -0.7248   -1.4955 H   0  0  0  0  0  0  0  0  0  0  0  0
    6.1290   -1.1265   -4.3558 H   0  0  0  0  0  0  0  0  0  0  0  0
    5.7076    0.5997   -4.2567 H   0  0  0  0  0  0  0  0  0  0  0  0
    3.9663   -0.8596   -3.1756 H   0  0  0  0  0  0  0  0  0  0  0  0
    4.6869    0.3215   -2.0574 H   0  0  0  0  0  0  0  0  0  0  0  0
    8.5884   -0.4273   -4.5543 H   0  0  0  0  0  0  0  0  0  0  0  0
    9.1979    0.6896   -3.2971 H   0  0  0  0  0  0  0  0  0  0  0  0
    7.9926    1.2583   -4.4781 H   0  0  0  0  0  0  0  0  0  0  0  0
    6.7829   -5.1944   -2.2716 H   0  0  0  0  0  0  0  0  0  0  0  0
    6.9557   -6.9737   -0.5658 H   0  0  0  0  0  0  0  0  0  0  0  0
    7.6513  -10.3746    6.1346 H   0  0  0  0  0  0  0  0  0  0  0  0
    6.7631   -9.4658    8.3046 H   0  0  0  0  0  0  0  0  0  0  0  0
    4.3357   -8.9724    8.5435 H   0  0  0  0  0  0  0  0  0  0  0  0
    2.1960   -6.0571    7.5813 H   0  0  0  0  0  0  0  0  0  0  0  0
    4.5049   -7.3773    5.9557 H   0  0  0  0  0  0  0  0  0  0  0  0
    4.3606   -5.6534    6.5204 H   0  0  0  0  0  0  0  0  0  0  0  0
    3.2912   -8.2428    3.5307 H   0  0  0  0  0  0  0  0  0  0  0  0
    2.5984   -7.1775    2.2938 H   0  0  0  0  0  0  0  0  0  0  0  0
    0.2494   -8.4095    2.0750 H   0  0  0  0  0  0  0  0  0  0  0  0
   -0.2920  -10.4343    1.2343 H   0  0  0  0  0  0  0  0  0  0  0  0
   -0.4228  -11.7299    2.4700 H   0  0  0  0  0  0  0  0  0  0  0  0
    1.0817  -11.5381    1.5535 H   0  0  0  0  0  0  0  0  0  0  0  0
    0.1892   -6.6942    5.8560 H   0  0  0  0  0  0  0  0  0  0  0  0
   -1.2912   -4.6693    4.2254 H   0  0  0  0  0  0  0  0  0  0  0  0
   -0.4291   -4.2187    5.7260 H   0  0  0  0  0  0  0  0  0  0  0  0
   -1.8701   -5.2741    5.8090 H   0  0  0  0  0  0  0  0  0  0  0  0
  2 33  1  0  0  0  0
  2  1  2  0  0  0  0
  3  2  1  0  0  0  0
  4  3  1  0  0  0  0
  4 32  1  0  0  0  0
  5  4  2  0  0  0  0
  6  5  1  0  0  0  0
  6 30  2  0  0  0  0
  7  6  1  0  0  0  0
  8  7  1  0  0  0  0
  9 10  1  1  0  0  0
  9  8  1  0  0  0  0
 11  9  1  0  0  0  0
 12 11  2  0  0  0  0
 12 13  1  0  0  0  0
 13 14  1  6  0  0  0
 13 29  1  0  0  0  0
 14 50  1  0  0  0  0
 15 16  1  0  0  0  0
 15 14  1  0  0  0  0
 16 51  1  0  0  0  0
 17 52  1  0  0  0  0
 17 16  2  0  0  0  0
 18 17  1  0  0  0  0
 19 20  1  0  0  0  0
 19 18  1  0  0  0  0
 20 21  1  0  0  0  0
 21 56  1  0  0  0  0
 21 55  1  0  0  0  0
 22 58  1  0  0  0  0
 22 21  1  0  0  0  0
 23 22  1  0  0  0  0
 24 23  1  0  0  0  0
 24 25  1  0  0  0  0
 25 62  1  0  0  0  0
 25 20  1  0  0  0  0
 26 64  1  0  0  0  0
 26 23  1  0  0  0  0
 27 18  2  0  0  0  0
 27 28  1  0  0  0  0
 28 15  2  0  0  0  0
 29  8  2  0  0  0  0
 30 31  1  0  0  0  0
 31 32  2  0  0  0  0
 31 69  1  0  0  0  0
 32 70  1  0  0  0  0
 33 71  1  0  0  0  0
 34 73  1  0  0  0  0
 34 33  1  0  0  0  0
 36 74  1  0  0  0  0
 36 37  1  0  0  0  0
 36 35  1  0  0  0  0
 37 38  1  1  0  0  0
 39 40  1  0  0  0  0
 39 37  1  0  0  0  0
 40 42  2  0  0  0  0
 41 78  1  0  0  0  0
 41 40  1  0  0  0  0
 43 37  1  0  0  0  0
 43 44  1  0  0  0  0
 44 45  1  0  0  0  0
 44 80  1  0  0  0  0
 45 82  1  0  0  0  0
 45 83  1  0  0  0  0
 46 43  2  0  0  0  0
 47  3  1  0  0  0  0
 48  5  1  0  0  0  0
 49 11  1  0  0  0  0
 53 19  1  0  0  0  0
 54 19  1  0  0  0  0
 57 22  1  0  0  0  0
 59 24  1  0  0  0  0
 60 24  1  0  0  0  0
 61 25  1  0  0  0  0
 63 26  1  0  0  0  0
 65 26  1  0  0  0  0
 66 27  1  0  0  0  0
 67 28  1  0  0  0  0
 68 30  1  0  0  0  0
 72 34  1  0  0  0  0
 75 36  1  0  0  0  0
 76 39  1  0  0  0  0
 77 41  1  0  0  0  0
 79 41  1  0  0  0  0
 81 45  1  0  0  0  0
M  END
