83
-1 1
O        -3.721004   -1.185185    4.611337
C        -2.474868   -1.079703    4.447572
N        -1.830008   -2.308058    4.075072
C        -0.480608   -2.590362    4.055304
C         0.079596   -3.217477    2.930571
C         1.450478   -3.408131    2.871235
O         2.007352   -3.970168    1.721485
C         2.066435   -3.258047    0.602354
C         2.604103   -3.887931   -0.544958
Cl         3.158779   -5.532569   -0.512440
C         2.666511   -3.119172   -1.689387
N         2.249421   -1.856454   -1.739434
C         1.751189   -1.346682   -0.609408
N         1.291312   -0.064367   -0.574791
C         1.186274    0.896012   -1.591293
C         0.482044    2.074525   -1.278701
C         0.334687    3.083365   -2.217731
C         0.879279    2.962593   -3.502123
C         0.697183    4.060786   -4.523001
N         1.036530    5.373680   -3.996828
C         2.419171    5.532487   -3.579176
C         3.376173    5.738362   -4.752876
N         2.949548    6.859768   -5.573276
C         1.580251    6.703760   -6.028434
C         0.642515    6.485286   -4.839064
C         3.861442    7.131234   -6.653656
C         1.582175    1.797367   -3.800854
C         1.739889    0.767924   -2.872039
N         1.654377   -2.013023    0.556693
C         2.303737   -3.062024    3.909337
C         1.731903   -2.489870    5.050261
C         0.366848   -2.255551    5.131626
C        -1.755792    0.112604    4.494762
C        -0.575274    0.461915    3.682363
S        -0.959403    1.131793    1.954163
C        -1.643442   -0.300942    1.078440
C        -3.092858   -0.747075    1.360016
H        -3.150529   -1.320381    2.285546
N        -3.528395   -1.616244    0.284626
C        -3.296633   -2.944154    0.275252
C        -3.757048   -3.684334   -0.966006
O        -2.745265   -3.537816    1.192787
C        -4.078158    0.416660    1.432388
N        -4.552854    0.665932    2.659701
C        -5.414008    1.784299    2.929487
O        -4.386808    1.017221    0.405392
H        -2.397415   -2.865229    3.440780
H        -0.562092   -3.479525    2.086477
H         3.074965   -3.548668   -2.610282
H         0.901905    0.211803    0.329992
H         0.042916    2.184036   -0.283650
H        -0.207572    3.993579   -1.951628
H        -0.363631    4.102807   -4.826187
H         1.264104    3.787396   -5.439264
H         2.724530    4.657097   -2.988012
H         2.480470    6.415972   -2.920964
H         3.445730    4.800657   -5.354189
H         4.389269    5.941758   -4.369234
H         1.485878    5.854319   -6.747002
H         1.278518    7.613286   -6.574173
H        -0.387776    6.328515   -5.195031
H         0.646408    7.403540   -4.226222
H         3.931640    6.294342   -7.387318
H         4.873306    7.315052   -6.259809
H         3.543843    8.031465   -7.203193
H         2.028713    1.679347   -4.793208
H         2.284724   -0.135629   -3.129879
H         3.377283   -3.229047    3.816124
H         2.373912   -2.212135    5.890059
H        -0.069134   -1.762606    6.000927
H        -2.351064    0.960033    4.849700
H         0.141212   -0.347418    3.502306
H        -0.005003    1.308658    4.097892
H        -0.977582   -1.166948    1.223544
H        -1.589425   -0.014809    0.015900
H        -3.960740   -1.144131   -0.502606
H        -4.328376   -3.057931   -1.664608
H        -4.370173   -4.540715   -0.654127
H        -2.871132   -4.083305   -1.480897
H        -4.273614    0.045341    3.450527
H        -5.634087    2.295557    1.983111
H        -4.929601    2.496973    3.616863
H        -6.360267    1.454593    3.388500
