-1 1
 OpenBabel05232413483D

 83 85  0  0  1  0  0  0  0  0999 V2000
   -3.7711   -1.7136    4.5520 O   0  0  0  0  0  0  0  0  0  0  0  0
   -2.5635   -1.6981    4.7276 C   0  0  0  0  0  0  0  0  0  0  0  0
   -1.7431   -2.4574    3.9360 N   0  0  0  0  0  0  0  0  0  0  0  0
   -0.3845   -2.7751    4.0121 C   0  0  0  0  0  0  0  0  0  0  0  0
    0.2422   -3.1760    2.8237 C   0  0  0  0  0  0  0  0  0  0  0  0
    1.5831   -3.5265    2.8367 C   0  0  0  0  0  0  0  0  0  0  0  0
    2.2112   -3.9950    1.6911 O   0  0  0  0  0  0  0  0  0  0  0  0
    2.2990   -3.2551    0.5836 C   0  0  0  0  0  0  0  0  0  0  0  0
    2.9276   -3.8368   -0.5412 C   0  0  2  0  0  3  0  0  0  0  0  0
    3.5600   -5.4558   -0.5144 Cl  0  0  0  0  0  0  0  0  0  0  0  0
    3.0173   -3.0348   -1.6635 C   0  0  0  0  0  0  0  0  0  0  0  0
    2.5428   -1.7944   -1.7126 N   0  0  0  0  0  0  0  0  0  0  0  0
    1.9515   -1.3319   -0.6012 C   0  0  1  0  0  3  0  0  0  0  0  0
    1.4143   -0.0903   -0.5578 N   0  0  0  0  0  0  0  0  0  0  0  0
    1.2530    0.8641   -1.5682 C   0  0  0  0  0  0  0  0  0  0  0  0
    0.4081    1.9528   -1.2701 C   0  0  0  0  0  0  0  0  0  0  0  0
    0.1883    2.9514   -2.2053 C   0  0  0  0  0  0  0  0  0  0  0  0
    0.7935    2.9109   -3.4686 C   0  0  0  0  0  0  0  0  0  0  0  0
    0.5307    3.9968   -4.4844 C   0  0  0  0  0  0  0  0  0  0  0  0
    0.7241    5.3330   -3.9399 N   0  0  0  0  0  0  0  0  0  0  0  0
    2.0662    5.6172   -3.4618 C   0  0  0  0  0  0  0  0  0  0  0  0
    3.0503    5.9158   -4.5924 C   0  0  0  0  0  0  0  0  0  0  0  0
    2.5581    6.9970   -5.4309 N   0  0  0  0  0  0  0  0  0  0  0  0
    1.2298    6.7176   -5.9449 C   0  0  0  0  0  0  0  0  0  0  0  0
    0.2660    6.4072   -4.7971 C   0  0  0  0  0  0  0  0  0  0  0  0
    3.4865    7.3539   -6.4713 C   0  0  0  0  0  0  0  0  0  0  0  0
    1.6350    1.8369   -3.7506 C   0  0  0  0  0  0  0  0  0  0  0  0
    1.8700    0.8180   -2.8258 C   0  0  0  0  0  0  0  0  0  0  0  0
    1.8340   -2.0369    0.5436 N   0  0  0  0  0  0  0  0  0  0  0  0
    2.3378   -3.5054    4.0043 C   0  0  0  0  0  0  0  0  0  0  0  0
    1.7008   -3.1415    5.1884 C   0  0  0  0  0  0  0  0  0  0  0  0
    0.3544   -2.7920    5.2055 C   0  0  0  0  0  0  0  0  0  0  0  0
   -2.0012   -0.7835    5.7716 C   0  0  0  0  0  0  0  0  0  0  0  0
   -1.0424    0.1105    5.5303 C   0  0  0  0  0  0  0  0  0  0  0  0
   -0.5916    0.5966    1.9136 S   0  0  0  0  0  1  0  0  0  0  0  0
   -1.5593   -0.5053    0.8223 C   0  0  0  0  0  0  0  0  0  0  0  0
   -3.0690   -0.5816    1.1288 C   0  0  2  0  0  0  0  0  0  0  0  0
   -3.2123   -0.7197    2.2141 H   0  0  0  0  0  0  0  0  0  0  0  0
   -3.7191   -1.6614    0.4115 N   0  0  0  0  0  0  0  0  0  0  0  0
   -3.5580   -2.9687    0.6446 C   0  0  0  0  0  0  0  0  0  0  0  0
   -4.3900   -3.8978   -0.2183 C   0  0  0  0  0  0  0  0  0  0  0  0
   -2.7927   -3.4388    1.4851 O   0  0  0  0  0  0  0  0  0  0  0  0
   -3.8305    0.6874    0.7015 C   0  0  0  0  0  0  0  0  0  0  0  0
   -3.3466    1.8341    1.2015 N   0  0  0  0  0  0  0  0  0  0  0  0
   -3.8685    3.1186    0.8198 C   0  0  0  0  0  0  0  0  0  0  0  0
   -4.8031    0.6144   -0.0468 O   0  0  0  0  0  0  0  0  0  0  0  0
   -2.2223   -2.8133    3.0954 H   0  0  0  0  0  0  0  0  0  0  0  0
   -0.3343   -3.2110    1.8997 H   0  0  0  0  0  0  0  0  0  0  0  0
    3.4998   -3.4226   -2.5674 H   0  0  0  0  0  0  0  0  0  0  0  0
    0.9448    0.1358    0.3455 H   0  0  0  0  0  0  0  0  0  0  0  0
   -0.0697    1.9847   -0.2837 H   0  0  0  0  0  0  0  0  0  0  0  0
   -0.4612    3.7939   -1.9545 H   0  0  0  0  0  0  0  0  0  0  0  0
   -0.5205    3.9393   -4.8178 H   0  0  0  0  0  0  0  0  0  0  0  0
    1.1469    3.7916   -5.3867 H   0  0  0  0  0  0  0  0  0  0  0  0
    2.4248    4.7709   -2.8585 H   0  0  0  0  0  0  0  0  0  0  0  0
    2.0168    6.4999   -2.8013 H   0  0  0  0  0  0  0  0  0  0  0  0
    3.2318    4.9912   -5.1902 H   0  0  0  0  0  0  0  0  0  0  0  0
    4.0227    6.2105   -4.1651 H   0  0  0  0  0  0  0  0  0  0  0  0
    1.2453    5.8665   -6.6674 H   0  0  0  0  0  0  0  0  0  0  0  0
    0.8691    7.5982   -6.5025 H   0  0  0  0  0  0  0  0  0  0  0  0
   -0.7288    6.1573   -5.1984 H   0  0  0  0  0  0  0  0  0  0  0  0
    0.1583    7.3196   -4.1846 H   0  0  0  0  0  0  0  0  0  0  0  0
    3.6640    6.5295   -7.2011 H   0  0  0  0  0  0  0  0  0  0  0  0
    4.4599    7.6276   -6.0347 H   0  0  0  0  0  0  0  0  0  0  0  0
    3.1121    8.2234   -7.0346 H   0  0  0  0  0  0  0  0  0  0  0  0
    2.1306    1.7851   -4.7255 H   0  0  0  0  0  0  0  0  0  0  0  0
    2.5218   -0.0163   -3.0702 H   0  0  0  0  0  0  0  0  0  0  0  0
    3.3907   -3.7872    3.9736 H   0  0  0  0  0  0  0  0  0  0  0  0
    2.2638   -3.1399    6.1247 H   0  0  0  0  0  0  0  0  0  0  0  0
   -0.1231   -2.5281    6.1468 H   0  0  0  0  0  0  0  0  0  0  0  0
   -2.5628   -0.7859    6.7114 H   0  0  0  0  0  0  0  0  0  0  0  0
   -0.5448    0.1560    4.5529 H   0  0  0  0  0  0  0  0  0  0  0  0
   -0.7633    0.8468    6.2896 H   0  0  0  0  0  0  0  0  0  0  0  0
   -1.1629   -1.5263    0.9095 H   0  0  0  0  0  0  0  0  0  0  0  0
   -1.4432   -0.2100   -0.2374 H   0  0  0  0  0  0  0  0  0  0  0  0
   -4.4424   -1.3240   -0.2225 H   0  0  0  0  0  0  0  0  0  0  0  0
   -5.0172   -3.3727   -0.9512 H   0  0  0  0  0  0  0  0  0  0  0  0
   -5.0268   -4.5049    0.4406 H   0  0  0  0  0  0  0  0  0  0  0  0
   -3.7113   -4.5841   -0.7438 H   0  0  0  0  0  0  0  0  0  0  0  0
   -2.4204    1.7663    1.6635 H   0  0  0  0  0  0  0  0  0  0  0  0
   -4.8622    2.9801    0.3746 H   0  0  0  0  0  0  0  0  0  0  0  0
   -3.2225    3.6182    0.0772 H   0  0  0  0  0  0  0  0  0  0  0  0
   -3.9548    3.7762    1.6984 H   0  0  0  0  0  0  0  0  0  0  0  0
  1  2  2  0  0  0  0
  2 33  1  0  0  0  0
  3  4  1  0  0  0  0
  3  2  1  0  0  0  0
  4 32  1  0  0  0  0
  5  6  1  0  0  0  0
  5  4  2  0  0  0  0
  6 30  2  0  0  0  0
  7  6  1  0  0  0  0
  8  7  1  0  0  0  0
  9 10  1  1  0  0  0
  9  8  1  0  0  0  0
 11  9  1  0  0  0  0
 12 11  2  0  0  0  0
 12 13  1  0  0  0  0
 13 14  1  6  0  0  0
 13 29  1  0  0  0  0
 14 50  1  0  0  0  0
 15 16  1  0  0  0  0
 15 14  1  0  0  0  0
 16 51  1  0  0  0  0
 17 52  1  0  0  0  0
 17 16  2  0  0  0  0
 18 17  1  0  0  0  0
 19 20  1  0  0  0  0
 19 18  1  0  0  0  0
 20 21  1  0  0  0  0
 21 55  1  0  0  0  0
 21 56  1  0  0  0  0
 22 58  1  0  0  0  0
 22 21  1  0  0  0  0
 23 22  1  0  0  0  0
 24 23  1  0  0  0  0
 24 25  1  0  0  0  0
 25 62  1  0  0  0  0
 25 20  1  0  0  0  0
 26 64  1  0  0  0  0
 26 23  1  0  0  0  0
 27 18  2  0  0  0  0
 27 28  1  0  0  0  0
 28 15  2  0  0  0  0
 29  8  2  0  0  0  0
 30 31  1  0  0  0  0
 31 32  2  0  0  0  0
 31 69  1  0  0  0  0
 32 70  1  0  0  0  0
 33 71  1  0  0  0  0
 34 33  2  0  0  0  0
 34 73  1  0  0  0  0
 36 74  1  0  0  0  0
 36 37  1  0  0  0  0
 36 35  1  0  0  0  0
 37 38  1  1  0  0  0
 39 40  1  0  0  0  0
 39 37  1  0  0  0  0
 40 42  2  0  0  0  0
 41 78  1  0  0  0  0
 41 40  1  0  0  0  0
 43 37  1  0  0  0  0
 43 44  1  0  0  0  0
 44 80  1  0  0  0  0
 45 44  1  0  0  0  0
 45 83  1  0  0  0  0
 46 43  2  0  0  0  0
 47  3  1  0  0  0  0
 48  5  1  0  0  0  0
 49 11  1  0  0  0  0
 53 19  1  0  0  0  0
 54 19  1  0  0  0  0
 57 22  1  0  0  0  0
 59 24  1  0  0  0  0
 60 24  1  0  0  0  0
 61 25  1  0  0  0  0
 63 26  1  0  0  0  0
 65 26  1  0  0  0  0
 66 27  1  0  0  0  0
 67 28  1  0  0  0  0
 68 30  1  0  0  0  0
 72 34  1  0  0  0  0
 75 36  1  0  0  0  0
 76 39  1  0  0  0  0
 77 41  1  0  0  0  0
 79 41  1  0  0  0  0
 81 45  1  0  0  0  0
 82 45  1  0  0  0  0
M  END
