83
-1 1
O        -3.771054   -1.713590    4.551952
C        -2.563476   -1.698076    4.727613
N        -1.743054   -2.457396    3.936032
C        -0.384520   -2.775092    4.012145
C         0.242157   -3.176023    2.823672
C         1.583148   -3.526487    2.836694
O         2.211242   -3.995045    1.691094
C         2.298992   -3.255143    0.583589
C         2.927569   -3.836783   -0.541162
Cl         3.559967   -5.455827   -0.514415
C         3.017282   -3.034780   -1.663464
N         2.542848   -1.794365   -1.712637
C         1.951522   -1.331936   -0.601250
N         1.414295   -0.090264   -0.557809
C         1.253027    0.864141   -1.568180
C         0.408101    1.952810   -1.270086
C         0.188302    2.951352   -2.205265
C         0.793534    2.910947   -3.468590
C         0.530707    3.996845   -4.484357
N         0.724099    5.333020   -3.939869
C         2.066214    5.617185   -3.461808
C         3.050278    5.915835   -4.592422
N         2.558106    6.996974   -5.430886
C         1.229777    6.717590   -5.944894
C         0.266023    6.407212   -4.797132
C         3.486536    7.353930   -6.471316
C         1.635045    1.836941   -3.750626
C         1.869975    0.817965   -2.825751
N         1.833981   -2.036913    0.543582
C         2.337795   -3.505351    4.004303
C         1.700780   -3.141547    5.188354
C         0.354353   -2.791970    5.205454
C        -2.001183   -0.783526    5.771591
C        -1.042440    0.110497    5.530301
S        -0.591631    0.596558    1.913569
C        -1.559279   -0.505310    0.822344
C        -3.069042   -0.581556    1.128777
H        -3.212313   -0.719669    2.214127
N        -3.719069   -1.661369    0.411534
C        -3.557975   -2.968722    0.644612
C        -4.390029   -3.897791   -0.218300
O        -2.792687   -3.438800    1.485130
C        -3.830466    0.687418    0.701500
N        -3.346583    1.834115    1.201462
C        -3.868495    3.118585    0.819848
O        -4.803074    0.614354   -0.046828
H        -2.222309   -2.813274    3.095430
H        -0.334287   -3.211041    1.899747
H         3.499791   -3.422590   -2.567378
H         0.944760    0.135839    0.345486
H        -0.069728    1.984672   -0.283674
H        -0.461212    3.793921   -1.954459
H        -0.520497    3.939299   -4.817825
H         1.146853    3.791616   -5.386667
H         2.424772    4.770931   -2.858458
H         2.016837    6.499891   -2.801310
H         3.231842    4.991154   -5.190182
H         4.022688    6.210471   -4.165083
H         1.245324    5.866503   -6.667389
H         0.869142    7.598210   -6.502459
H        -0.728764    6.157301   -5.198434
H         0.158272    7.319599   -4.184605
H         3.664040    6.529466   -7.201077
H         4.459901    7.627582   -6.034746
H         3.112053    8.223448   -7.034566
H         2.130607    1.785060   -4.725524
H         2.521822   -0.016330   -3.070185
H         3.390743   -3.787156    3.973573
H         2.263807   -3.139927    6.124730
H        -0.123119   -2.528103    6.146843
H        -2.562752   -0.785890    6.711437
H        -0.544825    0.155974    4.552866
H        -0.763265    0.846801    6.289616
H        -1.162878   -1.526306    0.909546
H        -1.443202   -0.210038   -0.237440
H        -4.442397   -1.323967   -0.222459
H        -5.017197   -3.372713   -0.951171
H        -5.026766   -4.504942    0.440563
H        -3.711324   -4.584128   -0.743807
H        -2.420377    1.766347    1.663512
H        -4.862192    2.980052    0.374553
H        -3.222549    3.618244    0.077204
H        -3.954820    3.776192    1.698408
