83
-1 1
O         0.694607   -8.055888    7.162935
C         1.928469   -8.076645    7.027331
N         2.490659   -9.307174    6.650255
C         3.842754   -9.629947    6.553241
C         4.333802  -10.189903    5.367844
C         5.694417  -10.428922    5.244743
O         6.194990  -10.974947    4.069293
C         6.267498  -10.246433    2.955404
C         6.803055  -10.878201    1.810303
Cl         7.329730  -12.533631    1.832062
C         6.898114  -10.095509    0.676212
N         6.506215   -8.827594    0.637223
C         5.992472   -8.316395    1.763803
N         5.543196   -7.036044    1.785886
C         5.486483   -6.093818    0.744632
C         4.599999   -5.013215    0.911314
C         4.502818   -4.023558   -0.055233
C         5.275374   -4.069860   -1.222219
C         5.146718   -2.995901   -2.276352
N         5.243843   -1.654070   -1.722567
C         6.502366   -1.346047   -1.065407
C         7.628794   -1.037386   -2.051251
N         7.240877    0.030936   -2.957781
C         6.000820   -0.272162   -3.648366
C         4.892247   -0.591887   -2.642721
C         8.298853    0.397849   -3.862207
C         6.156801   -5.138376   -1.375444
C         6.270646   -6.144410   -0.415469
N         5.873114   -8.997377    2.924164
C         6.588770  -10.173259    6.275685
C         6.082428   -9.663813    7.473233
C         4.726823   -9.400941    7.620518
C         2.737909   -6.893333    7.130301
C         3.845212   -6.599586    6.338487
S         3.372253   -5.898521    4.155308
C         2.635770   -7.368542    3.379953
C         1.216765   -7.776446    3.817571
H         1.239402   -8.225613    4.810962
N         0.691415   -8.779413    2.909828
C         0.805903  -10.104159    3.111908
C         0.247692  -10.988966    2.013973
O         1.331154  -10.598349    4.103959
C         0.234873   -6.608937    3.811174
N        -0.140655   -6.182010    5.029577
C        -0.975971   -5.027120    5.214060
O        -0.171653   -6.153799    2.747788
H         1.863712   -9.867067    6.071893
H         3.647817  -10.389613    4.543163
H         7.314368  -10.520889   -0.243568
H         5.087945   -6.743932    2.665405
H         3.990579   -4.964610    1.819613
H         3.816927   -3.186956    0.097773
H         4.154458   -3.071776   -2.754890
H         5.887542   -3.200427   -3.079726
H         6.786630   -2.183262   -0.411910
H         6.348377   -0.461275   -0.424274
H         7.905887   -1.962092   -2.611353
H         8.527903   -0.724752   -1.495530
H         6.129033   -1.126499   -4.355838
H         5.707554    0.599738   -4.256730
H         3.966289   -0.859579   -3.175597
H         4.686925    0.321454   -2.057369
H         8.588432   -0.427343   -4.554330
H         9.197939    0.689594   -3.297062
H         7.992570    1.258262   -4.478097
H         6.782936   -5.194387   -2.271644
H         6.955722   -6.973733   -0.565792
H         7.651285  -10.374634    6.134557
H         6.763141   -9.465756    8.304561
H         4.335726   -8.972448    8.543514
H         2.196044   -6.057101    7.581314
H         4.504903   -7.377347    5.955724
H         4.360638   -5.653440    6.520367
H         3.291158   -8.242802    3.530726
H         2.598403   -7.177461    2.293817
H         0.249441   -8.409466    2.074994
H        -0.291963  -10.434342    1.234290
H        -0.422818  -11.729946    2.469967
H         1.081676  -11.538144    1.553489
H         0.189202   -6.694205    5.855983
H        -1.291192   -4.669282    4.225372
H        -0.429147   -4.218678    5.726049
H        -1.870072   -5.274120    5.808998
