-1 1
 OpenBabel05192410563D

 83 86  0  0  1  0  0  0  0  0999 V2000
   -3.7210   -1.1852    4.6113 O   0  0  0  0  0  0  0  0  0  0  0  0
   -2.4749   -1.0797    4.4476 C   0  0  0  0  0  0  0  0  0  0  0  0
   -1.8300   -2.3081    4.0751 N   0  0  0  0  0  0  0  0  0  0  0  0
   -0.4806   -2.5904    4.0553 C   0  0  0  0  0  0  0  0  0  0  0  0
    0.0796   -3.2175    2.9306 C   0  0  0  0  0  0  0  0  0  0  0  0
    1.4505   -3.4081    2.8712 C   0  0  0  0  0  0  0  0  0  0  0  0
    2.0074   -3.9702    1.7215 O   0  0  0  0  0  0  0  0  0  0  0  0
    2.0664   -3.2580    0.6024 C   0  0  0  0  0  0  0  0  0  0  0  0
    2.6041   -3.8879   -0.5450 C   0  0  2  0  0  3  0  0  0  0  0  0
    3.1588   -5.5326   -0.5124 Cl  0  0  0  0  0  0  0  0  0  0  0  0
    2.6665   -3.1192   -1.6894 C   0  0  0  0  0  0  0  0  0  0  0  0
    2.2494   -1.8565   -1.7394 N   0  0  0  0  0  0  0  0  0  0  0  0
    1.7512   -1.3467   -0.6094 C   0  0  1  0  0  3  0  0  0  0  0  0
    1.2913   -0.0644   -0.5748 N   0  0  0  0  0  0  0  0  0  0  0  0
    1.1863    0.8960   -1.5913 C   0  0  0  0  0  0  0  0  0  0  0  0
    0.4820    2.0745   -1.2787 C   0  0  0  0  0  0  0  0  0  0  0  0
    0.3347    3.0834   -2.2177 C   0  0  0  0  0  0  0  0  0  0  0  0
    0.8793    2.9626   -3.5021 C   0  0  0  0  0  0  0  0  0  0  0  0
    0.6972    4.0608   -4.5230 C   0  0  0  0  0  0  0  0  0  0  0  0
    1.0365    5.3737   -3.9968 N   0  0  0  0  0  0  0  0  0  0  0  0
    2.4192    5.5325   -3.5792 C   0  0  0  0  0  0  0  0  0  0  0  0
    3.3762    5.7384   -4.7529 C   0  0  0  0  0  0  0  0  0  0  0  0
    2.9495    6.8598   -5.5733 N   0  0  0  0  0  0  0  0  0  0  0  0
    1.5803    6.7038   -6.0284 C   0  0  0  0  0  0  0  0  0  0  0  0
    0.6425    6.4853   -4.8391 C   0  0  0  0  0  0  0  0  0  0  0  0
    3.8614    7.1312   -6.6537 C   0  0  0  0  0  0  0  0  0  0  0  0
    1.5822    1.7974   -3.8009 C   0  0  0  0  0  0  0  0  0  0  0  0
    1.7399    0.7679   -2.8720 C   0  0  0  0  0  0  0  0  0  0  0  0
    1.6544   -2.0130    0.5567 N   0  0  0  0  0  0  0  0  0  0  0  0
    2.3037   -3.0620    3.9093 C   0  0  0  0  0  0  0  0  0  0  0  0
    1.7319   -2.4899    5.0503 C   0  0  0  0  0  0  0  0  0  0  0  0
    0.3668   -2.2556    5.1316 C   0  0  0  0  0  0  0  0  0  0  0  0
   -1.7558    0.1126    4.4948 C   0  0  0  0  0  3  0  0  0  0  0  0
   -0.5753    0.4619    3.6824 C   0  0  0  0  0  0  0  0  0  0  0  0
   -0.9594    1.1318    1.9542 S   0  0  0  0  0  0  0  0  0  0  0  0
   -1.6434   -0.3009    1.0784 C   0  0  0  0  0  0  0  0  0  0  0  0
   -3.0929   -0.7471    1.3600 C   0  0  2  0  0  0  0  0  0  0  0  0
   -3.1505   -1.3204    2.2855 H   0  0  0  0  0  0  0  0  0  0  0  0
   -3.5284   -1.6162    0.2846 N   0  0  0  0  0  0  0  0  0  0  0  0
   -3.2966   -2.9442    0.2753 C   0  0  0  0  0  0  0  0  0  0  0  0
   -3.7570   -3.6843   -0.9660 C   0  0  0  0  0  0  0  0  0  0  0  0
   -2.7453   -3.5378    1.1928 O   0  0  0  0  0  0  0  0  0  0  0  0
   -4.0782    0.4167    1.4324 C   0  0  0  0  0  0  0  0  0  0  0  0
   -4.5529    0.6659    2.6597 N   0  0  0  0  0  0  0  0  0  0  0  0
   -5.4140    1.7843    2.9295 C   0  0  0  0  0  0  0  0  0  0  0  0
   -4.3868    1.0172    0.4054 O   0  0  0  0  0  0  0  0  0  0  0  0
   -2.3974   -2.8652    3.4408 H   0  0  0  0  0  0  0  0  0  0  0  0
   -0.5621   -3.4795    2.0865 H   0  0  0  0  0  0  0  0  0  0  0  0
    3.0750   -3.5487   -2.6103 H   0  0  0  0  0  0  0  0  0  0  0  0
    0.9019    0.2118    0.3300 H   0  0  0  0  0  0  0  0  0  0  0  0
    0.0429    2.1840   -0.2837 H   0  0  0  0  0  0  0  0  0  0  0  0
   -0.2076    3.9936   -1.9516 H   0  0  0  0  0  0  0  0  0  0  0  0
   -0.3636    4.1028   -4.8262 H   0  0  0  0  0  0  0  0  0  0  0  0
    1.2641    3.7874   -5.4393 H   0  0  0  0  0  0  0  0  0  0  0  0
    2.7245    4.6571   -2.9880 H   0  0  0  0  0  0  0  0  0  0  0  0
    2.4805    6.4160   -2.9210 H   0  0  0  0  0  0  0  0  0  0  0  0
    3.4457    4.8007   -5.3542 H   0  0  0  0  0  0  0  0  0  0  0  0
    4.3893    5.9418   -4.3692 H   0  0  0  0  0  0  0  0  0  0  0  0
    1.4859    5.8543   -6.7470 H   0  0  0  0  0  0  0  0  0  0  0  0
    1.2785    7.6133   -6.5742 H   0  0  0  0  0  0  0  0  0  0  0  0
   -0.3878    6.3285   -5.1950 H   0  0  0  0  0  0  0  0  0  0  0  0
    0.6464    7.4035   -4.2262 H   0  0  0  0  0  0  0  0  0  0  0  0
    3.9316    6.2943   -7.3873 H   0  0  0  0  0  0  0  0  0  0  0  0
    4.8733    7.3151   -6.2598 H   0  0  0  0  0  0  0  0  0  0  0  0
    3.5438    8.0315   -7.2032 H   0  0  0  0  0  0  0  0  0  0  0  0
    2.0287    1.6793   -4.7932 H   0  0  0  0  0  0  0  0  0  0  0  0
    2.2847   -0.1356   -3.1299 H   0  0  0  0  0  0  0  0  0  0  0  0
    3.3773   -3.2290    3.8161 H   0  0  0  0  0  0  0  0  0  0  0  0
    2.3739   -2.2121    5.8901 H   0  0  0  0  0  0  0  0  0  0  0  0
   -0.0691   -1.7626    6.0009 H   0  0  0  0  0  0  0  0  0  0  0  0
   -2.3511    0.9600    4.8497 H   0  0  0  0  0  0  0  0  0  0  0  0
    0.1412   -0.3474    3.5023 H   0  0  0  0  0  0  0  0  0  0  0  0
   -0.0050    1.3087    4.0979 H   0  0  0  0  0  0  0  0  0  0  0  0
   -0.9776   -1.1669    1.2235 H   0  0  0  0  0  0  0  0  0  0  0  0
   -1.5894   -0.0148    0.0159 H   0  0  0  0  0  0  0  0  0  0  0  0
   -3.9607   -1.1441   -0.5026 H   0  0  0  0  0  0  0  0  0  0  0  0
   -4.3284   -3.0579   -1.6646 H   0  0  0  0  0  0  0  0  0  0  0  0
   -4.3702   -4.5407   -0.6541 H   0  0  0  0  0  0  0  0  0  0  0  0
   -2.8711   -4.0833   -1.4809 H   0  0  0  0  0  0  0  0  0  0  0  0
   -4.2736    0.0453    3.4505 H   0  0  0  0  0  0  0  0  0  0  0  0
   -5.6341    2.2956    1.9831 H   0  0  0  0  0  0  0  0  0  0  0  0
   -4.9296    2.4970    3.6169 H   0  0  0  0  0  0  0  0  0  0  0  0
   -6.3603    1.4546    3.3885 H   0  0  0  0  0  0  0  0  0  0  0  0
  2 33  1  0  0  0  0
  2  1  2  0  0  0  0
  3  2  1  0  0  0  0
  4  3  1  0  0  0  0
  4 32  1  0  0  0  0
  5  4  2  0  0  0  0
  6  5  1  0  0  0  0
  6 30  2  0  0  0  0
  7  6  1  0  0  0  0
  8  7  1  0  0  0  0
  9 10  1  1  0  0  0
  9  8  1  0  0  0  0
 11  9  1  0  0  0  0
 12 11  2  0  0  0  0
 12 13  1  0  0  0  0
 13 14  1  6  0  0  0
 13 29  1  0  0  0  0
 14 50  1  0  0  0  0
 15 16  1  0  0  0  0
 15 14  1  0  0  0  0
 16 51  1  0  0  0  0
 17 52  1  0  0  0  0
 17 16  2  0  0  0  0
 18 17  1  0  0  0  0
 19 20  1  0  0  0  0
 19 18  1  0  0  0  0
 20 21  1  0  0  0  0
 21 55  1  0  0  0  0
 21 56  1  0  0  0  0
 22 58  1  0  0  0  0
 22 21  1  0  0  0  0
 23 22  1  0  0  0  0
 24 23  1  0  0  0  0
 24 25  1  0  0  0  0
 25 62  1  0  0  0  0
 25 20  1  0  0  0  0
 26 64  1  0  0  0  0
 26 23  1  0  0  0  0
 27 18  2  0  0  0  0
 27 28  1  0  0  0  0
 28 15  2  0  0  0  0
 29  8  2  0  0  0  0
 30 31  1  0  0  0  0
 31 32  2  0  0  0  0
 31 69  1  0  0  0  0
 32 70  1  0  0  0  0
 33 71  1  0  0  0  0
 34 73  1  0  0  0  0
 34 33  1  0  0  0  0
 35 34  1  0  0  0  0
 36 74  1  0  0  0  0
 36 37  1  0  0  0  0
 36 35  1  0  0  0  0
 37 43  1  0  0  0  0
 37 38  1  1  0  0  0
 39 37  1  0  0  0  0
 40 39  1  0  0  0  0
 40 42  2  0  0  0  0
 41 78  1  0  0  0  0
 41 40  1  0  0  0  0
 43 44  1  0  0  0  0
 44 45  1  0  0  0  0
 44 80  1  0  0  0  0
 45 83  1  0  0  0  0
 45 82  1  0  0  0  0
 46 43  2  0  0  0  0
 47  3  1  0  0  0  0
 48  5  1  0  0  0  0
 49 11  1  0  0  0  0
 53 19  1  0  0  0  0
 54 19  1  0  0  0  0
 57 22  1  0  0  0  0
 59 24  1  0  0  0  0
 60 24  1  0  0  0  0
 61 25  1  0  0  0  0
 63 26  1  0  0  0  0
 65 26  1  0  0  0  0
 66 27  1  0  0  0  0
 67 28  1  0  0  0  0
 68 30  1  0  0  0  0
 72 34  1  0  0  0  0
 75 36  1  0  0  0  0
 76 39  1  0  0  0  0
 77 41  1  0  0  0  0
 79 41  1  0  0  0  0
 81 45  1  0  0  0  0
M  END
