83
-1 1
O        -1.494270   -0.389612   -6.006776
C        -1.435746    0.594284   -5.217177
N        -2.151632    0.390584   -3.982206
C        -2.916920    1.221371   -3.217152
C        -3.445504    0.715169   -2.007218
C        -4.233494    1.526135   -1.211327
O        -4.814214    1.008473   -0.044754
C        -4.079912    0.604443    0.974181
C        -4.747168    0.044365    2.093266
Cl        -6.473218   -0.118733    2.136158
C        -3.952734   -0.354354    3.147998
N        -2.622564   -0.242079    3.140676
C        -2.091019    0.287015    2.041746
N        -0.732754    0.426163    1.912521
C         0.303681    0.126163    2.796956
C         1.621491    0.002262    2.314919
C         1.904426    0.080455    0.834663
F         1.439879    1.222206    0.298605
F         3.206402    0.020472    0.555880
F         1.313280   -0.925664    0.176305
C         2.687741   -0.236297    3.183600
C         2.490858   -0.399238    4.557723
N         3.545663   -0.672806    5.449513
C         3.671549    0.213063    6.600785
C         4.595139   -0.405614    7.650149
N         5.897073   -0.775028    7.125818
C         5.733813   -1.631062    5.965419
C         4.830267   -1.036023    4.882006
C         6.808918    0.331370    6.937800
C         1.170152   -0.308207    5.025333
C         0.107333   -0.041865    4.177789
N        -2.772678    0.723093    0.974136
C        -4.547875    2.838964   -1.542912
C        -4.029918    3.331603   -2.743342
C        -3.231145    2.554047   -3.570913
C        -0.664642    1.733266   -5.380180
C        -0.035969    2.489338   -4.273834
S         1.649746    1.851479   -3.754357
C         1.245905    0.316607   -2.880091
C         0.844135   -0.941243   -3.676065
H        -0.170670   -0.853112   -4.058666
N         0.860540   -2.083260   -2.782408
C        -0.221998   -2.510138   -2.098791
C         0.025832   -3.649368   -1.128048
O        -1.338083   -2.024445   -2.220957
C         1.788857   -1.238671   -4.836071
N         1.250117   -1.056259   -6.050332
C         2.022742   -1.195114   -7.253684
O         2.931420   -1.629918   -4.608605
H        -2.163517   -0.586595   -3.699901
H        -3.197208   -0.303078   -1.701287
H        -4.413518   -0.787377    4.041552
H        -0.484601    0.810454    1.007811
H         3.686030   -0.294993    2.755060
H         2.683845    0.386317    7.047693
H         4.057756    1.207740    6.287371
H         4.109528   -1.315699    8.043489
H         4.723996    0.291996    8.492704
H         5.286974   -2.583507    6.299101
H         6.722290   -1.861747    5.538513
H         4.675980   -1.789766    4.095735
H         5.331952   -0.165559    4.403710
H         6.945999    0.861964    7.893046
H         6.494070    1.083071    6.183304
H         7.793495   -0.052009    6.627926
H         0.962502   -0.466060    6.085569
H        -0.906268    0.007624    4.567342
H        -5.178363    3.438270   -0.885752
H        -4.260306    4.357315   -3.043539
H        -2.829800    2.948666   -4.505184
H        -0.171598    1.804648   -6.354796
H        -0.633788    2.521744   -3.351740
H         0.199862    3.533889   -4.537551
H         0.451287    0.517623   -2.146160
H         2.164584    0.077280   -2.324093
H         1.769794   -2.507858   -2.638570
H        -0.101170   -3.262692   -0.106889
H         1.026620   -4.093460   -1.219026
H        -0.737584   -4.421750   -1.291252
H         0.247940   -0.779745   -6.127444
H         1.570002   -1.935226   -7.933738
H         3.034202   -1.527531   -6.985226
H         2.093245   -0.234778   -7.790427
