-1 1
 OpenBabel05232414493D

 83 85  0  0  1  0  0  0  0  0999 V2000
    5.2355   12.7364   -5.8155 O   0  0  0  0  0  0  0  0  0  0  0  0
    5.0848   13.6994   -5.0593 C   0  0  0  0  0  0  0  0  0  0  0  0
    4.4098   13.4532   -3.8564 N   0  0  0  0  0  0  0  0  0  0  0  0
    3.6573   14.2554   -3.0166 C   0  0  0  0  0  0  0  0  0  0  0  0
    3.2196   13.6847   -1.8053 C   0  0  0  0  0  0  0  0  0  0  0  0
    2.4147   14.4226   -0.9538 C   0  0  0  0  0  0  0  0  0  0  0  0
    1.8819   13.8337    0.1953 O   0  0  0  0  0  0  0  0  0  0  0  0
    2.6427   13.3986    1.1853 C   0  0  0  0  0  0  0  0  0  0  0  0
    2.0015   12.7495    2.2693 C   0  0  0  0  0  0  0  0  0  0  0  0
    0.2844   12.5099    2.3021 Cl  0  0  0  0  0  0  0  0  0  0  0  0
    2.8159   12.3283    3.3005 C   0  0  0  0  0  0  0  0  0  0  0  0
    4.1380   12.5017    3.2987 N   0  0  0  0  0  0  0  0  0  0  0  0
    4.6463   13.1131    2.2309 C   0  0  0  0  0  0  0  0  0  0  0  0
    5.9950   13.3187    2.1212 N   0  0  0  0  0  0  0  0  0  0  0  0
    7.0310   13.0303    3.0155 C   0  0  0  0  0  0  0  0  0  0  0  0
    8.3526   12.9268    2.5424 C   0  0  0  0  0  0  0  0  0  0  0  0
    8.6425   13.0157    1.0626 C   0  0  0  0  0  0  0  0  0  0  0  0
    8.1664   14.1555    0.5366 F   0  0  0  0  0  0  0  0  0  0  0  0
    9.9446   12.9687    0.7927 F   0  0  0  0  0  0  0  0  0  0  0  0
    8.0614   12.0053    0.4023 F   0  0  0  0  0  0  0  0  0  0  0  0
    9.4158   12.7042    3.4176 C   0  0  0  0  0  0  0  0  0  0  0  0
    9.2118   12.5376    4.7910 C   0  0  0  0  0  0  0  0  0  0  0  0
   10.2649   12.2774    5.6874 N   0  0  0  0  0  0  0  0  0  0  0  0
   10.3659   13.1520    6.8497 C   0  0  0  0  0  0  0  0  0  0  0  0
   11.2931   12.5388    7.8992 C   0  0  0  0  0  0  0  0  0  0  0  0
   12.6053   12.1989    7.3811 N   0  0  0  0  0  0  0  0  0  0  0  0
   12.4660   11.3520    6.2109 C   0  0  0  0  0  0  0  0  0  0  0  0
   11.5602   11.9416    5.1265 C   0  0  0  0  0  0  0  0  0  0  0  0
   13.4978   13.3239    7.2106 C   0  0  0  0  0  0  0  0  0  0  0  0
    7.8870   12.6109    5.2501 C   0  0  0  0  0  0  0  0  0  0  0  0
    6.8267   12.8620    4.3941 C   0  0  0  0  0  0  0  0  0  0  0  0
    3.9428   13.5729    1.1849 N   0  0  0  0  0  0  0  0  0  0  0  0
    2.0202   15.7249   -1.2340 C   0  0  0  0  0  0  0  0  0  0  0  0
    2.4556   16.2821   -2.4362 C   0  0  0  0  0  0  0  0  0  0  0  0
    3.2533   15.5691   -3.3234 C   0  0  0  0  0  0  0  0  0  0  0  0
    5.6964   14.9871   -5.3106 C   0  0  0  0  0  3  0  0  0  0  0  0
    6.3460   15.6783   -4.3212 C   0  0  0  0  0  3  0  0  0  0  0  0
    8.6355   14.6609   -3.7297 S   0  0  0  0  0  1  0  0  0  0  0  0
    8.1096   13.2796   -2.6725 C   0  0  0  0  0  0  0  0  0  0  0  0
    7.5409   12.0306   -3.3770 C   0  0  2  0  0  0  0  0  0  0  0  0
    6.5760   12.2568   -3.8330 H   0  0  0  0  0  0  0  0  0  0  0  0
    7.3255   10.9679   -2.4096 N   0  0  0  0  0  0  0  0  0  0  0  0
    6.1432   10.6331   -1.8718 C   0  0  0  0  0  0  0  0  0  0  0  0
    6.1943    9.5974   -0.7655 C   0  0  0  0  0  0  0  0  0  0  0  0
    5.0674   11.1234   -2.2076 O   0  0  0  0  0  0  0  0  0  0  0  0
    8.4882   11.4856   -4.4401 C   0  0  0  0  0  0  0  0  0  0  0  0
    8.1099   11.7243   -5.7103 N   0  0  0  0  0  0  0  0  0  0  0  0
    8.9589   11.4317   -6.8316 C   0  0  0  0  0  0  0  0  0  0  0  0
    9.4886   10.8577   -4.1142 O   0  0  0  0  0  0  0  0  0  0  0  0
    4.4695   12.4745   -3.5668 H   0  0  0  0  0  0  0  0  0  0  0  0
    3.5271   12.6681   -1.5526 H   0  0  0  0  0  0  0  0  0  0  0  0
    2.3775   11.8257    4.1686 H   0  0  0  0  0  0  0  0  0  0  0  0
    6.2436   13.7543    1.2397 H   0  0  0  0  0  0  0  0  0  0  0  0
   10.4174   12.6616    2.9950 H   0  0  0  0  0  0  0  0  0  0  0  0
    9.3725   13.3022    7.2919 H   0  0  0  0  0  0  0  0  0  0  0  0
   10.7360   14.1569    6.5502 H   0  0  0  0  0  0  0  0  0  0  0  0
   10.8214   11.6159    8.2793 H   0  0  0  0  0  0  0  0  0  0  0  0
   11.4028   13.2297    8.7500 H   0  0  0  0  0  0  0  0  0  0  0  0
   12.0340   10.3883    6.5317 H   0  0  0  0  0  0  0  0  0  0  0  0
   13.4614   11.1433    5.7889 H   0  0  0  0  0  0  0  0  0  0  0  0
   11.4252   11.1925    4.3324 H   0  0  0  0  0  0  0  0  0  0  0  0
   12.0495   12.8250    4.6598 H   0  0  0  0  0  0  0  0  0  0  0  0
   13.6184   13.8472    8.1720 H   0  0  0  0  0  0  0  0  0  0  0  0
   13.1742   14.0771    6.4614 H   0  0  0  0  0  0  0  0  0  0  0  0
   14.4913   12.9620    6.9037 H   0  0  0  0  0  0  0  0  0  0  0  0
    7.6735   12.4513    6.3088 H   0  0  0  0  0  0  0  0  0  0  0  0
    5.8109   12.8974    4.7792 H   0  0  0  0  0  0  0  0  0  0  0  0
    1.3819   16.2671   -0.5358 H   0  0  0  0  0  0  0  0  0  0  0  0
    2.1571   17.3009   -2.6948 H   0  0  0  0  0  0  0  0  0  0  0  0
    3.5793   16.0208   -4.2588 H   0  0  0  0  0  0  0  0  0  0  0  0
    5.9878   15.1391   -6.3528 H   0  0  0  0  0  0  0  0  0  0  0  0
    6.0909   15.5464   -3.2682 H   0  0  0  0  0  0  0  0  0  0  0  0
    6.8879   16.5954   -4.5526 H   0  0  0  0  0  0  0  0  0  0  0  0
    7.3384   13.6083   -1.9554 H   0  0  0  0  0  0  0  0  0  0  0  0
    8.9761   12.9446   -2.0788 H   0  0  0  0  0  0  0  0  0  0  0  0
    8.1728   10.4981   -2.1109 H   0  0  0  0  0  0  0  0  0  0  0  0
    6.0017   10.1077    0.1896 H   0  0  0  0  0  0  0  0  0  0  0  0
    7.1604    9.0791   -0.6972 H   0  0  0  0  0  0  0  0  0  0  0  0
    5.3900    8.8678   -0.9269 H   0  0  0  0  0  0  0  0  0  0  0  0
    7.2450   12.2444   -5.8667 H   0  0  0  0  0  0  0  0  0  0  0  0
    8.4009   10.9040   -7.6213 H   0  0  0  0  0  0  0  0  0  0  0  0
    9.7797   10.7922   -6.4817 H   0  0  0  0  0  0  0  0  0  0  0  0
    9.3902   12.3520   -7.2598 H   0  0  0  0  0  0  0  0  0  0  0  0
  1  2  2  0  0  0  0
  2  3  1  0  0  0  0
  3 50  1  0  0  0  0
  3  4  1  0  0  0  0
  4  5  1  0  0  0  0
  5 51  1  0  0  0  0
  5  6  2  0  0  0  0
  6  7  1  0  0  0  0
  7  8  1  0  0  0  0
  8  9  1  0  0  0  0
  9 10  1  0  0  0  0
  9 11  2  0  0  0  0
 11 52  1  0  0  0  0
 12 11  1  0  0  0  0
 13 12  2  0  0  0  0
 14 13  1  0  0  0  0
 14 15  1  0  0  0  0
 15 31  1  0  0  0  0
 16 15  2  0  0  0  0
 16 21  1  0  0  0  0
 17 16  1  0  0  0  0
 18 17  1  0  0  0  0
 19 17  1  0  0  0  0
 20 17  1  0  0  0  0
 21 22  2  0  0  0  0
 22 30  1  0  0  0  0
 22 23  1  0  0  0  0
 23 24  1  0  0  0  0
 24 55  1  0  0  0  0
 24 25  1  0  0  0  0
 25 57  1  0  0  0  0
 25 58  1  0  0  0  0
 26 25  1  0  0  0  0
 27 59  1  0  0  0  0
 27 26  1  0  0  0  0
 28 23  1  0  0  0  0
 28 27  1  0  0  0  0
 29 26  1  0  0  0  0
 29 63  1  0  0  0  0
 30 66  1  0  0  0  0
 31 67  1  0  0  0  0
 31 30  2  0  0  0  0
 32  8  2  0  0  0  0
 32 13  1  0  0  0  0
 33  6  1  0  0  0  0
 33 68  1  0  0  0  0
 34 33  2  0  0  0  0
 35  4  2  0  0  0  0
 35 34  1  0  0  0  0
 36  2  1  0  0  0  0
 36 37  1  0  0  0  0
 37 72  1  0  0  0  0
 38 39  1  0  0  0  0
 39 75  1  0  0  0  0
 39 74  1  0  0  0  0
 40 41  1  6  0  0  0
 40 39  1  0  0  0  0
 40 42  1  0  0  0  0
 42 76  1  0  0  0  0
 42 43  1  0  0  0  0
 43 44  1  0  0  0  0
 44 78  1  0  0  0  0
 44 77  1  0  0  0  0
 45 43  2  0  0  0  0
 46 49  2  0  0  0  0
 46 40  1  0  0  0  0
 47 46  1  0  0  0  0
 48 82  1  0  0  0  0
 48 47  1  0  0  0  0
 53 14  1  0  0  0  0
 54 21  1  0  0  0  0
 56 24  1  0  0  0  0
 60 27  1  0  0  0  0
 61 28  1  0  0  0  0
 62 28  1  0  0  0  0
 64 29  1  0  0  0  0
 65 29  1  0  0  0  0
 69 34  1  0  0  0  0
 70 35  1  0  0  0  0
 71 36  1  0  0  0  0
 73 37  1  0  0  0  0
 79 44  1  0  0  0  0
 80 47  1  0  0  0  0
 81 48  1  0  0  0  0
 83 48  1  0  0  0  0
M  END
