-1 1
 OpenBabel05232413483D

 83 85  0  0  1  0  0  0  0  0999 V2000
   -0.5683   -2.0665   -4.4840 O   0  0  0  0  0  0  0  0  0  0  0  0
   -1.3447   -1.1350   -4.5974 C   0  0  0  0  0  0  0  0  0  0  0  0
   -2.0541   -0.6845   -3.5150 N   0  0  0  0  0  0  0  0  0  0  0  0
   -2.7271    0.5154   -3.2849 C   0  0  0  0  0  0  0  0  0  0  0  0
   -3.5687    0.5510   -2.1638 C   0  0  0  0  0  0  0  0  0  0  0  0
   -4.1738    1.7395   -1.7916 C   0  0  0  0  0  0  0  0  0  0  0  0
   -4.9163    1.7530   -0.6049 O   0  0  0  0  0  0  0  0  0  0  0  0
   -4.2279    1.5946    0.5233 C   0  0  0  0  0  0  0  0  0  0  0  0
   -4.8910    1.1381    1.6837 C   0  0  1  0  0  3  0  0  0  0  0  0
   -6.5981    0.8314    1.7040 Cl  0  0  0  0  0  0  0  0  0  0  0  0
   -4.0904    0.8930    2.7850 C   0  0  0  0  0  0  0  0  0  0  0  0
   -2.7727    1.0954    2.7918 N   0  0  0  0  0  0  0  0  0  0  0  0
   -2.2484    1.5805    1.6639 C   0  0  2  0  0  3  0  0  0  0  0  0
   -0.9164    1.8755    1.5620 N   0  0  0  0  0  0  0  0  0  0  0  0
    0.1811    1.2796    2.1974 C   0  0  0  0  0  0  0  0  0  0  0  0
    1.4945    1.6417    1.8317 C   0  0  0  0  0  0  0  0  0  0  0  0
    1.8642    2.9097    1.0918 C   0  0  0  0  0  0  0  0  0  0  0  0
    2.1629    3.8846    1.9710 F   0  0  0  0  0  0  0  0  0  0  0  0
    2.9460    2.7415    0.3290 F   0  0  0  0  0  0  0  0  0  0  0  0
    0.9019    3.4038    0.3042 F   0  0  0  0  0  0  0  0  0  0  0  0
    2.5778    0.8812    2.2738 C   0  0  0  0  0  0  0  0  0  0  0  0
    2.4204   -0.2287    3.1054 C   0  0  0  0  0  0  0  0  0  0  0  0
    3.4924   -1.0669    3.4446 N   0  0  0  0  0  0  0  0  0  0  0  0
    3.7902   -1.2603    4.8521 C   0  0  0  0  0  0  0  0  0  0  0  0
    4.6365   -2.5217    5.0384 C   0  0  0  0  0  0  0  0  0  0  0  0
    5.8367   -2.5378    4.2220 N   0  0  0  0  0  0  0  0  0  0  0  0
    5.4916   -2.3055    2.8266 C   0  0  0  0  0  0  0  0  0  0  0  0
    4.6700   -1.0372    2.5957 C   0  0  0  0  0  0  0  0  0  0  0  0
    6.9114   -1.7105    4.7200 C   0  0  0  0  0  0  0  0  0  0  0  0
    1.1241   -0.4961    3.5655 C   0  0  0  0  0  0  0  0  0  0  0  0
    0.0343    0.2400    3.1274 C   0  0  0  0  0  0  0  0  0  0  0  0
   -2.9408    1.8397    0.5465 N   0  0  0  0  0  0  0  0  0  0  0  0
   -4.0476    2.9013   -2.5375 C   0  0  0  0  0  0  0  0  0  0  0  0
   -3.2276    2.8537   -3.6654 C   0  0  0  0  0  0  0  0  0  0  0  0
   -2.5442    1.6953   -4.0245 C   0  0  0  0  0  0  0  0  0  0  0  0
   -1.6470   -0.5339   -5.9357 C   0  0  0  0  0  0  0  0  0  0  0  0
   -0.7888   -0.6710   -6.9449 C   0  0  0  0  0  0  0  0  0  0  0  0
    0.8662    1.3723   -3.2006 S   0  0  0  0  0  1  0  0  0  0  0  0
    0.3290    0.6923   -1.5957 C   0  0  0  0  0  0  0  0  0  0  0  0
    0.7794   -0.7557   -1.2845 C   0  0  2  0  0  0  0  0  0  0  0  0
    0.5208   -1.3931   -2.1494 H   0  0  0  0  0  0  0  0  0  0  0  0
    0.1535   -1.2761   -0.0805 N   0  0  0  0  0  0  0  0  0  0  0  0
   -1.0956   -1.7459    0.0108 C   0  0  0  0  0  0  0  0  0  0  0  0
   -1.5150   -2.2604    1.3732 C   0  0  0  0  0  0  0  0  0  0  0  0
   -1.9013   -1.7653   -0.9195 O   0  0  0  0  0  0  0  0  0  0  0  0
    2.2920   -0.8509   -1.0221 C   0  0  0  0  0  0  0  0  0  0  0  0
    3.0725   -0.3433   -1.9780 N   0  0  0  0  0  0  0  0  0  0  0  0
    4.4916   -0.2252   -1.7843 C   0  0  0  0  0  0  0  0  0  0  0  0
    2.7277   -1.3491    0.0212 O   0  0  0  0  0  0  0  0  0  0  0  0
   -1.8769   -1.2279   -2.6576 H   0  0  0  0  0  0  0  0  0  0  0  0
   -3.6668   -0.3394   -1.5408 H   0  0  0  0  0  0  0  0  0  0  0  0
   -4.5402    0.5009    3.7029 H   0  0  0  0  0  0  0  0  0  0  0  0
   -0.7111    2.2833    0.6560 H   0  0  0  0  0  0  0  0  0  0  0  0
    3.5723    1.1637    1.9337 H   0  0  0  0  0  0  0  0  0  0  0  0
    2.8560   -1.3606    5.4225 H   0  0  0  0  0  0  0  0  0  0  0  0
    4.3237   -0.3766    5.2695 H   0  0  0  0  0  0  0  0  0  0  0  0
    4.0178   -3.3920    4.7582 H   0  0  0  0  0  0  0  0  0  0  0  0
    4.9138   -2.6371    6.0989 H   0  0  0  0  0  0  0  0  0  0  0  0
    4.8979   -3.1634    2.4690 H   0  0  0  0  0  0  0  0  0  0  0  0
    6.4138   -2.2695    2.2257 H   0  0  0  0  0  0  0  0  0  0  0  0
    4.3368   -1.0084    1.5473 H   0  0  0  0  0  0  0  0  0  0  0  0
    5.2979   -0.1388    2.7926 H   0  0  0  0  0  0  0  0  0  0  0  0
    7.1698   -2.0175    5.7463 H   0  0  0  0  0  0  0  0  0  0  0  0
    6.7004   -0.6198    4.7442 H   0  0  0  0  0  0  0  0  0  0  0  0
    7.8068   -1.8556    4.0953 H   0  0  0  0  0  0  0  0  0  0  0  0
    0.9524   -1.3403    4.2375 H   0  0  0  0  0  0  0  0  0  0  0  0
   -0.9666   -0.0130    3.4670 H   0  0  0  0  0  0  0  0  0  0  0  0
   -4.5354    3.8207   -2.2123 H   0  0  0  0  0  0  0  0  0  0  0  0
   -3.0639    3.7632   -4.2475 H   0  0  0  0  0  0  0  0  0  0  0  0
   -1.8062    1.7280   -4.8232 H   0  0  0  0  0  0  0  0  0  0  0  0
   -2.5951   -0.0055   -6.0673 H   0  0  0  0  0  0  0  0  0  0  0  0
    0.1576   -1.1935   -6.7824 H   0  0  0  0  0  0  0  0  0  0  0  0
   -0.9992   -0.2622   -7.9361 H   0  0  0  0  0  0  0  0  0  0  0  0
   -0.7711    0.7012   -1.5291 H   0  0  0  0  0  0  0  0  0  0  0  0
    0.6965    1.3230   -0.7723 H   0  0  0  0  0  0  0  0  0  0  0  0
    0.8061   -1.4026    0.6918 H   0  0  0  0  0  0  0  0  0  0  0  0
   -2.1994   -1.5288    1.8290 H   0  0  0  0  0  0  0  0  0  0  0  0
   -0.6702   -2.4201    2.0555 H   0  0  0  0  0  0  0  0  0  0  0  0
   -2.0707   -3.1970    1.2328 H   0  0  0  0  0  0  0  0  0  0  0  0
    2.5773    0.2482   -2.6893 H   0  0  0  0  0  0  0  0  0  0  0  0
    4.9508    0.1283   -2.7173 H   0  0  0  0  0  0  0  0  0  0  0  0
    4.9327   -1.1978   -1.5164 H   0  0  0  0  0  0  0  0  0  0  0  0
    4.7429    0.4889   -0.9800 H   0  0  0  0  0  0  0  0  0  0  0  0
  2  1  2  0  0  0  0
  2  3  1  0  0  0  0
  3  4  1  0  0  0  0
  3 50  1  0  0  0  0
  4  5  1  0  0  0  0
  5  6  2  0  0  0  0
  5 51  1  0  0  0  0
  6  7  1  0  0  0  0
  7  8  1  0  0  0  0
  8 32  2  0  0  0  0
  8  9  1  0  0  0  0
  9 10  1  6  0  0  0
  9 11  1  0  0  0  0
 11 12  2  0  0  0  0
 11 52  1  0  0  0  0
 13 14  1  1  0  0  0
 13 12  1  0  0  0  0
 14 15  1  0  0  0  0
 15 31  1  0  0  0  0
 16 15  2  0  0  0  0
 16 21  1  0  0  0  0
 17 16  1  0  0  0  0
 17 18  1  0  0  0  0
 19 17  1  0  0  0  0
 20 17  1  0  0  0  0
 21 22  2  0  0  0  0
 22 23  1  0  0  0  0
 22 30  1  0  0  0  0
 23 24  1  0  0  0  0
 24 25  1  0  0  0  0
 24 56  1  0  0  0  0
 24 55  1  0  0  0  0
 25 58  1  0  0  0  0
 26 29  1  0  0  0  0
 26 25  1  0  0  0  0
 27 26  1  0  0  0  0
 28 62  1  0  0  0  0
 28 27  1  0  0  0  0
 28 23  1  0  0  0  0
 29 64  1  0  0  0  0
 29 63  1  0  0  0  0
 30 66  1  0  0  0  0
 31 67  1  0  0  0  0
 31 30  2  0  0  0  0
 32 13  1  0  0  0  0
 33 68  1  0  0  0  0
 33  6  1  0  0  0  0
 34 33  2  0  0  0  0
 35 34  1  0  0  0  0
 35  4  2  0  0  0  0
 36  2  1  0  0  0  0
 37 72  1  0  0  0  0
 37 36  2  0  0  0  0
 38 39  1  0  0  0  0
 39 74  1  0  0  0  0
 39 40  1  0  0  0  0
 39 75  1  0  0  0  0
 40 41  1  6  0  0  0
 40 46  1  0  0  0  0
 40 42  1  0  0  0  0
 42 43  1  0  0  0  0
 42 76  1  0  0  0  0
 43 44  1  0  0  0  0
 44 77  1  0  0  0  0
 44 78  1  0  0  0  0
 45 43  2  0  0  0  0
 46 49  2  0  0  0  0
 47 48  1  0  0  0  0
 47 46  1  0  0  0  0
 48 82  1  0  0  0  0
 48 83  1  0  0  0  0
 53 14  1  0  0  0  0
 54 21  1  0  0  0  0
 57 25  1  0  0  0  0
 59 27  1  0  0  0  0
 60 27  1  0  0  0  0
 61 28  1  0  0  0  0
 65 29  1  0  0  0  0
 69 34  1  0  0  0  0
 70 35  1  0  0  0  0
 71 36  1  0  0  0  0
 73 37  1  0  0  0  0
 79 44  1  0  0  0  0
 80 47  1  0  0  0  0
 81 48  1  0  0  0  0
M  END
