84
-1 1
O        -0.044377   -5.204605   -1.418523
C        -0.095232   -3.991729   -1.322402
N        -1.003248   -3.317954   -2.129285
C        -1.242439   -1.962855   -2.411744
C        -0.211800   -1.024891   -2.557731
C        -0.514956    0.301843   -2.854262
S         0.809012    1.464941   -3.126173
C         0.925252    2.263741   -1.545005
C         1.795409    3.350979   -1.404889
Cl         2.776782    3.928295   -2.713517
C         1.901414    3.899002   -0.135059
N         1.177270    3.473314    0.888554
C         0.343641    2.447416    0.645457
N        -0.412874    2.026464    1.693416
C        -1.281765    0.912632    1.657362
C        -2.434216    0.955642    0.854038
O        -2.676446    2.118332    0.210068
C        -3.899241    2.298635   -0.437917
C        -3.248541   -0.173780    0.739175
C        -2.960369   -1.343264    1.463627
N        -3.716163   -2.522540    1.301639
C        -2.932956   -3.707415    0.948037
C        -3.773372   -4.973883    1.067222
N        -5.005459   -4.915644    0.295856
C        -5.749731   -3.725969    0.663321
C        -4.944044   -2.429839    0.539566
C        -4.825301   -5.100284   -1.125248
C        -1.869133   -1.332926    2.342234
C        -1.027069   -0.230279    2.410791
N         0.213850    1.819708   -0.528268
C        -1.838576    0.706233   -3.051161
C        -2.856413   -0.235278   -2.946244
C        -2.564685   -1.555697   -2.617182
C         0.732976   -3.281436   -0.314509
C         0.474664   -2.113992    0.282595
S         2.478563   -1.200480    3.349218
C         2.556270    0.624281    3.259494
C         3.711842    1.275052    2.471366
H         4.671597    0.924441    2.881602
N         3.659516    2.708909    2.657588
C         4.771444    3.483071    2.729561
C         4.513531    4.968587    2.526995
O         5.893100    3.057330    2.932620
C         3.731022    0.988511    0.953216
N         3.569017   -0.296538    0.600321
C         3.519125   -0.680126   -0.784212
O         3.905289    1.885661    0.133149
H        -1.608608   -3.979866   -2.603227
H         0.826653   -1.327263   -2.425268
H         2.615074    4.707112    0.049669
H        -0.153071    2.418739    2.589066
H        -4.752266    2.140983    0.246873
H        -4.014000    1.626153   -1.304212
H        -3.915689    3.335966   -0.796303
H        -4.086714   -0.152972    0.047635
H        -2.056473   -3.788587    1.601759
H        -2.542059   -3.606759   -0.084746
H        -4.036957   -5.126729    2.127956
H        -3.176486   -5.839980    0.742775
H        -6.070844   -3.832377    1.713902
H        -6.659200   -3.656562    0.044970
H        -5.548467   -1.595551    0.927448
H        -4.747460   -2.213924   -0.535017
H        -4.335858   -6.068391   -1.312676
H        -4.210226   -4.322452   -1.628719
H        -5.806662   -5.117450   -1.625221
H        -1.631510   -2.211579    2.942292
H        -0.119265   -0.300510    3.021130
H        -2.055228    1.747862   -3.292527
H        -3.895111    0.059122   -3.114555
H        -3.369137   -2.287981   -2.511924
H         1.565029   -3.900408    0.032985
H        -0.365951   -1.477090   -0.000632
H         1.099748   -1.763349    1.118773
H         2.632346    1.034225    4.278167
H         1.617629    1.022637    2.835871
H         2.804368    3.149705    2.327797
H         5.169297    5.542632    3.194467
H         3.464726    5.253489    2.695739
H         4.785083    5.218592    1.489697
H         3.299238   -0.952280    1.357993
H         3.434152   -1.772968   -0.850855
H         4.425347   -0.355175   -1.318970
H         2.656928   -0.228095   -1.306557
