-1 1
 OpenBabel05232414493D

 84 86  0  0  1  0  0  0  0  0999 V2000
    5.0276    8.7239   -2.2899 O   0  0  0  0  0  0  0  0  0  0  0  0
    4.9242    9.9107   -2.0029 C   0  0  0  0  0  0  0  0  0  0  0  0
    3.5698   10.4109   -1.9252 N   0  0  0  0  0  0  0  0  0  0  0  0
    2.9932   11.4793   -2.5945 C   0  0  0  0  0  0  0  0  0  0  0  0
    3.7193   12.5456   -3.1512 C   0  0  0  0  0  0  0  0  0  0  0  0
    3.0612   13.6216   -3.7391 C   0  0  0  0  0  0  0  0  0  0  0  0
    4.0571   14.9877   -4.3140 S   0  0  0  0  0  0  0  0  0  0  0  0
    4.5485   15.6738   -2.7524 C   0  0  0  0  0  0  0  0  0  0  0  0
    5.6219   16.5771   -2.6752 C   0  0  0  0  0  0  0  0  0  0  0  0
    6.5083   17.0855   -4.0805 Cl  0  0  0  0  0  0  0  0  0  0  0  0
    5.9891   17.0056   -1.4061 C   0  0  0  0  0  0  0  0  0  0  0  0
    5.3365   16.6329   -0.3118 N   0  0  0  0  0  0  0  0  0  0  0  0
    4.3079   15.7854   -0.4879 C   0  0  0  0  0  0  0  0  0  0  0  0
    3.6521   15.3678    0.6264 N   0  0  0  0  0  0  0  0  0  0  0  0
    2.7030   14.3145    0.6166 C   0  0  0  0  0  0  0  0  0  0  0  0
    1.4316   14.5159    0.0542 C   0  0  0  0  0  0  0  0  0  0  0  0
    1.1759   15.7527   -0.4202 O   0  0  0  0  0  0  0  0  0  0  0  0
    0.0581   15.9526   -1.2336 C   0  0  0  0  0  0  0  0  0  0  0  0
    0.5156   13.4662   -0.0032 C   0  0  0  0  0  0  0  0  0  0  0  0
    0.8285   12.1877    0.5034 C   0  0  0  0  0  0  0  0  0  0  0  0
   -0.1005   11.1408    0.4439 N   0  0  0  0  0  0  0  0  0  0  0  0
    0.4220    9.7835    0.5219 C   0  0  0  0  0  0  0  0  0  0  0  0
   -0.6837    8.7354    0.6435 C   0  0  0  0  0  0  0  0  0  0  0  0
   -1.7537    8.8834   -0.3226 N   0  0  0  0  0  0  0  0  0  0  0  0
   -2.3124   10.2111   -0.1804 C   0  0  0  0  0  0  0  0  0  0  0  0
   -1.2956   11.3401   -0.3565 C   0  0  0  0  0  0  0  0  0  0  0  0
   -1.3970    8.5218   -1.6767 C   0  0  0  0  0  0  0  0  0  0  0  0
    2.1064   12.0014    1.0557 C   0  0  0  0  0  0  0  0  0  0  0  0
    3.0152   13.0514    1.1038 C   0  0  0  0  0  0  0  0  0  0  0  0
    3.9061   15.3031   -1.6642 N   0  0  0  0  0  0  0  0  0  0  0  0
    1.6731   13.6550   -3.8678 C   0  0  0  0  0  0  0  0  0  0  0  0
    0.9509   12.5661   -3.3792 C   0  0  0  0  0  0  0  0  0  0  0  0
    1.5915   11.5097   -2.7459 C   0  0  0  0  0  0  0  0  0  0  0  0
    6.0057   10.8153   -1.7547 C   0  0  0  0  0  3  0  0  0  0  0  0
    5.9269   11.9801   -0.9972 C   0  0  0  0  0  3  0  0  0  0  0  0
    6.6345   11.8657    1.2217 S   0  0  0  0  0  1  0  0  0  0  0  0
    6.4977   13.6606    1.4627 C   0  0  0  0  0  0  0  0  0  0  0  0
    7.7664   14.5389    1.4410 C   0  0  2  0  0  0  0  0  0  0  0  0
    8.4817   14.1842    2.1982 H   0  0  0  0  0  0  0  0  0  0  0  0
    7.3895   15.8866    1.7915 N   0  0  0  0  0  0  0  0  0  0  0  0
    8.2000   16.7074    2.5071 C   0  0  0  0  0  0  0  0  0  0  0  0
    7.7793   18.1674    2.4889 C   0  0  0  0  0  0  0  0  0  0  0  0
    9.1860   16.3328    3.1154 O   0  0  0  0  0  0  0  0  0  0  0  0
    8.4795   14.5543    0.0729 C   0  0  0  0  0  0  0  0  0  0  0  0
    8.9660   13.3547   -0.3179 N   0  0  0  0  0  0  0  0  0  0  0  0
    9.5259   13.1480   -1.6295 C   0  0  0  0  0  0  0  0  0  0  0  0
    8.5915   15.5799   -0.5838 O   0  0  0  0  0  0  0  0  0  0  0  0
    2.9530    9.6071   -1.8670 H   0  0  0  0  0  0  0  0  0  0  0  0
    4.8057   12.5368   -3.1049 H   0  0  0  0  0  0  0  0  0  0  0  0
    6.8646   17.6470   -1.2757 H   0  0  0  0  0  0  0  0  0  0  0  0
    4.0810   15.6354    1.5030 H   0  0  0  0  0  0  0  0  0  0  0  0
   -0.8892   15.8325   -0.6759 H   0  0  0  0  0  0  0  0  0  0  0  0
    0.0590   15.2631   -2.0949 H   0  0  0  0  0  0  0  0  0  0  0  0
    0.1179   16.9843   -1.6029 H   0  0  0  0  0  0  0  0  0  0  0  0
   -0.4416   13.6434   -0.4827 H   0  0  0  0  0  0  0  0  0  0  0  0
    1.0546    9.6869    1.4137 H   0  0  0  0  0  0  0  0  0  0  0  0
    1.0798    9.5624   -0.3432 H   0  0  0  0  0  0  0  0  0  0  0  0
   -1.1292    8.8043    1.6509 H   0  0  0  0  0  0  0  0  0  0  0  0
   -0.2357    7.7335    0.5539 H   0  0  0  0  0  0  0  0  0  0  0  0
   -2.7537   10.2852    0.8287 H   0  0  0  0  0  0  0  0  0  0  0  0
   -3.1305   10.3514   -0.9049 H   0  0  0  0  0  0  0  0  0  0  0  0
   -1.7890   12.2714   -0.0415 H   0  0  0  0  0  0  0  0  0  0  0  0
   -1.0450   11.4665   -1.4303 H   0  0  0  0  0  0  0  0  0  0  0  0
   -1.0438    7.4795   -1.6992 H   0  0  0  0  0  0  0  0  0  0  0  0
   -0.6054    9.1480   -2.1394 H   0  0  0  0  0  0  0  0  0  0  0  0
   -2.2863    8.5878   -2.3227 H   0  0  0  0  0  0  0  0  0  0  0  0
    2.4405   11.0345    1.4225 H   0  0  0  0  0  0  0  0  0  0  0  0
    4.0124   12.8530    1.5020 H   0  0  0  0  0  0  0  0  0  0  0  0
    1.1777   14.5107   -4.3292 H   0  0  0  0  0  0  0  0  0  0  0  0
   -0.1384   12.5496   -3.4737 H   0  0  0  0  0  0  0  0  0  0  0  0
    1.0012   10.6805   -2.3483 H   0  0  0  0  0  0  0  0  0  0  0  0
    6.9831   10.4345   -2.0616 H   0  0  0  0  0  0  0  0  0  0  0  0
    4.9364   12.3643   -0.7332 H   0  0  0  0  0  0  0  0  0  0  0  0
    6.6740   12.7610   -1.1518 H   0  0  0  0  0  0  0  0  0  0  0  0
    6.0045   13.8617    2.4262 H   0  0  0  0  0  0  0  0  0  0  0  0
    5.8245   14.0451    0.6790 H   0  0  0  0  0  0  0  0  0  0  0  0
    6.6940   16.3148    1.1776 H   0  0  0  0  0  0  0  0  0  0  0  0
    7.9442   18.6015    3.4837 H   0  0  0  0  0  0  0  0  0  0  0  0
    6.7334   18.3090    2.1820 H   0  0  0  0  0  0  0  0  0  0  0  0
    8.4272   18.6995    1.7758 H   0  0  0  0  0  0  0  0  0  0  0  0
    8.6187   12.5424    0.2041 H   0  0  0  0  0  0  0  0  0  0  0  0
   10.3588   12.4314   -1.5800 H   0  0  0  0  0  0  0  0  0  0  0  0
    9.8968   14.1087   -2.0086 H   0  0  0  0  0  0  0  0  0  0  0  0
    8.7766   12.7605   -2.3422 H   0  0  0  0  0  0  0  0  0  0  0  0
  1  2  2  0  0  0  0
  2  3  1  0  0  0  0
  2 34  1  0  0  0  0
  3 48  1  0  0  0  0
  4  3  1  0  0  0  0
  5 49  1  0  0  0  0
  5  4  2  0  0  0  0
  6  5  1  0  0  0  0
  7  6  1  0  0  0  0
  7  8  1  0  0  0  0
  8  9  1  0  0  0  0
  8 30  2  0  0  0  0
  9 11  2  0  0  0  0
 10  9  1  0  0  0  0
 11 50  1  0  0  0  0
 11 12  1  0  0  0  0
 13 12  2  0  0  0  0
 13 14  1  0  0  0  0
 14 51  1  0  0  0  0
 15 14  1  0  0  0  0
 15 29  1  0  0  0  0
 16 15  2  0  0  0  0
 17 16  1  0  0  0  0
 18 52  1  0  0  0  0
 18 17  1  0  0  0  0
 19 16  1  0  0  0  0
 19 20  2  0  0  0  0
 20 28  1  0  0  0  0
 21 20  1  0  0  0  0
 21 22  1  0  0  0  0
 22 23  1  0  0  0  0
 22 56  1  0  0  0  0
 23 58  1  0  0  0  0
 24 25  1  0  0  0  0
 24 23  1  0  0  0  0
 25 60  1  0  0  0  0
 26 25  1  0  0  0  0
 26 62  1  0  0  0  0
 26 21  1  0  0  0  0
 27 24  1  0  0  0  0
 28 29  2  0  0  0  0
 28 67  1  0  0  0  0
 29 68  1  0  0  0  0
 30 13  1  0  0  0  0
 31  6  2  0  0  0  0
 31 32  1  0  0  0  0
 32 33  2  0  0  0  0
 33  4  1  0  0  0  0
 33 71  1  0  0  0  0
 34 35  1  0  0  0  0
 35 73  1  0  0  0  0
 36 37  1  0  0  0  0
 37 75  1  0  0  0  0
 38 37  1  0  0  0  0
 38 40  1  0  0  0  0
 38 39  1  1  0  0  0
 40 41  1  0  0  0  0
 41 43  2  0  0  0  0
 42 41  1  0  0  0  0
 42 78  1  0  0  0  0
 44 38  1  0  0  0  0
 45 44  1  0  0  0  0
 45 81  1  0  0  0  0
 46 82  1  0  0  0  0
 46 45  1  0  0  0  0
 47 44  2  0  0  0  0
 53 18  1  0  0  0  0
 54 18  1  0  0  0  0
 55 19  1  0  0  0  0
 57 22  1  0  0  0  0
 59 23  1  0  0  0  0
 61 25  1  0  0  0  0
 63 26  1  0  0  0  0
 64 27  1  0  0  0  0
 65 27  1  0  0  0  0
 66 27  1  0  0  0  0
 69 31  1  0  0  0  0
 70 32  1  0  0  0  0
 72 34  1  0  0  0  0
 74 35  1  0  0  0  0
 76 37  1  0  0  0  0
 77 40  1  0  0  0  0
 79 42  1  0  0  0  0
 80 42  1  0  0  0  0
 83 46  1  0  0  0  0
 84 46  1  0  0  0  0
M  END
