-1 1
 OpenBabel05192410563D

 84 87  0  0  1  0  0  0  0  0999 V2000
   -0.4140   -4.6553   -1.6979 O   0  0  0  0  0  0  0  0  0  0  0  0
   -0.3271   -3.5002   -1.2420 C   0  0  0  0  0  0  0  0  0  0  0  0
   -1.4421   -2.6381   -1.6516 N   0  0  0  0  0  0  0  0  0  0  0  0
   -1.4227   -1.4048   -2.2577 C   0  0  0  0  0  0  0  0  0  0  0  0
   -0.2790   -0.5831   -2.3193 C   0  0  0  0  0  0  0  0  0  0  0  0
   -0.3562    0.6984   -2.8532 C   0  0  0  0  0  0  0  0  0  0  0  0
    1.1172    1.7037   -2.9098 S   0  0  0  0  0  0  0  0  0  0  0  0
    1.0724    2.5831   -1.3753 C   0  0  0  0  0  0  0  0  0  0  0  0
    1.9587    3.6647   -1.1996 C   0  0  0  0  0  0  0  0  0  0  0  0
    3.1182    4.1257   -2.4077 Cl  0  0  0  0  0  0  0  0  0  0  0  0
    1.8754    4.3545   -0.0017 C   0  0  0  0  0  0  0  0  0  0  0  0
    1.0076    4.0397    0.9508 N   0  0  0  0  0  0  0  0  0  0  0  0
    0.2130    2.9862    0.7000 C   0  0  0  0  0  0  0  0  0  0  0  0
   -0.6675    2.6650    1.6893 N   0  0  0  0  0  0  0  0  0  0  0  0
   -1.4706    1.5031    1.7191 C   0  0  0  0  0  0  0  0  0  0  0  0
   -2.4452    1.2697    0.7355 C   0  0  0  0  0  0  0  0  0  0  0  0
   -2.6918    2.2813   -0.1213 O   0  0  0  0  0  0  0  0  0  0  0  0
   -3.8770    2.2586   -0.8641 C   0  0  0  0  0  0  0  0  0  0  0  0
   -3.0953    0.0334    0.6784 C   0  0  0  0  0  0  0  0  0  0  0  0
   -2.8542   -0.9648    1.6414 C   0  0  0  0  0  0  0  0  0  0  0  0
   -3.4171   -2.2406    1.5511 N   0  0  0  0  0  0  0  0  0  0  0  0
   -2.5230   -3.3713    1.8330 C   0  0  0  0  0  0  0  0  0  0  0  0
   -3.3264   -4.6512    2.0470 C   0  0  0  0  0  0  0  0  0  0  0  0
   -4.2091   -4.9693    0.9397 N   0  0  0  0  0  0  0  0  0  0  0  0
   -5.0584   -3.8317    0.6607 C   0  0  0  0  0  0  0  0  0  0  0  0
   -4.3125   -2.5121    0.4409 C   0  0  0  0  0  0  0  0  0  0  0  0
   -3.5286   -5.5494   -0.2052 C   0  0  0  0  0  0  0  0  0  0  0  0
   -2.0105   -0.6419    2.7200 C   0  0  0  0  0  0  0  0  0  0  0  0
   -1.3140    0.5550    2.7275 C   0  0  0  0  0  0  0  0  0  0  0  0
    0.2291    2.2499   -0.4174 N   0  0  0  0  0  0  0  0  0  0  0  0
   -1.5312    1.1849   -3.4313 C   0  0  0  0  0  0  0  0  0  0  0  0
   -2.6401    0.3396   -3.4606 C   0  0  0  0  0  0  0  0  0  0  0  0
   -2.5987   -0.9181   -2.8720 C   0  0  0  0  0  0  0  0  0  0  0  0
    0.6377   -2.9714   -0.3882 C   0  0  0  0  0  3  0  0  0  0  0  0
    0.5552   -1.6824    0.3549 C   0  0  0  0  0  0  0  0  0  0  0  0
    1.3904   -1.8139    1.9922 S   0  0  0  0  0  0  0  0  0  0  0  0
    1.8400   -0.0706    2.2364 C   0  0  0  0  0  0  0  0  0  0  0  0
    3.2556    0.3791    1.8131 C   0  0  2  0  0  0  0  0  0  0  0  0
    3.9919   -0.2160    2.3806 H   0  0  0  0  0  0  0  0  0  0  0  0
    3.4254    1.7836    2.0984 N   0  0  0  0  0  0  0  0  0  0  0  0
    3.4251    2.3275    3.3379 C   0  0  0  0  0  0  0  0  0  0  0  0
    3.5175    3.8422    3.3524 C   0  0  0  0  0  0  0  0  0  0  0  0
    3.3300    1.6662    4.3596 O   0  0  0  0  0  0  0  0  0  0  0  0
    3.5519    0.2275    0.3080 C   0  0  0  0  0  0  0  0  0  0  0  0
    3.6071   -1.0330   -0.1544 N   0  0  0  0  0  0  0  0  0  0  0  0
    3.6265   -1.3361   -1.5694 C   0  0  0  0  0  0  0  0  0  0  0  0
    3.7263    1.2190   -0.3901 O   0  0  0  0  0  0  0  0  0  0  0  0
   -2.1626   -3.2515   -2.0198 H   0  0  0  0  0  0  0  0  0  0  0  0
    0.6696   -0.9671   -1.9577 H   0  0  0  0  0  0  0  0  0  0  0  0
    2.5462    5.2002    0.1862 H   0  0  0  0  0  0  0  0  0  0  0  0
   -0.5346    3.1904    2.5433 H   0  0  0  0  0  0  0  0  0  0  0  0
   -4.7587    2.1373   -0.2086 H   0  0  0  0  0  0  0  0  0  0  0  0
   -3.8773    1.4594   -1.6199 H   0  0  0  0  0  0  0  0  0  0  0  0
   -3.9408    3.2249   -1.3813 H   0  0  0  0  0  0  0  0  0  0  0  0
   -3.7421   -0.1702   -0.1707 H   0  0  0  0  0  0  0  0  0  0  0  0
   -1.9333   -3.1684    2.7338 H   0  0  0  0  0  0  0  0  0  0  0  0
   -1.7969   -3.4993    1.0067 H   0  0  0  0  0  0  0  0  0  0  0  0
   -3.9394   -4.5367    2.9600 H   0  0  0  0  0  0  0  0  0  0  0  0
   -2.6336   -5.4905    2.2132 H   0  0  0  0  0  0  0  0  0  0  0  0
   -5.7406   -3.6956    1.5201 H   0  0  0  0  0  0  0  0  0  0  0  0
   -5.6826   -4.0468   -0.2216 H   0  0  0  0  0  0  0  0  0  0  0  0
   -5.0588   -1.7061    0.3706 H   0  0  0  0  0  0  0  0  0  0  0  0
   -3.7531   -2.5380   -0.5152 H   0  0  0  0  0  0  0  0  0  0  0  0
   -3.1471   -6.5470    0.0660 H   0  0  0  0  0  0  0  0  0  0  0  0
   -2.6603   -4.9843   -0.5959 H   0  0  0  0  0  0  0  0  0  0  0  0
   -4.2496   -5.6869   -1.0262 H   0  0  0  0  0  0  0  0  0  0  0  0
   -1.8408   -1.3540    3.5250 H   0  0  0  0  0  0  0  0  0  0  0  0
   -0.5993    0.7545    3.5286 H   0  0  0  0  0  0  0  0  0  0  0  0
   -1.5663    2.1895   -3.8545 H   0  0  0  0  0  0  0  0  0  0  0  0
   -3.5636    0.6740   -3.9416 H   0  0  0  0  0  0  0  0  0  0  0  0
   -3.4880   -1.5551   -2.8873 H   0  0  0  0  0  0  0  0  0  0  0  0
    1.4737   -3.6436   -0.1751 H   0  0  0  0  0  0  0  0  0  0  0  0
   -0.4853   -1.3616    0.5257 H   0  0  0  0  0  0  0  0  0  0  0  0
    1.0542   -0.8122   -0.1106 H   0  0  0  0  0  0  0  0  0  0  0  0
    1.7573    0.1446    3.3095 H   0  0  0  0  0  0  0  0  0  0  0  0
    1.1002    0.5433    1.7063 H   0  0  0  0  0  0  0  0  0  0  0  0
    3.5258    2.3549    1.2616 H   0  0  0  0  0  0  0  0  0  0  0  0
    3.7191    4.1769    4.3766 H   0  0  0  0  0  0  0  0  0  0  0  0
    2.5609    4.2616    3.0019 H   0  0  0  0  0  0  0  0  0  0  0  0
    4.3083    4.2038    2.6782 H   0  0  0  0  0  0  0  0  0  0  0  0
    3.2944   -1.7628    0.4857 H   0  0  0  0  0  0  0  0  0  0  0  0
    4.6202   -1.6811   -1.8983 H   0  0  0  0  0  0  0  0  0  0  0  0
    3.3658   -0.4306   -2.1339 H   0  0  0  0  0  0  0  0  0  0  0  0
    2.8814   -2.1198   -1.7754 H   0  0  0  0  0  0  0  0  0  0  0  0
  1  2  2  0  0  0  0
  2 34  1  0  0  0  0
  3  2  1  0  0  0  0
  4  3  1  0  0  0  0
  5  4  1  0  0  0  0
  5 49  1  0  0  0  0
  6  5  2  0  0  0  0
  7  6  1  0  0  0  0
  7  8  1  0  0  0  0
  8  9  1  0  0  0  0
  8 30  2  0  0  0  0
  9 11  2  0  0  0  0
 10  9  1  0  0  0  0
 11 50  1  0  0  0  0
 11 12  1  0  0  0  0
 13 12  2  0  0  0  0
 13 14  1  0  0  0  0
 14 15  1  0  0  0  0
 14 51  1  0  0  0  0
 15 29  1  0  0  0  0
 16 15  2  0  0  0  0
 17 16  1  0  0  0  0
 18 52  1  0  0  0  0
 18 17  1  0  0  0  0
 19 16  1  0  0  0  0
 19 20  2  0  0  0  0
 20 28  1  0  0  0  0
 21 20  1  0  0  0  0
 21 22  1  0  0  0  0
 22 23  1  0  0  0  0
 22 56  1  0  0  0  0
 23 59  1  0  0  0  0
 23 58  1  0  0  0  0
 24 23  1  0  0  0  0
 25 24  1  0  0  0  0
 25 60  1  0  0  0  0
 26 25  1  0  0  0  0
 26 21  1  0  0  0  0
 27 64  1  0  0  0  0
 27 24  1  0  0  0  0
 28 29  2  0  0  0  0
 28 67  1  0  0  0  0
 29 68  1  0  0  0  0
 30 13  1  0  0  0  0
 31  6  1  0  0  0  0
 32 31  2  0  0  0  0
 32 33  1  0  0  0  0
 33  4  2  0  0  0  0
 34 72  1  0  0  0  0
 34 35  1  0  0  0  0
 35 73  1  0  0  0  0
 35 36  1  0  0  0  0
 36 37  1  0  0  0  0
 37 75  1  0  0  0  0
 38 40  1  0  0  0  0
 38 37  1  0  0  0  0
 38 39  1  1  0  0  0
 40 41  1  0  0  0  0
 41 42  1  0  0  0  0
 41 43  2  0  0  0  0
 42 78  1  0  0  0  0
 44 38  1  0  0  0  0
 45 44  1  0  0  0  0
 45 81  1  0  0  0  0
 46 45  1  0  0  0  0
 47 44  2  0  0  0  0
 48  3  1  0  0  0  0
 53 18  1  0  0  0  0
 54 18  1  0  0  0  0
 55 19  1  0  0  0  0
 57 22  1  0  0  0  0
 61 25  1  0  0  0  0
 62 26  1  0  0  0  0
 63 26  1  0  0  0  0
 65 27  1  0  0  0  0
 66 27  1  0  0  0  0
 69 31  1  0  0  0  0
 70 32  1  0  0  0  0
 71 33  1  0  0  0  0
 74 35  1  0  0  0  0
 76 37  1  0  0  0  0
 77 40  1  0  0  0  0
 79 42  1  0  0  0  0
 80 42  1  0  0  0  0
 82 46  1  0  0  0  0
 83 46  1  0  0  0  0
 84 46  1  0  0  0  0
M  END
