-1 1
 OpenBabel05232414493D

 85 88  0  0  1  0  0  0  0  0999 V2000
    8.1205   16.0366  -12.3222 O   0  0  0  0  0  0  0  0  0  0  0  0
    7.5353   15.0116  -11.9627 C   0  0  0  0  0  0  0  0  0  0  0  0
    7.1588   15.0001  -10.5672 N   0  0  0  0  0  0  0  0  0  0  0  0
    7.2713   14.0186   -9.6065 C   0  0  0  0  0  0  0  0  0  0  0  0
    7.8290   12.7650   -9.8850 C   0  0  0  0  0  0  0  0  0  0  0  0
    7.8353   11.7455   -8.9328 C   0  0  0  0  0  0  0  0  0  0  0  0
    8.2544   10.4767   -9.4008 N   0  0  0  0  0  0  0  0  0  0  0  0
    8.8331    9.4704   -8.7193 C   0  0  0  0  0  0  0  0  0  0  0  0
    9.0926    8.2098   -9.3437 C   0  0  0  0  0  0  0  0  0  0  0  0
    8.6233    7.9028  -10.9914 Cl  0  0  0  0  0  0  0  0  0  0  0  0
    9.7051    7.2376   -8.5888 C   0  0  0  0  0  0  0  0  0  0  0  0
   10.0651    7.4155   -7.3128 N   0  0  0  0  0  0  0  0  0  0  0  0
    9.7810    8.6144   -6.8079 C   0  0  0  0  0  0  0  0  0  0  0  0
   10.1123    8.9051   -5.5083 N   0  0  0  0  0  0  0  0  0  0  0  0
   10.7695    8.1597   -4.5352 C   0  0  0  0  0  0  0  0  0  0  0  0
   11.1278    8.8486   -3.3558 C   0  0  0  0  0  0  0  0  0  0  0  0
   10.8086   10.1793   -3.2585 O   0  0  0  0  0  0  0  0  0  0  0  0
   11.8458   11.0578   -3.6375 C   0  0  0  0  0  0  0  0  0  0  0  0
   11.7545    8.2036   -2.3024 C   0  0  0  0  0  0  0  0  0  0  0  0
   12.0874    6.8406   -2.3807 C   0  0  0  0  0  0  0  0  0  0  0  0
   12.7169    6.2119   -1.2835 N   0  0  0  0  0  0  0  0  0  0  0  0
   13.9540    6.8179   -0.8098 C   0  0  0  0  0  0  0  0  0  0  0  0
   14.3173    6.2751    0.5724 C   0  0  0  0  0  0  0  0  0  0  0  0
   14.3898    4.8257    0.6220 N   0  0  0  0  0  0  0  0  0  0  0  0
   13.1570    4.2551    0.1098 C   0  0  0  0  0  0  0  0  0  0  0  0
   12.7743    4.7640   -1.2825 C   0  0  0  0  0  0  0  0  0  0  0  0
   15.5959    4.2629    0.0578 C   0  0  0  0  0  0  0  0  0  0  0  0
   11.7458    6.1628   -3.5566 C   0  0  0  0  0  0  0  0  0  0  0  0
   11.0878    6.8020   -4.6096 C   0  0  0  0  0  0  0  0  0  0  0  0
    9.1864    9.6265   -7.4451 N   0  0  0  0  0  0  0  0  0  0  0  0
    7.3695   11.9814   -7.6344 C   0  0  0  0  0  0  0  0  0  0  0  0
    6.8901   13.2568   -7.3331 C   0  0  0  0  0  0  0  0  0  0  0  0
    6.8217   14.2607   -8.2913 C   0  0  0  0  0  0  0  0  0  0  0  0
    7.1161   13.9681  -12.8317 C   0  0  0  0  0  3  0  0  0  0  0  0
    6.1874   12.9189  -12.5756 C   0  0  0  0  0  0  0  0  0  0  0  0
    7.0218   10.9839  -12.5518 S   0  0  0  0  0  0  0  0  0  0  0  0
    5.5951    9.9591  -12.0778 C   0  0  0  0  0  0  0  0  0  0  0  0
    5.0399    9.0368  -13.1830 C   0  0  2  0  0  0  0  0  0  0  0  0
    4.8314    9.6646  -14.0658 H   0  0  0  0  0  0  0  0  0  0  0  0
    3.8224    8.3866  -12.7632 N   0  0  0  0  0  0  0  0  0  0  0  0
    2.6210    9.0090  -12.7393 C   0  0  0  0  0  0  0  0  0  0  0  0
    1.4536    8.1436  -12.2964 C   0  0  0  0  0  0  0  0  0  0  0  0
    2.4710   10.1834  -13.0277 O   0  0  0  0  0  0  0  0  0  0  0  0
    6.0053    7.9095  -13.5883 C   0  0  0  0  0  0  0  0  0  0  0  0
    7.1447    8.3174  -14.1816 N   0  0  0  0  0  0  0  0  0  0  0  0
    8.2051    7.4098  -14.5396 C   0  0  0  0  0  0  0  0  0  0  0  0
    5.7235    6.7352  -13.3834 O   0  0  0  0  0  0  0  0  0  0  0  0
    7.2036   15.9497  -10.2152 H   0  0  0  0  0  0  0  0  0  0  0  0
    8.2320   12.5788  -10.8771 H   0  0  0  0  0  0  0  0  0  0  0  0
    8.0988   10.3478  -10.4068 H   0  0  0  0  0  0  0  0  0  0  0  0
    9.9132    6.2597   -9.0349 H   0  0  0  0  0  0  0  0  0  0  0  0
    9.8412    9.8383   -5.2211 H   0  0  0  0  0  0  0  0  0  0  0  0
   11.4598   12.0806   -3.5388 H   0  0  0  0  0  0  0  0  0  0  0  0
   12.1552   10.8898   -4.6840 H   0  0  0  0  0  0  0  0  0  0  0  0
   12.7291   10.9391   -2.9857 H   0  0  0  0  0  0  0  0  0  0  0  0
   11.9579    8.7820   -1.3994 H   0  0  0  0  0  0  0  0  0  0  0  0
   13.8345    7.9076   -0.7481 H   0  0  0  0  0  0  0  0  0  0  0  0
   14.7836    6.6295   -1.5272 H   0  0  0  0  0  0  0  0  0  0  0  0
   13.5437    6.6070    1.2866 H   0  0  0  0  0  0  0  0  0  0  0  0
   15.2782    6.7006    0.9026 H   0  0  0  0  0  0  0  0  0  0  0  0
   12.3411    4.5157    0.8059 H   0  0  0  0  0  0  0  0  0  0  0  0
   13.2414    3.1570    0.0955 H   0  0  0  0  0  0  0  0  0  0  0  0
   11.7841    4.3656   -1.5491 H   0  0  0  0  0  0  0  0  0  0  0  0
   13.4939    4.3762   -2.0385 H   0  0  0  0  0  0  0  0  0  0  0  0
   16.4743    4.6825    0.5730 H   0  0  0  0  0  0  0  0  0  0  0  0
   15.7367    4.4355   -1.0304 H   0  0  0  0  0  0  0  0  0  0  0  0
   15.6054    3.1739    0.2215 H   0  0  0  0  0  0  0  0  0  0  0  0
   11.9919    5.1077   -3.6775 H   0  0  0  0  0  0  0  0  0  0  0  0
   10.8314    6.2602   -5.5174 H   0  0  0  0  0  0  0  0  0  0  0  0
    7.3823   11.1934   -6.8859 H   0  0  0  0  0  0  0  0  0  0  0  0
    6.5312   13.4625   -6.3209 H   0  0  0  0  0  0  0  0  0  0  0  0
    6.4015   15.2380   -8.0397 H   0  0  0  0  0  0  0  0  0  0  0  0
    7.4361   14.1313  -13.8642 H   0  0  0  0  0  0  0  0  0  0  0  0
    5.4663   12.7058  -13.3724 H   0  0  0  0  0  0  0  0  0  0  0  0
    5.7039   12.9215  -11.5907 H   0  0  0  0  0  0  0  0  0  0  0  0
    4.7780   10.6430  -11.8008 H   0  0  0  0  0  0  0  0  0  0  0  0
    5.8391    9.3518  -11.1917 H   0  0  0  0  0  0  0  0  0  0  0  0
    3.9158    7.3845  -12.6228 H   0  0  0  0  0  0  0  0  0  0  0  0
    0.6212    8.2940  -12.9968 H   0  0  0  0  0  0  0  0  0  0  0  0
    1.1190    8.4894  -11.3073 H   0  0  0  0  0  0  0  0  0  0  0  0
    1.6972    7.0739  -12.2358 H   0  0  0  0  0  0  0  0  0  0  0  0
    7.3346    9.3224  -14.1518 H   0  0  0  0  0  0  0  0  0  0  0  0
    9.1302    7.6466  -13.9911 H   0  0  0  0  0  0  0  0  0  0  0  0
    8.4208    7.4537  -15.6193 H   0  0  0  0  0  0  0  0  0  0  0  0
    7.8894    6.3908  -14.2832 H   0  0  0  0  0  0  0  0  0  0  0  0
  1  2  2  0  0  0  0
  2  3  1  0  0  0  0
  3 48  1  0  0  0  0
  3  4  1  0  0  0  0
  4 33  1  0  0  0  0
  5  4  2  0  0  0  0
  5  6  1  0  0  0  0
  6 31  2  0  0  0  0
  7  6  1  0  0  0  0
  7  8  1  0  0  0  0
  8 30  2  0  0  0  0
  9  8  1  0  0  0  0
  9 11  2  0  0  0  0
 10  9  1  0  0  0  0
 11 12  1  0  0  0  0
 12 13  2  0  0  0  0
 13 14  1  0  0  0  0
 14 52  1  0  0  0  0
 14 15  1  0  0  0  0
 15 16  1  0  0  0  0
 16 17  1  0  0  0  0
 16 19  2  0  0  0  0
 18 53  1  0  0  0  0
 18 17  1  0  0  0  0
 18 55  1  0  0  0  0
 19 56  1  0  0  0  0
 20 19  1  0  0  0  0
 20 21  1  0  0  0  0
 21 26  1  0  0  0  0
 21 22  1  0  0  0  0
 22 57  1  0  0  0  0
 22 23  1  0  0  0  0
 23 24  1  0  0  0  0
 23 60  1  0  0  0  0
 23 59  1  0  0  0  0
 25 24  1  0  0  0  0
 25 61  1  0  0  0  0
 26 25  1  0  0  0  0
 27 67  1  0  0  0  0
 27 65  1  0  0  0  0
 27 24  1  0  0  0  0
 28 20  2  0  0  0  0
 29 15  2  0  0  0  0
 29 28  1  0  0  0  0
 30 13  1  0  0  0  0
 31 32  1  0  0  0  0
 31 70  1  0  0  0  0
 32 71  1  0  0  0  0
 33 72  1  0  0  0  0
 33 32  2  0  0  0  0
 34 35  1  0  0  0  0
 34  2  1  0  0  0  0
 35 36  1  0  0  0  0
 35 75  1  0  0  0  0
 36 37  1  0  0  0  0
 37 76  1  0  0  0  0
 37 77  1  0  0  0  0
 38 39  1  6  0  0  0
 38 40  1  0  0  0  0
 38 37  1  0  0  0  0
 40 41  1  0  0  0  0
 40 78  1  0  0  0  0
 41 42  1  0  0  0  0
 42 81  1  0  0  0  0
 42 80  1  0  0  0  0
 43 41  2  0  0  0  0
 44 47  2  0  0  0  0
 44 38  1  0  0  0  0
 45 82  1  0  0  0  0
 45 44  1  0  0  0  0
 46 85  1  0  0  0  0
 46 45  1  0  0  0  0
 46 83  1  0  0  0  0
 49  5  1  0  0  0  0
 50  7  1  0  0  0  0
 51 11  1  0  0  0  0
 54 18  1  0  0  0  0
 58 22  1  0  0  0  0
 62 25  1  0  0  0  0
 63 26  1  0  0  0  0
 64 26  1  0  0  0  0
 66 27  1  0  0  0  0
 68 28  1  0  0  0  0
 69 29  1  0  0  0  0
 73 34  1  0  0  0  0
 74 35  1  0  0  0  0
 79 42  1  0  0  0  0
 84 46  1  0  0  0  0
M  END
