85
-1 1
O        -0.699657    6.660711   -4.352488
C        -1.299050    5.646229   -3.975698
N        -1.704907    5.688297   -2.572451
C        -1.509491    4.773553   -1.567104
C        -0.957353    3.508950   -1.811289
C        -0.892759    2.535201   -0.816067
N        -0.499472    1.249170   -1.262876
C         0.062809    0.234463   -0.581683
C         0.292167   -1.031617   -1.208118
Cl        -0.192036   -1.327867   -2.855074
C         0.888401   -2.016954   -0.457926
N         1.259849   -1.846582    0.815775
C         1.004560   -0.641947    1.322832
N         1.351030   -0.359491    2.619911
C         2.001292   -1.119032    3.586964
C         2.385157   -0.437501    4.762508
O         2.094890    0.899520    4.861885
C         3.147675    1.756203    4.475745
C         3.007964   -1.095286    5.810329
C         3.311073   -2.465147    5.729612
N         3.937373   -3.106720    6.820944
C         5.190520   -2.525764    7.283964
C         5.555185   -3.076389    8.662717
N         5.598968   -4.526932    8.711275
C         4.350319   -5.072340    8.210317
C         3.965328   -4.555527    6.821540
C         6.788251   -5.113699    8.135761
C         2.943916   -3.135857    4.557345
C         2.289773   -2.483205    3.510290
N         0.426927    0.383085    0.690115
C        -1.282259    2.827361    0.495859
C        -1.748533    4.116988    0.760892
C        -1.878402    5.075186   -0.236496
C        -1.691852    4.560013   -4.781054
C        -2.653258    3.513627   -4.463543
S        -1.859075    1.725087   -4.461751
C        -3.256845    0.649439   -4.007068
C        -3.767221   -0.282428   -5.125191
H        -3.998829    0.344024   -6.003113
N        -4.955629   -0.989528   -4.716515
C        -6.181354   -0.415927   -4.680346
C        -7.311135   -1.331286   -4.241844
O        -6.377273    0.754515   -4.956033
C        -2.747027   -1.360989   -5.528039
N        -1.636471   -0.901118   -6.139128
C        -0.524719   -1.753135   -6.479830
O        -2.960864   -2.544856   -5.300728
H        -1.696303    6.656592   -2.271643
H        -0.604946    3.282269   -2.814317
H        -0.675242    1.102611   -2.259738
H         1.073668   -2.998853   -0.905309
H         1.102802    0.579155    2.910234
H         2.783974    2.786868    4.577245
H         3.446089    1.582071    3.427084
H         4.032836    1.618814    5.121367
H         3.231721   -0.520989    6.711133
H         5.093391   -1.433941    7.347107
H         6.009764   -2.730362    6.559212
H         4.794893   -2.729366    9.384008
H         6.527358   -2.670395    8.984343
H         3.546174   -4.795462    8.913830
H         4.412300   -6.171943    8.195185
H         2.964813   -4.933679    6.564237
H         4.669866   -4.957683    6.058975
H         7.679604   -4.712097    8.642923
H         6.922339   -4.943474    7.046379
H         6.777308   -6.202764    8.299011
H         3.166380   -4.196026    4.434648
H         2.013453   -3.019821    2.605229
H        -1.223140    2.075144    1.277787
H        -2.046797    4.371169    1.781983
H        -2.286422    6.062502   -0.003870
H        -1.377650    4.660586   -5.823663
H        -3.454294    3.379034   -5.205983
H        -3.099444    3.602526   -3.463170
H        -4.094283    1.306584   -3.729763
H        -2.992009    0.045473   -3.125413
H        -4.816882   -1.985604   -4.571282
H        -8.153766   -1.203261   -4.934385
H        -7.651408   -1.012403   -3.245706
H        -7.026136   -2.391503   -4.198189
H        -1.505435    0.111833   -6.142367
H         0.375165   -1.479451   -5.906896
H        -0.288275   -1.686719   -7.553506
H        -0.798373   -2.787968   -6.239664
