-1 1
 OpenBabel05232414493D

 84 86  0  0  1  0  0  0  0  0999 V2000
    8.2075    3.4793  -13.6528 O   0  0  0  0  0  0  0  0  0  0  0  0
    7.3817    4.3177  -14.0297 C   0  0  0  0  0  0  0  0  0  0  0  0
    6.0373    3.9441  -13.8691 N   0  0  0  0  0  0  0  0  0  0  0  0
    4.8371    4.4861  -14.3113 C   0  0  0  0  0  0  0  0  0  0  0  0
    3.7646    4.4788  -13.4131 C   0  0  0  0  0  0  0  0  0  0  0  0
    3.9777    3.9938  -12.1874 F   0  0  0  0  0  0  0  0  0  0  0  0
    2.5009    4.9488  -13.7625 C   0  0  0  0  0  0  0  0  0  0  0  0
    1.4632    4.9848  -12.8656 O   0  0  0  0  0  0  0  0  0  0  0  0
    1.3692    4.0733  -11.8710 C   0  0  0  0  0  0  0  0  0  0  0  0
    1.2810    2.6927  -12.1209 C   0  0  2  0  0  3  0  0  0  0  0  0
    1.2694    2.0225  -13.7235 Cl  0  0  0  0  0  0  0  0  0  0  0  0
    1.1969    1.8731  -11.0031 C   0  0  0  0  0  0  0  0  0  0  0  0
    1.1815    2.3436   -9.7661 N   0  0  0  0  0  0  0  0  0  0  0  0
    1.2446    3.6736   -9.6374 C   0  0  2  0  0  3  0  0  0  0  0  0
    1.2055    4.2058   -8.3860 N   0  0  0  0  0  0  0  0  0  0  0  0
    1.5919    3.4904   -7.2156 C   0  0  0  0  0  0  0  0  0  0  0  0
    0.6573    3.1370   -6.2279 C   0  0  0  0  0  0  0  0  0  0  0  0
   -0.6738    3.3807   -6.3150 O   0  0  0  0  0  0  0  0  0  0  0  0
   -1.3456    3.1361   -7.5315 C   0  0  0  0  0  0  0  0  0  0  0  0
    1.0951    2.5388   -5.0461 C   0  0  0  0  0  0  0  0  0  0  0  0
    2.4504    2.2542   -4.8183 C   0  0  0  0  0  0  0  0  0  0  0  0
    2.8550    1.6762   -3.6031 N   0  0  0  0  0  0  0  0  0  0  0  0
    4.2780    1.5438   -3.3512 C   0  0  0  0  0  0  0  0  0  0  0  0
    4.5334    1.2750   -1.8661 C   0  0  0  0  0  0  0  0  0  0  0  0
    3.7987    0.1402   -1.3370 N   0  0  0  0  0  0  0  0  0  0  0  0
    2.3849    0.3051   -1.6200 C   0  0  0  0  0  0  0  0  0  0  0  0
    2.0819    0.5503   -3.0983 C   0  0  0  0  0  0  0  0  0  0  0  0
    4.3393   -1.1505   -1.7007 C   0  0  0  0  0  0  0  0  0  0  0  0
    3.3683    2.5775   -5.8339 C   0  0  0  0  0  0  0  0  0  0  0  0
    2.9380    3.1897   -7.0046 C   0  0  0  0  0  0  0  0  0  0  0  0
    1.3139    4.5501  -10.6512 N   0  0  0  0  0  0  0  0  0  0  0  0
    2.2968    5.4655  -15.0383 C   0  0  0  0  0  0  0  0  0  0  0  0
    3.3585    5.4885  -15.9412 C   0  0  0  0  0  0  0  0  0  0  0  0
    4.6121    4.9909  -15.5980 C   0  0  0  0  0  0  0  0  0  0  0  0
    7.7515    5.6190  -14.5329 C   0  0  0  0  0  3  0  0  0  0  0  0
    7.0085    6.7804  -14.4751 C   0  0  0  0  0  3  0  0  0  0  0  0
    7.1199    7.8886  -12.2441 S   0  0  0  0  0  1  0  0  0  0  0  0
    7.9124    6.4797  -11.4333 C   0  0  0  0  0  0  0  0  0  0  0  0
    6.9440    5.4501  -10.8069 C   0  0  2  0  0  0  0  0  0  0  0  0
    6.4601    4.8762  -11.6119 H   0  0  0  0  0  0  0  0  0  0  0  0
    5.9312    6.1355  -10.0487 N   0  0  0  0  0  0  0  0  0  0  0  0
    4.8920    5.5118   -9.4651 C   0  0  0  0  0  0  0  0  0  0  0  0
    3.8119    6.4297   -8.9224 C   0  0  0  0  0  0  0  0  0  0  0  0
    4.7887    4.2934   -9.3858 O   0  0  0  0  0  0  0  0  0  0  0  0
    7.7572    4.4810   -9.9413 C   0  0  0  0  0  0  0  0  0  0  0  0
    8.3338    3.4802  -10.6600 N   0  0  0  0  0  0  0  0  0  0  0  0
    9.2371    2.5381  -10.0586 C   0  0  0  0  0  0  0  0  0  0  0  0
    7.9207    4.6365   -8.7453 O   0  0  0  0  0  0  0  0  0  0  0  0
    5.9522    3.1765  -13.2115 H   0  0  0  0  0  0  0  0  0  0  0  0
    1.1337    0.7873  -11.1315 H   0  0  0  0  0  0  0  0  0  0  0  0
    1.3447    5.2092   -8.3728 H   0  0  0  0  0  0  0  0  0  0  0  0
   -2.3617    2.8023   -7.2735 H   0  0  0  0  0  0  0  0  0  0  0  0
   -0.8431    2.3509   -8.1189 H   0  0  0  0  0  0  0  0  0  0  0  0
   -1.4147    4.0448   -8.1488 H   0  0  0  0  0  0  0  0  0  0  0  0
    0.3316    2.3220   -4.2991 H   0  0  0  0  0  0  0  0  0  0  0  0
    4.7816    2.4813   -3.6253 H   0  0  0  0  0  0  0  0  0  0  0  0
    4.7320    0.7407   -3.9720 H   0  0  0  0  0  0  0  0  0  0  0  0
    4.2338    2.1726   -1.2980 H   0  0  0  0  0  0  0  0  0  0  0  0
    5.6114    1.1240   -1.6986 H   0  0  0  0  0  0  0  0  0  0  0  0
    2.0170    1.1720   -1.0437 H   0  0  0  0  0  0  0  0  0  0  0  0
    1.8350   -0.5829   -1.2698 H   0  0  0  0  0  0  0  0  0  0  0  0
    1.0094    0.7502   -3.2093 H   0  0  0  0  0  0  0  0  0  0  0  0
    2.2966   -0.3659   -3.6907 H   0  0  0  0  0  0  0  0  0  0  0  0
    5.3884   -1.2155   -1.3723 H   0  0  0  0  0  0  0  0  0  0  0  0
    4.3176   -1.3854   -2.7859 H   0  0  0  0  0  0  0  0  0  0  0  0
    3.7794   -1.9441   -1.1811 H   0  0  0  0  0  0  0  0  0  0  0  0
    4.4292    2.3553   -5.7309 H   0  0  0  0  0  0  0  0  0  0  0  0
    3.6578    3.4550   -7.7893 H   0  0  0  0  0  0  0  0  0  0  0  0
    1.3063    5.8393  -15.2988 H   0  0  0  0  0  0  0  0  0  0  0  0
    3.1994    5.8927  -16.9428 H   0  0  0  0  0  0  0  0  0  0  0  0
    5.4422    5.0083  -16.3041 H   0  0  0  0  0  0  0  0  0  0  0  0
    8.8238    5.6868  -14.7330 H   0  0  0  0  0  0  0  0  0  0  0  0
    5.9266    6.7773  -14.3735 H   0  0  0  0  0  0  0  0  0  0  0  0
    7.4236    7.6847  -14.9196 H   0  0  0  0  0  0  0  0  0  0  0  0
    8.5879    6.8463  -10.6443 H   0  0  0  0  0  0  0  0  0  0  0  0
    8.5312    5.9427  -12.1728 H   0  0  0  0  0  0  0  0  0  0  0  0
    5.8582    7.1259  -10.2826 H   0  0  0  0  0  0  0  0  0  0  0  0
    2.9347    6.3392   -9.5828 H   0  0  0  0  0  0  0  0  0  0  0  0
    4.1203    7.4829   -8.8779 H   0  0  0  0  0  0  0  0  0  0  0  0
    3.5353    6.0906   -7.9135 H   0  0  0  0  0  0  0  0  0  0  0  0
    8.2334    3.4599  -11.6768 H   0  0  0  0  0  0  0  0  0  0  0  0
    9.2520    2.7280   -8.9774 H   0  0  0  0  0  0  0  0  0  0  0  0
   10.2624    2.6455  -10.4519 H   0  0  0  0  0  0  0  0  0  0  0  0
    8.9103    1.4998  -10.2337 H   0  0  0  0  0  0  0  0  0  0  0  0
  2  3  1  0  0  0  0
  2  1  2  0  0  0  0
  3 49  1  0  0  0  0
  4  3  1  0  0  0  0
  4  5  1  0  0  0  0
  5  6  1  0  0  0  0
  7  5  2  0  0  0  0
  7  8  1  0  0  0  0
  8  9  1  0  0  0  0
  9 31  2  0  0  0  0
 10 11  1  6  0  0  0
 10  9  1  0  0  0  0
 10 12  1  0  0  0  0
 12 13  2  0  0  0  0
 13 14  1  0  0  0  0
 14 15  1  6  0  0  0
 15 51  1  0  0  0  0
 15 16  1  0  0  0  0
 16 30  2  0  0  0  0
 16 17  1  0  0  0  0
 17 20  2  0  0  0  0
 18 17  1  0  0  0  0
 19 52  1  0  0  0  0
 19 18  1  0  0  0  0
 20 21  1  0  0  0  0
 20 55  1  0  0  0  0
 21 22  1  0  0  0  0
 22 23  1  0  0  0  0
 22 27  1  0  0  0  0
 23 24  1  0  0  0  0
 24 59  1  0  0  0  0
 24 25  1  0  0  0  0
 24 58  1  0  0  0  0
 26 25  1  0  0  0  0
 26 61  1  0  0  0  0
 26 60  1  0  0  0  0
 27 26  1  0  0  0  0
 28 64  1  0  0  0  0
 28 25  1  0  0  0  0
 28 66  1  0  0  0  0
 29 67  1  0  0  0  0
 29 21  2  0  0  0  0
 30 29  1  0  0  0  0
 31 14  1  0  0  0  0
 32  7  1  0  0  0  0
 33 34  1  0  0  0  0
 33 32  2  0  0  0  0
 34  4  2  0  0  0  0
 35 36  1  0  0  0  0
 35  2  1  0  0  0  0
 36 73  1  0  0  0  0
 37 38  1  0  0  0  0
 38 39  1  0  0  0  0
 38 75  1  0  0  0  0
 39 40  1  6  0  0  0
 39 41  1  0  0  0  0
 39 45  1  0  0  0  0
 41 42  1  0  0  0  0
 42 44  2  0  0  0  0
 42 43  1  0  0  0  0
 43 79  1  0  0  0  0
 43 80  1  0  0  0  0
 45 48  2  0  0  0  0
 46 47  1  0  0  0  0
 46 45  1  0  0  0  0
 47 82  1  0  0  0  0
 50 12  1  0  0  0  0
 53 19  1  0  0  0  0
 54 19  1  0  0  0  0
 56 23  1  0  0  0  0
 57 23  1  0  0  0  0
 62 27  1  0  0  0  0
 63 27  1  0  0  0  0
 65 28  1  0  0  0  0
 68 30  1  0  0  0  0
 69 32  1  0  0  0  0
 70 33  1  0  0  0  0
 71 34  1  0  0  0  0
 72 35  1  0  0  0  0
 74 36  1  0  0  0  0
 76 38  1  0  0  0  0
 77 41  1  0  0  0  0
 78 43  1  0  0  0  0
 81 46  1  0  0  0  0
 83 47  1  0  0  0  0
 84 47  1  0  0  0  0
M  END
