84
-1 1
O         8.207537    3.479315  -13.652801
C         7.381663    4.317670  -14.029701
N         6.037326    3.944146  -13.869144
C         4.837056    4.486080  -14.311335
C         3.764572    4.478849  -13.413050
F         3.977748    3.993758  -12.187448
C         2.500891    4.948771  -13.762461
O         1.463234    4.984790  -12.865577
C         1.369196    4.073298  -11.871014
C         1.281017    2.692682  -12.120895
Cl         1.269406    2.022508  -13.723544
C         1.196949    1.873113  -11.003064
N         1.181475    2.343597   -9.766104
C         1.244561    3.673562   -9.637448
N         1.205538    4.205818   -8.385961
C         1.591888    3.490400   -7.215639
C         0.657340    3.137023   -6.227940
O        -0.673837    3.380731   -6.314982
C        -1.345596    3.136066   -7.531460
C         1.095145    2.538772   -5.046054
C         2.450351    2.254223   -4.818267
N         2.854992    1.676180   -3.603056
C         4.277968    1.543787   -3.351194
C         4.533414    1.274956   -1.866135
N         3.798706    0.140154   -1.337000
C         2.384940    0.305150   -1.620050
C         2.081901    0.550271   -3.098280
C         4.339318   -1.150473   -1.700684
C         3.368311    2.577486   -5.833942
C         2.938034    3.189732   -7.004640
N         1.313901    4.550112  -10.651209
C         2.296783    5.465451  -15.038347
C         3.358545    5.488466  -15.941165
C         4.612130    4.990856  -15.597997
C         7.751481    5.619027  -14.532915
C         7.008523    6.780357  -14.475134
S         7.119923    7.888637  -12.244149
C         7.912443    6.479695  -11.433298
C         6.944006    5.450145  -10.806854
H         6.460069    4.876248  -11.611945
N         5.931200    6.135531  -10.048718
C         4.892033    5.511844   -9.465079
C         3.811921    6.429744   -8.922358
O         4.788715    4.293392   -9.385838
C         7.757230    4.481031   -9.941321
N         8.333844    3.480250  -10.659957
C         9.237117    2.538089  -10.058560
O         7.920707    4.636468   -8.745327
H         5.952235    3.176456  -13.211542
H         1.133660    0.787292  -11.131533
H         1.344707    5.209224   -8.372780
H        -2.361690    2.802289   -7.273530
H        -0.843138    2.350883   -8.118880
H        -1.414721    4.044814   -8.148829
H         0.331597    2.322036   -4.299101
H         4.781568    2.481330   -3.625298
H         4.731955    0.740664   -3.971985
H         4.233778    2.172647   -1.298001
H         5.611352    1.124022   -1.698627
H         2.016975    1.172031   -1.043741
H         1.834951   -0.582943   -1.269766
H         1.009424    0.750198   -3.209316
H         2.296596   -0.365930   -3.690738
H         5.388400   -1.215479   -1.372275
H         4.317631   -1.385352   -2.785886
H         3.779449   -1.944143   -1.181082
H         4.429205    2.355292   -5.730947
H         3.657847    3.454997   -7.789342
H         1.306311    5.839303  -15.298759
H         3.199390    5.892714  -16.942818
H         5.442213    5.008320  -16.304123
H         8.823848    5.686814  -14.733028
H         5.926566    6.777275  -14.373486
H         7.423624    7.684653  -14.919579
H         8.587931    6.846324  -10.644310
H         8.531156    5.942657  -12.172825
H         5.858200    7.125902  -10.282570
H         2.934655    6.339188   -9.582779
H         4.120333    7.482900   -8.877888
H         3.535349    6.090590   -7.913521
H         8.233423    3.459935  -11.676835
H         9.251957    2.728029   -8.977376
H        10.262430    2.645491  -10.451909
H         8.910259    1.499822  -10.233705
