-1 1
 OpenBabel05192410563D

 84 87  0  0  1  0  0  0  0  0999 V2000
    4.1654   -0.3809   -3.8604 O   0  0  0  0  0  0  0  0  0  0  0  0
    3.3998    0.5781   -4.1175 C   0  0  0  0  0  0  0  0  0  0  0  0
    2.0088    0.2736   -3.8809 N   0  0  0  0  0  0  0  0  0  0  0  0
    0.8438    0.7635   -4.4141 C   0  0  0  0  0  0  0  0  0  0  0  0
   -0.3188    0.6531   -3.6321 C   0  0  0  0  0  0  0  0  0  0  0  0
   -0.1920    0.0894   -2.4204 F   0  0  0  0  0  0  0  0  0  0  0  0
   -1.5553    1.1270   -4.0559 C   0  0  0  0  0  0  0  0  0  0  0  0
   -2.6714    1.1059   -3.2500 O   0  0  0  0  0  0  0  0  0  0  0  0
   -2.7708    0.2387   -2.2209 C   0  0  0  0  0  0  0  0  0  0  0  0
   -2.9028   -1.1441   -2.4317 C   0  0  1  0  0  3  0  0  0  0  0  0
   -2.9321   -1.8396   -4.0206 Cl  0  0  0  0  0  0  0  0  0  0  0  0
   -2.9913   -1.9326   -1.2932 C   0  0  0  0  0  0  0  0  0  0  0  0
   -2.9637   -1.4278   -0.0684 N   0  0  0  0  0  0  0  0  0  0  0  0
   -2.8507   -0.0990    0.0233 C   0  0  2  0  0  3  0  0  0  0  0  0
   -2.8231    0.4650    1.2640 N   0  0  0  0  0  0  0  0  0  0  0  0
   -2.3913   -0.2306    2.4302 C   0  0  0  0  0  0  0  0  0  0  0  0
   -3.2801   -0.5434    3.4725 C   0  0  0  0  0  0  0  0  0  0  0  0
   -4.6089   -0.2759    3.4480 O   0  0  0  0  0  0  0  0  0  0  0  0
   -5.3465   -0.5276    2.2713 C   0  0  0  0  0  0  0  0  0  0  0  0
   -2.7935   -1.1231    4.6447 C   0  0  0  0  0  0  0  0  0  0  0  0
   -1.4340   -1.4291    4.8114 C   0  0  0  0  0  0  0  0  0  0  0  0
   -0.9779   -1.9859    6.0176 N   0  0  0  0  0  0  0  0  0  0  0  0
    0.4533   -2.1482    6.1959 C   0  0  0  0  0  0  0  0  0  0  0  0
    0.7836   -2.3862    7.6714 C   0  0  0  0  0  0  0  0  0  0  0  0
    0.0516   -3.4876    8.2699 N   0  0  0  0  0  0  0  0  0  0  0  0
   -1.3710   -3.2920    8.0609 C   0  0  0  0  0  0  0  0  0  0  0  0
   -1.7501   -3.0768    6.5955 C   0  0  0  0  0  0  0  0  0  0  0  0
    0.5386   -4.8007    7.9105 C   0  0  0  0  0  0  0  0  0  0  0  0
   -0.5634   -1.1479    3.7427 C   0  0  0  0  0  0  0  0  0  0  0  0
   -1.0423   -0.5548    2.5812 C   0  0  0  0  0  0  0  0  0  0  0  0
   -2.7827    0.7508   -1.0125 N   0  0  0  0  0  0  0  0  0  0  0  0
   -1.6672    1.7226   -5.3107 C   0  0  0  0  0  0  0  0  0  0  0  0
   -0.5245    1.8391   -6.1015 C   0  0  0  0  0  0  0  0  0  0  0  0
    0.7142    1.3714   -5.6751 C   0  0  0  0  0  0  0  0  0  0  0  0
    3.7582    1.8691   -4.5068 C   0  0  0  0  0  3  0  0  0  0  0  0
    2.9991    3.0942   -4.2102 C   0  0  0  0  0  0  0  0  0  0  0  0
    3.5349    4.0196   -2.6102 S   0  0  0  0  0  0  0  0  0  0  0  0
    4.1816    2.6601   -1.6064 C   0  0  0  0  0  0  0  0  0  0  0  0
    3.1489    1.6731   -1.0476 C   0  0  2  0  0  0  0  0  0  0  0  0
    2.6686    1.1463   -1.8811 H   0  0  0  0  0  0  0  0  0  0  0  0
    2.1303    2.3668   -0.2984 N   0  0  0  0  0  0  0  0  0  0  0  0
    1.0617    1.7229    0.2216 C   0  0  0  0  0  0  0  0  0  0  0  0
   -0.0604    2.6100    0.7262 C   0  0  0  0  0  0  0  0  0  0  0  0
    0.9765    0.5053    0.2666 O   0  0  0  0  0  0  0  0  0  0  0  0
    3.9100    0.6416   -0.2017 C   0  0  0  0  0  0  0  0  0  0  0  0
    4.4165   -0.3717   -0.9448 N   0  0  0  0  0  0  0  0  0  0  0  0
    5.2505   -1.3892   -0.3653 C   0  0  0  0  0  0  0  0  0  0  0  0
    4.0910    0.7830    0.9951 O   0  0  0  0  0  0  0  0  0  0  0  0
    1.9014   -0.4744   -3.2055 H   0  0  0  0  0  0  0  0  0  0  0  0
   -3.0893   -3.0190   -1.3898 H   0  0  0  0  0  0  0  0  0  0  0  0
   -2.6608    1.4648    1.2443 H   0  0  0  0  0  0  0  0  0  0  0  0
   -6.3539   -0.8374    2.5868 H   0  0  0  0  0  0  0  0  0  0  0  0
   -4.8891   -1.3315    1.6726 H   0  0  0  0  0  0  0  0  0  0  0  0
   -5.4302    0.3722    1.6429 H   0  0  0  0  0  0  0  0  0  0  0  0
   -3.5227   -1.3078    5.4333 H   0  0  0  0  0  0  0  0  0  0  0  0
    0.9640   -1.2310    5.8709 H   0  0  0  0  0  0  0  0  0  0  0  0
    0.8529   -2.9776    5.5724 H   0  0  0  0  0  0  0  0  0  0  0  0
    0.5382   -1.4669    8.2310 H   0  0  0  0  0  0  0  0  0  0  0  0
    1.8652   -2.5608    7.7833 H   0  0  0  0  0  0  0  0  0  0  0  0
   -1.6842   -2.4013    8.6332 H   0  0  0  0  0  0  0  0  0  0  0  0
   -1.9231   -4.1558    8.4646 H   0  0  0  0  0  0  0  0  0  0  0  0
   -2.8216   -2.8505    6.5392 H   0  0  0  0  0  0  0  0  0  0  0  0
   -1.5930   -4.0135    6.0173 H   0  0  0  0  0  0  0  0  0  0  0  0
    1.6021   -4.8856    8.1829 H   0  0  0  0  0  0  0  0  0  0  0  0
    0.4514   -5.0609    6.8344 H   0  0  0  0  0  0  0  0  0  0  0  0
   -0.0118   -5.5663    8.4798 H   0  0  0  0  0  0  0  0  0  0  0  0
    0.4973   -1.3875    3.7958 H   0  0  0  0  0  0  0  0  0  0  0  0
   -0.3511   -0.3234    1.7615 H   0  0  0  0  0  0  0  0  0  0  0  0
   -2.6407    2.0923   -5.6329 H   0  0  0  0  0  0  0  0  0  0  0  0
   -0.6041    2.3102   -7.0839 H   0  0  0  0  0  0  0  0  0  0  0  0
    1.6120    1.4868   -6.2829 H   0  0  0  0  0  0  0  0  0  0  0  0
    4.8239    1.9819   -4.7285 H   0  0  0  0  0  0  0  0  0  0  0  0
    1.9241    2.9342   -4.0804 H   0  0  0  0  0  0  0  0  0  0  0  0
    3.1286    3.8950   -4.9549 H   0  0  0  0  0  0  0  0  0  0  0  0
    4.7276    3.1284   -0.7724 H   0  0  0  0  0  0  0  0  0  0  0  0
    4.8956    2.0931   -2.2191 H   0  0  0  0  0  0  0  0  0  0  0  0
    2.0686    3.3646   -0.4705 H   0  0  0  0  0  0  0  0  0  0  0  0
   -0.9152    2.4822    0.0427 H   0  0  0  0  0  0  0  0  0  0  0  0
    0.2075    3.6744    0.7729 H   0  0  0  0  0  0  0  0  0  0  0  0
   -0.3578    2.2672    1.7276 H   0  0  0  0  0  0  0  0  0  0  0  0
    4.2890   -0.3865   -1.9688 H   0  0  0  0  0  0  0  0  0  0  0  0
    5.3369   -1.1908    0.7111 H   0  0  0  0  0  0  0  0  0  0  0  0
    6.2583   -1.3869   -0.8130 H   0  0  0  0  0  0  0  0  0  0  0  0
    4.8166   -2.3925   -0.5085 H   0  0  0  0  0  0  0  0  0  0  0  0
  2  3  1  0  0  0  0
  2  1  2  0  0  0  0
  3 49  1  0  0  0  0
  4  3  1  0  0  0  0
  4  5  1  0  0  0  0
  5  6  1  0  0  0  0
  7  5  2  0  0  0  0
  7  8  1  0  0  0  0
  8  9  1  0  0  0  0
  9 31  2  0  0  0  0
 10 11  1  1  0  0  0
 10  9  1  0  0  0  0
 10 12  1  0  0  0  0
 12 13  2  0  0  0  0
 13 14  1  0  0  0  0
 14 15  1  1  0  0  0
 15 16  1  0  0  0  0
 16 30  2  0  0  0  0
 16 17  1  0  0  0  0
 17 20  2  0  0  0  0
 18 17  1  0  0  0  0
 19 52  1  0  0  0  0
 19 18  1  0  0  0  0
 20 21  1  0  0  0  0
 20 55  1  0  0  0  0
 21 22  1  0  0  0  0
 22 23  1  0  0  0  0
 22 27  1  0  0  0  0
 23 24  1  0  0  0  0
 24 59  1  0  0  0  0
 24 58  1  0  0  0  0
 24 25  1  0  0  0  0
 26 25  1  0  0  0  0
 26 61  1  0  0  0  0
 26 60  1  0  0  0  0
 27 26  1  0  0  0  0
 28 64  1  0  0  0  0
 28 25  1  0  0  0  0
 28 66  1  0  0  0  0
 29 67  1  0  0  0  0
 29 21  2  0  0  0  0
 30 29  1  0  0  0  0
 31 14  1  0  0  0  0
 32  7  1  0  0  0  0
 33 34  1  0  0  0  0
 33 32  2  0  0  0  0
 34  4  2  0  0  0  0
 35 36  1  0  0  0  0
 35  2  1  0  0  0  0
 36 73  1  0  0  0  0
 36 37  1  0  0  0  0
 37 38  1  0  0  0  0
 38 39  1  0  0  0  0
 38 75  1  0  0  0  0
 39 40  1  6  0  0  0
 39 41  1  0  0  0  0
 39 45  1  0  0  0  0
 41 42  1  0  0  0  0
 42 44  2  0  0  0  0
 42 43  1  0  0  0  0
 43 79  1  0  0  0  0
 43 80  1  0  0  0  0
 45 48  2  0  0  0  0
 46 47  1  0  0  0  0
 46 45  1  0  0  0  0
 47 82  1  0  0  0  0
 50 12  1  0  0  0  0
 51 15  1  0  0  0  0
 53 19  1  0  0  0  0
 54 19  1  0  0  0  0
 56 23  1  0  0  0  0
 57 23  1  0  0  0  0
 62 27  1  0  0  0  0
 63 27  1  0  0  0  0
 65 28  1  0  0  0  0
 68 30  1  0  0  0  0
 69 32  1  0  0  0  0
 70 33  1  0  0  0  0
 71 34  1  0  0  0  0
 72 35  1  0  0  0  0
 74 36  1  0  0  0  0
 76 38  1  0  0  0  0
 77 41  1  0  0  0  0
 78 43  1  0  0  0  0
 81 46  1  0  0  0  0
 83 47  1  0  0  0  0
 84 47  1  0  0  0  0
M  END
