84
-1 1
O         4.315115   -0.213673   -3.999270
C         3.456313    0.565880   -4.401309
N         2.133636    0.165930   -4.262238
C         0.921570    0.726647   -4.672114
C        -0.123773    0.717430   -3.744831
F         0.116587    0.211799   -2.536038
C        -1.393761    1.198630   -4.058835
O        -2.412643    1.228161   -3.145535
C        -2.493609    0.315053   -2.148102
C        -2.566207   -1.066603   -2.396034
Cl        -2.568089   -1.742381   -3.997467
C        -2.644995   -1.884288   -1.276269
N        -2.669190   -1.411119   -0.041139
C        -2.618731   -0.080022    0.085271
N        -2.670759    0.454108    1.334189
C        -2.292605   -0.258298    2.509281
C        -3.234472   -0.612777    3.489466
O        -4.566030   -0.374723    3.390810
C        -5.226012   -0.621122    2.168506
C        -2.804525   -1.206818    4.676429
C        -1.450306   -1.485664    4.916333
N        -1.054392   -2.059780    6.136634
C         0.366685   -2.183079    6.402974
C         0.608412   -2.448566    7.890917
N        -0.124399   -3.587657    8.413666
C        -1.536200   -3.432579    8.115292
C        -1.824902   -3.190774    6.633666
C         0.428667   -4.875022    8.057402
C        -0.524686   -1.161232    3.908100
C        -0.947262   -0.553355    2.732398
N        -2.556894    0.794548   -0.931366
C        -1.620912    1.729562   -5.324986
C        -0.584430    1.751421   -6.256071
C         0.672482    1.238500   -5.949239
C         3.813619    1.882176   -4.943188
C         3.079565    3.012306   -4.862423
S         3.258630    4.259882   -2.250643
C         3.996152    2.725873   -1.613091
C         2.974408    1.693773   -1.064456
H         2.493693    1.177039   -1.911829
N         1.970197    2.381771   -0.301578
C         0.898787    1.786065    0.242444
C        -0.135363    2.733279    0.824226
O         0.727992    0.570285    0.265785
C         3.720208    0.653823   -0.222878
N         4.295964   -0.331010   -0.969004
C         5.148209   -1.327014   -0.380192
O         3.838707    0.733220    0.985151
H         2.055005   -0.611861   -3.614373
H        -2.697744   -2.971004   -1.402491
H        -2.527363    1.456980    1.346049
H        -6.243794   -0.956787    2.417294
H        -4.716814   -1.405857    1.586212
H        -5.291288    0.287038    1.549871
H        -3.573391   -1.424607    5.417648
H         0.867286   -1.242841    6.132602
H         0.831969   -2.984309    5.788046
H         0.296946   -1.552249    8.454820
H         1.685486   -2.592313    8.069976
H        -1.916204   -2.567670    8.686720
H        -2.083788   -4.324115    8.460616
H        -2.897497   -2.998575    6.510570
H        -1.597170   -4.105975    6.044409
H         1.474640   -4.932582    8.396981
H         0.420086   -5.111414    6.972330
H        -0.131344   -5.671829    8.572068
H         0.536137   -1.379025    4.020936
H        -0.226767   -0.286603    1.949258
H        -2.614376    2.113947   -5.557344
H        -0.766562    2.165230   -7.249643
H         1.481069    1.250635   -6.679577
H         4.866140    1.931516   -5.233089
H         2.042763    3.036901   -4.535408
H         3.494422    3.961558   -5.199839
H         4.702929    2.964976   -0.801874
H         4.575329    2.220599   -2.405075
H         1.964441    3.388970   -0.496504
H        -1.028048    2.689504    0.180340
H         0.214711    3.772487    0.881989
H        -0.404047    2.385904    1.832855
H         4.249930   -0.287269   -1.985695
H         5.092098   -1.212263    0.710217
H         6.199874   -1.208547   -0.693662
H         4.822349   -2.345090   -0.649847
