-1 1
 OpenBabel05192410563D

 80 83  0  0  1  0  0  0  0  0999 V2000
   -4.4386    4.5489   -3.9366 O   0  0  0  0  0  0  0  0  0  0  0  0
   -4.3565    4.4100   -2.7117 C   0  0  0  0  0  0  0  0  0  0  0  0
   -3.0716    3.8597   -2.2217 N   0  0  0  0  0  0  0  0  0  0  0  0
   -2.8964    2.5538   -1.8331 C   0  0  0  0  0  0  0  0  0  0  0  0
   -1.5913    2.0370   -1.6692 C   0  0  0  0  0  0  0  0  0  0  0  0
   -1.4038    0.7341   -1.2318 C   0  0  0  0  0  0  0  0  0  0  0  0
   -0.1051    0.2572   -1.0832 O   0  0  0  0  0  0  0  0  0  0  0  0
    0.5025    0.4000    0.0979 C   0  0  0  0  0  0  0  0  0  0  0  0
    1.6873   -0.1932    0.1770 N   0  0  0  0  0  0  0  0  0  0  0  0
    2.3377   -0.0935    1.3322 C   0  0  0  0  0  0  0  0  0  0  0  0
    3.5704   -0.6850    1.4746 N   0  0  0  0  0  0  0  0  0  0  0  0
    4.3525   -1.4370    0.5972 C   0  0  0  0  0  0  0  0  0  0  0  0
    5.5847   -1.9164    1.0773 C   0  0  0  0  0  0  0  0  0  0  0  0
    6.4308   -2.6644    0.2741 C   0  0  0  0  0  0  0  0  0  0  0  0
    6.0808   -2.9911   -1.0463 C   0  0  0  0  0  0  0  0  0  0  0  0
    6.9709   -3.7510   -1.8405 N   0  0  0  0  0  0  0  0  0  0  0  0
    6.7368   -3.7759   -3.2707 C   0  0  0  0  0  0  0  0  0  0  0  0
    7.9657   -4.3376   -3.9905 C   0  0  0  0  0  0  0  0  0  0  0  0
    8.3766   -5.6448   -3.5092 N   0  0  0  0  0  0  0  0  0  0  0  0
    8.5563   -5.6049   -2.0688 C   0  0  0  0  0  0  0  0  0  0  0  0
    7.3397   -5.0605   -1.3198 C   0  0  0  0  0  0  0  0  0  0  0  0
    7.5674   -6.7444   -3.9850 C   0  0  0  0  0  0  0  0  0  0  0  0
    4.8526   -2.5133   -1.5176 C   0  0  0  0  0  0  0  0  0  0  0  0
    4.0025   -1.7433   -0.7231 C   0  0  0  0  0  0  0  0  0  0  0  0
    1.9115    0.5432    2.4329 N   0  0  0  0  0  0  0  0  0  0  0  0
    0.7245    1.1355    2.3275 C   0  0  0  0  0  0  0  0  0  0  0  0
   -0.0462    1.1090    1.1733 C   0  0  0  0  0  0  0  0  0  0  0  0
   -2.4661   -0.1165   -0.9477 C   0  0  0  0  0  0  0  0  0  0  0  0
   -3.7567    0.3884   -1.1312 C   0  0  0  0  0  0  0  0  0  0  0  0
   -3.9803    1.6893   -1.5598 C   0  0  0  0  0  0  0  0  0  0  0  0
   -5.2778    4.7630   -1.7215 C   0  0  0  0  0  3  0  0  0  0  0  0
   -4.9908    4.8501   -0.2921 C   0  0  0  0  0  0  0  0  0  0  0  0
   -5.6434    3.4158    0.8585 S   0  0  0  0  0  0  0  0  0  0  0  0
   -4.0978    2.9066    1.6812 C   0  0  0  0  0  0  0  0  0  0  0  0
   -4.1851    1.4765    2.1894 C   0  0  2  0  0  0  0  0  0  0  0  0
   -4.2401    0.7972    1.3251 H   0  0  0  0  0  0  0  0  0  0  0  0
   -5.3943    1.2699    2.9787 N   0  0  0  0  0  0  0  0  0  0  0  0
   -6.0272    0.0750    3.0213 C   0  0  0  0  0  0  0  0  0  0  0  0
   -7.4346    0.0997    3.5773 C   0  0  0  0  0  0  0  0  0  0  0  0
   -5.5157   -0.9616    2.6161 O   0  0  0  0  0  0  0  0  0  0  0  0
   -2.9332    1.0912    3.0026 C   0  0  0  0  0  0  0  0  0  0  0  0
   -2.7759   -0.2446    3.1323 N   0  0  0  0  0  0  0  0  0  0  0  0
   -1.6997   -0.8388    3.8811 C   0  0  0  0  0  0  0  0  0  0  0  0
   -2.1671    1.9204    3.4693 O   0  0  0  0  0  0  0  0  0  0  0  0
   -2.3198    4.1996   -2.8134 H   0  0  0  0  0  0  0  0  0  0  0  0
   -0.7188    2.6641   -1.8655 H   0  0  0  0  0  0  0  0  0  0  0  0
    3.9493   -0.5318    2.4001 H   0  0  0  0  0  0  0  0  0  0  0  0
    5.8915   -1.6792    2.1002 H   0  0  0  0  0  0  0  0  0  0  0  0
    7.3957   -2.9865    0.6720 H   0  0  0  0  0  0  0  0  0  0  0  0
    6.5507   -2.7500   -3.6220 H   0  0  0  0  0  0  0  0  0  0  0  0
    5.8377   -4.3768   -3.5350 H   0  0  0  0  0  0  0  0  0  0  0  0
    8.8030   -3.6348   -3.8380 H   0  0  0  0  0  0  0  0  0  0  0  0
    7.7724   -4.3921   -5.0735 H   0  0  0  0  0  0  0  0  0  0  0  0
    9.4176   -4.9510   -1.8461 H   0  0  0  0  0  0  0  0  0  0  0  0
    8.8027   -6.6146   -1.7037 H   0  0  0  0  0  0  0  0  0  0  0  0
    7.5782   -4.9815   -0.2506 H   0  0  0  0  0  0  0  0  0  0  0  0
    6.4874   -5.7715   -1.4029 H   0  0  0  0  0  0  0  0  0  0  0  0
    7.5618   -6.7477   -5.0862 H   0  0  0  0  0  0  0  0  0  0  0  0
    6.5089   -6.7354   -3.6488 H   0  0  0  0  0  0  0  0  0  0  0  0
    8.0092   -7.6973   -3.6534 H   0  0  0  0  0  0  0  0  0  0  0  0
    4.5256   -2.7410   -2.5328 H   0  0  0  0  0  0  0  0  0  0  0  0
    3.0544   -1.3824   -1.1159 H   0  0  0  0  0  0  0  0  0  0  0  0
    0.3349    1.6575    3.2072 H   0  0  0  0  0  0  0  0  0  0  0  0
   -1.0075    1.6128    1.1226 H   0  0  0  0  0  0  0  0  0  0  0  0
   -2.2799   -1.1333   -0.6003 H   0  0  0  0  0  0  0  0  0  0  0  0
   -4.6170   -0.2536   -0.9245 H   0  0  0  0  0  0  0  0  0  0  0  0
   -4.9940    2.0706   -1.6777 H   0  0  0  0  0  0  0  0  0  0  0  0
   -6.2339    5.1454   -2.0889 H   0  0  0  0  0  0  0  0  0  0  0  0
   -5.4443    5.7306    0.1838 H   0  0  0  0  0  0  0  0  0  0  0  0
   -3.9117    4.8435   -0.0817 H   0  0  0  0  0  0  0  0  0  0  0  0
   -3.8354    3.5820    2.5090 H   0  0  0  0  0  0  0  0  0  0  0  0
   -3.2794    2.9512    0.9462 H   0  0  0  0  0  0  0  0  0  0  0  0
   -5.9167    2.1046    3.2207 H   0  0  0  0  0  0  0  0  0  0  0  0
   -8.1358    0.2297    2.7390 H   0  0  0  0  0  0  0  0  0  0  0  0
   -7.5953    0.9194    4.2912 H   0  0  0  0  0  0  0  0  0  0  0  0
   -7.6463   -0.8628    4.0582 H   0  0  0  0  0  0  0  0  0  0  0  0
   -3.5338   -0.8257    2.7728 H   0  0  0  0  0  0  0  0  0  0  0  0
   -2.0791   -1.6457    4.5262 H   0  0  0  0  0  0  0  0  0  0  0  0
   -1.2369   -0.0665    4.5095 H   0  0  0  0  0  0  0  0  0  0  0  0
   -0.9194   -1.2532    3.2213 H   0  0  0  0  0  0  0  0  0  0  0  0
  1  2  2  0  0  0  0
  2  3  1  0  0  0  0
  2 31  1  0  0  0  0
  3  4  1  0  0  0  0
  4  5  2  0  0  0  0
  4 30  1  0  0  0  0
  5  6  1  0  0  0  0
  6  7  1  0  0  0  0
  6 28  2  0  0  0  0
  7  8  1  0  0  0  0
  8  9  2  0  0  0  0
  8 27  1  0  0  0  0
  9 10  1  0  0  0  0
 10 11  1  0  0  0  0
 10 25  2  0  0  0  0
 11 47  1  0  0  0  0
 12 13  1  0  0  0  0
 12 11  1  0  0  0  0
 13 48  1  0  0  0  0
 14 49  1  0  0  0  0
 14 13  2  0  0  0  0
 15 14  1  0  0  0  0
 16 21  1  0  0  0  0
 16 15  1  0  0  0  0
 17 16  1  0  0  0  0
 18 52  1  0  0  0  0
 18 19  1  0  0  0  0
 18 17  1  0  0  0  0
 19 20  1  0  0  0  0
 20 54  1  0  0  0  0
 20 55  1  0  0  0  0
 20 21  1  0  0  0  0
 21 56  1  0  0  0  0
 22 60  1  0  0  0  0
 22 59  1  0  0  0  0
 22 19  1  0  0  0  0
 23 15  2  0  0  0  0
 23 24  1  0  0  0  0
 24 12  2  0  0  0  0
 26 25  1  0  0  0  0
 26 63  1  0  0  0  0
 27 26  2  0  0  0  0
 28 65  1  0  0  0  0
 29 28  1  0  0  0  0
 29 66  1  0  0  0  0
 30 29  2  0  0  0  0
 31 32  1  0  0  0  0
 32 70  1  0  0  0  0
 32 69  1  0  0  0  0
 32 33  1  0  0  0  0
 33 34  1  0  0  0  0
 34 35  1  0  0  0  0
 34 71  1  0  0  0  0
 35 36  1  6  0  0  0
 35 37  1  0  0  0  0
 35 41  1  0  0  0  0
 37 38  1  0  0  0  0
 37 73  1  0  0  0  0
 38 39  1  0  0  0  0
 39 76  1  0  0  0  0
 39 75  1  0  0  0  0
 40 38  2  0  0  0  0
 41 42  1  0  0  0  0
 41 44  2  0  0  0  0
 42 43  1  0  0  0  0
 43 79  1  0  0  0  0
 43 78  1  0  0  0  0
 45  3  1  0  0  0  0
 46  5  1  0  0  0  0
 50 17  1  0  0  0  0
 51 17  1  0  0  0  0
 53 18  1  0  0  0  0
 57 21  1  0  0  0  0
 58 22  1  0  0  0  0
 61 23  1  0  0  0  0
 62 24  1  0  0  0  0
 64 27  1  0  0  0  0
 67 30  1  0  0  0  0
 68 31  1  0  0  0  0
 72 34  1  0  0  0  0
 74 39  1  0  0  0  0
 77 42  1  0  0  0  0
 80 43  1  0  0  0  0
M  END
