-1 1
 OpenBabel05232414493D

 80 83  0  0  1  0  0  0  0  0999 V2000
    3.4066   -7.0496   -1.1461 O   0  0  0  0  0  0  0  0  0  0  0  0
    3.6377   -7.4296    0.0007 C   0  0  0  0  0  0  0  0  0  0  0  0
    4.8786   -8.1446    0.1967 N   0  0  0  0  0  0  0  0  0  0  0  0
    5.0287   -9.4310    0.6836 C   0  0  0  0  0  0  0  0  0  0  0  0
    6.3265   -9.9603    0.8191 C   0  0  0  0  0  0  0  0  0  0  0  0
    6.5073  -11.2508    1.2978 C   0  0  0  0  0  0  0  0  0  0  0  0
    7.8007  -11.7372    1.4476 O   0  0  0  0  0  0  0  0  0  0  0  0
    8.4614  -11.4766    2.5808 C   0  0  0  0  0  0  0  0  0  0  0  0
    9.6382  -12.0819    2.6730 N   0  0  0  0  0  0  0  0  0  0  0  0
   10.3389  -11.8791    3.7845 C   0  0  0  0  0  0  0  0  0  0  0  0
   11.5678  -12.4742    3.9349 N   0  0  0  0  0  0  0  0  0  0  0  0
   12.3052  -13.3179    3.1026 C   0  0  0  0  0  0  0  0  0  0  0  0
   13.5546  -13.7604    3.5731 C   0  0  0  0  0  0  0  0  0  0  0  0
   14.3597  -14.5919    2.8110 C   0  0  0  0  0  0  0  0  0  0  0  0
   13.9496  -15.0422    1.5453 C   0  0  0  0  0  0  0  0  0  0  0  0
   14.7996  -15.8829    0.7900 N   0  0  0  0  0  0  0  0  0  0  0  0
   14.4988  -16.0479   -0.6182 C   0  0  0  0  0  0  0  0  0  0  0  0
   15.6928  -16.6831   -1.3356 C   0  0  0  0  0  0  0  0  0  0  0  0
   16.1269  -17.9377   -0.7469 N   0  0  0  0  0  0  0  0  0  0  0  0
   16.3740  -17.7563    0.6725 C   0  0  0  0  0  0  0  0  0  0  0  0
   15.1934  -17.1358    1.4202 C   0  0  0  0  0  0  0  0  0  0  0  0
   15.2975  -19.0761   -1.0732 C   0  0  0  0  0  0  0  0  0  0  0  0
   12.7038  -14.6014    1.0842 C   0  0  0  0  0  0  0  0  0  0  0  0
   11.8944  -13.7491    1.8359 C   0  0  0  0  0  0  0  0  0  0  0  0
    9.9672  -11.1286    4.8322 N   0  0  0  0  0  0  0  0  0  0  0  0
    8.7897  -10.5207    4.7136 C   0  0  0  0  0  0  0  0  0  0  0  0
    7.9744  -10.6432    3.5961 C   0  0  0  0  0  0  0  0  0  0  0  0
    5.4377  -12.0692    1.6390 C   0  0  0  0  0  0  0  0  0  0  0  0
    4.1531  -11.5412    1.4952 C   0  0  0  0  0  0  0  0  0  0  0  0
    3.9387  -10.2482    1.0387 C   0  0  0  0  0  0  0  0  0  0  0  0
    2.8700   -7.1147    1.1566 C   0  0  0  0  0  3  0  0  0  0  0  0
    3.3162   -7.2113    2.4909 C   0  0  0  0  0  0  0  0  0  0  0  0
    2.4934   -8.7936    3.7817 S   0  0  0  0  0  0  0  0  0  0  0  0
    3.9164   -9.1028    4.8776 C   0  0  0  0  0  0  0  0  0  0  0  0
    4.4201  -10.5505    4.8505 C   0  0  2  0  0  0  0  0  0  0  0  0
    4.8610  -10.7622    3.8610 H   0  0  0  0  0  0  0  0  0  0  0  0
    3.2767  -11.4448    5.0281 N   0  0  0  0  0  0  0  0  0  0  0  0
    3.2170  -12.7316    4.6231 C   0  0  0  0  0  0  0  0  0  0  0  0
    1.8166  -13.2810    4.4468 C   0  0  0  0  0  0  0  0  0  0  0  0
    4.2030  -13.4269    4.3949 O   0  0  0  0  0  0  0  0  0  0  0  0
    5.5498  -10.7514    5.8824 C   0  0  0  0  0  0  0  0  0  0  0  0
    5.9475  -12.0305    6.0498 N   0  0  0  0  0  0  0  0  0  0  0  0
    7.0242  -12.3972    6.9310 C   0  0  0  0  0  0  0  0  0  0  0  0
    6.0700   -9.8006    6.4501 O   0  0  0  0  0  0  0  0  0  0  0  0
    5.5236   -7.9109   -0.5506 H   0  0  0  0  0  0  0  0  0  0  0  0
    7.1990   -9.3492    0.5785 H   0  0  0  0  0  0  0  0  0  0  0  0
   11.9875  -12.2372    4.8245 H   0  0  0  0  0  0  0  0  0  0  0  0
   13.9081  -13.4273    4.5533 H   0  0  0  0  0  0  0  0  0  0  0  0
   15.3394  -14.8830    3.1963 H   0  0  0  0  0  0  0  0  0  0  0  0
   14.2964  -15.0609   -1.0601 H   0  0  0  0  0  0  0  0  0  0  0  0
   13.5883  -16.6678   -0.7795 H   0  0  0  0  0  0  0  0  0  0  0  0
   16.5359  -15.9719   -1.2930 H   0  0  0  0  0  0  0  0  0  0  0  0
   15.4488  -16.8438   -2.3975 H   0  0  0  0  0  0  0  0  0  0  0  0
   17.2442  -17.0868    0.7888 H   0  0  0  0  0  0  0  0  0  0  0  0
   16.6381  -18.7258    1.1239 H   0  0  0  0  0  0  0  0  0  0  0  0
   15.4820  -16.9522    2.4638 H   0  0  0  0  0  0  0  0  0  0  0  0
   14.3388  -17.8481    1.4479 H   0  0  0  0  0  0  0  0  0  0  0  0
   15.2404  -19.1883   -2.1672 H   0  0  0  0  0  0  0  0  0  0  0  0
   14.2559  -19.0302   -0.6905 H   0  0  0  0  0  0  0  0  0  0  0  0
   15.7554  -19.9931   -0.6699 H   0  0  0  0  0  0  0  0  0  0  0  0
   12.3300  -14.9249    0.1120 H   0  0  0  0  0  0  0  0  0  0  0  0
   10.9313  -13.4199    1.4519 H   0  0  0  0  0  0  0  0  0  0  0  0
    8.4461   -9.9155    5.5593 H   0  0  0  0  0  0  0  0  0  0  0  0
    7.0231  -10.1225    3.5250 H   0  0  0  0  0  0  0  0  0  0  0  0
    5.6046  -13.0669    2.0441 H   0  0  0  0  0  0  0  0  0  0  0  0
    3.2924  -12.1567    1.7656 H   0  0  0  0  0  0  0  0  0  0  0  0
    2.9292   -9.8460    0.9653 H   0  0  0  0  0  0  0  0  0  0  0  0
    1.9381   -6.5863    0.9405 H   0  0  0  0  0  0  0  0  0  0  0  0
    2.9739   -6.4307    3.1737 H   0  0  0  0  0  0  0  0  0  0  0  0
    4.3701   -7.4770    2.6363 H   0  0  0  0  0  0  0  0  0  0  0  0
    3.6694   -8.8335    5.9157 H   0  0  0  0  0  0  0  0  0  0  0  0
    4.7520   -8.4476    4.5896 H   0  0  0  0  0  0  0  0  0  0  0  0
    2.3943  -10.9360    4.9960 H   0  0  0  0  0  0  0  0  0  0  0  0
    1.4425  -12.9824    3.4551 H   0  0  0  0  0  0  0  0  0  0  0  0
    1.1194  -12.8900    5.2010 H   0  0  0  0  0  0  0  0  0  0  0  0
    1.8518  -14.3754    4.4973 H   0  0  0  0  0  0  0  0  0  0  0  0
    5.5159  -12.7333    5.4422 H   0  0  0  0  0  0  0  0  0  0  0  0
    6.7493  -13.2781    7.5316 H   0  0  0  0  0  0  0  0  0  0  0  0
    7.2286  -11.5539    7.6033 H   0  0  0  0  0  0  0  0  0  0  0  0
    7.9527  -12.6262    6.3810 H   0  0  0  0  0  0  0  0  0  0  0  0
  1  2  2  0  0  0  0
  2  3  1  0  0  0  0
  2 31  1  0  0  0  0
  3  4  1  0  0  0  0
  4  5  2  0  0  0  0
  4 30  1  0  0  0  0
  5  6  1  0  0  0  0
  6  7  1  0  0  0  0
  6 28  2  0  0  0  0
  7  8  1  0  0  0  0
  8  9  2  0  0  0  0
  8 27  1  0  0  0  0
  9 10  1  0  0  0  0
 10 11  1  0  0  0  0
 10 25  2  0  0  0  0
 11 47  1  0  0  0  0
 12 13  1  0  0  0  0
 12 11  1  0  0  0  0
 13 48  1  0  0  0  0
 14 49  1  0  0  0  0
 14 13  2  0  0  0  0
 15 14  1  0  0  0  0
 16 21  1  0  0  0  0
 16 15  1  0  0  0  0
 17 16  1  0  0  0  0
 18 52  1  0  0  0  0
 18 19  1  0  0  0  0
 18 17  1  0  0  0  0
 19 20  1  0  0  0  0
 20 54  1  0  0  0  0
 20 55  1  0  0  0  0
 20 21  1  0  0  0  0
 21 57  1  0  0  0  0
 21 56  1  0  0  0  0
 22 19  1  0  0  0  0
 22 59  1  0  0  0  0
 22 60  1  0  0  0  0
 23 15  2  0  0  0  0
 23 24  1  0  0  0  0
 24 12  2  0  0  0  0
 26 25  1  0  0  0  0
 26 63  1  0  0  0  0
 27 26  2  0  0  0  0
 28 65  1  0  0  0  0
 29 28  1  0  0  0  0
 29 66  1  0  0  0  0
 30 29  2  0  0  0  0
 31 32  1  0  0  0  0
 32 70  1  0  0  0  0
 32 69  1  0  0  0  0
 32 33  1  0  0  0  0
 33 34  1  0  0  0  0
 34 71  1  0  0  0  0
 35 36  1  6  0  0  0
 35 34  1  0  0  0  0
 35 37  1  0  0  0  0
 35 41  1  0  0  0  0
 38 37  1  0  0  0  0
 39 76  1  0  0  0  0
 39 38  1  0  0  0  0
 39 75  1  0  0  0  0
 40 38  2  0  0  0  0
 41 42  1  0  0  0  0
 41 44  2  0  0  0  0
 42 43  1  0  0  0  0
 43 78  1  0  0  0  0
 43 79  1  0  0  0  0
 45  3  1  0  0  0  0
 46  5  1  0  0  0  0
 50 17  1  0  0  0  0
 51 17  1  0  0  0  0
 53 18  1  0  0  0  0
 58 22  1  0  0  0  0
 61 23  1  0  0  0  0
 62 24  1  0  0  0  0
 64 27  1  0  0  0  0
 67 30  1  0  0  0  0
 68 31  1  0  0  0  0
 72 34  1  0  0  0  0
 73 37  1  0  0  0  0
 74 39  1  0  0  0  0
 77 42  1  0  0  0  0
 80 43  1  0  0  0  0
M  END
