80
-1 1
O         1.306724   -3.859778   -6.367039
C         1.135109   -2.903087   -5.602351
N         1.750608   -3.048428   -4.287721
C         2.557260   -2.156062   -3.613843
C         2.804696   -2.354244   -2.242462
C         3.569287   -1.445336   -1.533785
O         3.695277   -1.660880   -0.158743
C         2.856359   -1.016732    0.645555
C         2.827074   -1.358539    2.015802
Br         3.887139   -2.741459    2.717950
C         1.942602   -0.643409    2.800585
N         1.169570    0.335703    2.327544
C         1.279987    0.585698    1.022239
N         0.544817    1.578069    0.441968
C        -0.477737    2.359777    1.001463
C        -0.432894    2.849285    2.314304
C        -1.482834    3.604927    2.815245
C        -2.604165    3.925389    2.030371
N        -3.671968    4.655536    2.592463
C        -4.929305    4.673380    1.870955
C        -6.048867    5.173115    2.787407
N        -5.774536    6.463736    3.395005
C        -4.492194    6.424784    4.074957
C        -3.346177    5.945376    3.183549
C        -5.954965    7.595452    2.514029
C        -2.621535    3.460594    0.708998
C        -1.580933    2.683029    0.210578
N         2.084713   -0.066898    0.172624
C         4.160924   -0.339023   -2.127594
C         3.921844   -0.145461   -3.489480
C         3.131474   -1.021506   -4.224397
C         0.382105   -1.735769   -5.810351
C        -0.043615   -0.792590   -4.774577
S        -1.406554   -1.450346   -3.566282
C        -0.896643   -0.773303   -1.949063
C        -1.324985   -1.699612   -0.791872
H        -2.331071   -2.084220   -1.035980
N        -1.402035   -1.017374    0.476684
C        -2.511053   -0.336072    0.867437
C        -2.528792    0.068108    2.327575
O        -3.432360   -0.085588    0.108942
C        -0.390718   -2.904875   -0.581016
N        -0.276773   -3.737405   -1.630137
C         0.472022   -4.965589   -1.562970
O         0.164508   -3.085249    0.498566
H         1.942481   -4.026401   -4.102997
H         2.347866   -3.185528   -1.708386
H         1.851718   -0.874429    3.866824
H         0.590030    1.546267   -0.569473
H         0.408765    2.592110    2.954370
H        -1.447572    3.928705    3.857609
H        -5.166450    3.652135    1.537826
H        -4.875061    5.308423    0.958277
H        -6.185836    4.433761    3.595234
H        -6.994598    5.227642    2.225739
H        -4.575622    5.731336    4.929942
H        -4.262165    7.423703    4.478701
H        -2.431623    5.858915    3.785186
H        -3.135287    6.698339    2.391645
H        -6.981873    7.592008    2.116201
H        -5.264072    7.636071    1.645239
H        -5.823108    8.529786    3.082349
H        -3.464338    3.672367    0.052079
H        -1.647458    2.296119   -0.808400
H         4.746724    0.362640   -1.533347
H         4.359446    0.721428   -3.991402
H         2.920679   -0.841526   -5.279946
H        -0.102705   -1.675601   -6.787805
H        -0.497461    0.106134   -5.213150
H         0.727854   -0.459759   -4.062879
H        -1.385166    0.196558   -1.779430
H         0.199161   -0.633052   -1.939616
H        -0.741253   -1.360646    1.169576
H        -3.160835   -0.644969    2.879639
H        -2.982796    1.063956    2.412894
H        -1.524221    0.085514    2.772089
H        -0.633154   -3.405182   -2.533163
H         1.168745   -4.922932   -0.714869
H         1.035886   -5.111585   -2.493285
H        -0.189061   -5.837052   -1.421106
