80
-1 1
O         3.938436    3.882462    6.674501
C         3.999397    4.729880    7.563328
N         4.665268    4.340629    8.773604
C         5.626836    5.096185    9.459230
C         5.775941    4.915025   10.839313
C         6.721179    5.648331   11.540001
O         6.785128    5.452787   12.918005
C         6.005011    6.218271   13.682395
C         5.775456    5.840209   15.020399
Br         6.494988    4.264993   15.748537
C         4.924462    6.657713   15.741204
N         4.379998    7.767179   15.242856
C         4.692345    8.052974   13.977844
N         4.212653    9.190276   13.390215
C         3.155470    9.991602   13.864441
C         3.113457   10.474694   15.177292
C         1.982625   11.132070   15.641479
C         0.865925   11.333267   14.814021
N        -0.345919   11.796527   15.361216
C        -1.567620   11.506062   14.631499
C        -2.767657   11.660847   15.566998
N        -2.829500   12.953275   16.232328
C        -1.578052   13.219732   16.918264
C        -0.350176   13.093135   16.014342
C        -3.300155   14.036210   15.399237
C         0.972267   10.957985   13.469587
C         2.100302   10.292918   13.005577
N         5.475408    7.309802   13.185222
C         7.555490    6.564265   10.917009
C         7.402552    6.748920    9.541428
C         6.454617    6.033411    8.817293
C         3.449157    6.047614    7.519393
C         3.181298    6.864228    8.634177
S         1.248077    6.513597    9.651166
C         1.622907    7.214570   11.289846
C         1.328222    6.288985   12.488173
H         0.297581    5.916041   12.359138
N         1.411929    6.981019   13.754122
C         0.401299    7.715274   14.278730
C         0.576791    8.062044   15.744317
O        -0.592801    8.038673   13.644691
C         2.262212    5.069522   12.600439
N         2.193825    4.213814   11.568398
C         2.893075    2.956571   11.531385
O         2.964827    4.901488   13.595088
H         4.845764    3.341981    8.762028
H         5.120613    4.238741   11.384718
H         4.664252    6.397593   16.772243
H         4.381336    9.202464   12.391212
H         3.939963   10.263446   15.854379
H         1.929323   11.420221   16.693877
H        -1.520884   10.469306   14.261796
H        -1.691271   12.171603   13.748104
H        -2.703030   10.877442   16.341468
H        -3.701576   11.494003   15.008023
H        -1.473510   12.490083   17.740336
H        -1.614715   14.225159   17.367994
H         0.561984   13.207909   16.616919
H        -0.340821   13.915121   15.263732
H        -4.293851   13.785078   14.996219
H        -2.648879   14.289199   14.535558
H        -3.409530   14.949025   16.006536
H         0.141906   11.114572   12.782296
H         2.130072    9.943565   11.972358
H         8.276455    7.136395   11.501803
H         8.038536    7.470786    9.023167
H         6.325825    6.202473    7.747717
H         3.018842    6.314717    6.550985
H         2.976941    7.918425    8.427674
H         3.769420    6.727256    9.547654
H         1.011543    8.112130   11.451472
H         2.687954    7.513617   11.324518
H         2.162770    6.651792   14.356639
H         0.129342    7.254541   16.345661
H         0.046219    8.995907   15.966482
H         1.636478    8.161891   16.017372
H         1.742542    4.572680   10.714959
H         3.566856    2.894883   12.396448
H         3.473936    2.877159   10.602517
H         2.189712    2.108342   11.577836
