58
-1 1
O        -1.736076   -5.299910    3.001999
C        -1.985152   -4.230679    2.434198
N        -2.451836   -3.163044    3.343068
C        -1.841269   -1.963212    3.589411
C        -2.267085   -1.175506    4.706554
C        -1.705551    0.042507    4.992843
C        -0.819371   -1.450416    2.793186
C        -0.264528   -0.184542    3.056898
C        -0.682684    0.582314    4.172870
N        -0.122286    1.790702    4.478851
C         0.823433    2.203028    3.684799
N         1.290700    1.588131    2.571780
C         0.760759    0.426703    2.245846
N         1.144872   -0.214519    1.093536
C         2.192176    0.110128    0.234393
C         2.061410   -0.252563   -1.117391
C         3.074401    0.060338   -2.014082
Br         2.853885   -0.401171   -3.841561
C         4.234958    0.717775   -1.611922
C         4.363080    1.049883   -0.263580
C         3.364097    0.756015    0.657965
C        -1.956597   -3.943226    1.065145
C        -2.585805   -2.779640    0.429940
S        -1.411780   -1.639098   -0.563225
C        -2.481430   -0.172216   -0.645029
C        -1.929986    0.939989   -1.523312
H        -1.534078    0.516559   -2.461607
N        -0.827167    1.639021   -0.875283
C         0.113094    2.334951   -1.560801
C         1.163542    3.040362   -0.739958
O         0.090540    2.423981   -2.784950
C        -3.055834    1.934525   -1.900387
N        -2.708983    2.785529   -2.896747
C        -3.575418    3.842665   -3.346032
O        -4.141623    1.932715   -1.349450
H        -2.848252   -3.603209    4.166934
H        -3.061404   -1.570740    5.346531
H        -2.029167    0.628852    5.854958
H        -0.457448   -2.072172    1.976514
H         1.298028    3.163944    3.919207
H         0.447690   -0.859756    0.705817
H         1.154543   -0.756755   -1.457058
H         5.016838    0.959995   -2.332186
H         5.267840    1.558629    0.077403
H         3.467359    1.050231    1.699307
H        -1.651554   -4.779997    0.431411
H        -3.055740   -2.111396    1.166264
H        -3.337655   -3.037241   -0.334552
H        -2.673737    0.209124    0.372328
H        -3.457192   -0.475680   -1.048352
H        -0.780636    1.615273    0.136687
H         2.149119    2.793029   -1.157326
H         1.151630    2.780342    0.327437
H         1.012862    4.123799   -0.859745
H        -1.743178    2.735785   -3.227149
H        -3.171324    4.837431   -3.093723
H        -4.546850    3.723319   -2.849493
H        -3.725404    3.797905   -4.436512
