-1 1
 OpenBabel05232414493D

 58 60  0  0  1  0  0  0  0  0999 V2000
    6.9007  -12.5503    1.3661 O   0  0  0  0  0  0  0  0  0  0  0  0
    6.6810  -11.5376    0.7052 C   0  0  0  0  0  0  0  0  0  0  0  0
    6.1624  -10.4092    1.4496 N   0  0  0  0  0  0  0  0  0  0  0  0
    6.7161   -9.1487    1.5621 C   0  0  0  0  0  0  0  0  0  0  0  0
    6.1460   -8.2480    2.5116 C   0  0  0  0  0  0  0  0  0  0  0  0
    6.6576   -6.9925    2.7154 C   0  0  0  0  0  0  0  0  0  0  0  0
    7.8056   -8.7137    0.8185 C   0  0  0  0  0  0  0  0  0  0  0  0
    8.3091   -7.4059    0.9866 C   0  0  0  0  0  0  0  0  0  0  0  0
    7.7634   -6.5325    1.9594 C   0  0  0  0  0  0  0  0  0  0  0  0
    8.2754   -5.2868    2.1954 N   0  0  0  0  0  0  0  0  0  0  0  0
    9.2972   -4.9419    1.4668 C   0  0  0  0  0  0  0  0  0  0  0  0
    9.8802   -5.6548    0.4760 N   0  0  0  0  0  0  0  0  0  0  0  0
    9.4007   -6.8571    0.2154 C   0  0  0  0  0  0  0  0  0  0  0  0
    9.8971   -7.5881   -0.8304 N   0  0  0  0  0  0  0  0  0  0  0  0
   10.9770   -7.2481   -1.6480 C   0  0  0  0  0  0  0  0  0  0  0  0
   10.9063   -7.5993   -3.0066 C   0  0  0  0  0  0  0  0  0  0  0  0
   11.9635   -7.2828   -3.8499 C   0  0  0  0  0  0  0  0  0  0  0  0
   11.8302   -7.7255   -5.6921 Br  0  0  0  0  0  0  0  0  0  0  0  0
   13.1040   -6.6288   -3.3890 C   0  0  0  0  0  0  0  0  0  0  0  0
   13.1673   -6.3006   -2.0351 C   0  0  0  0  0  0  0  0  0  0  0  0
   12.1255   -6.6028   -1.1654 C   0  0  0  0  0  0  0  0  0  0  0  0
    6.7670  -11.4365   -0.7119 C   0  0  0  0  0  3  0  0  0  0  0  0
    6.1796  -10.4369   -1.5089 C   0  0  0  0  0  0  0  0  0  0  0  0
    7.5046   -8.9606   -2.5222 S   0  0  0  0  0  0  0  0  0  0  0  0
    6.4339   -7.5016   -2.3399 C   0  0  0  0  0  0  0  0  0  0  0  0
    6.8220   -6.3316   -3.2353 C   0  0  2  0  0  0  0  0  0  0  0  0
    7.0822   -6.7080   -4.2381 H   0  0  0  0  0  0  0  0  0  0  0  0
    7.9996   -5.6357   -2.7318 N   0  0  0  0  0  0  0  0  0  0  0  0
    8.8422   -4.9265   -3.5196 C   0  0  0  0  0  0  0  0  0  0  0  0
   10.0152   -4.2736   -2.8287 C   0  0  0  0  0  0  0  0  0  0  0  0
    8.6544   -4.7947   -4.7260 O   0  0  0  0  0  0  0  0  0  0  0  0
    5.6461   -5.3410   -3.4039 C   0  0  0  0  0  0  0  0  0  0  0  0
    5.8507   -4.4355   -4.3944 N   0  0  0  0  0  0  0  0  0  0  0  0
    4.9244   -3.3709   -4.6707 C   0  0  0  0  0  0  0  0  0  0  0  0
    4.6412   -5.3834   -2.7176 O   0  0  0  0  0  0  0  0  0  0  0  0
    5.7726  -10.7574    2.3196 H   0  0  0  0  0  0  0  0  0  0  0  0
    5.2839   -8.5854    3.0938 H   0  0  0  0  0  0  0  0  0  0  0  0
    6.2303   -6.3153    3.4570 H   0  0  0  0  0  0  0  0  0  0  0  0
    8.2621   -9.4015    0.1096 H   0  0  0  0  0  0  0  0  0  0  0  0
    9.7372   -3.9535    1.6497 H   0  0  0  0  0  0  0  0  0  0  0  0
    9.2118   -8.2316   -1.2675 H   0  0  0  0  0  0  0  0  0  0  0  0
   10.0080   -8.0917   -3.3872 H   0  0  0  0  0  0  0  0  0  0  0  0
   13.9199   -6.3838   -4.0697 H   0  0  0  0  0  0  0  0  0  0  0  0
   14.0541   -5.7923   -1.6492 H   0  0  0  0  0  0  0  0  0  0  0  0
   12.1819   -6.3194   -0.1169 H   0  0  0  0  0  0  0  0  0  0  0  0
    7.1787  -12.3283   -1.1903 H   0  0  0  0  0  0  0  0  0  0  0  0
    5.5530   -9.6976   -0.9969 H   0  0  0  0  0  0  0  0  0  0  0  0
    5.7740  -10.7471   -2.4744 H   0  0  0  0  0  0  0  0  0  0  0  0
    6.3997   -7.1705   -1.2869 H   0  0  0  0  0  0  0  0  0  0  0  0
    5.4045   -7.7882   -2.5975 H   0  0  0  0  0  0  0  0  0  0  0  0
    8.1722   -5.6616   -1.7338 H   0  0  0  0  0  0  0  0  0  0  0  0
   10.9391   -4.6286   -3.3071 H   0  0  0  0  0  0  0  0  0  0  0  0
   10.0689   -4.4857   -1.7521 H   0  0  0  0  0  0  0  0  0  0  0  0
    9.9496   -3.1890   -2.9983 H   0  0  0  0  0  0  0  0  0  0  0  0
    6.7600   -4.4615   -4.8599 H   0  0  0  0  0  0  0  0  0  0  0  0
    5.3533   -2.3823   -4.4344 H   0  0  0  0  0  0  0  0  0  0  0  0
    4.0341   -3.5239   -4.0471 H   0  0  0  0  0  0  0  0  0  0  0  0
    4.6201   -3.3697   -5.7299 H   0  0  0  0  0  0  0  0  0  0  0  0
  2  1  2  0  0  0  0
  2  3  1  0  0  0  0
  3  4  1  0  0  0  0
  3 36  1  0  0  0  0
  4  5  1  0  0  0  0
  5  6  2  0  0  0  0
  5 37  1  0  0  0  0
  6 38  1  0  0  0  0
  7  8  1  0  0  0  0
  7  4  2  0  0  0  0
  8  9  2  0  0  0  0
  9 10  1  0  0  0  0
  9  6  1  0  0  0  0
 11 40  1  0  0  0  0
 11 10  2  0  0  0  0
 12 11  1  0  0  0  0
 13 12  2  0  0  0  0
 13  8  1  0  0  0  0
 14 13  1  0  0  0  0
 15 21  1  0  0  0  0
 15 14  1  0  0  0  0
 16 15  2  0  0  0  0
 17 19  2  0  0  0  0
 17 16  1  0  0  0  0
 18 17  1  0  0  0  0
 19 20  1  0  0  0  0
 20 44  1  0  0  0  0
 20 21  2  0  0  0  0
 21 45  1  0  0  0  0
 22  2  1  0  0  0  0
 23 47  1  0  0  0  0
 23 22  1  0  0  0  0
 24 25  1  0  0  0  0
 24 23  1  0  0  0  0
 25 49  1  0  0  0  0
 26 27  1  6  0  0  0
 26 28  1  0  0  0  0
 26 25  1  0  0  0  0
 28 51  1  0  0  0  0
 29 30  1  0  0  0  0
 29 28  1  0  0  0  0
 30 53  1  0  0  0  0
 31 29  2  0  0  0  0
 32 26  1  0  0  0  0
 32 35  2  0  0  0  0
 33 32  1  0  0  0  0
 34 56  1  0  0  0  0
 34 33  1  0  0  0  0
 34 57  1  0  0  0  0
 39  7  1  0  0  0  0
 41 14  1  0  0  0  0
 42 16  1  0  0  0  0
 43 19  1  0  0  0  0
 46 22  1  0  0  0  0
 48 23  1  0  0  0  0
 50 25  1  0  0  0  0
 52 30  1  0  0  0  0
 54 30  1  0  0  0  0
 55 33  1  0  0  0  0
 58 34  1  0  0  0  0
M  END
