-1 1
 OpenBabel05192410563D

 83 86  0  0  1  0  0  0  0  0999 V2000
   -3.3851    3.3561    3.3865 O   0  0  0  0  0  0  0  0  0  0  0  0
   -2.6337    2.7881    2.5849 C   0  0  0  0  0  0  0  0  0  0  0  0
   -1.1943    3.0402    2.7471 N   0  0  0  0  0  0  0  0  0  0  0  0
   -0.8370    3.9258    3.8472 C   0  0  0  0  0  0  0  0  0  0  0  0
   -0.6095    5.2819    3.1800 C   0  0  0  0  0  0  0  0  0  0  0  0
    0.0868    4.9030    1.8677 C   0  0  0  0  0  0  0  0  0  0  0  0
   -0.3916    3.4477    1.5984 C   0  0  1  0  0  0  0  0  0  0  0  0
   -0.9986    3.4062    0.6807 H   0  0  0  0  0  0  0  0  0  0  0  0
    0.7939    2.5018    1.3539 C   0  0  0  0  0  0  0  0  0  0  0  0
    0.7562    1.4312    2.1979 N   0  0  0  0  0  0  0  0  0  0  0  0
    1.4209    0.2237    2.1135 C   0  0  0  0  0  0  0  0  0  0  0  0
    2.4614   -0.0475    1.2592 C   0  0  0  0  0  0  0  0  0  0  0  0
    0.9130   -0.8205    2.9609 C   0  0  0  0  0  0  0  0  0  0  0  0
   -0.1672   -0.4542    3.6676 O   0  0  0  0  0  0  0  0  0  0  0  0
   -1.0612   -1.4104    4.1876 C   0  0  0  0  0  0  0  0  0  0  0  0
   -2.3772   -0.6839    4.4485 C   0  0  0  0  0  0  0  0  0  0  0  0
   -3.3091   -1.5521    5.0360 O   0  0  0  0  0  0  0  0  0  0  0  0
   -3.2845   -1.5758    6.4294 C   0  0  0  0  0  0  0  0  0  0  0  0
    1.5169   -2.0535    3.0046 C   0  0  0  0  0  0  0  0  0  0  0  0
    2.6305   -2.3273    2.1651 C   0  0  0  0  0  0  0  0  0  0  0  0
    3.0477   -1.3387    1.2370 C   0  0  0  0  0  0  0  0  0  0  0  0
    4.0759   -1.7489    0.3341 C   0  0  1  0  0  3  0  0  0  0  0  0
    4.4495   -0.9762   -0.7593 N   0  0  0  0  0  0  0  0  0  0  0  0
    3.4660   -0.4259   -1.6362 C   0  0  0  0  0  0  0  0  0  0  0  0
    2.6727   -1.2828   -2.4067 C   0  0  0  0  0  0  0  0  0  0  0  0
    2.8441   -2.5933   -2.2953 F   0  0  0  0  0  0  0  0  0  0  0  0
    1.7133   -0.7963   -3.2927 C   0  0  0  0  0  0  0  0  0  0  0  0
    0.7825   -1.8819   -4.2590 Cl  0  0  0  0  0  0  0  0  0  0  0  0
    1.5307    0.5856   -3.3778 C   0  0  0  0  0  0  0  0  0  0  0  0
    0.6184    1.0618   -4.2109 F   0  0  0  0  0  0  0  0  0  0  0  0
    2.2899    1.4579   -2.6118 C   0  0  0  0  0  0  0  0  0  0  0  0
    3.2654    0.9480   -1.7634 C   0  0  0  0  0  0  0  0  0  0  0  0
    4.7253   -2.8839    0.5015 N   0  0  0  0  0  0  0  0  0  0  0  0
    4.3050   -3.6955    1.4902 C   0  0  0  0  0  0  0  0  0  0  0  0
    3.2772   -3.5191    2.2798 N   0  0  0  0  0  2  0  0  0  0  0  0
    1.6404    2.6971    0.4994 O   0  0  0  0  0  0  0  0  0  0  0  0
   -3.0445    1.8886    1.5775 C   0  0  0  0  0  3  0  0  0  0  0  0
   -2.2374    1.0412    0.7287 C   0  0  0  0  0  0  0  0  0  0  0  0
   -1.7122    1.7212   -1.0874 S   0  0  0  0  0  0  0  0  0  0  0  0
   -2.8665    0.7982   -2.1425 C   0  0  0  0  0  0  0  0  0  0  0  0
   -2.2552   -0.4035   -2.8943 C   0  0  2  0  0  0  0  0  0  0  0  0
   -1.3918   -0.0252   -3.4636 H   0  0  0  0  0  0  0  0  0  0  0  0
   -3.2034   -0.9896   -3.8112 N   0  0  0  0  0  0  0  0  0  0  0  0
   -3.5448   -0.4283   -4.9936 C   0  0  0  0  0  0  0  0  0  0  0  0
   -4.4758   -1.2620   -5.8586 C   0  0  0  0  0  0  0  0  0  0  0  0
   -3.1466    0.6638   -5.3596 O   0  0  0  0  0  0  0  0  0  0  0  0
   -1.7877   -1.5532   -1.9857 C   0  0  0  0  0  0  0  0  0  0  0  0
   -0.7543   -1.2639   -1.1710 N   0  0  0  0  0  0  0  0  0  0  0  0
   -0.2557   -2.2006   -0.1968 C   0  0  0  0  0  0  0  0  0  0  0  0
   -2.3225   -2.6539   -2.0425 O   0  0  0  0  0  0  0  0  0  0  0  0
    0.0937    3.5694    4.3304 H   0  0  0  0  0  0  0  0  0  0  0  0
   -1.6559    3.9303    4.5750 H   0  0  0  0  0  0  0  0  0  0  0  0
   -0.0224    5.9849    3.7912 H   0  0  0  0  0  0  0  0  0  0  0  0
   -1.5944    5.7317    2.9815 H   0  0  0  0  0  0  0  0  0  0  0  0
    1.1827    4.9310    1.9700 H   0  0  0  0  0  0  0  0  0  0  0  0
   -0.1738    5.5701    1.0348 H   0  0  0  0  0  0  0  0  0  0  0  0
   -0.0618    1.4856    2.8189 H   0  0  0  0  0  0  0  0  0  0  0  0
    2.8074    0.7542    0.6174 H   0  0  0  0  0  0  0  0  0  0  0  0
   -0.6542   -1.8520    5.1157 H   0  0  0  0  0  0  0  0  0  0  0  0
   -1.2155   -2.2268    3.4612 H   0  0  0  0  0  0  0  0  0  0  0  0
   -2.7890   -0.3071    3.4984 H   0  0  0  0  0  0  0  0  0  0  0  0
   -2.1886    0.2043    5.0795 H   0  0  0  0  0  0  0  0  0  0  0  0
   -4.0403   -2.2992    6.7666 H   0  0  0  0  0  0  0  0  0  0  0  0
   -3.5292   -0.5866    6.8622 H   0  0  0  0  0  0  0  0  0  0  0  0
   -2.3037   -1.8907    6.8387 H   0  0  0  0  0  0  0  0  0  0  0  0
    1.1738   -2.8419    3.6740 H   0  0  0  0  0  0  0  0  0  0  0  0
    5.2010   -1.4536   -1.2512 H   0  0  0  0  0  0  0  0  0  0  0  0
    2.0906    2.5272   -2.6699 H   0  0  0  0  0  0  0  0  0  0  0  0
    3.8619    1.6252   -1.1521 H   0  0  0  0  0  0  0  0  0  0  0  0
    4.8770   -4.6231    1.6147 H   0  0  0  0  0  0  0  0  0  0  0  0
   -4.1282    1.8626    1.4384 H   0  0  0  0  0  0  0  0  0  0  0  0
   -2.7472    0.1154    0.4237 H   0  0  0  0  0  0  0  0  0  0  0  0
   -1.2572    0.7706    1.1344 H   0  0  0  0  0  0  0  0  0  0  0  0
   -3.7252    0.4682   -1.5352 H   0  0  0  0  0  0  0  0  0  0  0  0
   -3.2426    1.4875   -2.9096 H   0  0  0  0  0  0  0  0  0  0  0  0
   -3.4718   -1.9393   -3.5660 H   0  0  0  0  0  0  0  0  0  0  0  0
   -5.3494   -0.6497   -6.1219 H   0  0  0  0  0  0  0  0  0  0  0  0
   -3.9537   -1.5089   -6.7942 H   0  0  0  0  0  0  0  0  0  0  0  0
   -4.8127   -2.1902   -5.3771 H   0  0  0  0  0  0  0  0  0  0  0  0
   -0.5053   -0.2747   -1.0912 H   0  0  0  0  0  0  0  0  0  0  0  0
   -0.5387   -3.2143   -0.5053 H   0  0  0  0  0  0  0  0  0  0  0  0
   -0.6746   -2.0089    0.8055 H   0  0  0  0  0  0  0  0  0  0  0  0
    0.8393   -2.1353   -0.1303 H   0  0  0  0  0  0  0  0  0  0  0  0
  2  3  1  0  0  0  0
  2  1  2  0  0  0  0
  3  4  1  0  0  0  0
  4 51  1  0  0  0  0
  4 52  1  0  0  0  0
  5 53  1  0  0  0  0
  5  4  1  0  0  0  0
  6 55  1  0  0  0  0
  6  5  1  0  0  0  0
  7  8  1  6  0  0  0
  7  6  1  0  0  0  0
  7  3  1  0  0  0  0
  9  7  1  0  0  0  0
  9 10  1  0  0  0  0
 10 57  1  0  0  0  0
 11 10  1  0  0  0  0
 11 13  1  0  0  0  0
 12 11  2  0  0  0  0
 13 19  2  0  0  0  0
 13 14  1  0  0  0  0
 14 15  1  0  0  0  0
 15 16  1  0  0  0  0
 15 59  1  0  0  0  0
 16 17  1  0  0  0  0
 16 62  1  0  0  0  0
 17 18  1  0  0  0  0
 18 63  1  0  0  0  0
 18 65  1  0  0  0  0
 18 64  1  0  0  0  0
 19 66  1  0  0  0  0
 20 35  1  0  0  0  0
 20 19  1  0  0  0  0
 21 12  1  0  0  0  0
 21 20  2  0  0  0  0
 22 23  1  1  0  0  0
 22 33  1  0  0  0  0
 22 21  1  0  0  0  0
 24 23  1  0  0  0  0
 25 26  1  0  0  0  0
 25 24  2  0  0  0  0
 27 25  1  0  0  0  0
 28 27  1  0  0  0  0
 29 27  2  0  0  0  0
 29 31  1  0  0  0  0
 30 29  1  0  0  0  0
 31 32  2  0  0  0  0
 32 24  1  0  0  0  0
 32 69  1  0  0  0  0
 33 34  2  0  0  0  0
 34 70  1  0  0  0  0
 34 35  1  0  0  0  0
 36  9  2  0  0  0  0
 37  2  1  0  0  0  0
 38 73  1  0  0  0  0
 38 37  1  0  0  0  0
 39 38  1  0  0  0  0
 40 74  1  0  0  0  0
 40 39  1  0  0  0  0
 41 42  1  6  0  0  0
 41 40  1  0  0  0  0
 41 47  1  0  0  0  0
 43 76  1  0  0  0  0
 43 41  1  0  0  0  0
 44 43  1  0  0  0  0
 45 79  1  0  0  0  0
 45 44  1  0  0  0  0
 46 44  2  0  0  0  0
 47 48  1  0  0  0  0
 48 80  1  0  0  0  0
 48 49  1  0  0  0  0
 49 83  1  0  0  0  0
 49 82  1  0  0  0  0
 50 47  2  0  0  0  0
 54  5  1  0  0  0  0
 56  6  1  0  0  0  0
 58 12  1  0  0  0  0
 60 15  1  0  0  0  0
 61 16  1  0  0  0  0
 67 23  1  0  0  0  0
 68 31  1  0  0  0  0
 71 37  1  0  0  0  0
 72 38  1  0  0  0  0
 75 40  1  0  0  0  0
 77 45  1  0  0  0  0
 78 45  1  0  0  0  0
 81 49  1  0  0  0  0
M  END
