83
-1 1
O         1.306418   -5.306823    3.696751
C         2.037256   -5.858930    2.873152
N         3.464538   -5.629107    2.988953
C         3.885806   -4.739469    4.062799
C         4.129811   -3.400828    3.365326
C         4.743815   -3.815306    2.020747
C         4.260524   -5.278243    1.816316
H         3.647936   -5.362222    0.905635
C         5.439387   -6.238781    1.604703
N         5.361782   -7.324148    2.427707
C         6.035518   -8.529055    2.355324
C         7.091917   -8.793251    1.518883
C         5.522735   -9.575191    3.196230
O         4.426237   -9.217002    3.884172
C         3.562893  -10.183877    4.433621
C         2.239081   -9.479576    4.713465
O         1.331990  -10.354175    5.327525
C         1.393966  -10.375376    6.720210
C         6.136359  -10.802643    3.253952
C         7.265682  -11.069023    2.433319
C         7.688281  -10.079751    1.509535
C         8.734748  -10.482544    0.623937
N         9.115145   -9.709953   -0.465106
C         8.139038   -9.163751   -1.353248
C         7.340293  -10.025036   -2.112852
F         7.497371  -11.335374   -1.978322
C         6.391478   -9.543440   -3.012606
Cl         5.453787  -10.635651   -3.963911
C         6.227139   -8.161356   -3.125555
F         5.333225   -7.689819   -3.979285
C         6.989797   -7.284374   -2.367738
C         7.952881   -7.790056   -1.502803
N         9.393568  -11.609910    0.806975
C         8.964783  -12.422150    1.791476
N         7.922055  -12.254149    2.563210
O         6.317146   -6.041953    0.783975
C         1.570943   -6.747980    1.857411
C         2.316788   -7.623713    1.037845
S         2.969266   -6.916172   -0.931921
C         1.807651   -7.846556   -1.974268
C         2.409882   -9.061119   -2.713221
H         3.283097   -8.697452   -3.277285
N         1.464216   -9.648525   -3.633360
C         1.138120   -9.101426   -4.826075
C         0.212113   -9.944101   -5.689178
O         1.542331   -8.015914   -5.205037
C         2.857290  -10.207921   -1.790764
N         3.854203   -9.906931   -0.936412
C         4.332526  -10.843868    0.046841
O         2.339362  -11.316450   -1.869830
H         4.822386   -5.119745    4.513872
H         3.099820   -4.700734    4.824646
H         4.773276   -2.716756    3.939518
H         3.155942   -2.910937    3.212569
H         5.843342   -3.780095    2.043672
H         4.420928   -3.171936    1.191515
H         4.548259   -7.275472    3.048413
H         7.442498   -7.990857    0.880263
H         3.997357  -10.606017    5.358238
H         3.409195  -11.011957    3.720370
H         1.803275   -9.125430    3.766201
H         2.424164   -8.580223    5.330020
H         0.650001  -11.100837    7.078132
H         1.157119   -9.386143    7.157484
H         2.386188  -10.685998    7.103670
H         5.790387  -11.592946    3.919476
H         9.878818  -10.178186   -0.946794
H         6.801912   -6.214450   -2.447493
H         8.551891   -7.109889   -0.897104
H         9.544320  -13.343176    1.929118
H         0.486803   -6.712244    1.727066
H         1.762454   -8.474925    0.625445
H         3.305506   -7.931184    1.383925
H         0.947578   -8.175720   -1.365714
H         1.425817   -7.170717   -2.750586
H         1.199340  -10.599208   -3.388008
H        -0.657813   -9.333074   -5.967270
H         0.741479  -10.203501   -6.617349
H        -0.131327  -10.865736   -5.199537
H         4.076421   -8.909394   -0.841021
H         4.071655  -11.859070   -0.276362
H         3.879404  -10.665044    1.037016
H         5.424228  -10.766612    0.149998
