38
-1 1
C        -4.929612    0.700441    4.829581
C        -4.419345    1.688871    3.787892
N        -3.643180    1.066798    2.741781
C        -4.193435    0.152093    1.786800
O        -5.364661   -0.178386    1.815110
C        -3.127128   -0.160633    0.864133
C        -1.979030    0.501933    1.253701
S        -0.428549   -0.887661    2.485773
C        -1.665482   -1.746825    3.488316
C        -1.612469   -1.403616    4.994795
H        -2.540268   -1.743978    5.479756
N        -1.471963    0.019009    5.176851
C        -1.729263    0.643034    6.352212
C        -1.497589    2.142843    6.335283
O        -2.114746    0.053343    7.347796
C        -0.505041   -2.224655    5.670181
N         0.717594   -1.630498    5.685568
C         1.899686   -2.324391    6.116366
O        -0.719692   -3.340752    6.107742
C        -2.355412    1.406061    2.403955
O        -1.690554    2.276491    2.937122
H        -5.497794    1.230628    5.609379
H        -4.100144    0.169550    5.314992
H        -5.589856   -0.036075    4.352248
H        -3.766270    2.447171    4.244243
H        -5.274028    2.217058    3.330991
H        -3.254694   -0.836266    0.022495
H        -1.141037    0.776751    0.617401
H        -1.564652   -2.836832    3.386409
H        -2.664202   -1.488807    3.083473
H        -1.113896    0.544214    4.379050
H        -1.430533    2.547344    5.315573
H        -0.566053    2.361916    6.879627
H        -2.320338    2.624560    6.880979
H         0.813418   -0.793247    5.121282
H         2.535839   -2.622663    5.265371
H         1.578434   -3.232279    6.643462
H         2.499720   -1.704878    6.802198
