-1 1
 OpenBabel05192410563D

 35 35  0  0  1  0  0  0  0  0999 V2000
    2.9746   -1.2758    0.0197 C   0  0  0  0  0  0  0  0  0  0  0  0
    1.7529   -1.2903   -0.7279 N   0  0  0  0  0  0  0  0  0  0  0  0
    0.5828   -1.7667   -0.2501 C   0  0  0  0  0  0  0  0  0  0  0  0
   -0.4555   -1.5876   -1.3702 C   0  0  1  0  0  0  0  0  0  0  0  0
   -2.1393   -1.1226   -0.7608 S   0  0  0  0  0  0  0  0  0  0  0  0
   -2.1904    0.6930   -0.8043 C   0  0  0  0  0  0  0  0  0  0  0  0
   -1.4031    1.4495    0.2724 C   0  0  2  0  0  0  0  0  0  0  0  0
   -1.7273    2.5042    0.2549 H   0  0  0  0  0  0  0  0  0  0  0  0
    0.0087    1.3772   -0.0152 N   0  0  0  0  0  0  0  0  0  0  0  0
    0.8731    2.2821    0.5229 C   0  0  0  0  0  0  0  0  0  0  0  0
    2.2992    2.2014    0.0149 C   0  0  0  0  0  0  0  0  0  0  0  0
    0.5313    3.0884    1.3710 O   0  0  0  0  0  0  0  0  0  0  0  0
   -1.8239    0.9560    1.6647 C   0  0  0  0  0  0  0  0  0  0  0  0
   -0.9735    0.1047    2.2740 N   0  0  0  0  0  0  0  0  0  0  0  0
   -1.3383   -0.6201    3.4613 C   0  0  0  0  0  0  0  0  0  0  0  0
   -2.8988    1.3086    2.1247 O   0  0  0  0  0  0  0  0  0  0  0  0
    0.2422   -0.7077   -2.3520 C   0  0  0  0  0  3  0  0  0  0  0  0
    1.6008   -0.6312   -2.0331 C   0  0  0  0  0  0  0  0  0  0  0  0
    2.5923   -0.1228   -2.5629 O   0  0  0  0  0  0  0  0  0  0  0  0
    0.4127   -2.2431    0.8629 O   0  0  0  0  0  0  0  0  0  0  0  0
    3.7256   -0.7843   -0.6145 H   0  0  0  0  0  0  0  0  0  0  0  0
    3.3041   -2.2976    0.2672 H   0  0  0  0  0  0  0  0  0  0  0  0
    2.8616   -0.7197    0.9654 H   0  0  0  0  0  0  0  0  0  0  0  0
   -0.6660   -2.6084   -1.7477 H   0  0  0  0  0  0  0  0  0  0  0  0
   -3.2574    0.9231   -0.6795 H   0  0  0  0  0  0  0  0  0  0  0  0
   -1.8732    1.0378   -1.7999 H   0  0  0  0  0  0  0  0  0  0  0  0
    0.2703    0.8732   -0.8745 H   0  0  0  0  0  0  0  0  0  0  0  0
    2.9226    1.7599    0.8072 H   0  0  0  0  0  0  0  0  0  0  0  0
    2.6622    3.2250   -0.1509 H   0  0  0  0  0  0  0  0  0  0  0  0
    2.4202    1.6046   -0.9009 H   0  0  0  0  0  0  0  0  0  0  0  0
   -0.2140   -0.2769    1.7195 H   0  0  0  0  0  0  0  0  0  0  0  0
   -2.3000   -0.2288    3.8174 H   0  0  0  0  0  0  0  0  0  0  0  0
   -0.5839   -0.4929    4.2546 H   0  0  0  0  0  0  0  0  0  0  0  0
   -1.4388   -1.6947    3.2418 H   0  0  0  0  0  0  0  0  0  0  0  0
   -0.1395   -0.4740   -3.3445 H   0  0  0  0  0  0  0  0  0  0  0  0
  1 22  1  0  0  0  0
  1 23  1  0  0  0  0
  2  3  1  0  0  0  0
  2  1  1  0  0  0  0
  3 20  2  0  0  0  0
  4 24  1  6  0  0  0
  4  5  1  0  0  0  0
  4  3  1  0  0  0  0
  6  5  1  0  0  0  0
  6 25  1  0  0  0  0
  6  7  1  0  0  0  0
  7  8  1  6  0  0  0
  7 13  1  0  0  0  0
  9  7  1  0  0  0  0
  9 10  1  0  0  0  0
 10 12  2  0  0  0  0
 11 10  1  0  0  0  0
 11 28  1  0  0  0  0
 13 16  2  0  0  0  0
 13 14  1  0  0  0  0
 14 15  1  0  0  0  0
 15 32  1  0  0  0  0
 15 33  1  0  0  0  0
 17 18  1  0  0  0  0
 17  4  1  0  0  0  0
 18  2  1  0  0  0  0
 19 18  2  0  0  0  0
 21  1  1  0  0  0  0
 26  6  1  0  0  0  0
 27  9  1  0  0  0  0
 29 11  1  0  0  0  0
 30 11  1  0  0  0  0
 31 14  1  0  0  0  0
 34 15  1  0  0  0  0
 35 17  1  0  0  0  0
M  END
