35
-1 1
C         2.974631   -1.275789    0.019662
N         1.752932   -1.290310   -0.727914
C         0.582814   -1.766747   -0.250078
C        -0.455521   -1.587647   -1.370247
S        -2.139267   -1.122591   -0.760848
C        -2.190379    0.693004   -0.804286
C        -1.403101    1.449462    0.272439
H        -1.727271    2.504177    0.254872
N         0.008732    1.377247   -0.015220
C         0.873104    2.282053    0.522896
C         2.299207    2.201448    0.014873
O         0.531266    3.088397    1.371048
C        -1.823912    0.956043    1.664658
N        -0.973538    0.104670    2.274008
C        -1.338297   -0.620140    3.461320
O        -2.898807    1.308634    2.124717
C         0.242150   -0.707675   -2.352012
C         1.600804   -0.631168   -2.033118
O         2.592349   -0.122798   -2.562895
O         0.412690   -2.243147    0.862891
H         3.725602   -0.784297   -0.614471
H         3.304078   -2.297625    0.267194
H         2.861586   -0.719736    0.965368
H        -0.666027   -2.608359   -1.747702
H        -3.257396    0.923148   -0.679490
H        -1.873215    1.037834   -1.799941
H         0.270314    0.873157   -0.874533
H         2.922551    1.759920    0.807177
H         2.662164    3.224989   -0.150871
H         2.420203    1.604568   -0.900864
H        -0.214014   -0.276925    1.719455
H        -2.300027   -0.228819    3.817400
H        -0.583915   -0.492854    4.254648
H        -1.438766   -1.694681    3.241787
H        -0.139515   -0.474034   -3.344513
