-1 1
 OpenBabel05232413483D

 35 34  0  0  1  0  0  0  0  0999 V2000
    3.2693   -1.1991   -0.8052 C   0  0  0  0  0  0  0  0  0  0  0  0
    1.9650   -1.2341   -1.4045 N   0  0  0  0  0  0  0  0  0  0  0  0
    1.1420   -2.3645   -1.3748 C   0  0  0  0  0  0  0  0  0  0  0  0
   -0.0480   -2.0068   -2.2082 C   0  0  0  0  0  0  0  0  0  0  0  0
   -1.2435   -1.6066    0.2372 S   0  0  0  0  0  1  0  0  0  0  0  0
   -1.9104   -0.0107   -0.3190 C   0  0  0  0  0  0  0  0  0  0  0  0
   -1.3709    1.2203    0.4377 C   0  0  2  0  0  0  0  0  0  0  0  0
   -1.6893    2.1394   -0.0759 H   0  0  0  0  0  0  0  0  0  0  0  0
    0.0698    1.1633    0.4450 N   0  0  0  0  0  0  0  0  0  0  0  0
    0.8535    2.2561    0.6186 C   0  0  0  0  0  0  0  0  0  0  0  0
    2.3431    1.9839    0.5307 C   0  0  0  0  0  0  0  0  0  0  0  0
    0.4033    3.3749    0.7951 O   0  0  0  0  0  0  0  0  0  0  0  0
   -2.0014    1.3261    1.8339 C   0  0  0  0  0  0  0  0  0  0  0  0
   -1.4401    0.5164    2.7730 N   0  0  0  0  0  0  0  0  0  0  0  0
   -2.0431    0.3437    4.0668 C   0  0  0  0  0  0  0  0  0  0  0  0
   -2.9519    2.0573    2.0507 O   0  0  0  0  0  0  0  0  0  0  0  0
    0.1959   -0.8218   -2.8168 C   0  0  0  0  0  0  0  0  0  0  0  0
    1.4748   -0.2848   -2.3123 C   0  0  0  0  0  0  0  0  0  0  0  0
    2.0561    0.7408   -2.6033 O   0  0  0  0  0  0  0  0  0  0  0  0
    1.4503   -3.4163   -0.8684 O   0  0  0  0  0  0  0  0  0  0  0  0
    3.7927   -0.3125   -1.1861 H   0  0  0  0  0  0  0  0  0  0  0  0
    3.8353   -2.1077   -1.0620 H   0  0  0  0  0  0  0  0  0  0  0  0
    3.2037   -1.1380    0.2921 H   0  0  0  0  0  0  0  0  0  0  0  0
   -0.8453   -2.7198   -2.3946 H   0  0  0  0  0  0  0  0  0  0  0  0
   -3.0095    0.0006   -0.2616 H   0  0  0  0  0  0  0  0  0  0  0  0
   -1.6322    0.1282   -1.3824 H   0  0  0  0  0  0  0  0  0  0  0  0
    0.4659    0.2282    0.3479 H   0  0  0  0  0  0  0  0  0  0  0  0
    2.6234    1.0831    1.0966 H   0  0  0  0  0  0  0  0  0  0  0  0
    2.8850    2.8530    0.9221 H   0  0  0  0  0  0  0  0  0  0  0  0
    2.6129    1.8226   -0.5250 H   0  0  0  0  0  0  0  0  0  0  0  0
   -0.8812   -0.2493    2.3966 H   0  0  0  0  0  0  0  0  0  0  0  0
   -2.6581    1.2282    4.2777 H   0  0  0  0  0  0  0  0  0  0  0  0
   -1.2730    0.2452    4.8481 H   0  0  0  0  0  0  0  0  0  0  0  0
   -2.6963   -0.5460    4.1066 H   0  0  0  0  0  0  0  0  0  0  0  0
   -0.4185   -0.2814   -3.5331 H   0  0  0  0  0  0  0  0  0  0  0  0
  1 23  1  0  0  0  0
  2  3  1  0  0  0  0
  2  1  1  0  0  0  0
  3 20  2  0  0  0  0
  4  3  1  0  0  0  0
  6 25  1  0  0  0  0
  6  5  1  0  0  0  0
  6  7  1  0  0  0  0
  7  8  1  6  0  0  0
  7  9  1  0  0  0  0
  7 13  1  0  0  0  0
  9 10  1  0  0  0  0
 10 12  2  0  0  0  0
 11 10  1  0  0  0  0
 11 29  1  0  0  0  0
 11 28  1  0  0  0  0
 13 16  2  0  0  0  0
 13 14  1  0  0  0  0
 14 15  1  0  0  0  0
 15 34  1  0  0  0  0
 15 32  1  0  0  0  0
 15 33  1  0  0  0  0
 17 18  1  0  0  0  0
 17  4  2  0  0  0  0
 18  2  1  0  0  0  0
 19 18  2  0  0  0  0
 21  1  1  0  0  0  0
 22  1  1  0  0  0  0
 24  4  1  0  0  0  0
 26  6  1  0  0  0  0
 27  9  1  0  0  0  0
 30 11  1  0  0  0  0
 31 14  1  0  0  0  0
 35 17  1  0  0  0  0
M  END
