-1 1
 OpenBabel05232414493D

 35 34  0  0  1  0  0  0  0  0999 V2000
   10.7451   -6.5851   -3.2658 C   0  0  0  0  0  0  0  0  0  0  0  0
    9.4161   -6.5836   -3.8083 N   0  0  0  0  0  0  0  0  0  0  0  0
    8.5866   -7.7018   -3.7744 C   0  0  0  0  0  0  0  0  0  0  0  0
    7.3854   -7.3296   -4.5884 C   0  0  0  0  0  3  0  0  0  0  0  0
    6.1248   -6.9476   -2.4646 S   0  0  0  0  0  1  0  0  0  0  0  0
    5.5948   -5.2839   -2.9294 C   0  0  0  0  0  0  0  0  0  0  0  0
    6.1344   -4.1615   -2.0252 C   0  0  2  0  0  0  0  0  0  0  0  0
    5.8718   -3.1863   -2.4636 H   0  0  0  0  0  0  0  0  0  0  0  0
    7.5716   -4.2569   -1.9435 N   0  0  0  0  0  0  0  0  0  0  0  0
    8.3658   -3.1641   -1.7791 C   0  0  0  0  0  0  0  0  0  0  0  0
    9.8494   -3.4337   -1.9220 C   0  0  0  0  0  0  0  0  0  0  0  0
    7.9183   -2.0530   -1.5578 O   0  0  0  0  0  0  0  0  0  0  0  0
    5.4167   -4.1803   -0.6715 C   0  0  0  0  0  0  0  0  0  0  0  0
    6.1165   -4.7336    0.3510 N   0  0  0  0  0  0  0  0  0  0  0  0
    5.5272   -4.9923    1.6349 C   0  0  0  0  0  0  0  0  0  0  0  0
    4.2824   -3.7482   -0.5594 O   0  0  0  0  0  0  0  0  0  0  0  0
    7.6763   -6.1607   -5.2529 C   0  0  0  0  0  3  0  0  0  0  0  0
    8.9441   -5.6427   -4.7608 C   0  0  0  0  0  0  0  0  0  0  0  0
    9.5702   -4.6406   -5.0586 O   0  0  0  0  0  0  0  0  0  0  0  0
    8.8758   -8.7529   -3.2500 O   0  0  0  0  0  0  0  0  0  0  0  0
   11.2633   -5.6956   -3.6476 H   0  0  0  0  0  0  0  0  0  0  0  0
   11.2905   -7.4928   -3.5698 H   0  0  0  0  0  0  0  0  0  0  0  0
   10.7311   -6.5538   -2.1650 H   0  0  0  0  0  0  0  0  0  0  0  0
    6.6569   -8.0847   -4.8687 H   0  0  0  0  0  0  0  0  0  0  0  0
    4.4983   -5.2081   -2.9550 H   0  0  0  0  0  0  0  0  0  0  0  0
    5.9780   -5.0845   -3.9515 H   0  0  0  0  0  0  0  0  0  0  0  0
    7.9681   -5.1648   -2.1862 H   0  0  0  0  0  0  0  0  0  0  0  0
   10.1496   -4.3418   -1.3787 H   0  0  0  0  0  0  0  0  0  0  0  0
   10.4057   -2.5691   -1.5411 H   0  0  0  0  0  0  0  0  0  0  0  0
   10.0789   -3.5861   -2.9890 H   0  0  0  0  0  0  0  0  0  0  0  0
    6.9888   -5.1819    0.1015 H   0  0  0  0  0  0  0  0  0  0  0  0
    4.5779   -4.4427    1.6809 H   0  0  0  0  0  0  0  0  0  0  0  0
    6.1805   -4.6479    2.4528 H   0  0  0  0  0  0  0  0  0  0  0  0
    5.3155   -6.0653    1.7805 H   0  0  0  0  0  0  0  0  0  0  0  0
    7.0879   -5.6467   -6.0088 H   0  0  0  0  0  0  0  0  0  0  0  0
  1 23  1  0  0  0  0
  2  3  1  0  0  0  0
  2  1  1  0  0  0  0
  3 20  2  0  0  0  0
  4  3  1  0  0  0  0
  6  5  1  0  0  0  0
  6  7  1  0  0  0  0
  7  8  1  6  0  0  0
  7  9  1  0  0  0  0
  7 13  1  0  0  0  0
  9 10  1  0  0  0  0
 10 12  2  0  0  0  0
 11 10  1  0  0  0  0
 11 29  1  0  0  0  0
 11 28  1  0  0  0  0
 13 16  2  0  0  0  0
 13 14  1  0  0  0  0
 14 15  1  0  0  0  0
 15 32  1  0  0  0  0
 15 34  1  0  0  0  0
 15 33  1  0  0  0  0
 17 18  1  0  0  0  0
 17  4  1  0  0  0  0
 18  2  1  0  0  0  0
 19 18  2  0  0  0  0
 21  1  1  0  0  0  0
 22  1  1  0  0  0  0
 24  4  1  0  0  0  0
 25  6  1  0  0  0  0
 26  6  1  0  0  0  0
 27  9  1  0  0  0  0
 30 11  1  0  0  0  0
 31 14  1  0  0  0  0
 35 17  1  0  0  0  0
M  END
