54
-1 1
O         1.285151   -2.456824   -5.175078
C         0.598331   -1.566024   -5.642112
C        -0.545750   -0.821834   -4.988616
S         0.730380    0.547072   -3.760448
C         1.692906   -0.564505   -2.689080
C         1.318576   -0.541438   -1.192118
H         1.299594    0.510659   -0.860657
N         2.283317   -1.265180   -0.397123
C         3.487029   -0.767598   -0.047805
C         4.356534   -1.696728    0.781013
O         3.884527    0.336913   -0.387135
C        -0.045417   -1.183100   -0.891561
N        -1.097094   -0.580891   -1.481583
C        -2.434396   -1.108971   -1.401860
O        -0.137824   -2.161096   -0.159097
C        -1.207529   -0.128127   -6.012109
C        -0.396844   -0.161019   -7.192162
N         0.703709   -1.046383   -6.900604
C         1.775410   -1.326742   -7.817153
C         3.085015   -0.638327   -7.424932
C         2.920476    0.864603   -7.220636
C         4.242052    1.608668   -7.003572
C         5.038405    1.140048   -5.805964
C         6.328187    0.619787   -5.953764
C         7.064264    0.192492   -4.847384
C         6.516023    0.280800   -3.569965
C         5.227579    0.793346   -3.403644
C         4.497443    1.213519   -4.514284
O        -0.506548    0.363586   -8.289279
H        -1.029713   -1.307560   -4.139226
H         2.750794   -0.280946   -2.760877
H         1.607373   -1.586935   -3.092221
H         1.926130   -2.130374   -0.001418
H         4.848846   -1.109696    1.567354
H         5.142091   -2.108116    0.129577
H         3.799970   -2.530325    1.231457
H        -0.864565    0.117164   -2.199734
H        -3.157154   -0.307662   -1.184402
H        -2.467348   -1.852242   -0.595200
H        -2.736518   -1.600512   -2.342127
H        -2.106903    0.476951   -5.927112
H         1.429647   -0.966224   -8.798317
H         1.927414   -2.416810   -7.876464
H         3.834192   -0.837872   -8.213119
H         3.470196   -1.098565   -6.500081
H         2.257017    1.031919   -6.356019
H         2.398550    1.301040   -8.088786
H         4.023859    2.683900   -6.885574
H         4.869531    1.518320   -7.907180
H         6.762661    0.545763   -6.955364
H         8.069630   -0.213847   -4.988260
H         7.085633   -0.052960   -2.698910
H         4.788263    0.852241   -2.403498
H         3.477835    1.586931   -4.376383
