54
-1 1
O        -0.477653   -1.990870   -1.212421
C        -1.245835   -1.138736   -1.638174
C        -2.299848   -0.372525   -0.836547
S        -1.307904    0.855704    0.247424
C        -0.347479   -0.218945    1.364308
C        -0.775529   -0.180849    2.844654
H        -0.856508    0.874995    3.154723
N         0.195753   -0.841020    3.683265
C         1.383592   -0.293037    4.015462
C         2.283284   -1.164772    4.872280
O         1.739959    0.812849    3.637921
C        -2.116743   -0.883917    3.105696
N        -3.181788   -0.314413    2.505988
C        -4.493385   -0.911713    2.517764
O        -2.179272   -1.881150    3.812775
C        -3.078627    0.349693   -1.846252
C        -2.438427    0.265012   -3.088667
N        -1.306269   -0.663511   -2.898716
C        -0.326703   -0.921811   -3.916046
C         1.019676   -0.259941   -3.605333
C         0.885506    1.234458   -3.329752
C         2.220939    1.941976   -3.074840
C         2.969481    1.434955   -1.862447
C         4.198592    0.780064   -1.988809
C         4.883986    0.310389   -0.867279
C         4.346758    0.492270    0.404888
C         3.118795    1.141002    0.550575
C         2.437956    1.600730   -0.575442
O        -2.628304    0.745622   -4.203818
H        -2.809009   -1.032461   -0.116360
H         0.697927    0.108633    1.313080
H        -0.384927   -1.240653    0.957589
H        -0.127041   -1.719877    4.078729
H         2.773399   -0.532900    5.624240
H         3.068129   -1.589970    4.228842
H         1.749575   -1.988054    5.367050
H        -2.974907    0.425331    1.829806
H        -5.253508   -0.188153    2.851133
H        -4.478853   -1.760603    3.212670
H        -4.774913   -1.275181    1.516226
H        -3.942622    0.981062   -1.650523
H        -0.758763   -0.513206   -4.843067
H        -0.189307   -2.009220   -4.037318
H         1.704469   -0.430624   -4.456458
H         1.467782   -0.760067   -2.730780
H         0.227917    1.376826   -2.456305
H         0.367350    1.721120   -4.172763
H         2.029177    3.020897   -2.947391
H         2.868121    1.844553   -3.963570
H         4.624019    0.632081   -2.985876
H         5.841488   -0.202563   -0.991870
H         4.877873    0.126829    1.287393
H         2.689788    1.276178    1.547691
H         1.464059    2.084080   -0.454772
