42
-1 1
O         3.756947    2.384732    4.087755
C         4.649978    1.872623    4.739272
C         6.058751    1.815617    4.552188
C         6.641674    1.037585    5.570864
S         6.954646   -1.065703    5.037641
C         6.766495   -0.852568    3.258993
C         8.074541   -0.626159    2.468830
H         8.641894    0.163363    2.987742
N         7.816127   -0.184262    1.119972
C         7.787749    1.124763    0.766259
C         7.553000    1.382829   -0.712211
O         7.903511    2.040341    1.560185
C         8.931600   -1.895717    2.362318
N         9.429189   -2.344254    3.534179
C        10.124916   -3.599845    3.643953
O         9.127887   -2.441228    1.283308
C         5.566164    0.804031    6.602917
N         4.370744    1.187998    6.013975
C         3.093300    1.023223    6.573586
C         2.910430    0.952635    7.964394
C         1.639112    0.773274    8.506530
C         0.543603    0.679130    7.662361
F        -0.684800    0.513646    8.185618
C         0.695148    0.750635    6.284526
C         1.965806    0.913245    5.741325
O         5.718614    0.373764    7.726411
H         6.563785    2.281092    3.708474
H         7.645533    1.210119    5.961117
H         6.147968    0.058102    3.128254
H         6.208892   -1.700386    2.832132
H         7.929796   -0.906872    0.416136
H         7.759212    0.508973   -1.346313
H         8.180372    2.227208   -1.025731
H         6.502067    1.678184   -0.849681
H         9.030139   -1.917795    4.376437
H        10.433681   -3.913984    2.638846
H         9.483257   -4.387267    4.074181
H        11.018325   -3.495758    4.278684
H         3.778998    1.013165    8.616166
H         1.494300    0.709837    9.586713
H        -0.183340    0.670623    5.641411
H         2.096836    0.984708    4.664071
