-1 1
 OpenBabel05232414493D

 52 54  0  0  1  0  0  0  0  0999 V2000
   10.6368    0.6173   -3.8531 O   0  0  0  0  0  0  0  0  0  0  0  0
   10.5559   -0.1695   -2.9203 C   0  0  0  0  0  0  0  0  0  0  0  0
   10.2008    0.0027   -1.5606 C   0  0  0  0  0  3  0  0  0  0  0  0
   10.0609   -1.2551   -0.9327 C   0  0  2  0  0  0  0  0  0  0  0  0
   10.6400   -2.2639   -1.9077 C   0  0  0  0  0  0  0  0  0  0  0  0
   10.8405   -1.5933   -3.0963 N   0  0  0  0  0  0  0  0  0  0  0  0
   11.2831   -2.1962   -4.2890 C   0  0  0  0  0  0  0  0  0  0  0  0
   10.9092   -3.5108   -4.6013 C   0  0  0  0  0  0  0  0  0  0  0  0
   11.3092   -4.0876   -5.8021 C   0  0  0  0  0  0  0  0  0  0  0  0
   12.0853   -3.3707   -6.7117 C   0  0  0  0  0  0  0  0  0  0  0  0
   12.4643   -2.0662   -6.3984 C   0  0  0  0  0  0  0  0  0  0  0  0
   12.0759   -1.4792   -5.1966 C   0  0  0  0  0  0  0  0  0  0  0  0
   10.8959   -3.4307   -1.6897 O   0  0  0  0  0  0  0  0  0  0  0  0
    7.9293   -1.8832   -1.1848 S   0  0  0  0  0  0  0  0  0  0  0  0
    7.7713   -3.6432   -1.6323 C   0  0  0  0  0  0  0  0  0  0  0  0
    6.9011   -3.9017   -2.8811 C   0  0  2  0  0  0  0  0  0  0  0  0
    5.9388   -3.3805   -2.7304 H   0  0  0  0  0  0  0  0  0  0  0  0
    6.6479   -5.3145   -3.0503 N   0  0  0  0  0  0  0  0  0  0  0  0
    5.7655   -6.0147   -2.3037 C   0  0  0  0  0  0  0  0  0  0  0  0
    5.5871   -7.4679   -2.7151 C   0  0  0  0  0  0  0  0  0  0  0  0
    5.1631   -5.5486   -1.3513 O   0  0  0  0  0  0  0  0  0  0  0  0
    7.4827   -3.4270   -4.2342 C   0  0  0  0  0  0  0  0  0  0  0  0
    7.8054   -2.1288   -4.3145 N   0  0  0  0  0  0  0  0  0  0  0  0
    8.3197   -1.5199   -5.5193 C   0  0  0  0  0  0  0  0  0  0  0  0
    7.5883   -4.2173   -5.1682 O   0  0  0  0  0  0  0  0  0  0  0  0
   10.2893   -1.4717    0.5310 C   0  0  0  0  0  0  0  0  0  0  0  0
   10.0903   -2.7199    1.1397 C   0  0  0  0  0  0  0  0  0  0  0  0
   10.3510   -2.9005    2.4934 C   0  0  0  0  0  0  0  0  0  0  0  0
   10.8034   -1.8359    3.2761 C   0  0  0  0  0  0  0  0  0  0  0  0
   11.0037   -0.5922    2.6837 C   0  0  0  0  0  0  0  0  0  0  0  0
   10.7581   -0.4167    1.3213 C   0  0  0  0  0  0  0  0  0  0  0  0
    9.8714    0.9625   -1.1701 H   0  0  0  0  0  0  0  0  0  0  0  0
   10.2942   -4.0777   -3.9069 H   0  0  0  0  0  0  0  0  0  0  0  0
   10.9861   -5.1051   -6.0325 H   0  0  0  0  0  0  0  0  0  0  0  0
   12.3891   -3.8238   -7.6585 H   0  0  0  0  0  0  0  0  0  0  0  0
   13.0724   -1.4889   -7.0998 H   0  0  0  0  0  0  0  0  0  0  0  0
   12.3480   -0.4517   -4.9654 H   0  0  0  0  0  0  0  0  0  0  0  0
    7.2947   -4.1827   -0.8024 H   0  0  0  0  0  0  0  0  0  0  0  0
    8.7774   -4.0680   -1.7833 H   0  0  0  0  0  0  0  0  0  0  0  0
    7.0002   -5.6727   -3.9358 H   0  0  0  0  0  0  0  0  0  0  0  0
    6.0789   -7.7207   -3.6645 H   0  0  0  0  0  0  0  0  0  0  0  0
    4.5119   -7.6812   -2.7882 H   0  0  0  0  0  0  0  0  0  0  0  0
    5.9966   -8.1080   -1.9199 H   0  0  0  0  0  0  0  0  0  0  0  0
    7.7944   -1.5993   -3.4363 H   0  0  0  0  0  0  0  0  0  0  0  0
    7.5036   -1.1254   -6.1492 H   0  0  0  0  0  0  0  0  0  0  0  0
    8.8786   -2.2636   -6.1027 H   0  0  0  0  0  0  0  0  0  0  0  0
    8.9950   -0.6956   -5.2508 H   0  0  0  0  0  0  0  0  0  0  0  0
    9.7265   -3.5513    0.5372 H   0  0  0  0  0  0  0  0  0  0  0  0
   10.1906   -3.8825    2.9455 H   0  0  0  0  0  0  0  0  0  0  0  0
   10.9984   -1.9785    4.3421 H   0  0  0  0  0  0  0  0  0  0  0  0
   11.3618    0.2503    3.2811 H   0  0  0  0  0  0  0  0  0  0  0  0
   10.9462    0.5506    0.8527 H   0  0  0  0  0  0  0  0  0  0  0  0
  1  2  2  0  0  0  0
  2  3  1  0  0  0  0
  3 32  1  0  0  0  0
  3  4  1  0  0  0  0
  4 14  1  6  0  0  0
  4 26  1  0  0  0  0
  5 13  2  0  0  0  0
  5  4  1  0  0  0  0
  6  2  1  0  0  0  0
  6  5  1  0  0  0  0
  7  6  1  0  0  0  0
  8  7  1  0  0  0  0
  8 33  1  0  0  0  0
  9  8  2  0  0  0  0
 10 11  2  0  0  0  0
 10  9  1  0  0  0  0
 11 12  1  0  0  0  0
 12 37  1  0  0  0  0
 12  7  2  0  0  0  0
 15 14  1  0  0  0  0
 15 38  1  0  0  0  0
 16 17  1  1  0  0  0
 16 15  1  0  0  0  0
 18 16  1  0  0  0  0
 18 19  1  0  0  0  0
 19 21  2  0  0  0  0
 20 19  1  0  0  0  0
 20 43  1  0  0  0  0
 22 16  1  0  0  0  0
 23 22  1  0  0  0  0
 23 44  1  0  0  0  0
 24 47  1  0  0  0  0
 24 23  1  0  0  0  0
 25 22  2  0  0  0  0
 26 27  2  0  0  0  0
 26 31  1  0  0  0  0
 27 28  1  0  0  0  0
 28 49  1  0  0  0  0
 28 29  2  0  0  0  0
 29 50  1  0  0  0  0
 30 29  1  0  0  0  0
 30 51  1  0  0  0  0
 31 30  2  0  0  0  0
 34  9  1  0  0  0  0
 35 10  1  0  0  0  0
 36 11  1  0  0  0  0
 39 15  1  0  0  0  0
 40 18  1  0  0  0  0
 41 20  1  0  0  0  0
 42 20  1  0  0  0  0
 45 24  1  0  0  0  0
 46 24  1  0  0  0  0
 48 27  1  0  0  0  0
 52 31  1  0  0  0  0
M  END
