52
-1 1
O        10.636826    0.617279   -3.853128
C        10.555878   -0.169507   -2.920308
C        10.200803    0.002657   -1.560591
C        10.060921   -1.255150   -0.932668
C        10.639967   -2.263938   -1.907694
N        10.840501   -1.593293   -3.096276
C        11.283119   -2.196225   -4.288996
C        10.909247   -3.510755   -4.601331
C        11.309191   -4.087576   -5.802085
C        12.085278   -3.370680   -6.711720
C        12.464274   -2.066165   -6.398359
C        12.075855   -1.479234   -5.196584
O        10.895929   -3.430733   -1.689689
S         7.929319   -1.883198   -1.184844
C         7.771325   -3.643162   -1.632271
C         6.901115   -3.901667   -2.881121
H         5.938788   -3.380483   -2.730440
N         6.647870   -5.314511   -3.050259
C         5.765544   -6.014678   -2.303717
C         5.587145   -7.467886   -2.715077
O         5.163116   -5.548554   -1.351275
C         7.482728   -3.426976   -4.234237
N         7.805392   -2.128757   -4.314465
C         8.319669   -1.519878   -5.519273
O         7.588262   -4.217339   -5.168190
C        10.289307   -1.471678    0.530984
C        10.090300   -2.719947    1.139747
C        10.351016   -2.900505    2.493440
C        10.803387   -1.835873    3.276052
C        11.003727   -0.592177    2.683719
C        10.758106   -0.416680    1.321304
H         9.871376    0.962511   -1.170075
H        10.294169   -4.077744   -3.906931
H        10.986106   -5.105088   -6.032497
H        12.389098   -3.823831   -7.658510
H        13.072407   -1.488922   -7.099773
H        12.347957   -0.451682   -4.965393
H         7.294652   -4.182706   -0.802359
H         8.777352   -4.068035   -1.783266
H         7.000213   -5.672725   -3.935828
H         6.078893   -7.720725   -3.664521
H         4.511928   -7.681168   -2.788170
H         5.996566   -8.107979   -1.919858
H         7.794419   -1.599259   -3.436287
H         7.503555   -1.125364   -6.149192
H         8.878571   -2.263647   -6.102688
H         8.994952   -0.695618   -5.250781
H         9.726485   -3.551270    0.537164
H        10.190613   -3.882460    2.945465
H        10.998433   -1.978460    4.342107
H        11.361848    0.250331    3.281078
H        10.946213    0.550601    0.852666
