52
-1 1
O         1.057233    3.312799   -1.514483
C         0.881801    2.514224   -0.593908
C         0.318880    2.594776    0.670169
C         0.215245    1.266107    1.303874
C         0.964778    0.344278    0.319326
N         1.313296    1.089602   -0.764145
C         2.019106    0.595427   -1.875767
C         1.806285   -0.711133   -2.339632
C         2.505412   -1.182392   -3.447356
C         3.416534   -0.365281   -4.115527
C         3.621580    0.936221   -3.658766
C         2.936659    1.417780   -2.546195
O         1.207189   -0.834348    0.509589
S        -1.642793    0.767984    1.311654
C        -1.788505   -1.009061    0.926114
C        -2.575651   -1.283241   -0.371250
H        -3.536246   -0.742495   -0.305773
N        -2.843704   -2.694792   -0.510002
C        -3.788347   -3.349657    0.199867
C        -3.953694   -4.819567   -0.148290
O        -4.456970   -2.825017    1.075316
C        -1.883250   -0.861328   -1.689519
N        -1.653595    0.450913   -1.846082
C        -1.085160    1.015583   -3.050875
O        -1.622712   -1.707374   -2.539227
C         0.775513    1.097702    2.711384
C         0.544902   -0.056051    3.472039
C         1.113515   -0.205558    4.733422
C         1.922186    0.799671    5.266387
C         2.160169    1.949875    4.518350
C         1.595718    2.093064    3.250101
H        -0.145899    3.500541    1.054305
H         1.085313   -1.353195   -1.837587
H         2.321047   -2.201545   -3.795988
H         3.959078   -0.738486   -4.987827
H         4.328387    1.592266   -4.173802
H         3.072707    2.441200   -2.202591
H        -2.339098   -1.491833    1.744949
H        -0.782554   -1.445628    0.859425
H        -2.387536   -3.108454   -1.320527
H        -3.386626   -5.127512   -1.037376
H        -5.021891   -5.024273   -0.302817
H        -3.624199   -5.420738    0.711682
H        -1.791518    1.049818   -1.031040
H        -1.877515    1.350454   -3.742178
H        -0.479020    0.255797   -3.559507
H        -0.446199    1.872599   -2.794455
H        -0.089049   -0.847325    3.071365
H         0.920672   -1.115711    5.307095
H         2.363647    0.684027    6.259740
H         2.793166    2.745300    4.920656
H         1.787821    2.982192    2.645991
