-1 1
 OpenBabel05232414493D

 84 83  0  0  1  0  0  0  0  0999 V2000
   23.0828  -17.1777   -3.2598 C   0  0  0  0  0  0  0  0  0  0  0  0
   23.1947  -16.8695   -1.7707 C   0  0  0  0  0  0  0  0  0  0  0  0
   22.2888  -17.7386   -0.9018 C   0  0  0  0  0  0  0  0  0  0  0  0
   22.3940  -17.4360    0.5900 C   0  0  0  0  0  0  0  0  0  0  0  0
   21.4886  -18.3047    1.4585 C   0  0  0  0  0  0  0  0  0  0  0  0
   21.5921  -17.9954    2.9488 C   0  0  0  0  0  0  0  0  0  0  0  0
   20.6885  -18.8653    3.8174 C   0  0  0  0  0  0  0  0  0  0  0  0
   20.7800  -18.5476    5.3156 C   0  0  0  0  0  0  0  0  0  0  0  0
   20.2905  -17.1710    5.6621 C   0  0  0  0  0  0  0  0  0  0  0  0
   21.0273  -16.1975    6.2024 C   0  0  0  0  0  0  0  0  0  0  0  0
   20.5342  -14.8258    6.5561 C   0  0  0  0  0  0  0  0  0  0  0  0
   20.6191  -14.5306    8.0585 C   0  0  0  0  0  0  0  0  0  0  0  0
   20.2433  -13.0995    8.4433 C   0  0  0  0  0  0  0  0  0  0  0  0
   18.7980  -12.7099    8.1392 C   0  0  0  0  0  0  0  0  0  0  0  0
   18.4317  -11.3183    8.6454 C   0  0  0  0  0  0  0  0  0  0  0  0
   16.9916  -10.9111    8.3466 C   0  0  0  0  0  0  0  0  0  0  0  0
   16.6502   -9.5407    8.9184 C   0  0  0  0  0  0  0  0  0  0  0  0
   15.1779   -9.1684    8.7821 C   0  0  0  0  0  0  0  0  0  0  0  0
   14.8286   -8.0036    9.5534 N   0  0  0  0  0  0  0  0  0  0  0  0
   15.2900   -6.6833    9.2462 C   0  0  0  0  0  0  0  0  0  0  0  0
   16.0383   -6.4713    8.3079 O   0  0  0  0  0  0  0  0  0  0  0  0
   14.6467   -5.8012   10.1874 C   0  0  0  0  0  3  0  0  0  0  0  0
   13.8697   -6.5493   11.0590 C   0  0  0  0  0  3  0  0  0  0  0  0
   14.8825   -6.9642   13.1617 S   0  0  0  0  0  1  0  0  0  0  0  0
   16.6065   -6.9195   12.6137 C   0  0  0  0  0  0  0  0  0  0  0  0
   17.4852   -8.0995   13.0848 C   0  0  2  0  0  0  0  0  0  0  0  0
   17.3680   -8.1757   14.1807 H   0  0  0  0  0  0  0  0  0  0  0  0
   18.8809   -7.8719   12.7805 N   0  0  0  0  0  0  0  0  0  0  0  0
   19.6771   -7.0386   13.4869 C   0  0  0  0  0  0  0  0  0  0  0  0
   21.1292   -7.0075   13.0347 C   0  0  0  0  0  0  0  0  0  0  0  0
   19.2815   -6.3297   14.3965 O   0  0  0  0  0  0  0  0  0  0  0  0
   17.1529   -9.4810   12.4871 C   0  0  0  0  0  0  0  0  0  0  0  0
   15.8649   -9.8425   12.5196 N   0  0  0  0  0  0  0  0  0  0  0  0
   15.3839  -11.0833   11.9669 C   0  0  0  0  0  0  0  0  0  0  0  0
   18.0483  -10.1874   12.0221 O   0  0  0  0  0  0  0  0  0  0  0  0
   13.8823   -7.9741   10.5516 C   0  0  0  0  0  0  0  0  0  0  0  0
   13.1930   -8.9127   10.9015 O   0  0  0  0  0  0  0  0  0  0  0  0
   23.7467  -16.5355   -3.8579 H   0  0  0  0  0  0  0  0  0  0  0  0
   22.0536  -17.0230   -3.6211 H   0  0  0  0  0  0  0  0  0  0  0  0
   23.3518  -18.2253   -3.4703 H   0  0  0  0  0  0  0  0  0  0  0  0
   22.9537  -15.8070   -1.5936 H   0  0  0  0  0  0  0  0  0  0  0  0
   24.2412  -16.9982   -1.4435 H   0  0  0  0  0  0  0  0  0  0  0  0
   22.5285  -18.8034   -1.0766 H   0  0  0  0  0  0  0  0  0  0  0  0
   21.2404  -17.6104   -1.2269 H   0  0  0  0  0  0  0  0  0  0  0  0
   22.1533  -16.3722    0.7647 H   0  0  0  0  0  0  0  0  0  0  0  0
   23.4423  -17.5633    0.9151 H   0  0  0  0  0  0  0  0  0  0  0  0
   21.7294  -19.3695    1.2854 H   0  0  0  0  0  0  0  0  0  0  0  0
   20.4405  -18.1774    1.1323 H   0  0  0  0  0  0  0  0  0  0  0  0
   21.3510  -16.9325    3.1216 H   0  0  0  0  0  0  0  0  0  0  0  0
   22.6399  -18.1206    3.2775 H   0  0  0  0  0  0  0  0  0  0  0  0
   20.9406  -19.9281    3.6577 H   0  0  0  0  0  0  0  0  0  0  0  0
   19.6412  -18.7492    3.4847 H   0  0  0  0  0  0  0  0  0  0  0  0
   21.8233  -18.6659    5.6549 H   0  0  0  0  0  0  0  0  0  0  0  0
   20.1838  -19.2932    5.8701 H   0  0  0  0  0  0  0  0  0  0  0  0
   19.2368  -16.9627    5.4286 H   0  0  0  0  0  0  0  0  0  0  0  0
   22.0807  -16.4081    6.4368 H   0  0  0  0  0  0  0  0  0  0  0  0
   19.4971  -14.7072    6.2038 H   0  0  0  0  0  0  0  0  0  0  0  0
   21.1355  -14.0715    6.0160 H   0  0  0  0  0  0  0  0  0  0  0  0
   21.6472  -14.7389    8.4034 H   0  0  0  0  0  0  0  0  0  0  0  0
   19.9689  -15.2423    8.5970 H   0  0  0  0  0  0  0  0  0  0  0  0
   20.9245  -12.3937    7.9337 H   0  0  0  0  0  0  0  0  0  0  0  0
   20.4233  -12.9635    9.5230 H   0  0  0  0  0  0  0  0  0  0  0  0
   18.1201  -13.4544    8.5959 H   0  0  0  0  0  0  0  0  0  0  0  0
   18.6132  -12.7598    7.0511 H   0  0  0  0  0  0  0  0  0  0  0  0
   19.1174  -10.5750    8.1999 H   0  0  0  0  0  0  0  0  0  0  0  0
   18.5887  -11.2614    9.7364 H   0  0  0  0  0  0  0  0  0  0  0  0
   16.3092  -11.6667    8.7792 H   0  0  0  0  0  0  0  0  0  0  0  0
   16.8104  -10.9298    7.2557 H   0  0  0  0  0  0  0  0  0  0  0  0
   17.2557   -8.7584    8.4348 H   0  0  0  0  0  0  0  0  0  0  0  0
   16.9200   -9.5286    9.9828 H   0  0  0  0  0  0  0  0  0  0  0  0
   14.5343   -9.9838    9.1473 H   0  0  0  0  0  0  0  0  0  0  0  0
   14.9290   -8.9952    7.7203 H   0  0  0  0  0  0  0  0  0  0  0  0
   14.8030   -4.7256   10.1910 H   0  0  0  0  0  0  0  0  0  0  0  0
   12.9908   -6.1958   11.5943 H   0  0  0  0  0  0  0  0  0  0  0  0
   17.0859   -6.0129   13.0061 H   0  0  0  0  0  0  0  0  0  0  0  0
   16.6269   -6.8425   11.5084 H   0  0  0  0  0  0  0  0  0  0  0  0
   19.2787   -8.5796   12.1685 H   0  0  0  0  0  0  0  0  0  0  0  0
   21.3001   -6.0775   12.4720 H   0  0  0  0  0  0  0  0  0  0  0  0
   21.4084   -7.8589   12.3983 H   0  0  0  0  0  0  0  0  0  0  0  0
   21.7728   -6.9814   13.9240 H   0  0  0  0  0  0  0  0  0  0  0  0
   15.1917   -9.1285   12.8358 H   0  0  0  0  0  0  0  0  0  0  0  0
   16.0822  -11.4404   11.1972 H   0  0  0  0  0  0  0  0  0  0  0  0
   14.3968  -10.9051   11.5194 H   0  0  0  0  0  0  0  0  0  0  0  0
   15.2990  -11.8695   12.7371 H   0  0  0  0  0  0  0  0  0  0  0  0
  1  2  1  0  0  0  0
  2 41  1  0  0  0  0
  2 42  1  0  0  0  0
  2  3  1  0  0  0  0
  3  4  1  0  0  0  0
  4 45  1  0  0  0  0
  4 46  1  0  0  0  0
  4  5  1  0  0  0  0
  5  6  1  0  0  0  0
  6 49  1  0  0  0  0
  6 50  1  0  0  0  0
  6  7  1  0  0  0  0
  7  8  1  0  0  0  0
  8 53  1  0  0  0  0
  8  9  1  0  0  0  0
  8 54  1  0  0  0  0
  9 10  2  0  0  0  0
 10 56  1  0  0  0  0
 10 11  1  0  0  0  0
 11 12  1  0  0  0  0
 12 59  1  0  0  0  0
 12 13  1  0  0  0  0
 12 60  1  0  0  0  0
 13 62  1  0  0  0  0
 14 13  1  0  0  0  0
 14 63  1  0  0  0  0
 14 15  1  0  0  0  0
 15 66  1  0  0  0  0
 16 15  1  0  0  0  0
 16 67  1  0  0  0  0
 16 17  1  0  0  0  0
 17 70  1  0  0  0  0
 18 17  1  0  0  0  0
 18 71  1  0  0  0  0
 18 19  1  0  0  0  0
 19 36  1  0  0  0  0
 20 19  1  0  0  0  0
 20 22  1  0  0  0  0
 21 20  2  0  0  0  0
 22 73  1  0  0  0  0
 22 23  1  0  0  0  0
 23 74  1  0  0  0  0
 25 75  1  0  0  0  0
 25 26  1  0  0  0  0
 25 24  1  0  0  0  0
 26 27  1  1  0  0  0
 28 26  1  0  0  0  0
 28 29  1  0  0  0  0
 29 31  2  0  0  0  0
 30 29  1  0  0  0  0
 30 80  1  0  0  0  0
 32 33  1  0  0  0  0
 32 26  1  0  0  0  0
 33 81  1  0  0  0  0
 34 33  1  0  0  0  0
 34 84  1  0  0  0  0
 35 32  2  0  0  0  0
 36 37  2  0  0  0  0
 36 23  1  0  0  0  0
 38  1  1  0  0  0  0
 39  1  1  0  0  0  0
 40  1  1  0  0  0  0
 43  3  1  0  0  0  0
 44  3  1  0  0  0  0
 47  5  1  0  0  0  0
 48  5  1  0  0  0  0
 51  7  1  0  0  0  0
 52  7  1  0  0  0  0
 55  9  1  0  0  0  0
 57 11  1  0  0  0  0
 58 11  1  0  0  0  0
 61 13  1  0  0  0  0
 64 14  1  0  0  0  0
 65 15  1  0  0  0  0
 68 16  1  0  0  0  0
 69 17  1  0  0  0  0
 72 18  1  0  0  0  0
 76 25  1  0  0  0  0
 77 28  1  0  0  0  0
 78 30  1  0  0  0  0
 79 30  1  0  0  0  0
 82 34  1  0  0  0  0
 83 34  1  0  0  0  0
M  END
