-1 1
 OpenBabel05232413483D

 84 83  0  0  1  0  0  0  0  0999 V2000
    4.8869   -5.7964  -11.6348 C   0  0  0  0  0  0  0  0  0  0  0  0
    4.9894   -5.4924  -10.1442 C   0  0  0  0  0  0  0  0  0  0  0  0
    4.0739   -6.3602   -9.2840 C   0  0  0  0  0  0  0  0  0  0  0  0
    4.1698   -6.0618   -7.7907 C   0  0  0  0  0  0  0  0  0  0  0  0
    3.2551   -6.9291   -6.9307 C   0  0  0  0  0  0  0  0  0  0  0  0
    3.3496   -6.6241   -5.4389 C   0  0  0  0  0  0  0  0  0  0  0  0
    2.4368   -7.4929   -4.5787 C   0  0  0  0  0  0  0  0  0  0  0  0
    2.5194   -7.1793   -3.0791 C   0  0  0  0  0  0  0  0  0  0  0  0
    2.0325   -5.8019   -2.7322 C   0  0  0  0  0  0  0  0  0  0  0  0
    2.7691   -4.8324   -2.1845 C   0  0  0  0  0  0  0  0  0  0  0  0
    2.2781   -3.4600   -1.8303 C   0  0  0  0  0  0  0  0  0  0  0  0
    2.3550   -3.1687   -0.3267 C   0  0  0  0  0  0  0  0  0  0  0  0
    1.9791   -1.7380    0.0596 C   0  0  0  0  0  0  0  0  0  0  0  0
    0.5360   -1.3461   -0.2517 C   0  0  0  0  0  0  0  0  0  0  0  0
    0.1685    0.0437    0.2584 C   0  0  0  0  0  0  0  0  0  0  0  0
   -1.2705    0.4500   -0.0455 C   0  0  0  0  0  0  0  0  0  0  0  0
   -1.6167    1.8213    0.5222 C   0  0  0  0  0  0  0  0  0  0  0  0
   -3.0886    2.1829    0.3668 C   0  0  0  0  0  0  0  0  0  0  0  0
   -3.4548    3.3724    1.0966 N   0  0  0  0  0  0  0  0  0  0  0  0
   -3.0021    4.6629    0.7758 C   0  0  0  0  0  0  0  0  0  0  0  0
   -2.2271    4.9020   -0.1254 O   0  0  0  0  0  0  0  0  0  0  0  0
   -3.7010    5.5837    1.6903 C   0  0  0  0  0  0  0  0  0  0  0  0
   -4.5098    4.8662    2.5005 C   0  0  0  0  0  0  0  0  0  0  0  0
   -3.2581    4.2813    4.9507 S   0  0  0  0  0  1  0  0  0  0  0  0
   -1.5868    4.3186    4.2349 C   0  0  0  0  0  0  0  0  0  0  0  0
   -0.6795    3.1337    4.6330 C   0  0  2  0  0  0  0  0  0  0  0  0
   -0.7169    3.0584    5.7349 H   0  0  0  0  0  0  0  0  0  0  0  0
    0.6931    3.3323    4.2156 N   0  0  0  0  0  0  0  0  0  0  0  0
    1.5579    4.1732    4.8248 C   0  0  0  0  0  0  0  0  0  0  0  0
    2.9719    4.1508    4.2603 C   0  0  0  0  0  0  0  0  0  0  0  0
    1.2555    4.9263    5.7344 O   0  0  0  0  0  0  0  0  0  0  0  0
   -1.0834    1.7622    4.0573 C   0  0  0  0  0  0  0  0  0  0  0  0
   -2.3846    1.4627    4.1142 N   0  0  0  0  0  0  0  0  0  0  0  0
   -2.9308    0.2437    3.5788 C   0  0  0  0  0  0  0  0  0  0  0  0
   -0.2305    1.0156    3.5699 O   0  0  0  0  0  0  0  0  0  0  0  0
   -4.4389    3.4247    2.0797 C   0  0  0  0  0  0  0  0  0  0  0  0
   -5.1252    2.4892    2.4231 O   0  0  0  0  0  0  0  0  0  0  0  0
    5.5575   -5.1553  -12.2266 H   0  0  0  0  0  0  0  0  0  0  0  0
    3.8609   -5.6367  -12.0030 H   0  0  0  0  0  0  0  0  0  0  0  0
    5.1531   -6.8445  -11.8461 H   0  0  0  0  0  0  0  0  0  0  0  0
    4.7514   -4.4294   -9.9660 H   0  0  0  0  0  0  0  0  0  0  0  0
    6.0330   -5.6262   -9.8099 H   0  0  0  0  0  0  0  0  0  0  0  0
    4.3106   -7.4254   -9.4598 H   0  0  0  0  0  0  0  0  0  0  0  0
    3.0283   -6.2269   -9.6161 H   0  0  0  0  0  0  0  0  0  0  0  0
    3.9322   -4.9975   -7.6149 H   0  0  0  0  0  0  0  0  0  0  0  0
    5.2154   -6.1941   -7.4585 H   0  0  0  0  0  0  0  0  0  0  0  0
    3.4928   -7.9944   -7.1049 H   0  0  0  0  0  0  0  0  0  0  0  0
    2.2098   -6.7969   -7.2638 H   0  0  0  0  0  0  0  0  0  0  0  0
    3.1114   -5.5607   -5.2649 H   0  0  0  0  0  0  0  0  0  0  0  0
    4.3947   -6.7543   -5.1034 H   0  0  0  0  0  0  0  0  0  0  0  0
    2.6860   -8.5562   -4.7394 H   0  0  0  0  0  0  0  0  0  0  0  0
    1.3922   -7.3719   -4.9182 H   0  0  0  0  0  0  0  0  0  0  0  0
    3.5600   -7.3022   -2.7331 H   0  0  0  0  0  0  0  0  0  0  0  0
    1.9169   -7.9242   -2.5305 H   0  0  0  0  0  0  0  0  0  0  0  0
    0.9810   -5.5894   -2.9720 H   0  0  0  0  0  0  0  0  0  0  0  0
    3.8201   -5.0471   -1.9437 H   0  0  0  0  0  0  0  0  0  0  0  0
    1.2436   -3.3375   -2.1885 H   0  0  0  0  0  0  0  0  0  0  0  0
    2.8850   -2.7062   -2.3650 H   0  0  0  0  0  0  0  0  0  0  0  0
    3.3806   -3.3794    0.0236 H   0  0  0  0  0  0  0  0  0  0  0  0
    1.7005   -3.8806    0.2064 H   0  0  0  0  0  0  0  0  0  0  0  0
    2.6641   -1.0319   -0.4444 H   0  0  0  0  0  0  0  0  0  0  0  0
    2.1526   -1.6049    1.1407 H   0  0  0  0  0  0  0  0  0  0  0  0
   -0.1450   -2.0913    0.1993 H   0  0  0  0  0  0  0  0  0  0  0  0
    0.3572   -1.3927   -1.3410 H   0  0  0  0  0  0  0  0  0  0  0  0
    0.8560    0.7885   -0.1825 H   0  0  0  0  0  0  0  0  0  0  0  0
    0.3176    0.0957    1.3503 H   0  0  0  0  0  0  0  0  0  0  0  0
   -1.9534   -0.3050    0.3868 H   0  0  0  0  0  0  0  0  0  0  0  0
   -1.4490    0.4301   -1.1370 H   0  0  0  0  0  0  0  0  0  0  0  0
   -1.0059    2.6008    0.0405 H   0  0  0  0  0  0  0  0  0  0  0  0
   -1.3589    1.8361    1.5892 H   0  0  0  0  0  0  0  0  0  0  0  0
   -3.7296    1.3784    0.7583 H   0  0  0  0  0  0  0  0  0  0  0  0
   -3.3366    2.3170   -0.7010 H   0  0  0  0  0  0  0  0  0  0  0  0
   -3.5228    6.6563    1.6867 H   0  0  0  0  0  0  0  0  0  0  0  0
   -5.2507    5.2161    3.2107 H   0  0  0  0  0  0  0  0  0  0  0  0
   -1.0637    5.2225    4.5754 H   0  0  0  0  0  0  0  0  0  0  0  0
   -1.6423    4.3757    3.1290 H   0  0  0  0  0  0  0  0  0  0  0  0
    1.0356    2.5925    3.6083 H   0  0  0  0  0  0  0  0  0  0  0  0
    3.1378    5.0822    3.6986 H   0  0  0  0  0  0  0  0  0  0  0  0
    3.1678    3.2983    3.5949 H   0  0  0  0  0  0  0  0  0  0  0  0
    3.6828    4.1381    5.0974 H   0  0  0  0  0  0  0  0  0  0  0  0
   -3.0126    2.2080    4.4755 H   0  0  0  0  0  0  0  0  0  0  0  0
   -2.2711   -0.1433    2.7889 H   0  0  0  0  0  0  0  0  0  0  0  0
   -3.9244    0.4561    3.1607 H   0  0  0  0  0  0  0  0  0  0  0  0
   -3.0256   -0.5404    4.3505 H   0  0  0  0  0  0  0  0  0  0  0  0
  1  2  1  0  0  0  0
  2 41  1  0  0  0  0
  2 42  1  0  0  0  0
  2  3  1  0  0  0  0
  3  4  1  0  0  0  0
  4 45  1  0  0  0  0
  4 46  1  0  0  0  0
  4  5  1  0  0  0  0
  5  6  1  0  0  0  0
  6 49  1  0  0  0  0
  6 50  1  0  0  0  0
  6  7  1  0  0  0  0
  7  8  1  0  0  0  0
  8 53  1  0  0  0  0
  8  9  1  0  0  0  0
  8 54  1  0  0  0  0
  9 10  2  0  0  0  0
 10 56  1  0  0  0  0
 10 11  1  0  0  0  0
 11 12  1  0  0  0  0
 12 59  1  0  0  0  0
 12 13  1  0  0  0  0
 12 60  1  0  0  0  0
 13 62  1  0  0  0  0
 14 13  1  0  0  0  0
 14 63  1  0  0  0  0
 14 15  1  0  0  0  0
 15 66  1  0  0  0  0
 16 15  1  0  0  0  0
 16 67  1  0  0  0  0
 16 17  1  0  0  0  0
 17 70  1  0  0  0  0
 18 17  1  0  0  0  0
 18 71  1  0  0  0  0
 18 19  1  0  0  0  0
 19 36  1  0  0  0  0
 20 19  1  0  0  0  0
 20 22  1  0  0  0  0
 21 20  2  0  0  0  0
 22 23  2  0  0  0  0
 23 74  1  0  0  0  0
 25 75  1  0  0  0  0
 25 26  1  0  0  0  0
 25 24  1  0  0  0  0
 26 27  1  1  0  0  0
 28 26  1  0  0  0  0
 28 29  1  0  0  0  0
 29 31  2  0  0  0  0
 30 29  1  0  0  0  0
 30 80  1  0  0  0  0
 32 33  1  0  0  0  0
 32 26  1  0  0  0  0
 33 81  1  0  0  0  0
 34 33  1  0  0  0  0
 34 84  1  0  0  0  0
 35 32  2  0  0  0  0
 36 37  2  0  0  0  0
 36 23  1  0  0  0  0
 38  1  1  0  0  0  0
 39  1  1  0  0  0  0
 40  1  1  0  0  0  0
 43  3  1  0  0  0  0
 44  3  1  0  0  0  0
 47  5  1  0  0  0  0
 48  5  1  0  0  0  0
 51  7  1  0  0  0  0
 52  7  1  0  0  0  0
 55  9  1  0  0  0  0
 57 11  1  0  0  0  0
 58 11  1  0  0  0  0
 61 13  1  0  0  0  0
 64 14  1  0  0  0  0
 65 15  1  0  0  0  0
 68 16  1  0  0  0  0
 69 17  1  0  0  0  0
 72 18  1  0  0  0  0
 73 22  1  0  0  0  0
 76 25  1  0  0  0  0
 77 28  1  0  0  0  0
 78 30  1  0  0  0  0
 79 30  1  0  0  0  0
 82 34  1  0  0  0  0
 83 34  1  0  0  0  0
M  END
