84
-1 1
C         4.886893   -5.796359  -11.634771
C         4.989367   -5.492447  -10.144186
C         4.073941   -6.360153   -9.283961
C         4.169846   -6.061840   -7.790675
C         3.255068   -6.929090   -6.930692
C         3.349588   -6.624107   -5.438890
C         2.436840   -7.492860   -4.578736
C         2.519402   -7.179329   -3.079121
C         2.032490   -5.801880   -2.732237
C         2.769115   -4.832408   -2.184537
C         2.278121   -3.460033   -1.830254
C         2.354954   -3.168706   -0.326680
C         1.979055   -1.738006    0.059616
C         0.535955   -1.346095   -0.251737
C         0.168521    0.043747    0.258360
C        -1.270532    0.450035   -0.045466
C        -1.616662    1.821281    0.522205
C        -3.088553    2.182946    0.366801
N        -3.454802    3.372371    1.096646
C        -3.002117    4.662869    0.775787
O        -2.227148    4.902035   -0.125377
C        -3.700958    5.583692    1.690296
C        -4.509810    4.866165    2.500514
S        -3.258126    4.281330    4.950665
C        -1.586802    4.318643    4.234880
C        -0.679453    3.133738    4.632963
H        -0.716927    3.058360    5.734929
N         0.693139    3.332315    4.215597
C         1.557888    4.173151    4.824801
C         2.971883    4.150826    4.260273
O         1.255521    4.926269    5.734358
C        -1.083368    1.762207    4.057280
N        -2.384609    1.462732    4.114218
C        -2.930844    0.243668    3.578841
O        -0.230464    1.015578    3.569911
C        -4.438899    3.424673    2.079691
O        -5.125182    2.489186    2.423054
H         5.557502   -5.155325  -12.226564
H         3.860873   -5.636691  -12.003035
H         5.153149   -6.844471  -11.846067
H         4.751363   -4.429383   -9.966043
H         6.033046   -5.626202   -9.809927
H         4.310650   -7.425435   -9.459758
H         3.028332   -6.226908   -9.616067
H         3.932177   -4.997462   -7.614851
H         5.215407   -6.194084   -7.458550
H         3.492827   -7.994388   -7.104913
H         2.209787   -6.796850   -7.263782
H         3.111406   -5.560734   -5.264881
H         4.394678   -6.754270   -5.103403
H         2.685970   -8.556154   -4.739435
H         1.392191   -7.371852   -4.918220
H         3.559977   -7.302245   -2.733098
H         1.916938   -7.924245   -2.530533
H         0.981045   -5.589396   -2.971972
H         3.820135   -5.047141   -1.943690
H         1.243560   -3.337523   -2.188548
H         2.885024   -2.706200   -2.364986
H         3.380604   -3.379443    0.023564
H         1.700508   -3.880612    0.206373
H         2.664143   -1.031896   -0.444376
H         2.152588   -1.604901    1.140654
H        -0.144976   -2.091262    0.199336
H         0.357247   -1.392687   -1.341033
H         0.855964    0.788458   -0.182471
H         0.317614    0.095719    1.350305
H        -1.953397   -0.305000    0.386754
H        -1.449017    0.430121   -1.136979
H        -1.005907    2.600783    0.040459
H        -1.358948    1.836150    1.589187
H        -3.729566    1.378423    0.758288
H        -3.336636    2.317044   -0.700993
H        -3.522827    6.656267    1.686745
H        -5.250672    5.216122    3.210704
H        -1.063687    5.222453    4.575425
H        -1.642342    4.375660    3.128968
H         1.035649    2.592473    3.608300
H         3.137798    5.082175    3.698608
H         3.167825    3.298297    3.594894
H         3.682826    4.138125    5.097448
H        -3.012598    2.207993    4.475507
H        -2.271095   -0.143293    2.788870
H        -3.924406    0.456134    3.160656
H        -3.025615   -0.540367    4.350476
