50
-1 1
O         1.973862    1.388090    1.648126
C         1.140372    0.516962    1.555000
C         1.207337   -0.881210    2.017682
C         0.076520   -1.512047    1.646425
S         0.441376   -2.238102   -1.089542
C         2.224615   -2.101131   -0.795428
C         2.934967   -3.411173   -0.380023
H         2.348955   -3.854596    0.442072
N         4.287184   -3.183056    0.079916
C         4.616580   -2.916163    1.361108
C         6.107193   -2.783923    1.628269
O         3.803692   -2.759772    2.258845
C         3.047279   -4.423880   -1.531863
N         1.871126   -4.839003   -2.035029
C         1.793281   -5.663796   -3.210933
O         4.143405   -4.801816   -1.937555
C        -0.867196   -0.524314    1.051784
N        -0.137426    0.685528    0.959405
C        -0.604093    1.875625    0.374449
C        -1.963557    2.205957    0.429842
C        -2.411859    3.388948   -0.152796
N        -3.802431    3.705257   -0.093976
C        -4.586488    4.060460   -1.196433
C        -5.983381    4.248065   -0.670631
C        -5.980152    4.025502    0.642166
C        -4.581054    3.674003    1.069337
O        -4.204282    3.428195    2.181596
O        -4.215759    4.199650   -2.330053
C        -1.531330    4.261428   -0.789679
C        -0.183843    3.917745   -0.851536
C         0.284479    2.738072   -0.283236
O        -2.038854   -0.655354    0.800250
H         2.097636   -1.308689    2.476888
H        -0.229542   -2.535987    1.838022
H         2.393068   -1.394352    0.039405
H         2.742703   -1.676118   -1.671643
H         4.993961   -3.500602   -0.578153
H         6.735927   -3.130826    0.796409
H         6.352017   -3.348216    2.538162
H         6.330384   -1.724919    1.825319
H         1.054492   -4.265629   -1.759756
H         2.760321   -6.162117   -3.357856
H         1.567566   -5.070338   -4.113668
H         1.007764   -6.426682   -3.096345
H        -2.662307    1.529187    0.914066
H        -6.808054    4.523739   -1.326033
H        -6.800917    4.070435    1.356242
H        -1.899788    5.180725   -1.245375
H         0.518937    4.580788   -1.360746
H         1.339921    2.480455   -0.333195
