50
-1 1
O         1.861769    1.602230    1.865279
C         1.205308    0.655681    1.458040
C         1.367807   -0.735839    1.529775
C         0.288430   -1.407013    0.855125
S         0.693710   -2.103257   -0.996208
C         2.493967   -2.165215   -0.889118
C         3.091821   -3.492673   -0.374183
H         2.559395   -3.761027    0.552890
N         4.493717   -3.357321   -0.064438
C         4.944836   -3.084353    1.187005
C         6.456540   -3.042058    1.326590
O         4.211286   -2.852622    2.129225
C         2.970755   -4.635855   -1.393222
N         1.707755   -5.033480   -1.657793
C         1.402138   -5.997480   -2.683142
O         3.963003   -5.128180   -1.914608
C        -0.723105   -0.321500    0.530345
N        -0.106104    0.887640    0.766575
C        -0.643473    2.145294    0.468965
C        -2.028676    2.327135    0.325657
C        -2.537523    3.585636    0.015348
N        -3.950958    3.738827   -0.134082
C        -4.580136    4.234591   -1.278035
C        -6.058474    4.166356   -1.003140
C        -6.243381    3.671970    0.219335
C        -4.898651    3.383148    0.831746
O        -4.682843    2.949060    1.929128
O        -4.049309    4.642447   -2.275654
C        -1.704772    4.688090   -0.156915
C        -0.330940    4.500302   -0.024097
C         0.203006    3.253669    0.280098
O        -1.851313   -0.506968    0.118883
H         2.192832   -1.211042    2.056098
H        -0.177148   -2.290111    1.306916
H         2.773624   -1.368272   -0.174744
H         2.919567   -1.911209   -1.871628
H         5.115266   -3.755499   -0.761249
H         6.985021   -3.551078    0.508173
H         6.733479   -3.494357    2.287555
H         6.773386   -1.988663    1.349492
H         0.964239   -4.424539   -1.306606
H         2.328356   -6.520985   -2.951659
H         0.996811   -5.516878   -3.589294
H         0.666013   -6.731184   -2.320632
H        -2.695581    1.477226    0.443339
H        -6.792479    4.489952   -1.739575
H        -7.169868    3.481200    0.758753
H        -2.123833    5.664006   -0.405093
H         0.344795    5.347385   -0.164630
H         1.274623    3.118802    0.404947
