-1 1
 OpenBabel05232414493D

 50 52  0  0  1  0  0  0  0  0999 V2000
    9.8905    5.5023    5.9058 O   0  0  0  0  0  0  0  0  0  0  0  0
    9.1457    4.5841    5.6151 C   0  0  0  0  0  0  0  0  0  0  0  0
    9.2326    3.1804    5.8314 C   0  0  0  0  0  3  0  0  0  0  0  0
    8.1306    2.5396    5.2395 C   0  0  2  0  0  0  0  0  0  0  0  0
    8.5067    1.7940    3.1952 S   0  0  0  0  0  0  0  0  0  0  0  0
   10.3032    1.8880    3.2819 C   0  0  0  0  0  0  0  0  0  0  0  0
   11.0222    0.5890    3.7090 C   0  0  2  0  0  0  0  0  0  0  0  0
   10.5162    0.2134    4.6132 H   0  0  0  0  0  0  0  0  0  0  0  0
   12.4087    0.8244    4.0311 N   0  0  0  0  0  0  0  0  0  0  0  0
   12.8395    1.0770    5.2918 C   0  0  0  0  0  0  0  0  0  0  0  0
   14.3426    1.2447    5.4332 C   0  0  0  0  0  0  0  0  0  0  0  0
   12.0945    1.1987    6.2470 O   0  0  0  0  0  0  0  0  0  0  0  0
   10.9988   -0.4900    2.6168 C   0  0  0  0  0  0  0  0  0  0  0  0
    9.7730   -0.9718    2.3217 N   0  0  0  0  0  0  0  0  0  0  0  0
    9.5449   -1.8743    1.2235 C   0  0  0  0  0  0  0  0  0  0  0  0
   12.0293   -0.8622    2.0692 O   0  0  0  0  0  0  0  0  0  0  0  0
    7.1586    3.6223    4.8490 C   0  0  0  0  0  0  0  0  0  0  0  0
    7.8491    4.8248    4.9546 N   0  0  0  0  0  0  0  0  0  0  0  0
    7.3691    6.0794    4.5563 C   0  0  0  0  0  0  0  0  0  0  0  0
    5.9908    6.3267    4.4586 C   0  0  0  0  0  0  0  0  0  0  0  0
    5.5354    7.5770    4.0483 C   0  0  0  0  0  0  0  0  0  0  0  0
    4.1271    7.7978    3.9483 N   0  0  0  0  0  0  0  0  0  0  0  0
    3.4702    8.2305    2.7938 C   0  0  0  0  0  0  0  0  0  0  0  0
    2.0054    8.2680    3.1375 C   0  0  0  0  0  0  0  0  0  0  0  0
    1.8540    7.8897    4.4052 C   0  0  0  0  0  0  0  0  0  0  0  0
    3.2093    7.5785    4.9816 C   0  0  0  0  0  0  0  0  0  0  0  0
    3.4552    7.2269    6.1019 O   0  0  0  0  0  0  0  0  0  0  0  0
    3.9736    8.5234    1.7432 O   0  0  0  0  0  0  0  0  0  0  0  0
    6.4174    8.6069    3.7314 C   0  0  0  0  0  0  0  0  0  0  0  0
    7.7838    8.3527    3.8198 C   0  0  0  0  0  0  0  0  0  0  0  0
    8.2639    7.1114    4.2212 C   0  0  0  0  0  0  0  0  0  0  0  0
    6.0027    3.4750    4.5160 O   0  0  0  0  0  0  0  0  0  0  0  0
   10.0702    2.7119    6.3437 H   0  0  0  0  0  0  0  0  0  0  0  0
    7.6923    1.6151    5.6163 H   0  0  0  0  0  0  0  0  0  0  0  0
   10.5299    2.6509    4.0536 H   0  0  0  0  0  0  0  0  0  0  0  0
   10.7118    2.2491    2.3255 H   0  0  0  0  0  0  0  0  0  0  0  0
   13.0600    0.5252    3.3122 H   0  0  0  0  0  0  0  0  0  0  0  0
   14.9097    0.8379    4.5841 H   0  0  0  0  0  0  0  0  0  0  0  0
   14.6646    0.7588    6.3634 H   0  0  0  0  0  0  0  0  0  0  0  0
   14.5640    2.3186    5.5236 H   0  0  0  0  0  0  0  0  0  0  0  0
    8.9846   -0.4411    2.7057 H   0  0  0  0  0  0  0  0  0  0  0  0
   10.5086   -2.3044    0.9226 H   0  0  0  0  0  0  0  0  0  0  0  0
    9.1060   -1.3574    0.3535 H   0  0  0  0  0  0  0  0  0  0  0  0
    8.8656   -2.6876    1.5222 H   0  0  0  0  0  0  0  0  0  0  0  0
    5.2864    5.5323    4.6900 H   0  0  0  0  0  0  0  0  0  0  0  0
    1.2547    8.5688    2.4084 H   0  0  0  0  0  0  0  0  0  0  0  0
    0.9457    7.7974    4.9988 H   0  0  0  0  0  0  0  0  0  0  0  0
    6.0404    9.5776    3.4077 H   0  0  0  0  0  0  0  0  0  0  0  0
    8.4963    9.1409    3.5654 H   0  0  0  0  0  0  0  0  0  0  0  0
    9.3323    6.9287    4.3043 H   0  0  0  0  0  0  0  0  0  0  0  0
  2  3  1  0  0  0  0
  2  1  2  0  0  0  0
  3 33  1  0  0  0  0
  4 34  1  1  0  0  0
  4  3  1  0  0  0  0
  5  6  1  0  0  0  0
  5  4  1  0  0  0  0
  6  7  1  0  0  0  0
  6 35  1  0  0  0  0
  7  9  1  0  0  0  0
  7  8  1  1  0  0  0
  9 10  1  0  0  0  0
 10 11  1  0  0  0  0
 10 12  2  0  0  0  0
 11 40  1  0  0  0  0
 11 39  1  0  0  0  0
 13  7  1  0  0  0  0
 14 13  1  0  0  0  0
 14 41  1  0  0  0  0
 15 44  1  0  0  0  0
 15 14  1  0  0  0  0
 16 13  2  0  0  0  0
 17 18  1  0  0  0  0
 17  4  1  0  0  0  0
 18  2  1  0  0  0  0
 19 18  1  0  0  0  0
 20 19  1  0  0  0  0
 20 45  1  0  0  0  0
 21 20  2  0  0  0  0
 22 21  1  0  0  0  0
 22 26  1  0  0  0  0
 23 24  1  0  0  0  0
 23 22  1  0  0  0  0
 24 25  2  0  0  0  0
 25 26  1  0  0  0  0
 25 47  1  0  0  0  0
 26 27  2  0  0  0  0
 28 23  2  0  0  0  0
 29 30  2  0  0  0  0
 29 21  1  0  0  0  0
 30 31  1  0  0  0  0
 31 50  1  0  0  0  0
 31 19  2  0  0  0  0
 32 17  2  0  0  0  0
 36  6  1  0  0  0  0
 37  9  1  0  0  0  0
 38 11  1  0  0  0  0
 42 15  1  0  0  0  0
 43 15  1  0  0  0  0
 46 24  1  0  0  0  0
 48 29  1  0  0  0  0
 49 30  1  0  0  0  0
M  END
