-1 1
 OpenBabel05232413483D

 50 51  0  0  1  0  0  0  0  0999 V2000
    1.9739    1.3881    1.6481 O   0  0  0  0  0  0  0  0  0  0  0  0
    1.1404    0.5170    1.5550 C   0  0  0  0  0  0  0  0  0  0  0  0
    1.2073   -0.8812    2.0177 C   0  0  0  0  0  0  0  0  0  0  0  0
    0.0765   -1.5120    1.6464 C   0  0  0  0  0  0  0  0  0  0  0  0
    0.4414   -2.2381   -1.0895 S   0  0  0  0  0  1  0  0  0  0  0  0
    2.2246   -2.1011   -0.7954 C   0  0  0  0  0  0  0  0  0  0  0  0
    2.9350   -3.4112   -0.3800 C   0  0  2  0  0  0  0  0  0  0  0  0
    2.3490   -3.8546    0.4421 H   0  0  0  0  0  0  0  0  0  0  0  0
    4.2872   -3.1831    0.0799 N   0  0  0  0  0  0  0  0  0  0  0  0
    4.6166   -2.9162    1.3611 C   0  0  0  0  0  0  0  0  0  0  0  0
    6.1072   -2.7839    1.6283 C   0  0  0  0  0  0  0  0  0  0  0  0
    3.8037   -2.7598    2.2588 O   0  0  0  0  0  0  0  0  0  0  0  0
    3.0473   -4.4239   -1.5319 C   0  0  0  0  0  0  0  0  0  0  0  0
    1.8711   -4.8390   -2.0350 N   0  0  0  0  0  0  0  0  0  0  0  0
    1.7933   -5.6638   -3.2109 C   0  0  0  0  0  0  0  0  0  0  0  0
    4.1434   -4.8018   -1.9376 O   0  0  0  0  0  0  0  0  0  0  0  0
   -0.8672   -0.5243    1.0518 C   0  0  0  0  0  0  0  0  0  0  0  0
   -0.1374    0.6855    0.9594 N   0  0  0  0  0  0  0  0  0  0  0  0
   -0.6041    1.8756    0.3744 C   0  0  0  0  0  0  0  0  0  0  0  0
   -1.9636    2.2060    0.4298 C   0  0  0  0  0  0  0  0  0  0  0  0
   -2.4119    3.3889   -0.1528 C   0  0  0  0  0  0  0  0  0  0  0  0
   -3.8024    3.7053   -0.0940 N   0  0  0  0  0  0  0  0  0  0  0  0
   -4.5865    4.0605   -1.1964 C   0  0  0  0  0  0  0  0  0  0  0  0
   -5.9834    4.2481   -0.6706 C   0  0  0  0  0  0  0  0  0  0  0  0
   -5.9802    4.0255    0.6422 C   0  0  0  0  0  0  0  0  0  0  0  0
   -4.5811    3.6740    1.0693 C   0  0  0  0  0  0  0  0  0  0  0  0
   -4.2043    3.4282    2.1816 O   0  0  0  0  0  0  0  0  0  0  0  0
   -4.2158    4.1997   -2.3301 O   0  0  0  0  0  0  0  0  0  0  0  0
   -1.5313    4.2614   -0.7897 C   0  0  0  0  0  0  0  0  0  0  0  0
   -0.1838    3.9177   -0.8515 C   0  0  0  0  0  0  0  0  0  0  0  0
    0.2845    2.7381   -0.2832 C   0  0  0  0  0  0  0  0  0  0  0  0
   -2.0389   -0.6554    0.8003 O   0  0  0  0  0  0  0  0  0  0  0  0
    2.0976   -1.3087    2.4769 H   0  0  0  0  0  0  0  0  0  0  0  0
   -0.2295   -2.5360    1.8380 H   0  0  0  0  0  0  0  0  0  0  0  0
    2.3931   -1.3944    0.0394 H   0  0  0  0  0  0  0  0  0  0  0  0
    2.7427   -1.6761   -1.6716 H   0  0  0  0  0  0  0  0  0  0  0  0
    4.9940   -3.5006   -0.5782 H   0  0  0  0  0  0  0  0  0  0  0  0
    6.7359   -3.1308    0.7964 H   0  0  0  0  0  0  0  0  0  0  0  0
    6.3520   -3.3482    2.5382 H   0  0  0  0  0  0  0  0  0  0  0  0
    6.3304   -1.7249    1.8253 H   0  0  0  0  0  0  0  0  0  0  0  0
    1.0545   -4.2656   -1.7598 H   0  0  0  0  0  0  0  0  0  0  0  0
    2.7603   -6.1621   -3.3579 H   0  0  0  0  0  0  0  0  0  0  0  0
    1.5676   -5.0703   -4.1137 H   0  0  0  0  0  0  0  0  0  0  0  0
    1.0078   -6.4267   -3.0963 H   0  0  0  0  0  0  0  0  0  0  0  0
   -2.6623    1.5292    0.9141 H   0  0  0  0  0  0  0  0  0  0  0  0
   -6.8081    4.5237   -1.3260 H   0  0  0  0  0  0  0  0  0  0  0  0
   -6.8009    4.0704    1.3562 H   0  0  0  0  0  0  0  0  0  0  0  0
   -1.8998    5.1807   -1.2454 H   0  0  0  0  0  0  0  0  0  0  0  0
    0.5189    4.5808   -1.3607 H   0  0  0  0  0  0  0  0  0  0  0  0
    1.3399    2.4805   -0.3332 H   0  0  0  0  0  0  0  0  0  0  0  0
  2  1  2  0  0  0  0
  2  3  1  0  0  0  0
  3 33  1  0  0  0  0
  4 34  1  0  0  0  0
  4  3  2  0  0  0  0
  5  6  1  0  0  0  0
  6  7  1  0  0  0  0
  6 35  1  0  0  0  0
  7  9  1  0  0  0  0
  7  8  1  1  0  0  0
  9 10  1  0  0  0  0
 10 11  1  0  0  0  0
 10 12  2  0  0  0  0
 11 40  1  0  0  0  0
 11 39  1  0  0  0  0
 13  7  1  0  0  0  0
 14 41  1  0  0  0  0
 14 13  1  0  0  0  0
 15 44  1  0  0  0  0
 15 14  1  0  0  0  0
 16 13  2  0  0  0  0
 17  4  1  0  0  0  0
 18 17  1  0  0  0  0
 18  2  1  0  0  0  0
 19 20  1  0  0  0  0
 19 18  1  0  0  0  0
 20 45  1  0  0  0  0
 21 22  1  0  0  0  0
 21 20  2  0  0  0  0
 22 26  1  0  0  0  0
 23 24  1  0  0  0  0
 23 22  1  0  0  0  0
 24 25  2  0  0  0  0
 25 26  1  0  0  0  0
 25 47  1  0  0  0  0
 26 27  2  0  0  0  0
 28 23  2  0  0  0  0
 29 21  1  0  0  0  0
 30 29  2  0  0  0  0
 30 31  1  0  0  0  0
 31 19  2  0  0  0  0
 32 17  2  0  0  0  0
 36  6  1  0  0  0  0
 37  9  1  0  0  0  0
 38 11  1  0  0  0  0
 42 15  1  0  0  0  0
 43 15  1  0  0  0  0
 46 24  1  0  0  0  0
 48 29  1  0  0  0  0
 49 30  1  0  0  0  0
 50 31  1  0  0  0  0
M  END
