50
-1 1
O         9.890455    5.502258    5.905808
C         9.145730    4.584077    5.615080
C         9.232585    3.180397    5.831420
C         8.130594    2.539627    5.239491
S         8.506655    1.793957    3.195163
C        10.303194    1.887989    3.281865
C        11.022162    0.589034    3.709047
H        10.516227    0.213427    4.613212
N        12.408657    0.824414    4.031100
C        12.839481    1.076972    5.291802
C        14.342595    1.244715    5.433224
O        12.094498    1.198740    6.247050
C        10.998763   -0.489988    2.616770
N         9.772986   -0.971782    2.321702
C         9.544883   -1.874309    1.223524
O        12.029321   -0.862183    2.069165
C         7.158588    3.622311    4.849039
N         7.849093    4.824760    4.954573
C         7.369115    6.079362    4.556322
C         5.990818    6.326703    4.458580
C         5.535362    7.576995    4.048323
N         4.127118    7.797769    3.948280
C         3.470214    8.230519    2.793767
C         2.005429    8.267988    3.137531
C         1.853967    7.889742    4.405227
C         3.209303    7.578459    4.981559
O         3.455174    7.226909    6.101897
O         3.973649    8.523382    1.743178
C         6.417405    8.606862    3.731432
C         7.783765    8.352705    3.819798
C         8.263901    7.111450    4.221156
O         6.002711    3.475024    4.516010
H        10.070168    2.711875    6.343710
H         7.692273    1.615139    5.616333
H        10.529942    2.650916    4.053626
H        10.711817    2.249089    2.325506
H        13.059951    0.525181    3.312221
H        14.909732    0.837899    4.584091
H        14.664632    0.758830    6.363381
H        14.564044    2.318646    5.523595
H         8.984575   -0.441085    2.705684
H        10.508562   -2.304403    0.922577
H         9.105998   -1.357364    0.353521
H         8.865641   -2.687578    1.522177
H         5.286376    5.532341    4.689991
H         1.254691    8.568768    2.408360
H         0.945722    7.797427    4.998753
H         6.040393    9.577617    3.407674
H         8.496262    9.140945    3.565416
H         9.332304    6.928741    4.304292
