42
-1 1
O        -2.266050   -0.694480    1.065476
C        -1.437881    0.185037    1.291088
C        -1.452896    1.579288    1.252578
C        -0.126439    2.138397    1.602816
S         0.703541    3.259700    0.344355
C         1.372169    2.101872   -0.885787
C         0.481516    1.722643   -2.069710
H         0.377170    2.584224   -2.753454
N        -0.844719    1.318346   -1.647564
C        -1.914801    1.330674   -2.465780
C        -3.237787    1.072704   -1.780017
O        -1.839941    1.543398   -3.679178
C         1.165496    0.580567   -2.862514
N         0.649402    0.395924   -4.098927
C         1.039056   -0.712384   -4.929634
O         2.084067   -0.081312   -2.402107
C         0.748519    0.899040    1.858193
N        -0.043988   -0.189996    1.610799
C         0.434506   -1.507792    1.520021
C         0.114619   -2.472785    2.483069
Cl        -0.847932   -2.033619    3.868004
C         0.570394   -3.784480    2.367326
C         1.370657   -4.141536    1.285415
C         1.707894   -3.190291    0.323503
C         1.236351   -1.886626    0.438200
O         1.918034    0.875991    2.175031
H        -2.369132    2.162385    1.184085
H        -0.088054    2.784513    2.496588
H         1.725092    1.199072   -0.371040
H         2.281926    2.576948   -1.278171
H        -1.048223    1.299168   -0.625656
H        -3.632410    2.027558   -1.399467
H        -3.132627    0.384462   -0.926101
H        -3.944360    0.674657   -2.518988
H        -0.230700    0.891115   -4.285364
H         1.953207   -1.153321   -4.511796
H         1.239239   -0.381085   -5.960962
H         0.259794   -1.492783   -4.962581
H         0.298265   -4.514186    3.131215
H         1.729850   -5.169665    1.197361
H         2.331984   -3.460500   -0.530681
H         1.479533   -1.146599   -0.328071
