42
-1 1
O        -1.623220    2.088189   -0.959699
C        -0.758180    1.606570   -0.242619
C         0.634914    1.476534   -0.369145
C         1.177160    0.759581    0.751382
S         1.588106   -1.207308    0.436294
C         1.592691   -1.212034   -1.367536
C         2.962567   -0.962701   -2.035303
H         3.406848   -0.071418   -1.563250
N         2.824444   -0.700083   -3.446290
C         2.767835    0.557817   -3.955089
C         2.680134    0.631825   -5.469206
O         2.750761    1.560185   -3.265956
C         3.916481   -2.158013   -1.894988
N         4.323043   -2.417951   -0.633488
C         5.103332   -3.581303   -0.299080
O         4.260689   -2.812963   -2.870049
C         0.037771    0.637174    1.745958
N        -1.110963    1.035542    1.092981
C        -2.401138    0.959843    1.630434
C        -2.721607   -0.011991    2.595079
C        -4.002297   -0.088233    3.132901
C        -4.982235    0.799722    2.702782
Cl        -6.605110    0.701824    3.380284
C        -4.692256    1.764769    1.744384
C        -3.407810    1.850409    1.216846
O         0.128402    0.252052    2.893715
H         1.190965    1.859394   -1.222352
H         2.114716    1.080826    1.217465
H         0.917947   -0.387820   -1.666374
H         1.159138   -2.157541   -1.726679
H         3.054348   -1.487836   -4.043513
H         1.634497    0.832964   -5.746238
H         3.006196   -0.290222   -5.970894
H         3.285885    1.479081   -5.815436
H         3.824392   -1.921141    0.108408
H         5.518767   -3.995819   -1.226227
H         4.490907   -4.358515    0.187957
H         5.929554   -3.315295    0.377906
H        -1.950131   -0.697852    2.938776
H        -4.237111   -0.844148    3.884014
H        -5.467157    2.457479    1.411837
H        -3.169315    2.585565    0.451331
