-1 1
 OpenBabel05232414493D

 42 43  0  0  1  0  0  0  0  0999 V2000
    3.9609    2.3113    3.6581 O   0  0  0  0  0  0  0  0  0  0  0  0
    4.8145    1.9204    4.4357 C   0  0  0  0  0  0  0  0  0  0  0  0
    6.2330    1.8926    4.3609 C   0  0  0  0  0  3  0  0  0  0  0  0
    6.7603    1.2537    5.5026 C   0  0  2  0  0  0  0  0  0  0  0  0
    7.1707   -0.8707    5.2409 S   0  0  0  0  0  0  0  0  0  0  0  0
    7.0846   -0.8824    3.4419 C   0  0  0  0  0  0  0  0  0  0  0  0
    8.4318   -0.7087    2.7064 C   0  0  2  0  0  0  0  0  0  0  0  0
    8.9464    0.1550    3.1577 H   0  0  0  0  0  0  0  0  0  0  0  0
    8.2436   -0.4382    1.3022 N   0  0  0  0  0  0  0  0  0  0  0  0
    8.2039    0.8190    0.7943 C   0  0  0  0  0  0  0  0  0  0  0  0
    8.0501    0.8953   -0.7147 C   0  0  0  0  0  0  0  0  0  0  0  0
    8.2508    1.8238    1.4800 O   0  0  0  0  0  0  0  0  0  0  0  0
    9.3251   -1.9536    2.8027 C   0  0  0  0  0  0  0  0  0  0  0  0
    9.7676   -2.2403    4.0456 N   0  0  0  0  0  0  0  0  0  0  0  0
   10.4882   -3.4502    4.3452 C   0  0  0  0  0  0  0  0  0  0  0  0
    9.5950   -2.6202    1.8115 O   0  0  0  0  0  0  0  0  0  0  0  0
    5.6163    1.0914    6.4709 C   0  0  0  0  0  0  0  0  0  0  0  0
    4.4572    1.3786    5.7595 N   0  0  0  0  0  0  0  0  0  0  0  0
    3.1572    1.2196    6.2541 C   0  0  0  0  0  0  0  0  0  0  0  0
    2.8792    0.2422    7.2255 C   0  0  0  0  0  0  0  0  0  0  0  0
    1.5914    0.0809    7.7254 C   0  0  0  0  0  0  0  0  0  0  0  0
    0.5632    0.8869    7.2481 C   0  0  0  0  0  0  0  0  0  0  0  0
   -1.0685    0.6811    7.8768 Cl  0  0  0  0  0  0  0  0  0  0  0  0
    0.8115    1.8538    6.2802 C   0  0  0  0  0  0  0  0  0  0  0  0
    2.1030    2.0253    5.7912 C   0  0  0  0  0  0  0  0  0  0  0  0
    5.6844    0.7839    7.6406 O   0  0  0  0  0  0  0  0  0  0  0  0
    6.7867    2.2633    3.5008 H   0  0  0  0  0  0  0  0  0  0  0  0
    7.7230    1.5133    5.9454 H   0  0  0  0  0  0  0  0  0  0  0  0
    6.4502   -0.0166    3.1654 H   0  0  0  0  0  0  0  0  0  0  0  0
    6.5769   -1.7948    3.0935 H   0  0  0  0  0  0  0  0  0  0  0  0
    8.4143   -1.2353    0.6972 H   0  0  0  0  0  0  0  0  0  0  0  0
    7.0034    1.1451   -0.9436 H   0  0  0  0  0  0  0  0  0  0  0  0
    8.3094   -0.0412   -1.2283 H   0  0  0  0  0  0  0  0  0  0  0  0
    8.6780    1.7131   -1.0913 H   0  0  0  0  0  0  0  0  0  0  0  0
    9.3163   -1.7250    4.8070 H   0  0  0  0  0  0  0  0  0  0  0  0
   10.8529   -3.8774    3.4024 H   0  0  0  0  0  0  0  0  0  0  0  0
    9.8460   -4.1967    4.8419 H   0  0  0  0  0  0  0  0  0  0  0  0
   11.3471   -3.2401    5.0010 H   0  0  0  0  0  0  0  0  0  0  0  0
    3.6875   -0.3811    7.6024 H   0  0  0  0  0  0  0  0  0  0  0  0
    1.3884   -0.6782    8.4824 H   0  0  0  0  0  0  0  0  0  0  0  0
   -0.0013    2.4807    5.9102 H   0  0  0  0  0  0  0  0  0  0  0  0
    2.3077    2.7653    5.0208 H   0  0  0  0  0  0  0  0  0  0  0  0
  1  2  2  0  0  0  0
  2 18  1  0  0  0  0
  3  2  1  0  0  0  0
  3  4  1  0  0  0  0
  4 28  1  1  0  0  0
  4 17  1  0  0  0  0
  5  4  1  0  0  0  0
  6  5  1  0  0  0  0
  7 13  1  0  0  0  0
  7  8  1  1  0  0  0
  7  6  1  0  0  0  0
  9  7  1  0  0  0  0
 10  9  1  0  0  0  0
 10 12  2  0  0  0  0
 11 10  1  0  0  0  0
 13 14  1  0  0  0  0
 14 15  1  0  0  0  0
 14 35  1  0  0  0  0
 15 37  1  0  0  0  0
 15 38  1  0  0  0  0
 16 13  2  0  0  0  0
 17 26  2  0  0  0  0
 18 19  1  0  0  0  0
 18 17  1  0  0  0  0
 19 20  1  0  0  0  0
 20 39  1  0  0  0  0
 20 21  2  0  0  0  0
 21 40  1  0  0  0  0
 22 21  1  0  0  0  0
 22 23  1  0  0  0  0
 24 22  2  0  0  0  0
 25 19  2  0  0  0  0
 25 24  1  0  0  0  0
 27  3  1  0  0  0  0
 29  6  1  0  0  0  0
 30  6  1  0  0  0  0
 31  9  1  0  0  0  0
 32 11  1  0  0  0  0
 33 11  1  0  0  0  0
 34 11  1  0  0  0  0
 36 15  1  0  0  0  0
 41 24  1  0  0  0  0
 42 25  1  0  0  0  0
M  END
