-1 1
 OpenBabel05232413483D

 42 42  0  0  1  0  0  0  0  0999 V2000
   -0.3948    1.9005   -1.8755 O   0  0  0  0  0  0  0  0  0  0  0  0
    0.4242    1.7508   -0.9980 C   0  0  0  0  0  0  0  0  0  0  0  0
    1.9013    1.7464   -1.0933 C   0  0  0  0  0  0  0  0  0  0  0  0
    2.4134    1.5203    0.1299 C   0  0  0  0  0  0  0  0  0  0  0  0
    2.0688   -1.3409    0.6090 S   0  0  0  0  0  1  0  0  0  0  0  0
    1.9176   -1.5141   -1.1896 C   0  0  0  0  0  0  0  0  0  0  0  0
    3.2340   -1.8343   -1.9362 C   0  0  2  0  0  0  0  0  0  0  0  0
    3.9950   -1.1212   -1.5783 H   0  0  0  0  0  0  0  0  0  0  0  0
    3.1012   -1.6948   -3.3694 N   0  0  0  0  0  0  0  0  0  0  0  0
    3.3234   -0.5458   -4.0419 C   0  0  0  0  0  0  0  0  0  0  0  0
    3.1828   -0.6472   -5.5519 C   0  0  0  0  0  0  0  0  0  0  0  0
    3.5902    0.5192   -3.5072 O   0  0  0  0  0  0  0  0  0  0  0  0
    3.7236   -3.2716   -1.6942 C   0  0  0  0  0  0  0  0  0  0  0  0
    4.0032   -3.5640   -0.4111 N   0  0  0  0  0  0  0  0  0  0  0  0
    4.3221   -4.9005    0.0149 C   0  0  0  0  0  0  0  0  0  0  0  0
    3.8361   -4.0668   -2.6231 O   0  0  0  0  0  0  0  0  0  0  0  0
    1.3085    1.4681    1.1280 C   0  0  0  0  0  0  0  0  0  0  0  0
    0.1164    1.5411    0.3624 N   0  0  0  0  0  0  0  0  0  0  0  0
   -1.1689    1.3340    0.8857 C   0  0  0  0  0  0  0  0  0  0  0  0
   -1.3600    0.3652    1.8794 C   0  0  0  0  0  0  0  0  0  0  0  0
   -2.6247    0.1545    2.4178 C   0  0  0  0  0  0  0  0  0  0  0  0
   -3.7036    0.8984    1.9451 C   0  0  0  0  0  0  0  0  0  0  0  0
   -5.4386    0.6068    2.6765 Br  0  0  0  0  0  0  0  0  0  0  0  0
   -3.5346    1.8477    0.9419 C   0  0  0  0  0  0  0  0  0  0  0  0
   -2.2636    2.0695    0.4179 C   0  0  0  0  0  0  0  0  0  0  0  0
    1.3545    1.5103    2.3306 O   0  0  0  0  0  0  0  0  0  0  0  0
    2.4283    1.8064   -2.0444 H   0  0  0  0  0  0  0  0  0  0  0  0
    3.4547    1.4664    0.4346 H   0  0  0  0  0  0  0  0  0  0  0  0
    1.5645   -0.5548   -1.6120 H   0  0  0  0  0  0  0  0  0  0  0  0
    1.1598   -2.2692   -1.4578 H   0  0  0  0  0  0  0  0  0  0  0  0
    3.0829   -2.5841   -3.8612 H   0  0  0  0  0  0  0  0  0  0  0  0
    3.1603   -1.6816   -5.9225 H   0  0  0  0  0  0  0  0  0  0  0  0
    4.0144   -0.1035   -6.0196 H   0  0  0  0  0  0  0  0  0  0  0  0
    2.2496   -0.1447   -5.8467 H   0  0  0  0  0  0  0  0  0  0  0  0
    3.6433   -2.8825    0.2786 H   0  0  0  0  0  0  0  0  0  0  0  0
    4.6425   -5.4824   -0.8590 H   0  0  0  0  0  0  0  0  0  0  0  0
    3.4512   -5.4047    0.4680 H   0  0  0  0  0  0  0  0  0  0  0  0
    5.1354   -4.8865    0.7570 H   0  0  0  0  0  0  0  0  0  0  0  0
   -0.5084   -0.2293    2.2121 H   0  0  0  0  0  0  0  0  0  0  0  0
   -2.7689   -0.6003    3.1922 H   0  0  0  0  0  0  0  0  0  0  0  0
   -4.3871    2.4193    0.5715 H   0  0  0  0  0  0  0  0  0  0  0  0
   -2.1183    2.8025   -0.3741 H   0  0  0  0  0  0  0  0  0  0  0  0
  1  2  2  0  0  0  0
  2 18  1  0  0  0  0
  3  2  1  0  0  0  0
  3  4  2  0  0  0  0
  4 28  1  0  0  0  0
  4 17  1  0  0  0  0
  6  5  1  0  0  0  0
  7 13  1  0  0  0  0
  7  8  1  1  0  0  0
  7  6  1  0  0  0  0
  9  7  1  0  0  0  0
 10 12  2  0  0  0  0
 10  9  1  0  0  0  0
 11 10  1  0  0  0  0
 13 14  1  0  0  0  0
 14 15  1  0  0  0  0
 14 35  1  0  0  0  0
 15 37  1  0  0  0  0
 15 38  1  0  0  0  0
 16 13  2  0  0  0  0
 17 26  2  0  0  0  0
 18 19  1  0  0  0  0
 18 17  1  0  0  0  0
 19 20  1  0  0  0  0
 20 39  1  0  0  0  0
 20 21  2  0  0  0  0
 21 40  1  0  0  0  0
 22 21  1  0  0  0  0
 22 23  1  0  0  0  0
 24 22  2  0  0  0  0
 25 19  2  0  0  0  0
 25 24  1  0  0  0  0
 27  3  1  0  0  0  0
 29  6  1  0  0  0  0
 30  6  1  0  0  0  0
 31  9  1  0  0  0  0
 32 11  1  0  0  0  0
 33 11  1  0  0  0  0
 34 11  1  0  0  0  0
 36 15  1  0  0  0  0
 41 24  1  0  0  0  0
 42 25  1  0  0  0  0
M  END
