42
-1 1
O         4.387391    2.924570    3.877966
C         5.172831    2.502453    4.708822
C         6.565411    2.224428    4.650613
C         6.992822    1.664521    5.871476
S         7.025598   -0.521608    5.901174
C         6.909212   -0.754811    4.119047
C         8.254132   -0.915104    3.376291
H         8.917115   -0.101651    3.712715
N         8.092706   -0.803619    1.947255
C         8.260621    0.363493    1.276750
C         8.096694    0.265419   -0.229926
O         8.490526    1.426819    1.823217
C         8.921040   -2.272009    3.643209
N         9.329470   -2.463298    4.915736
C         9.835712   -3.729124    5.378757
O         9.054602   -3.100739    2.751611
C         5.853236    1.829314    6.843419
N         4.748071    2.210817    6.089936
C         3.447746    2.341276    6.590174
C         3.024092    1.566593    7.684113
C         1.734920    1.693601    8.190382
C         0.847873    2.588281    7.598894
Br        -0.921088    2.760494    8.289317
C         1.241745    3.358031    6.508832
C         2.536323    3.241235    6.011811
O         5.885609    1.676311    8.044432
H         7.160858    2.376171    3.752734
H         7.993228    1.807211    6.282183
H         6.429526    0.163679    3.725578
H         6.246182   -1.603249    3.890638
H         8.112865   -1.690802    1.454347
H         8.188439   -0.760603   -0.613358
H         8.845277    0.910388   -0.707910
H         7.102145    0.653645   -0.495871
H         8.985504   -1.782125    5.598930
H        10.117299   -4.329831    4.504651
H         9.079074   -4.286592    5.956305
H        10.721293   -3.584226    6.016303
H         3.721080    0.872944    8.150022
H         1.423913    1.087245    9.042783
H         0.544145    4.057832    6.045318
H         2.850250    3.824117    5.148932
