42
-1 1
O        -0.597127    1.994040   -1.560616
C         0.185306    1.461823   -0.786569
C         1.529701    1.071104   -0.893176
C         1.962521    0.418906    0.312472
S         2.017701   -1.608600    0.257132
C         2.016461   -1.847710   -1.531049
C         3.406723   -1.922076   -2.199107
H         3.996110   -1.062814   -1.839765
N         3.310176   -1.832109   -3.634909
C         3.449529   -0.659902   -4.306269
C         3.375319   -0.776061   -5.818461
O         3.587610    0.416017   -3.755598
C         4.147543   -3.230324   -1.884798
N         4.505438   -3.387483   -0.592165
C         5.082841   -4.609820   -0.095484
O         4.378108   -4.054339   -2.760145
C         0.840760    0.627861    1.312720
N        -0.233885    1.137706    0.612709
C        -1.504498    1.361374    1.154001
C        -1.966042    0.600425    2.243168
C        -3.227866    0.822426    2.785188
C        -4.050429    1.801698    2.236838
Br        -5.781797    2.105133    2.977500
C        -3.618738    2.562119    1.154231
C        -2.351556    2.349381    0.620772
O         0.887340    0.380598    2.500419
H         2.126443    1.237710   -1.787500
H         2.950636    0.631175    0.734776
H         1.489302   -0.968437   -1.946361
H         1.428366   -2.745805   -1.772829
H         3.415861   -2.719401   -4.116630
H         3.552741   -1.796256   -6.187081
H         4.106815   -0.087290   -6.260247
H         2.374462   -0.453423   -6.142119
H         4.096082   -2.723524    0.069379
H         5.428155   -5.201124   -0.952875
H         4.349348   -5.208820    0.469786
H         5.938751   -4.396924    0.563079
H        -1.317313   -0.156368    2.679103
H        -3.567392    0.225029    3.633120
H        -4.265433    3.329508    0.724902
H        -2.007054    2.920613   -0.238577
