-1 1
 OpenBabel05192410563D

 56 58  0  0  1  0  0  0  0  0999 V2000
    2.2310    0.0569    0.5444 O   0  0  0  0  0  0  0  0  0  0  0  0
    1.2507   -0.5862    0.1490 C   0  0  0  0  0  0  0  0  0  0  0  0
    0.8748   -1.9270    0.2099 C   0  0  0  0  0  3  0  0  0  0  0  0
   -0.4430   -2.1274   -0.4466 C   0  0  2  0  0  0  0  0  0  0  0  0
   -0.5394   -3.3544   -1.8448 S   0  0  0  0  0  0  0  0  0  0  0  0
    0.4741   -2.5896   -3.1474 C   0  0  0  0  0  0  0  0  0  0  0  0
    1.9273   -3.0515   -3.2477 C   0  0  2  0  0  0  0  0  0  0  0  0
    1.9648   -4.1511   -3.3622 H   0  0  0  0  0  0  0  0  0  0  0  0
    2.6518   -2.6813   -2.0452 N   0  0  0  0  0  0  0  0  0  0  0  0
    3.8083   -3.2397   -1.6433 C   0  0  0  0  0  0  0  0  0  0  0  0
    4.2385   -2.8660   -0.2407 C   0  0  0  0  0  0  0  0  0  0  0  0
    4.4826   -4.0016   -2.3413 O   0  0  0  0  0  0  0  0  0  0  0  0
    2.5588   -2.4444   -4.5261 C   0  0  0  0  0  0  0  0  0  0  0  0
    3.8202   -2.8701   -4.7692 N   0  0  0  0  0  0  0  0  0  0  0  0
    4.6019   -2.3657   -5.8647 C   0  0  0  0  0  0  0  0  0  0  0  0
    1.9466   -1.6790   -5.2528 O   0  0  0  0  0  0  0  0  0  0  0  0
   -0.8354   -0.7172   -0.9276 C   0  0  0  0  0  0  0  0  0  0  0  0
    0.2087    0.0957   -0.6144 N   0  0  0  0  0  0  0  0  0  0  0  0
    0.2455    1.5045   -0.8959 C   0  0  0  0  0  0  0  0  0  0  0  0
   -0.4466    2.3277    0.1707 C   0  0  0  0  0  0  0  0  0  0  0  0
    0.1805    2.5315    1.4062 C   0  0  0  0  0  0  0  0  0  0  0  0
   -0.4538    3.2622    2.4062 C   0  0  0  0  0  0  0  0  0  0  0  0
   -1.7286    3.8011    2.1941 C   0  0  0  0  0  0  0  0  0  0  0  0
   -2.4381    4.5477    3.3003 C   0  0  0  0  0  0  0  0  0  0  0  0
   -3.2152    3.6663    4.1597 N   0  0  0  0  0  0  0  0  0  0  0  0
   -2.7003    2.9942    5.2620 C   0  0  0  0  0  0  0  0  0  0  0  0
   -3.7961    2.0769    5.7367 C   0  0  0  0  0  0  0  0  0  0  0  0
   -4.8527    2.2302    4.9383 C   0  0  0  0  0  0  0  0  0  0  0  0
   -4.5159    3.2579    3.8904 C   0  0  0  0  0  0  0  0  0  0  0  0
   -5.2186    3.6702    3.0052 O   0  0  0  0  0  0  0  0  0  0  0  0
   -1.6045    3.1451    5.7349 O   0  0  0  0  0  0  0  0  0  0  0  0
   -2.3613    3.5829    0.9674 C   0  0  0  0  0  0  0  0  0  0  0  0
   -1.7255    2.8499   -0.0335 C   0  0  0  0  0  0  0  0  0  0  0  0
   -1.8547   -0.3784   -1.4977 O   0  0  0  0  0  0  0  0  0  0  0  0
    1.3556   -2.6595    0.8554 H   0  0  0  0  0  0  0  0  0  0  0  0
   -1.2523   -2.5034    0.2040 H   0  0  0  0  0  0  0  0  0  0  0  0
    0.4432   -1.4956   -3.0396 H   0  0  0  0  0  0  0  0  0  0  0  0
   -0.0276   -2.8057   -4.0984 H   0  0  0  0  0  0  0  0  0  0  0  0
    2.0846   -2.2324   -1.2961 H   0  0  0  0  0  0  0  0  0  0  0  0
    3.8165   -1.9050    0.0910 H   0  0  0  0  0  0  0  0  0  0  0  0
    5.3354   -2.8409   -0.2081 H   0  0  0  0  0  0  0  0  0  0  0  0
    3.8961   -3.6507    0.4515 H   0  0  0  0  0  0  0  0  0  0  0  0
    4.2521   -3.4556   -4.0443 H   0  0  0  0  0  0  0  0  0  0  0  0
    4.9875   -3.1853   -6.4934 H   0  0  0  0  0  0  0  0  0  0  0  0
    5.4616   -1.7705   -5.5126 H   0  0  0  0  0  0  0  0  0  0  0  0
    3.9585   -1.7218   -6.4784 H   0  0  0  0  0  0  0  0  0  0  0  0
   -0.2262    1.6775   -1.8745 H   0  0  0  0  0  0  0  0  0  0  0  0
    1.3079    1.7833   -0.9460 H   0  0  0  0  0  0  0  0  0  0  0  0
    1.1642    2.0807    1.5681 H   0  0  0  0  0  0  0  0  0  0  0  0
    0.0370    3.4081    3.3725 H   0  0  0  0  0  0  0  0  0  0  0  0
   -3.1373    5.2882    2.8878 H   0  0  0  0  0  0  0  0  0  0  0  0
   -1.7177    5.0671    3.9473 H   0  0  0  0  0  0  0  0  0  0  0  0
   -3.6689    1.4237    6.5984 H   0  0  0  0  0  0  0  0  0  0  0  0
   -5.8223    1.7362    4.9714 H   0  0  0  0  0  0  0  0  0  0  0  0
   -3.3684    3.9760    0.8038 H   0  0  0  0  0  0  0  0  0  0  0  0
   -2.2339    2.6580   -0.9814 H   0  0  0  0  0  0  0  0  0  0  0  0
  2  3  1  0  0  0  0
  2  1  2  0  0  0  0
  3 35  1  0  0  0  0
  4 36  1  1  0  0  0
  4  3  1  0  0  0  0
  5  4  1  0  0  0  0
  6 37  1  0  0  0  0
  6  5  1  0  0  0  0
  7  8  1  6  0  0  0
  7  6  1  0  0  0  0
  7  9  1  0  0  0  0
  9 10  1  0  0  0  0
  9 39  1  0  0  0  0
 10 11  1  0  0  0  0
 11 41  1  0  0  0  0
 11 40  1  0  0  0  0
 11 42  1  0  0  0  0
 12 10  2  0  0  0  0
 13  7  1  0  0  0  0
 14 13  1  0  0  0  0
 14 43  1  0  0  0  0
 15 45  1  0  0  0  0
 15 14  1  0  0  0  0
 16 13  2  0  0  0  0
 17 18  1  0  0  0  0
 17  4  1  0  0  0  0
 18  2  1  0  0  0  0
 19 18  1  0  0  0  0
 19 20  1  0  0  0  0
 20 21  1  0  0  0  0
 21 49  1  0  0  0  0
 21 22  2  0  0  0  0
 22 50  1  0  0  0  0
 23 22  1  0  0  0  0
 23 24  1  0  0  0  0
 24 52  1  0  0  0  0
 24 25  1  0  0  0  0
 25 26  1  0  0  0  0
 26 31  2  0  0  0  0
 26 27  1  0  0  0  0
 27 53  1  0  0  0  0
 28 54  1  0  0  0  0
 28 27  2  0  0  0  0
 29 25  1  0  0  0  0
 29 28  1  0  0  0  0
 30 29  2  0  0  0  0
 32 23  2  0  0  0  0
 33 20  2  0  0  0  0
 33 32  1  0  0  0  0
 34 17  2  0  0  0  0
 38  6  1  0  0  0  0
 44 15  1  0  0  0  0
 46 15  1  0  0  0  0
 47 19  1  0  0  0  0
 48 19  1  0  0  0  0
 51 24  1  0  0  0  0
 55 32  1  0  0  0  0
 56 33  1  0  0  0  0
M  END
