-1 1
 OpenBabel05232413483D

 56 57  0  0  1  0  0  0  0  0999 V2000
    2.0356   -1.1267    1.0992 O   0  0  0  0  0  0  0  0  0  0  0  0
    1.0373   -1.6792    0.6835 C   0  0  0  0  0  0  0  0  0  0  0  0
    0.4445   -2.9754    1.0814 C   0  0  0  0  0  0  0  0  0  0  0  0
   -0.6474   -3.2014    0.3240 C   0  0  0  0  0  0  0  0  0  0  0  0
    0.0032   -4.5773   -2.2349 S   0  0  0  0  0  1  0  0  0  0  0  0
    0.3594   -3.1675   -3.3349 C   0  0  0  0  0  0  0  0  0  0  0  0
    1.8109   -2.6228   -3.2479 C   0  0  2  0  0  0  0  0  0  0  0  0
    2.4519   -3.1672   -3.9678 H   0  0  0  0  0  0  0  0  0  0  0  0
    2.3302   -2.8666   -1.9103 N   0  0  0  0  0  0  0  0  0  0  0  0
    3.6301   -2.9348   -1.5661 C   0  0  0  0  0  0  0  0  0  0  0  0
    3.8972   -3.5656   -0.2167 C   0  0  0  0  0  0  0  0  0  0  0  0
    4.5510   -2.4865   -2.2521 O   0  0  0  0  0  0  0  0  0  0  0  0
    1.8576   -1.1394   -3.6791 C   0  0  0  0  0  0  0  0  0  0  0  0
    3.0498   -0.5300   -3.4800 N   0  0  0  0  0  0  0  0  0  0  0  0
    3.2711    0.8503   -3.8121 C   0  0  0  0  0  0  0  0  0  0  0  0
    0.8962   -0.5761   -4.1814 O   0  0  0  0  0  0  0  0  0  0  0  0
   -0.8947   -1.9856   -0.5230 C   0  0  0  0  0  0  0  0  0  0  0  0
    0.2038   -1.1573   -0.3030 N   0  0  0  0  0  0  0  0  0  0  0  0
    0.4285    0.1037   -0.9685 C   0  0  0  0  0  0  0  0  0  0  0  0
   -0.1660    1.2738   -0.2168 C   0  0  0  0  0  0  0  0  0  0  0  0
    0.5754    1.9475    0.7587 C   0  0  0  0  0  0  0  0  0  0  0  0
    0.0147    3.0059    1.4697 C   0  0  0  0  0  0  0  0  0  0  0  0
   -1.3004    3.4096    1.2193 C   0  0  0  0  0  0  0  0  0  0  0  0
   -1.9261    4.5258    2.0240 C   0  0  0  0  0  0  0  0  0  0  0  0
   -2.5974    4.0425    3.2214 N   0  0  0  0  0  0  0  0  0  0  0  0
   -1.9640    3.8188    4.4381 C   0  0  0  0  0  0  0  0  0  0  0  0
   -2.9942    3.1761    5.3288 C   0  0  0  0  0  0  0  0  0  0  0  0
   -4.1283    3.0458    4.6401 C   0  0  0  0  0  0  0  0  0  0  0  0
   -3.9128    3.5947    3.2546 C   0  0  0  0  0  0  0  0  0  0  0  0
   -4.7050    3.6582    2.3517 O   0  0  0  0  0  0  0  0  0  0  0  0
   -0.8269    4.1046    4.7072 O   0  0  0  0  0  0  0  0  0  0  0  0
   -2.0478    2.7275    0.2534 C   0  0  0  0  0  0  0  0  0  0  0  0
   -1.4858    1.6696   -0.4566 C   0  0  0  0  0  0  0  0  0  0  0  0
   -1.8446   -1.6969   -1.2080 O   0  0  0  0  0  0  0  0  0  0  0  0
    0.9030   -3.6222    1.8261 H   0  0  0  0  0  0  0  0  0  0  0  0
   -1.3546   -4.0247    0.3549 H   0  0  0  0  0  0  0  0  0  0  0  0
   -0.3376   -2.3460   -3.1142 H   0  0  0  0  0  0  0  0  0  0  0  0
    0.1693   -3.4398   -4.3826 H   0  0  0  0  0  0  0  0  0  0  0  0
    1.6824   -3.5171   -1.4255 H   0  0  0  0  0  0  0  0  0  0  0  0
    3.7181   -2.8108    0.5645 H   0  0  0  0  0  0  0  0  0  0  0  0
    4.9445   -3.8887   -0.1774 H   0  0  0  0  0  0  0  0  0  0  0  0
    3.2269   -4.4174   -0.0295 H   0  0  0  0  0  0  0  0  0  0  0  0
    3.8121   -1.1089   -3.1073 H   0  0  0  0  0  0  0  0  0  0  0  0
    4.0075    0.9641   -4.6265 H   0  0  0  0  0  0  0  0  0  0  0  0
    3.6358    1.4180   -2.9402 H   0  0  0  0  0  0  0  0  0  0  0  0
    2.3173    1.2808   -4.1443 H   0  0  0  0  0  0  0  0  0  0  0  0
   -0.0003    0.0287   -1.9770 H   0  0  0  0  0  0  0  0  0  0  0  0
    1.5163    0.2213   -1.0741 H   0  0  0  0  0  0  0  0  0  0  0  0
    1.5952    1.6162    0.9695 H   0  0  0  0  0  0  0  0  0  0  0  0
    0.5978    3.5193    2.2390 H   0  0  0  0  0  0  0  0  0  0  0  0
   -2.6803    5.0607    1.4305 H   0  0  0  0  0  0  0  0  0  0  0  0
   -1.1639    5.2452    2.3536 H   0  0  0  0  0  0  0  0  0  0  0  0
   -2.7723    2.8920    6.3562 H   0  0  0  0  0  0  0  0  0  0  0  0
   -5.0832    2.6264    4.9526 H   0  0  0  0  0  0  0  0  0  0  0  0
   -3.0835    3.0240    0.0668 H   0  0  0  0  0  0  0  0  0  0  0  0
   -2.0739    1.1236   -1.1982 H   0  0  0  0  0  0  0  0  0  0  0  0
  2  3  1  0  0  0  0
  2  1  2  0  0  0  0
  3 35  1  0  0  0  0
  4 36  1  0  0  0  0
  4  3  2  0  0  0  0
  6  7  1  0  0  0  0
  6 37  1  0  0  0  0
  6  5  1  0  0  0  0
  7  8  1  6  0  0  0
  7  9  1  0  0  0  0
  9 10  1  0  0  0  0
  9 39  1  0  0  0  0
 10 11  1  0  0  0  0
 11 41  1  0  0  0  0
 11 42  1  0  0  0  0
 11 40  1  0  0  0  0
 12 10  2  0  0  0  0
 13 14  1  0  0  0  0
 13  7  1  0  0  0  0
 14 43  1  0  0  0  0
 15 14  1  0  0  0  0
 15 45  1  0  0  0  0
 16 13  2  0  0  0  0
 17 18  1  0  0  0  0
 17  4  1  0  0  0  0
 18  2  1  0  0  0  0
 19 18  1  0  0  0  0
 19 20  1  0  0  0  0
 20 21  1  0  0  0  0
 21 49  1  0  0  0  0
 21 22  2  0  0  0  0
 22 50  1  0  0  0  0
 23 22  1  0  0  0  0
 23 24  1  0  0  0  0
 24 52  1  0  0  0  0
 24 25  1  0  0  0  0
 25 29  1  0  0  0  0
 25 26  1  0  0  0  0
 26 31  2  0  0  0  0
 26 27  1  0  0  0  0
 27 53  1  0  0  0  0
 28 54  1  0  0  0  0
 28 27  2  0  0  0  0
 29 28  1  0  0  0  0
 30 29  2  0  0  0  0
 32 23  2  0  0  0  0
 33 20  2  0  0  0  0
 33 32  1  0  0  0  0
 34 17  2  0  0  0  0
 38  6  1  0  0  0  0
 44 15  1  0  0  0  0
 46 15  1  0  0  0  0
 47 19  1  0  0  0  0
 48 19  1  0  0  0  0
 51 24  1  0  0  0  0
 55 32  1  0  0  0  0
 56 33  1  0  0  0  0
M  END
