56
-1 1
O         2.231021    0.056897    0.544387
C         1.250731   -0.586154    0.148954
C         0.874830   -1.926975    0.209930
C        -0.443048   -2.127361   -0.446614
S        -0.539378   -3.354421   -1.844801
C         0.474085   -2.589609   -3.147442
C         1.927301   -3.051517   -3.247656
H         1.964826   -4.151126   -3.362250
N         2.651773   -2.681271   -2.045169
C         3.808252   -3.239720   -1.643276
C         4.238476   -2.865954   -0.240746
O         4.482555   -4.001622   -2.341332
C         2.558846   -2.444397   -4.526108
N         3.820174   -2.870061   -4.769153
C         4.601946   -2.365655   -5.864696
O         1.946558   -1.678971   -5.252763
C        -0.835381   -0.717168   -0.927565
N         0.208680    0.095655   -0.614417
C         0.245495    1.504457   -0.895935
C        -0.446639    2.327664    0.170652
C         0.180517    2.531463    1.406203
C        -0.453850    3.262162    2.406224
C        -1.728573    3.801118    2.194137
C        -2.438131    4.547702    3.300312
N        -3.215204    3.666279    4.159726
C        -2.700279    2.994231    5.262008
C        -3.796074    2.076936    5.736724
C        -4.852654    2.230247    4.938348
C        -4.515857    3.257886    3.890396
O        -5.218604    3.670162    3.005153
O        -1.604538    3.145053    5.734941
C        -2.361295    3.582937    0.967439
C        -1.725545    2.849899   -0.033499
O        -1.854654   -0.378444   -1.497651
H         1.355634   -2.659463    0.855396
H        -1.252268   -2.503393    0.204010
H         0.443157   -1.495578   -3.039613
H        -0.027643   -2.805741   -4.098402
H         2.084644   -2.232432   -1.296111
H         3.816531   -1.904998    0.091040
H         5.335379   -2.840929   -0.208128
H         3.896128   -3.650709    0.451532
H         4.252061   -3.455626   -4.044328
H         4.987521   -3.185262   -6.493388
H         5.461604   -1.770473   -5.512628
H         3.958468   -1.721827   -6.478404
H        -0.226151    1.677537   -1.874458
H         1.307912    1.783297   -0.946044
H         1.164224    2.080696    1.568069
H         0.036978    3.408125    3.372521
H        -3.137316    5.288219    2.887830
H        -1.717671    5.067058    3.947285
H        -3.668930    1.423664    6.598356
H        -5.822253    1.736154    4.971450
H        -3.368447    3.975962    0.803801
H        -2.233852    2.657965   -0.981424
