-1 1
 OpenBabel05192410563D

 52 53  0  0  1  0  0  0  0  0999 V2000
   -1.0033   -4.2658   -0.9641 O   0  0  0  0  0  0  0  0  0  0  0  0
   -0.5019   -4.8792   -0.0594 C   0  0  0  0  0  0  0  0  0  0  0  0
   -0.4834   -6.3739    0.1341 C   0  0  0  0  0  0  0  0  0  0  0  0
    0.1700   -6.6452    1.2633 C   0  0  0  0  0  0  0  0  0  0  0  0
    0.6210   -5.3449    1.8780 C   0  0  0  0  0  0  0  0  0  0  0  0
    0.1741   -4.3414    1.0291 N   0  0  0  0  0  0  0  0  0  0  0  0
    0.4333   -2.9233    1.2195 C   0  0  0  0  0  0  0  0  0  0  0  0
    1.8273   -2.5079    0.7521 C   0  0  0  0  0  0  0  0  0  0  0  0
    2.1102   -1.0245    0.9820 C   0  0  0  0  0  0  0  0  0  0  0  0
    1.2357   -0.1127    0.1240 C   0  0  0  0  0  0  0  0  0  0  0  0
    1.4318    1.2850    0.3881 N   0  0  0  0  0  0  0  0  0  0  0  0
    0.8054    1.9591    1.5208 C   0  0  0  0  0  0  0  0  0  0  0  0
    0.1752    1.2848    2.3448 O   0  0  0  0  0  0  0  0  0  0  0  0
    1.0398    3.3234    1.3448 C   0  0  0  0  0  3  0  0  0  0  0  0
    1.8217    3.5512    0.1059 C   0  0  2  0  0  0  0  0  0  0  0  0
    0.9432    4.4999   -1.2843 S   0  0  0  0  0  0  0  0  0  0  0  0
    0.0803    3.2274   -2.2554 C   0  0  0  0  0  0  0  0  0  0  0  0
   -1.2104    2.5772   -1.7000 C   0  0  2  0  0  0  0  0  0  0  0  0
   -2.0905    2.9631   -2.2447 H   0  0  0  0  0  0  0  0  0  0  0  0
   -1.4278    2.8602   -0.2990 N   0  0  0  0  0  0  0  0  0  0  0  0
   -2.6143    2.7852    0.3280 C   0  0  0  0  0  0  0  0  0  0  0  0
   -2.5665    3.1535    1.7940 C   0  0  0  0  0  0  0  0  0  0  0  0
   -3.6533    2.4179   -0.2282 O   0  0  0  0  0  0  0  0  0  0  0  0
   -1.1758    1.0495   -2.0024 C   0  0  0  0  0  0  0  0  0  0  0  0
   -2.2113    0.3570   -1.4794 N   0  0  0  0  0  0  0  0  0  0  0  0
   -2.3039   -1.0751   -1.5890 C   0  0  0  0  0  0  0  0  0  0  0  0
   -0.2941    0.5314   -2.6674 O   0  0  0  0  0  0  0  0  0  0  0  0
    2.1526    2.1351   -0.3911 C   0  0  0  0  0  0  0  0  0  0  0  0
    2.8692    1.8291   -1.3248 O   0  0  0  0  0  0  0  0  0  0  0  0
    1.2387   -5.1917    2.8993 O   0  0  0  0  0  0  0  0  0  0  0  0
   -0.9520   -7.0525   -0.5770 H   0  0  0  0  0  0  0  0  0  0  0  0
    0.3814   -7.6071    1.7280 H   0  0  0  0  0  0  0  0  0  0  0  0
    0.3051   -2.6948    2.2877 H   0  0  0  0  0  0  0  0  0  0  0  0
   -0.3485   -2.3874    0.6648 H   0  0  0  0  0  0  0  0  0  0  0  0
    1.9286   -2.7489   -0.3205 H   0  0  0  0  0  0  0  0  0  0  0  0
    2.5684   -3.1178    1.2939 H   0  0  0  0  0  0  0  0  0  0  0  0
    3.1677   -0.8138    0.7573 H   0  0  0  0  0  0  0  0  0  0  0  0
    1.9406   -0.7658    2.0397 H   0  0  0  0  0  0  0  0  0  0  0  0
    0.1717   -0.3167    0.3227 H   0  0  0  0  0  0  0  0  0  0  0  0
    1.4206   -0.2794   -0.9477 H   0  0  0  0  0  0  0  0  0  0  0  0
    0.7840    4.0880    2.0751 H   0  0  0  0  0  0  0  0  0  0  0  0
    2.7483    4.1391    0.1985 H   0  0  0  0  0  0  0  0  0  0  0  0
    0.7977    2.4330   -2.4990 H   0  0  0  0  0  0  0  0  0  0  0  0
   -0.1463    3.7330   -3.2043 H   0  0  0  0  0  0  0  0  0  0  0  0
   -0.6108    3.1199    0.2836 H   0  0  0  0  0  0  0  0  0  0  0  0
   -1.8255    2.5130    2.3036 H   0  0  0  0  0  0  0  0  0  0  0  0
   -3.5641    3.0159    2.2278 H   0  0  0  0  0  0  0  0  0  0  0  0
   -2.2439    4.1976    1.9192 H   0  0  0  0  0  0  0  0  0  0  0  0
   -2.9595    0.8962   -1.0357 H   0  0  0  0  0  0  0  0  0  0  0  0
   -2.9136   -1.3975   -2.4517 H   0  0  0  0  0  0  0  0  0  0  0  0
   -2.7509   -1.4947   -0.6762 H   0  0  0  0  0  0  0  0  0  0  0  0
   -1.3003   -1.5008   -1.7166 H   0  0  0  0  0  0  0  0  0  0  0  0
  1  2  2  0  0  0  0
  2  3  1  0  0  0  0
  2  6  1  0  0  0  0
  3  4  2  0  0  0  0
  4 32  1  0  0  0  0
  4  5  1  0  0  0  0
  5 30  2  0  0  0  0
  6  7  1  0  0  0  0
  6  5  1  0  0  0  0
  7 33  1  0  0  0  0
  8  9  1  0  0  0  0
  8  7  1  0  0  0  0
  8 36  1  0  0  0  0
  9 38  1  0  0  0  0
 10 39  1  0  0  0  0
 10 11  1  0  0  0  0
 10  9  1  0  0  0  0
 11 12  1  0  0  0  0
 12 13  2  0  0  0  0
 14 12  1  0  0  0  0
 14 41  1  0  0  0  0
 15 42  1  1  0  0  0
 15 14  1  0  0  0  0
 16 15  1  0  0  0  0
 17 18  1  0  0  0  0
 17 16  1  0  0  0  0
 18 19  1  6  0  0  0
 18 20  1  0  0  0  0
 20 45  1  0  0  0  0
 20 21  1  0  0  0  0
 21 22  1  0  0  0  0
 22 48  1  0  0  0  0
 22 47  1  0  0  0  0
 22 46  1  0  0  0  0
 23 21  2  0  0  0  0
 24 18  1  0  0  0  0
 24 25  1  0  0  0  0
 25 49  1  0  0  0  0
 26 25  1  0  0  0  0
 26 51  1  0  0  0  0
 27 24  2  0  0  0  0
 28 15  1  0  0  0  0
 28 11  1  0  0  0  0
 29 28  2  0  0  0  0
 31  3  1  0  0  0  0
 34  7  1  0  0  0  0
 35  8  1  0  0  0  0
 37  9  1  0  0  0  0
 40 10  1  0  0  0  0
 43 17  1  0  0  0  0
 44 17  1  0  0  0  0
 50 26  1  0  0  0  0
 52 26  1  0  0  0  0
M  END
