-1 1
 OpenBabel05232413483D

 52 52  0  0  1  0  0  0  0  0999 V2000
   -0.8191   -4.3007   -1.3283 O   0  0  0  0  0  0  0  0  0  0  0  0
   -0.3884   -4.8885   -0.3727 C   0  0  0  0  0  0  0  0  0  0  0  0
   -0.3237   -6.3801   -0.1671 C   0  0  0  0  0  0  0  0  0  0  0  0
    0.2260   -6.6198    1.0230 C   0  0  0  0  0  0  0  0  0  0  0  0
    0.5567   -5.3002    1.6701 C   0  0  0  0  0  0  0  0  0  0  0  0
    0.1490   -4.3185    0.7762 N   0  0  0  0  0  0  0  0  0  0  0  0
    0.3350   -2.8931    0.9895 C   0  0  0  0  0  0  0  0  0  0  0  0
    1.7209   -2.4101    0.5648 C   0  0  0  0  0  0  0  0  0  0  0  0
    2.0029   -0.9654    0.9701 C   0  0  0  0  0  0  0  0  0  0  0  0
    1.0905    0.0522    0.2883 C   0  0  0  0  0  0  0  0  0  0  0  0
    1.3907    1.4090    0.6679 N   0  0  0  0  0  0  0  0  0  0  0  0
    0.8508    2.0449    1.7831 C   0  0  0  0  0  0  0  0  0  0  0  0
    0.0981    1.5160    2.5754 O   0  0  0  0  0  0  0  0  0  0  0  0
    1.3924    3.4233    1.7780 C   0  0  0  0  0  0  0  0  0  0  0  0
    2.1635    3.5790    0.6842 C   0  0  0  0  0  0  0  0  0  0  0  0
    0.5980    4.4441   -1.7089 S   0  0  0  0  0  1  0  0  0  0  0  0
    0.0614    2.8421   -2.3959 C   0  0  0  0  0  0  0  0  0  0  0  0
   -1.2290    2.2615   -1.7590 C   0  0  2  0  0  0  0  0  0  0  0  0
   -2.1126    2.6523   -2.2995 H   0  0  0  0  0  0  0  0  0  0  0  0
   -1.3165    2.7061   -0.3757 N   0  0  0  0  0  0  0  0  0  0  0  0
   -2.4416    2.7817    0.3600 C   0  0  0  0  0  0  0  0  0  0  0  0
   -2.3221    3.6165    1.6169 C   0  0  0  0  0  0  0  0  0  0  0  0
   -3.4893    2.1935    0.0845 O   0  0  0  0  0  0  0  0  0  0  0  0
   -1.2750    0.7258   -1.9292 C   0  0  0  0  0  0  0  0  0  0  0  0
   -2.2844    0.1150   -1.2666 N   0  0  0  0  0  0  0  0  0  0  0  0
   -2.4869   -1.3067   -1.3207 C   0  0  0  0  0  0  0  0  0  0  0  0
   -0.4740    0.1213   -2.6265 O   0  0  0  0  0  0  0  0  0  0  0  0
    2.2680    2.2519   -0.0128 C   0  0  0  0  0  0  0  0  0  0  0  0
    2.9870    1.9066   -0.9169 O   0  0  0  0  0  0  0  0  0  0  0  0
    1.0667   -5.1150    2.7444 O   0  0  0  0  0  0  0  0  0  0  0  0
   -0.6889   -7.0804   -0.9166 H   0  0  0  0  0  0  0  0  0  0  0  0
    0.4327   -7.5704    1.5122 H   0  0  0  0  0  0  0  0  0  0  0  0
    0.1749   -2.6974    2.0603 H   0  0  0  0  0  0  0  0  0  0  0  0
   -0.4556   -2.3792    0.4266 H   0  0  0  0  0  0  0  0  0  0  0  0
    1.8194   -2.5221   -0.5281 H   0  0  0  0  0  0  0  0  0  0  0  0
    2.4723   -3.0685    1.0303 H   0  0  0  0  0  0  0  0  0  0  0  0
    3.0448   -0.7171    0.7143 H   0  0  0  0  0  0  0  0  0  0  0  0
    1.9039   -0.8593    2.0639 H   0  0  0  0  0  0  0  0  0  0  0  0
    0.0344   -0.1198    0.5465 H   0  0  0  0  0  0  0  0  0  0  0  0
    1.1779   -0.0200   -0.8055 H   0  0  0  0  0  0  0  0  0  0  0  0
    1.1185    4.1602    2.5298 H   0  0  0  0  0  0  0  0  0  0  0  0
    2.7483    4.4359    0.3635 H   0  0  0  0  0  0  0  0  0  0  0  0
    0.8704    2.1053   -2.2848 H   0  0  0  0  0  0  0  0  0  0  0  0
   -0.1117    2.9259   -3.4780 H   0  0  0  0  0  0  0  0  0  0  0  0
   -0.6138    3.4563   -0.2321 H   0  0  0  0  0  0  0  0  0  0  0  0
   -1.8230    3.0145    2.3918 H   0  0  0  0  0  0  0  0  0  0  0  0
   -3.3279    3.8896    1.9583 H   0  0  0  0  0  0  0  0  0  0  0  0
   -1.7186    4.5198    1.4440 H   0  0  0  0  0  0  0  0  0  0  0  0
   -2.9462    0.7208   -0.7673 H   0  0  0  0  0  0  0  0  0  0  0  0
   -3.2906   -1.5929   -2.0227 H   0  0  0  0  0  0  0  0  0  0  0  0
   -2.7559   -1.6946   -0.3253 H   0  0  0  0  0  0  0  0  0  0  0  0
   -1.5641   -1.7960   -1.6582 H   0  0  0  0  0  0  0  0  0  0  0  0
  1  2  2  0  0  0  0
  2  3  1  0  0  0  0
  2  6  1  0  0  0  0
  3  4  2  0  0  0  0
  4 32  1  0  0  0  0
  4  5  1  0  0  0  0
  5 30  2  0  0  0  0
  6  7  1  0  0  0  0
  6  5  1  0  0  0  0
  7 33  1  0  0  0  0
  8  9  1  0  0  0  0
  8  7  1  0  0  0  0
  8 36  1  0  0  0  0
  9 38  1  0  0  0  0
 10 39  1  0  0  0  0
 10 11  1  0  0  0  0
 10  9  1  0  0  0  0
 11 12  1  0  0  0  0
 12 13  2  0  0  0  0
 14 12  1  0  0  0  0
 14 41  1  0  0  0  0
 15 14  2  0  0  0  0
 17 43  1  0  0  0  0
 17 18  1  0  0  0  0
 17 16  1  0  0  0  0
 18 19  1  6  0  0  0
 18 20  1  0  0  0  0
 20 45  1  0  0  0  0
 20 21  1  0  0  0  0
 21 22  1  0  0  0  0
 22 47  1  0  0  0  0
 22 46  1  0  0  0  0
 23 21  2  0  0  0  0
 24 18  1  0  0  0  0
 24 25  1  0  0  0  0
 25 49  1  0  0  0  0
 26 25  1  0  0  0  0
 26 51  1  0  0  0  0
 27 24  2  0  0  0  0
 28 11  1  0  0  0  0
 28 15  1  0  0  0  0
 29 28  2  0  0  0  0
 31  3  1  0  0  0  0
 34  7  1  0  0  0  0
 35  8  1  0  0  0  0
 37  9  1  0  0  0  0
 40 10  1  0  0  0  0
 42 15  1  0  0  0  0
 44 17  1  0  0  0  0
 48 22  1  0  0  0  0
 50 26  1  0  0  0  0
 52 26  1  0  0  0  0
M  END
