52
-1 1
O        -0.819095   -4.300731   -1.328281
C        -0.388396   -4.888497   -0.372663
C        -0.323658   -6.380066   -0.167072
C         0.226010   -6.619802    1.023039
C         0.556715   -5.300195    1.670131
N         0.148957   -4.318528    0.776200
C         0.335021   -2.893094    0.989460
C         1.720859   -2.410134    0.564842
C         2.002927   -0.965417    0.970112
C         1.090501    0.052163    0.288334
N         1.390694    1.409010    0.667949
C         0.850815    2.044939    1.783127
O         0.098093    1.516025    2.575396
C         1.392439    3.423330    1.778014
C         2.163453    3.579013    0.684167
S         0.597964    4.444095   -1.708862
C         0.061413    2.842066   -2.395874
C        -1.228966    2.261461   -1.759044
H        -2.112607    2.652263   -2.299506
N        -1.316488    2.706053   -0.375750
C        -2.441562    2.781692    0.360037
C        -2.322088    3.616497    1.616872
O        -3.489300    2.193511    0.084475
C        -1.274960    0.725775   -1.929207
N        -2.284437    0.114969   -1.266613
C        -2.486894   -1.306705   -1.320652
O        -0.474013    0.121315   -2.626490
C         2.267965    2.251916   -0.012789
O         2.986996    1.906649   -0.916948
O         1.066662   -5.114998    2.744365
H        -0.688872   -7.080420   -0.916571
H         0.432732   -7.570402    1.512238
H         0.174899   -2.697410    2.060269
H        -0.455644   -2.379238    0.426603
H         1.819429   -2.522095   -0.528097
H         2.472303   -3.068479    1.030298
H         3.044841   -0.717066    0.714290
H         1.903922   -0.859340    2.063936
H         0.034358   -0.119826    0.546492
H         1.177923   -0.019967   -0.805534
H         1.118478    4.160189    2.529827
H         2.748308    4.435883    0.363529
H         0.870423    2.105334   -2.284783
H        -0.111710    2.925916   -3.477992
H        -0.613796    3.456260   -0.232063
H        -1.822995    3.014495    2.391846
H        -3.327854    3.889621    1.958284
H        -1.718619    4.519798    1.444048
H        -2.946196    0.720753   -0.767273
H        -3.290572   -1.592942   -2.022682
H        -2.755935   -1.694573   -0.325272
H        -1.564120   -1.795965   -1.658242
