52
-1 1
O        -1.768887    0.422164    1.983404
C        -1.358625   -0.156939    2.953907
C        -1.329137   -1.645578    3.187423
C        -0.794653   -1.874786    4.386441
C        -0.440034   -0.550351    5.011628
N        -0.818299    0.422632    4.095558
C        -0.604141    1.848814    4.279478
C         0.799116    2.292142    3.869409
C         1.081551    3.757408    4.193645
C         0.193542    4.733175    3.423632
N         0.468040    6.109694    3.732058
C        -0.058409    6.779216    4.874378
O        -0.739364    6.186415    5.701784
C         0.386387    8.143013    4.789746
C         1.069809    8.320434    3.587293
S        -0.220551    9.194760    1.795844
C        -0.891421    7.749823    0.918846
C        -2.177507    7.116423    1.512369
H        -3.066827    7.515994    0.989585
N        -2.305870    7.448588    2.920268
C        -3.443188    7.425888    3.642087
C        -3.341193    8.076050    5.002597
O        -4.482389    6.887621    3.255177
C        -2.178975    5.590683    1.234406
N        -3.167739    4.905438    1.849884
C        -3.299864    3.479505    1.718928
O        -1.359773    5.062545    0.499281
C         1.271568    6.946712    2.989989
O         1.968942    6.607325    2.058880
O         0.064386   -0.357293    6.086875
H        -1.703838   -2.351711    2.448075
H        -0.613143   -2.820207    4.895306
H        -0.781390    2.077321    5.340834
H        -1.372897    2.364017    3.688068
H         0.927421    2.112819    2.788096
H         1.528732    1.654160    4.394467
H         2.132933    3.984384    3.956984
H         0.944484    3.937077    5.272890
H        -0.868271    4.563012    3.661674
H         0.318803    4.601872    2.338361
H         0.148281    8.896119    5.536700
H         1.811003    9.091214    3.382267
H        -0.112482    6.977360    0.855441
H        -1.096157    8.043266   -0.120200
H        -1.567552    8.081021    3.243768
H        -2.675266    7.467170    5.635834
H        -4.342470    8.131119    5.445599
H        -2.901521    9.081614    4.928100
H        -3.864810    5.452849    2.366001
H        -3.988624    3.188299    0.905608
H        -3.680247    3.049208    2.657401
H        -2.322082    3.033859    1.494109
