-1 1
 OpenBabel05232413483D

 52 53  0  0  1  0  0  0  0  0999 V2000
    1.6742    1.3788    3.2336 O   0  0  0  0  0  0  0  0  0  0  0  0
    0.8320    0.5060    3.3010 C   0  0  0  0  0  0  0  0  0  0  0  0
    0.8619   -0.7761    4.0110 C   0  0  0  0  0  0  0  0  0  0  0  0
   -0.2822   -1.4583    3.7417 C   0  0  0  0  0  0  0  0  0  0  0  0
   -0.2408   -2.5495    1.2795 S   0  0  0  0  0  1  0  0  0  0  0  0
    1.5644   -2.6239    1.1489 C   0  0  0  0  0  0  0  0  0  0  0  0
    2.1641   -1.8392   -0.0289 C   0  0  2  0  0  0  0  0  0  0  0  0
    3.2557   -1.9828   -0.0415 H   0  0  0  0  0  0  0  0  0  0  0  0
    1.9056   -0.4278    0.1202 N   0  0  0  0  0  0  0  0  0  0  0  0
    2.7589    0.5284   -0.3453 C   0  0  0  0  0  0  0  0  0  0  0  0
    2.3422    1.9510   -0.0405 C   0  0  0  0  0  0  0  0  0  0  0  0
    3.7731    0.2529   -0.9614 O   0  0  0  0  0  0  0  0  0  0  0  0
    1.6766   -2.4234   -1.3622 C   0  0  0  0  0  0  0  0  0  0  0  0
    0.7904   -1.6589   -2.0466 N   0  0  0  0  0  0  0  0  0  0  0  0
    0.1155   -2.1322   -3.2230 C   0  0  0  0  0  0  0  0  0  0  0  0
    2.0728   -3.5095   -1.7486 O   0  0  0  0  0  0  0  0  0  0  0  0
   -1.1981   -0.5826    2.9603 C   0  0  0  0  0  0  0  0  0  0  0  0
   -0.4221    0.5642    2.6496 N   0  0  0  0  0  0  0  0  0  0  0  0
   -0.7613    1.4695    1.6273 C   0  0  0  0  0  0  0  0  0  0  0  0
   -1.2193    0.9506    0.4127 C   0  0  0  0  0  0  0  0  0  0  0  0
   -1.4867    1.7894   -0.6709 C   0  0  0  0  0  0  0  0  0  0  0  0
   -1.9103    1.1985   -1.9684 C   0  0  0  0  0  0  0  0  0  0  0  0
   -2.7455    0.0715   -2.0018 C   0  0  0  0  0  0  0  0  0  0  0  0
   -3.1342   -0.4917   -3.2146 C   0  0  0  0  0  0  0  0  0  0  0  0
   -2.6939    0.0559   -4.4189 C   0  0  0  0  0  0  0  0  0  0  0  0
   -1.8529    1.1676   -4.3998 C   0  0  0  0  0  0  0  0  0  0  0  0
   -1.4633    1.7311   -3.1863 C   0  0  0  0  0  0  0  0  0  0  0  0
   -1.3083    3.1719   -0.5119 C   0  0  0  0  0  0  0  0  0  0  0  0
   -0.8602    3.6873    0.7023 C   0  0  0  0  0  0  0  0  0  0  0  0
   -0.5820    2.8456    1.7775 C   0  0  0  0  0  0  0  0  0  0  0  0
   -2.3814   -0.6812    2.7462 O   0  0  0  0  0  0  0  0  0  0  0  0
    1.7236   -1.0954    4.5922 H   0  0  0  0  0  0  0  0  0  0  0  0
   -0.6317   -2.3945    4.1677 H   0  0  0  0  0  0  0  0  0  0  0  0
    1.8952   -3.6687    1.0589 H   0  0  0  0  0  0  0  0  0  0  0  0
    2.0029   -2.2092    2.0802 H   0  0  0  0  0  0  0  0  0  0  0  0
    1.0926   -0.1687    0.6686 H   0  0  0  0  0  0  0  0  0  0  0  0
    3.0946    2.6327   -0.4538 H   0  0  0  0  0  0  0  0  0  0  0  0
    2.2488    2.0962    1.0465 H   0  0  0  0  0  0  0  0  0  0  0  0
    1.3599    2.1700   -0.4868 H   0  0  0  0  0  0  0  0  0  0  0  0
    0.4401   -0.8335   -1.5779 H   0  0  0  0  0  0  0  0  0  0  0  0
   -0.0472   -1.3061   -3.9315 H   0  0  0  0  0  0  0  0  0  0  0  0
   -0.8642   -2.5814   -2.9841 H   0  0  0  0  0  0  0  0  0  0  0  0
    0.7420   -2.9029   -3.6911 H   0  0  0  0  0  0  0  0  0  0  0  0
   -1.2983   -0.1369    0.3193 H   0  0  0  0  0  0  0  0  0  0  0  0
   -3.0993   -0.3628   -1.0641 H   0  0  0  0  0  0  0  0  0  0  0  0
   -3.7839   -1.3696   -3.2157 H   0  0  0  0  0  0  0  0  0  0  0  0
   -2.9943   -0.3909   -5.3695 H   0  0  0  0  0  0  0  0  0  0  0  0
   -1.4844    1.5928   -5.3364 H   0  0  0  0  0  0  0  0  0  0  0  0
   -0.7799    2.5835   -3.1814 H   0  0  0  0  0  0  0  0  0  0  0  0
   -1.5320    3.8487   -1.3398 H   0  0  0  0  0  0  0  0  0  0  0  0
   -0.7227    4.7653    0.8137 H   0  0  0  0  0  0  0  0  0  0  0  0
   -0.2031    3.2384    2.7205 H   0  0  0  0  0  0  0  0  0  0  0  0
  1  2  2  0  0  0  0
  2  3  1  0  0  0  0
  3 32  1  0  0  0  0
  4  3  2  0  0  0  0
  4 33  1  0  0  0  0
  6  5  1  0  0  0  0
  6 35  1  0  0  0  0
  7  8  1  1  0  0  0
  7  9  1  0  0  0  0
  7  6  1  0  0  0  0
  9 36  1  0  0  0  0
 10 11  1  0  0  0  0
 10  9  1  0  0  0  0
 11 38  1  0  0  0  0
 12 10  2  0  0  0  0
 13  7  1  0  0  0  0
 14 40  1  0  0  0  0
 14 13  1  0  0  0  0
 15 42  1  0  0  0  0
 15 14  1  0  0  0  0
 16 13  2  0  0  0  0
 17  4  1  0  0  0  0
 18 17  1  0  0  0  0
 18  2  1  0  0  0  0
 19 30  1  0  0  0  0
 19 18  1  0  0  0  0
 20 19  2  0  0  0  0
 21 28  2  0  0  0  0
 21 20  1  0  0  0  0
 22 21  1  0  0  0  0
 23 22  1  0  0  0  0
 23 45  1  0  0  0  0
 24 23  2  0  0  0  0
 25 26  2  0  0  0  0
 25 24  1  0  0  0  0
 26 27  1  0  0  0  0
 27 49  1  0  0  0  0
 27 22  2  0  0  0  0
 28 29  1  0  0  0  0
 29 51  1  0  0  0  0
 29 30  2  0  0  0  0
 30 52  1  0  0  0  0
 31 17  2  0  0  0  0
 34  6  1  0  0  0  0
 37 11  1  0  0  0  0
 39 11  1  0  0  0  0
 41 15  1  0  0  0  0
 43 15  1  0  0  0  0
 44 20  1  0  0  0  0
 46 24  1  0  0  0  0
 47 25  1  0  0  0  0
 48 26  1  0  0  0  0
 50 28  1  0  0  0  0
M  END
