52
-1 1
O         1.453072    1.487965    3.208534
C         0.872988    0.412071    3.065436
C         1.014588   -0.859924    3.608851
C         0.044349   -1.795450    3.030235
S         0.727866   -3.224258    1.969079
C         2.244506   -2.535436    1.252748
C         2.134384   -1.763377   -0.086824
H         3.088889   -1.874294   -0.628362
N         1.978311   -0.356308    0.108529
C         2.862309    0.566521   -0.358848
C         2.487779    1.991829   -0.017108
O         3.862912    0.263132   -0.989107
C         1.018737   -2.310096   -0.992329
N         1.184271   -3.613619   -1.364278
C         0.116268   -4.351247   -1.992155
O         0.082229   -1.635851   -1.367235
C        -0.856364   -0.925073    2.152028
N        -0.267676    0.321186    2.097996
C        -0.764846    1.394024    1.337346
C        -1.156962    1.164902    0.013633
C        -1.643790    2.205434   -0.783327
C        -2.065082    1.930365   -2.183518
C        -2.611436    0.686186   -2.534658
C        -3.007594    0.423743   -3.843334
C        -2.868671    1.396560   -4.832928
C        -2.321253    2.634775   -4.500328
C        -1.921889    2.895652   -3.191292
C        -1.715613    3.495713   -0.238428
C        -1.299037    3.727331    1.070284
C        -0.828751    2.687505    1.867953
O        -1.888481   -1.260315    1.615853
H         1.761999   -1.104000    4.360179
H        -0.587211   -2.375243    3.722198
H         2.930870   -3.389965    1.150268
H         2.676807   -1.852477    2.002856
H         1.165731   -0.040243    0.624321
H         3.302560    2.658038   -0.324149
H         2.289257    2.086562    1.063500
H         1.562249    2.271843   -0.545072
H         1.896250   -4.142130   -0.878745
H        -0.523642   -4.860812   -1.251601
H         0.521547   -5.095339   -2.694120
H        -0.507388   -3.638349   -2.545486
H        -1.028694    0.165890   -0.407172
H        -2.729008   -0.083425   -1.769250
H        -3.429084   -0.553546   -4.090556
H        -3.178301    1.187940   -5.859980
H        -2.191292    3.401387   -5.268517
H        -1.466281    3.859000   -2.950847
H        -2.115321    4.320138   -0.833716
H        -1.353391    4.737546    1.483988
H        -0.478342    2.860808    2.883848
