58
-1 1
O         0.066511   -3.594769   -3.705813
C         0.067584   -2.427098   -4.015376
C        -0.428093   -1.227909   -3.247969
S         1.430619   -1.251265   -1.475090
C         2.888359   -1.982744   -2.275889
C         3.807647   -0.958900   -2.957191
H         4.376236   -0.404440   -2.187991
N         2.993061    0.000140   -3.695194
C         3.391729    1.230200   -4.075511
C         2.282629    2.145694   -4.541150
O         4.570166    1.593776   -4.080287
C         4.843533   -1.680134   -3.853698
N         5.772020   -0.870561   -4.407681
C         6.749127   -1.374404   -5.337636
O         4.830377   -2.888528   -4.032351
C        -0.446278   -0.167076   -4.119085
C         0.135356   -0.580282   -5.385404
N         0.488955   -1.940966   -5.248901
C         0.860130   -2.816926   -6.339341
C         2.333790   -3.256315   -6.366349
C         3.233098   -2.486342   -7.334571
C         3.358075   -0.997246   -7.035412
C         4.348292   -0.272811   -7.940007
C         4.502984    1.189255   -7.535744
N         5.422568    1.926381   -8.389494
C         6.802736    1.913570   -8.260746
C         7.338134    2.782199   -9.370309
C         6.308406    3.239201  -10.081487
C         5.036827    2.699762   -9.478175
O         3.910420    2.895812   -9.851068
O         7.442690    1.324032   -7.428549
O         0.292176    0.051543   -6.418434
H        -1.024708   -1.364460   -2.351433
H         2.570626   -2.731398   -3.017504
H         3.486128   -2.536950   -1.538572
H         1.996138   -0.105036   -3.486461
H         1.567315    2.316661   -3.722345
H         1.723269    1.690332   -5.373362
H         2.720639    3.100547   -4.854248
H         5.651506    0.136679   -4.267092
H         6.293687   -2.142049   -5.982595
H         7.605060   -1.846660   -4.824526
H         7.116769   -0.548045   -5.959752
H        -0.818121    0.839640   -3.945770
H         0.591441   -2.292590   -7.270098
H         0.220699   -3.708828   -6.254299
H         2.367963   -4.322715   -6.641786
H         2.755107   -3.200239   -5.350877
H         2.861427   -2.621575   -8.368524
H         4.236899   -2.945450   -7.306515
H         3.673406   -0.872557   -5.990162
H         2.370233   -0.514898   -7.111591
H         4.013091   -0.323024   -8.991082
H         5.335497   -0.763447   -7.891666
H         4.862843    1.274219   -6.499597
H         3.533938    1.705796   -7.594641
H         8.404913    2.956787   -9.501301
H         6.301911    3.890824  -10.953875
