-1 1
 OpenBabel05192410563D

 58 59  0  0  1  0  0  0  0  0999 V2000
   -3.1137   -3.4811    1.7065 O   0  0  0  0  0  0  0  0  0  0  0  0
   -3.0845   -2.2968    1.4298 C   0  0  0  0  0  0  0  0  0  0  0  0
   -3.1251   -1.1047    2.4045 C   0  0  1  0  0  0  0  0  0  0  0  0
   -1.7966   -1.2532    3.6975 S   0  0  0  0  0  0  0  0  0  0  0  0
   -0.2971   -1.5416    2.7119 C   0  0  0  0  0  0  0  0  0  0  0  0
    0.5645   -0.3201    2.3971 C   0  0  2  0  0  0  0  0  0  0  0  0
    0.8472    0.1903    3.3367 H   0  0  0  0  0  0  0  0  0  0  0  0
   -0.1730    0.6146    1.5651 N   0  0  0  0  0  0  0  0  0  0  0  0
    0.1471    1.9126    1.4074 C   0  0  0  0  0  0  0  0  0  0  0  0
   -0.8952    2.7465    0.6941 C   0  0  0  0  0  0  0  0  0  0  0  0
    1.2086    2.4083    1.7955 O   0  0  0  0  0  0  0  0  0  0  0  0
    1.8808   -0.8044    1.7377 C   0  0  0  0  0  0  0  0  0  0  0  0
    2.8034    0.1655    1.5522 N   0  0  0  0  0  0  0  0  0  0  0  0
    4.0711   -0.1113    0.9230 C   0  0  0  0  0  0  0  0  0  0  0  0
    2.0697   -1.9752    1.4466 O   0  0  0  0  0  0  0  0  0  0  0  0
   -3.0959    0.0818    1.5121 C   0  0  0  0  0  3  0  0  0  0  0  0
   -3.0943   -0.3172    0.1752 C   0  0  0  0  0  0  0  0  0  0  0  0
   -3.0012   -1.7757    0.1761 N   0  0  0  0  0  0  0  0  0  0  0  0
   -2.9919   -2.5872   -1.0142 C   0  0  0  0  0  0  0  0  0  0  0  0
   -1.6491   -3.2674   -1.3256 C   0  0  0  0  0  0  0  0  0  0  0  0
   -0.6532   -2.4324   -2.1323 C   0  0  0  0  0  0  0  0  0  0  0  0
   -0.1553   -1.1668   -1.4424 C   0  0  0  0  0  0  0  0  0  0  0  0
    0.8202   -0.3702   -2.3042 C   0  0  0  0  0  0  0  0  0  0  0  0
    1.2328    0.9277   -1.6214 C   0  0  0  0  0  0  0  0  0  0  0  0
    2.0739    1.7835   -2.4476 N   0  0  0  0  0  0  0  0  0  0  0  0
    3.3766    1.5017   -2.8240 C   0  0  0  0  0  0  0  0  0  0  0  0
    3.8349    2.6625   -3.6694 C   0  0  0  0  0  0  0  0  0  0  0  0
    2.8420    3.5473   -3.7432 C   0  0  0  0  0  0  0  0  0  0  0  0
    1.6741    3.0176   -2.9518 C   0  0  0  0  0  0  0  0  0  0  0  0
    0.6113    3.5518   -2.7781 O   0  0  0  0  0  0  0  0  0  0  0  0
    4.0187    0.5264   -2.5255 O   0  0  0  0  0  0  0  0  0  0  0  0
   -3.1030    0.2950   -0.8991 O   0  0  0  0  0  0  0  0  0  0  0  0
   -4.0283   -1.2125    3.0315 H   0  0  0  0  0  0  0  0  0  0  0  0
   -0.5708   -2.0520    1.7772 H   0  0  0  0  0  0  0  0  0  0  0  0
    0.3111   -2.2621    3.2718 H   0  0  0  0  0  0  0  0  0  0  0  0
   -1.1683    0.3654    1.3752 H   0  0  0  0  0  0  0  0  0  0  0  0
   -1.4321    3.3479    1.4437 H   0  0  0  0  0  0  0  0  0  0  0  0
   -1.6268    2.1401    0.1391 H   0  0  0  0  0  0  0  0  0  0  0  0
   -0.3849    3.4371    0.0095 H   0  0  0  0  0  0  0  0  0  0  0  0
    2.4953    1.1287    1.7316 H   0  0  0  0  0  0  0  0  0  0  0  0
    4.3916   -1.1278    1.1891 H   0  0  0  0  0  0  0  0  0  0  0  0
    4.8233    0.6083    1.2774 H   0  0  0  0  0  0  0  0  0  0  0  0
    4.0198   -0.0537   -0.1775 H   0  0  0  0  0  0  0  0  0  0  0  0
   -3.3305    1.0954    1.8328 H   0  0  0  0  0  0  0  0  0  0  0  0
   -3.2895   -1.9209   -1.8394 H   0  0  0  0  0  0  0  0  0  0  0  0
   -3.7628   -3.3656   -0.8947 H   0  0  0  0  0  0  0  0  0  0  0  0
   -1.8649   -4.1873   -1.8954 H   0  0  0  0  0  0  0  0  0  0  0  0
   -1.1976   -3.6023   -0.3772 H   0  0  0  0  0  0  0  0  0  0  0  0
   -1.1240   -2.1529   -3.0935 H   0  0  0  0  0  0  0  0  0  0  0  0
    0.2127   -3.0685   -2.3903 H   0  0  0  0  0  0  0  0  0  0  0  0
    0.3321   -1.4384   -0.4915 H   0  0  0  0  0  0  0  0  0  0  0  0
   -1.0155   -0.5223   -1.2055 H   0  0  0  0  0  0  0  0  0  0  0  0
    0.3425   -0.1237   -3.2690 H   0  0  0  0  0  0  0  0  0  0  0  0
    1.7184   -0.9694   -2.5286 H   0  0  0  0  0  0  0  0  0  0  0  0
    1.7582    0.7247   -0.6775 H   0  0  0  0  0  0  0  0  0  0  0  0
    0.3416    1.5233   -1.3837 H   0  0  0  0  0  0  0  0  0  0  0  0
    4.8320    2.6986   -4.1055 H   0  0  0  0  0  0  0  0  0  0  0  0
    2.8023    4.5070   -4.2561 H   0  0  0  0  0  0  0  0  0  0  0  0
  2  1  2  0  0  0  0
  2  3  1  0  0  0  0
  3 33  1  1  0  0  0
  3  4  1  0  0  0  0
  5 35  1  0  0  0  0
  5  4  1  0  0  0  0
  6  5  1  0  0  0  0
  6  7  1  1  0  0  0
  8  6  1  0  0  0  0
  9  8  1  0  0  0  0
  9 11  2  0  0  0  0
 10  9  1  0  0  0  0
 10 37  1  0  0  0  0
 12  6  1  0  0  0  0
 13 40  1  0  0  0  0
 13 12  1  0  0  0  0
 14 41  1  0  0  0  0
 14 42  1  0  0  0  0
 14 13  1  0  0  0  0
 15 12  2  0  0  0  0
 16 44  1  0  0  0  0
 16  3  1  0  0  0  0
 17 18  1  0  0  0  0
 17 16  1  0  0  0  0
 18  2  1  0  0  0  0
 19 46  1  0  0  0  0
 19 18  1  0  0  0  0
 20 19  1  0  0  0  0
 20 48  1  0  0  0  0
 21 22  1  0  0  0  0
 21 20  1  0  0  0  0
 22 52  1  0  0  0  0
 22 51  1  0  0  0  0
 23 24  1  0  0  0  0
 23 22  1  0  0  0  0
 24 56  1  0  0  0  0
 24 55  1  0  0  0  0
 25 24  1  0  0  0  0
 26 31  2  0  0  0  0
 26 25  1  0  0  0  0
 27 26  1  0  0  0  0
 28 27  2  0  0  0  0
 28 29  1  0  0  0  0
 29 30  2  0  0  0  0
 29 25  1  0  0  0  0
 32 17  2  0  0  0  0
 34  5  1  0  0  0  0
 36  8  1  0  0  0  0
 38 10  1  0  0  0  0
 39 10  1  0  0  0  0
 43 14  1  0  0  0  0
 45 19  1  0  0  0  0
 47 20  1  0  0  0  0
 49 21  1  0  0  0  0
 50 21  1  0  0  0  0
 53 23  1  0  0  0  0
 54 23  1  0  0  0  0
 57 27  1  0  0  0  0
 58 28  1  0  0  0  0
M  END
