-1 1
 OpenBabel05232413483D

 48 48  0  0  1  0  0  0  0  0999 V2000
    3.7599    4.2475   -4.7527 C   0  0  0  0  0  0  0  0  0  0  0  0
    4.5721    3.0144   -4.3485 C   0  0  0  0  0  0  0  0  0  0  0  0
    3.9498    2.2584   -3.1984 C   0  0  0  0  0  0  0  0  0  0  0  0
    4.2524    2.5813   -1.8726 C   0  0  0  0  0  0  0  0  0  0  0  0
    3.6493    1.9219   -0.8053 C   0  0  0  0  0  0  0  0  0  0  0  0
    2.7005    0.9202   -1.0443 C   0  0  0  0  0  0  0  0  0  0  0  0
    2.0766    0.2474    0.0249 N   0  0  0  0  0  0  0  0  0  0  0  0
    1.6994    0.8381    1.2523 C   0  0  0  0  0  0  0  0  0  0  0  0
    0.9916   -0.2354    2.0083 C   0  0  0  0  0  0  0  0  0  0  0  0
   -1.3527    1.0761    0.9560 S   0  0  0  0  0  1  0  0  0  0  0  0
   -1.8972   -0.5610    0.3975 C   0  0  0  0  0  0  0  0  0  0  0  0
   -2.8076   -1.3335    1.3817 C   0  0  2  0  0  0  0  0  0  0  0  0
   -2.3179   -1.3074    2.3693 H   0  0  0  0  0  0  0  0  0  0  0  0
   -2.9981   -2.7130    0.9900 N   0  0  0  0  0  0  0  0  0  0  0  0
   -2.1905   -3.7269    1.3644 C   0  0  0  0  0  0  0  0  0  0  0  0
   -2.6259   -5.1043    0.8904 C   0  0  0  0  0  0  0  0  0  0  0  0
   -1.1646   -3.5835    2.0112 O   0  0  0  0  0  0  0  0  0  0  0  0
   -4.2177   -0.7303    1.4943 C   0  0  0  0  0  0  0  0  0  0  0  0
   -4.2546    0.5379    1.9399 N   0  0  0  0  0  0  0  0  0  0  0  0
   -5.4719    1.3036    1.9591 C   0  0  0  0  0  0  0  0  0  0  0  0
   -5.2123   -1.3844    1.1900 O   0  0  0  0  0  0  0  0  0  0  0  0
    1.0909   -1.3950    1.3325 C   0  0  0  0  0  0  0  0  0  0  0  0
    1.7357   -1.1269    0.0307 C   0  0  0  0  0  0  0  0  0  0  0  0
    1.9599   -1.8945   -0.8764 O   0  0  0  0  0  0  0  0  0  0  0  0
    2.0053    1.9447    1.6192 O   0  0  0  0  0  0  0  0  0  0  0  0
    2.3782    0.5945   -2.3676 C   0  0  0  0  0  0  0  0  0  0  0  0
    3.0043    1.2523   -3.4211 C   0  0  0  0  0  0  0  0  0  0  0  0
    4.2305    4.7839   -5.5921 H   0  0  0  0  0  0  0  0  0  0  0  0
    3.6654    4.9465   -3.9076 H   0  0  0  0  0  0  0  0  0  0  0  0
    2.7410    3.9614   -5.0556 H   0  0  0  0  0  0  0  0  0  0  0  0
    5.5944    3.3241   -4.0745 H   0  0  0  0  0  0  0  0  0  0  0  0
    4.6741    2.3430   -5.2172 H   0  0  0  0  0  0  0  0  0  0  0  0
    4.9862    3.3662   -1.6641 H   0  0  0  0  0  0  0  0  0  0  0  0
    3.8921    2.1933    0.2203 H   0  0  0  0  0  0  0  0  0  0  0  0
    0.5899   -0.0541    3.0007 H   0  0  0  0  0  0  0  0  0  0  0  0
   -1.0068   -1.2018    0.2523 H   0  0  0  0  0  0  0  0  0  0  0  0
   -2.4012   -0.5027   -0.5821 H   0  0  0  0  0  0  0  0  0  0  0  0
   -3.9310   -2.9032    0.6336 H   0  0  0  0  0  0  0  0  0  0  0  0
   -3.6530   -5.1310    0.5005 H   0  0  0  0  0  0  0  0  0  0  0  0
   -2.5281   -5.8102    1.7261 H   0  0  0  0  0  0  0  0  0  0  0  0
   -1.9364   -5.4313    0.0980 H   0  0  0  0  0  0  0  0  0  0  0  0
   -3.3427    1.0295    1.9244 H   0  0  0  0  0  0  0  0  0  0  0  0
   -6.3251    0.6131    1.9371 H   0  0  0  0  0  0  0  0  0  0  0  0
   -5.5471    1.9762    1.0871 H   0  0  0  0  0  0  0  0  0  0  0  0
   -5.5276    1.9174    2.8714 H   0  0  0  0  0  0  0  0  0  0  0  0
    0.6811   -2.3683    1.5996 H   0  0  0  0  0  0  0  0  0  0  0  0
    1.6443   -0.1853   -2.5625 H   0  0  0  0  0  0  0  0  0  0  0  0
    2.7414    0.9786   -4.4475 H   0  0  0  0  0  0  0  0  0  0  0  0
  1  2  1  0  0  0  0
  1 29  1  0  0  0  0
  2 31  1  0  0  0  0
  2  3  1  0  0  0  0
  3  4  1  0  0  0  0
  4 33  1  0  0  0  0
  4  5  2  0  0  0  0
  5 34  1  0  0  0  0
  6  5  1  0  0  0  0
  6  7  1  0  0  0  0
  7 23  1  0  0  0  0
  7  8  1  0  0  0  0
  8 25  2  0  0  0  0
  8  9  1  0  0  0  0
  9 35  1  0  0  0  0
 11 10  1  0  0  0  0
 11 12  1  0  0  0  0
 12 18  1  0  0  0  0
 12 13  1  1  0  0  0
 14 15  1  0  0  0  0
 14 12  1  0  0  0  0
 15 17  2  0  0  0  0
 16 15  1  0  0  0  0
 16 40  1  0  0  0  0
 18 19  1  0  0  0  0
 19 20  1  0  0  0  0
 20 45  1  0  0  0  0
 21 18  2  0  0  0  0
 22 46  1  0  0  0  0
 22  9  2  0  0  0  0
 23 22  1  0  0  0  0
 24 23  2  0  0  0  0
 26  6  2  0  0  0  0
 27  3  2  0  0  0  0
 27 26  1  0  0  0  0
 28  1  1  0  0  0  0
 30  1  1  0  0  0  0
 32  2  1  0  0  0  0
 36 11  1  0  0  0  0
 37 11  1  0  0  0  0
 38 14  1  0  0  0  0
 39 16  1  0  0  0  0
 41 16  1  0  0  0  0
 42 19  1  0  0  0  0
 43 20  1  0  0  0  0
 44 20  1  0  0  0  0
 47 26  1  0  0  0  0
 48 27  1  0  0  0  0
M  END
