-1 1
 OpenBabel05232414493D

 48 49  0  0  1  0  0  0  0  0999 V2000
   11.3934   -7.6919  -12.9953 C   0  0  0  0  0  0  0  0  0  0  0  0
   12.2444   -8.7014  -12.2203 C   0  0  0  0  0  0  0  0  0  0  0  0
   11.4785   -9.3844  -11.1119 C   0  0  0  0  0  0  0  0  0  0  0  0
   11.4311   -8.8476   -9.8231 C   0  0  0  0  0  0  0  0  0  0  0  0
   10.6906   -9.4444   -8.8059 C   0  0  0  0  0  0  0  0  0  0  0  0
    9.9488  -10.6096   -9.0578 C   0  0  0  0  0  0  0  0  0  0  0  0
    9.1827  -11.2206   -8.0518 N   0  0  0  0  0  0  0  0  0  0  0  0
    8.6350  -10.5783   -6.9534 C   0  0  0  0  0  0  0  0  0  0  0  0
    7.7721  -11.5986   -6.2480 C   0  0  1  0  0  0  0  0  0  0  0  0
    5.8481  -10.8129   -6.8497 S   0  0  0  0  0  0  0  0  0  0  0  0
    5.1773  -12.3566   -7.4916 C   0  0  0  0  0  0  0  0  0  0  0  0
    4.3428  -13.1910   -6.4949 C   0  0  2  0  0  0  0  0  0  0  0  0
    4.9271  -13.2767   -5.5644 H   0  0  0  0  0  0  0  0  0  0  0  0
    4.0889  -14.5215   -6.9916 N   0  0  0  0  0  0  0  0  0  0  0  0
    4.8671  -15.5864   -6.6744 C   0  0  0  0  0  0  0  0  0  0  0  0
    4.4024  -16.9125   -7.2516 C   0  0  0  0  0  0  0  0  0  0  0  0
    5.8835  -15.5045   -6.0097 O   0  0  0  0  0  0  0  0  0  0  0  0
    2.9750  -12.5623   -6.1926 C   0  0  0  0  0  0  0  0  0  0  0  0
    3.0247  -11.3824   -5.5384 N   0  0  0  0  0  0  0  0  0  0  0  0
    1.8513  -10.5808   -5.3080 C   0  0  0  0  0  0  0  0  0  0  0  0
    1.9342  -13.1096   -6.5353 O   0  0  0  0  0  0  0  0  0  0  0  0
    8.0996  -12.8529   -6.8086 C   0  0  0  0  0  3  0  0  0  0  0  0
    8.9037  -12.6681   -7.9644 C   0  0  0  0  0  0  0  0  0  0  0  0
    9.3747  -13.4513   -8.7705 O   0  0  0  0  0  0  0  0  0  0  0  0
    8.8103   -9.4258   -6.6183 O   0  0  0  0  0  0  0  0  0  0  0  0
    9.9827  -11.1534  -10.3529 C   0  0  0  0  0  0  0  0  0  0  0  0
   10.7405  -10.5488  -11.3496 C   0  0  0  0  0  0  0  0  0  0  0  0
   11.9708   -7.2058  -13.7983 H   0  0  0  0  0  0  0  0  0  0  0  0
   11.0113   -6.9078  -12.3235 H   0  0  0  0  0  0  0  0  0  0  0  0
   10.5211   -8.1860  -13.4505 H   0  0  0  0  0  0  0  0  0  0  0  0
   13.1238   -8.1874  -11.7973 H   0  0  0  0  0  0  0  0  0  0  0  0
   12.6360   -9.4598  -12.9188 H   0  0  0  0  0  0  0  0  0  0  0  0
   11.9958   -7.9366   -9.5989 H   0  0  0  0  0  0  0  0  0  0  0  0
   10.6620   -9.0022   -7.8127 H   0  0  0  0  0  0  0  0  0  0  0  0
    7.6458  -11.4410   -5.1753 H   0  0  0  0  0  0  0  0  0  0  0  0
    6.0567  -12.9700   -7.7731 H   0  0  0  0  0  0  0  0  0  0  0  0
    4.5944  -12.1639   -8.4053 H   0  0  0  0  0  0  0  0  0  0  0  0
    3.1513  -14.6581   -7.3556 H   0  0  0  0  0  0  0  0  0  0  0  0
    3.3511  -16.9051   -7.5725 H   0  0  0  0  0  0  0  0  0  0  0  0
    4.5570  -17.6969   -6.4994 H   0  0  0  0  0  0  0  0  0  0  0  0
    5.0345  -17.1528   -8.1196 H   0  0  0  0  0  0  0  0  0  0  0  0
    3.9491  -10.9425   -5.4888 H   0  0  0  0  0  0  0  0  0  0  0  0
    0.9661  -11.2125   -5.4544 H   0  0  0  0  0  0  0  0  0  0  0  0
    1.7929   -9.7300   -6.0078 H   0  0  0  0  0  0  0  0  0  0  0  0
    1.8452  -10.1853   -4.2806 H   0  0  0  0  0  0  0  0  0  0  0  0
    7.7786  -13.8323   -6.4602 H   0  0  0  0  0  0  0  0  0  0  0  0
    9.4308  -12.0685  -10.5550 H   0  0  0  0  0  0  0  0  0  0  0  0
   10.7538  -10.9989  -12.3476 H   0  0  0  0  0  0  0  0  0  0  0  0
  1 29  1  0  0  0  0
  1  2  1  0  0  0  0
  2 31  1  0  0  0  0
  2  3  1  0  0  0  0
  3  4  1  0  0  0  0
  4 33  1  0  0  0  0
  4  5  2  0  0  0  0
  5 34  1  0  0  0  0
  6  5  1  0  0  0  0
  6  7  1  0  0  0  0
  7 23  1  0  0  0  0
  7  8  1  0  0  0  0
  8 25  2  0  0  0  0
  8  9  1  0  0  0  0
  9 35  1  1  0  0  0
 10  9  1  0  0  0  0
 11 10  1  0  0  0  0
 11 12  1  0  0  0  0
 12 18  1  0  0  0  0
 12 13  1  1  0  0  0
 14 15  1  0  0  0  0
 14 12  1  0  0  0  0
 15 17  2  0  0  0  0
 16 15  1  0  0  0  0
 16 40  1  0  0  0  0
 18 19  1  0  0  0  0
 19 42  1  0  0  0  0
 19 20  1  0  0  0  0
 20 45  1  0  0  0  0
 21 18  2  0  0  0  0
 22 46  1  0  0  0  0
 22  9  1  0  0  0  0
 23 22  1  0  0  0  0
 24 23  2  0  0  0  0
 26  6  2  0  0  0  0
 27  3  2  0  0  0  0
 27 26  1  0  0  0  0
 28  1  1  0  0  0  0
 30  1  1  0  0  0  0
 32  2  1  0  0  0  0
 36 11  1  0  0  0  0
 37 11  1  0  0  0  0
 38 14  1  0  0  0  0
 39 16  1  0  0  0  0
 41 16  1  0  0  0  0
 43 20  1  0  0  0  0
 44 20  1  0  0  0  0
 47 26  1  0  0  0  0
 48 27  1  0  0  0  0
M  END
