-1 1
 OpenBabel05192410563D

 51 52  0  0  1  0  0  0  0  0999 V2000
   -3.4579   -2.8215   -1.7661 C   0  0  0  0  0  0  0  0  0  0  0  0
   -4.1591   -1.4779   -1.5243 C   0  0  0  0  0  0  0  0  0  0  0  0
   -3.1300   -0.4071   -1.2163 C   0  0  0  0  0  0  0  0  0  0  0  0
   -2.9586    0.0648    0.0861 C   0  0  0  0  0  0  0  0  0  0  0  0
   -1.9211    0.9242    0.4270 C   0  0  0  0  0  0  0  0  0  0  0  0
   -1.0082    1.3536   -0.5498 C   0  0  0  0  0  0  0  0  0  0  0  0
    0.1320    2.1000   -0.1895 N   0  0  0  0  0  0  0  0  0  0  0  0
    0.2867    2.7424    1.0247 C   0  0  0  0  0  0  0  0  0  0  0  0
    1.7811    2.8630    1.2690 C   0  0  1  0  0  0  0  0  0  0  0  0
    2.1485    1.4813    2.5977 S   0  0  0  0  0  0  0  0  0  0  0  0
    2.6662    0.0976    1.5480 C   0  0  0  0  0  0  0  0  0  0  0  0
    1.5629   -0.7042    0.8457 C   0  0  2  0  0  0  0  0  0  0  0  0
    0.9881   -0.0516    0.1801 H   0  0  0  0  0  0  0  0  0  0  0  0
    0.6645   -1.2961    1.8053 N   0  0  0  0  0  0  0  0  0  0  0  0
   -0.3968   -2.0461    1.4116 C   0  0  0  0  0  0  0  0  0  0  0  0
   -1.3979   -2.3732    2.5031 C   0  0  0  0  0  0  0  0  0  0  0  0
   -0.5550   -2.4179    0.2632 O   0  0  0  0  0  0  0  0  0  0  0  0
    2.2579   -1.7514   -0.0360 C   0  0  0  0  0  0  0  0  0  0  0  0
    2.4302   -1.3216   -1.3078 N   0  0  0  0  0  0  0  0  0  0  0  0
    3.1226   -2.1086   -2.2898 C   0  0  0  0  0  0  0  0  0  0  0  0
    2.6857   -2.8021    0.4090 O   0  0  0  0  0  0  0  0  0  0  0  0
    2.3786    2.6305   -0.0403 C   0  0  0  0  0  3  0  0  0  0  0  0
    1.4506    2.0219   -0.8753 C   0  0  0  0  0  0  0  0  0  0  0  0
    1.5562    1.4442   -1.9672 O   0  0  0  0  0  0  0  0  0  0  0  0
   -0.5932    3.1109    1.7734 O   0  0  0  0  0  0  0  0  0  0  0  0
   -1.2152    0.9492   -1.8770 C   0  0  0  0  0  0  0  0  0  0  0  0
   -2.2497    0.0730   -2.1892 C   0  0  0  0  0  0  0  0  0  0  0  0
   -5.0878   -1.1064   -2.6831 C   0  0  0  0  0  0  0  0  0  0  0  0
   -2.7441   -3.0395   -0.9577 H   0  0  0  0  0  0  0  0  0  0  0  0
   -2.8784   -2.7889   -2.7032 H   0  0  0  0  0  0  0  0  0  0  0  0
   -4.1881   -3.6442   -1.8472 H   0  0  0  0  0  0  0  0  0  0  0  0
   -4.7852   -1.5874   -0.6213 H   0  0  0  0  0  0  0  0  0  0  0  0
   -3.6438   -0.2729    0.8706 H   0  0  0  0  0  0  0  0  0  0  0  0
   -1.8064    1.2633    1.4547 H   0  0  0  0  0  0  0  0  0  0  0  0
    2.0293    3.7719    1.8322 H   0  0  0  0  0  0  0  0  0  0  0  0
    3.2436   -0.5804    2.1955 H   0  0  0  0  0  0  0  0  0  0  0  0
    3.3385    0.4961    0.7758 H   0  0  0  0  0  0  0  0  0  0  0  0
    0.6478   -0.8648    2.7222 H   0  0  0  0  0  0  0  0  0  0  0  0
   -1.7876   -3.3847    2.3327 H   0  0  0  0  0  0  0  0  0  0  0  0
   -2.2363   -1.6653    2.4210 H   0  0  0  0  0  0  0  0  0  0  0  0
   -0.9740   -2.3046    3.5149 H   0  0  0  0  0  0  0  0  0  0  0  0
    2.0441   -0.4137   -1.5931 H   0  0  0  0  0  0  0  0  0  0  0  0
    3.5612   -2.9793   -1.7846 H   0  0  0  0  0  0  0  0  0  0  0  0
    3.9246   -1.5260   -2.7713 H   0  0  0  0  0  0  0  0  0  0  0  0
    2.4393   -2.4696   -3.0772 H   0  0  0  0  0  0  0  0  0  0  0  0
    3.4374    2.6860   -0.2829 H   0  0  0  0  0  0  0  0  0  0  0  0
   -0.5147    1.2791   -2.6399 H   0  0  0  0  0  0  0  0  0  0  0  0
   -2.3492   -0.2617   -3.2261 H   0  0  0  0  0  0  0  0  0  0  0  0
   -4.5262   -0.9977   -3.6249 H   0  0  0  0  0  0  0  0  0  0  0  0
   -5.6048   -0.1538   -2.4908 H   0  0  0  0  0  0  0  0  0  0  0  0
   -5.8492   -1.8875   -2.8423 H   0  0  0  0  0  0  0  0  0  0  0  0
  1  2  1  0  0  0  0
  1 29  1  0  0  0  0
  2  3  1  0  0  0  0
  2 32  1  0  0  0  0
  3  4  1  0  0  0  0
  4  5  2  0  0  0  0
  4 33  1  0  0  0  0
  5 34  1  0  0  0  0
  6  7  1  0  0  0  0
  6  5  1  0  0  0  0
  7  8  1  0  0  0  0
  8  9  1  0  0  0  0
  8 25  2  0  0  0  0
  9 35  1  1  0  0  0
  9 10  1  0  0  0  0
 11 36  1  0  0  0  0
 11 10  1  0  0  0  0
 12 13  1  6  0  0  0
 12 11  1  0  0  0  0
 12 14  1  0  0  0  0
 14 38  1  0  0  0  0
 15 14  1  0  0  0  0
 15 16  1  0  0  0  0
 16 41  1  0  0  0  0
 17 15  2  0  0  0  0
 18 21  2  0  0  0  0
 18 12  1  0  0  0  0
 19 18  1  0  0  0  0
 20 43  1  0  0  0  0
 20 19  1  0  0  0  0
 22  9  1  0  0  0  0
 23  7  1  0  0  0  0
 23 22  1  0  0  0  0
 24 23  2  0  0  0  0
 26  6  2  0  0  0  0
 27 26  1  0  0  0  0
 27  3  2  0  0  0  0
 28 50  1  0  0  0  0
 28  2  1  0  0  0  0
 30  1  1  0  0  0  0
 31  1  1  0  0  0  0
 37 11  1  0  0  0  0
 39 16  1  0  0  0  0
 40 16  1  0  0  0  0
 42 19  1  0  0  0  0
 44 20  1  0  0  0  0
 45 20  1  0  0  0  0
 46 22  1  0  0  0  0
 47 26  1  0  0  0  0
 48 27  1  0  0  0  0
 49 28  1  0  0  0  0
 51 28  1  0  0  0  0
M  END
