51
-1 1
C        -3.525751   -2.718792   -1.727175
C        -4.112756   -1.396976   -1.216875
C        -3.024336   -0.357945   -1.020121
C        -2.739619    0.152245    0.248777
C        -1.676345    1.019873    0.468618
C        -0.878808    1.426933   -0.606496
N         0.261204    2.227178   -0.366055
C         0.388282    3.108032    0.747380
C         1.847622    3.379594    0.861245
S         1.419096    1.254437    2.639201
C         2.295057    0.120445    1.538311
C         1.408827   -0.842351    0.719742
H         0.858188   -0.282693   -0.050748
N         0.453483   -1.493818    1.575544
C        -0.509060   -2.293504    1.069378
C        -1.573681   -2.747100    2.050858
O        -0.528580   -2.658243   -0.096900
C         2.314824   -1.845212   -0.000686
N         2.675490   -1.427241   -1.243081
C         3.576391   -2.177244   -2.071569
O         2.733986   -2.861505    0.521937
C         2.472864    2.864068   -0.220424
C         1.505136    2.068336   -0.989768
O         1.716765    1.363216   -1.963300
O        -0.533158    3.640466    1.312722
C        -1.182313    0.972330   -1.893681
C        -2.234368    0.081976   -2.085717
C        -5.240291   -0.889790   -2.121594
H        -2.666242   -3.029769   -1.113821
H        -3.161707   -2.608767   -2.761931
H        -4.289793   -3.513861   -1.725809
H        -4.549679   -1.589641   -0.221227
H        -3.343203   -0.167333    1.103538
H        -1.433794    1.360620    1.474446
H         2.238575    4.040703    1.629972
H         3.015986   -0.481245    2.114950
H         2.889614    0.709163    0.810835
H         0.314435   -1.028720    2.470296
H        -1.489005   -3.835698    2.181626
H        -2.558441   -2.538457    1.609949
H        -1.501758   -2.259695    3.032970
H         2.266784   -0.568884   -1.607986
H         3.942468   -3.027898   -1.481366
H         4.436157   -1.565309   -2.391866
H         3.075430   -2.567765   -2.973837
H         3.525996    2.905185   -0.488812
H        -0.560123    1.278820   -2.732357
H        -2.423758   -0.293728   -3.095175
H        -4.864415   -0.673929   -3.134936
H        -5.683496    0.036842   -1.725903
H        -6.039392   -1.643210   -2.216237
