-1 1
 OpenBabel05232413483D

 63 63  0  0  1  0  0  0  0  0999 V2000
    5.2205    2.3687    8.3160 C   0  0  0  0  0  0  0  0  0  0  0  0
    4.5533    1.8332    7.0537 C   0  0  0  0  0  0  0  0  0  0  0  0
    4.1938    2.9296    6.0529 C   0  0  0  0  0  0  0  0  0  0  0  0
    3.6107    2.4201    4.7322 C   0  0  0  0  0  0  0  0  0  0  0  0
    2.3486    1.5622    4.8474 C   0  0  0  0  0  0  0  0  0  0  0  0
    1.1856    2.2452    5.5617 C   0  0  0  0  0  0  0  0  0  0  0  0
   -0.1064    1.4150    5.5682 C   0  0  0  0  0  0  0  0  0  0  0  0
   -0.6590    1.1501    4.1877 C   0  0  0  0  0  0  0  0  0  0  0  0
   -1.2982    2.1645    3.4676 C   0  0  0  0  0  0  0  0  0  0  0  0
   -1.7725    1.9553    2.1767 C   0  0  0  0  0  0  0  0  0  0  0  0
   -1.6003    0.7102    1.5578 C   0  0  0  0  0  0  0  0  0  0  0  0
   -2.0613    0.4881    0.2454 N   0  0  0  0  0  0  0  0  0  0  0  0
   -2.6073   -0.7287   -0.2292 C   0  0  0  0  0  0  0  0  0  0  0  0
   -2.7775   -1.7165    0.4474 O   0  0  0  0  0  0  0  0  0  0  0  0
   -2.9149   -0.5221   -1.6594 C   0  0  0  0  0  0  0  0  0  0  0  0
   -2.5008    0.7084   -2.0135 C   0  0  0  0  0  0  0  0  0  0  0  0
    0.3382    0.4614   -2.4780 S   0  0  0  0  0  1  0  0  0  0  0  0
    0.0447   -1.3123   -2.7133 C   0  0  0  0  0  0  0  0  0  0  0  0
   -0.2006   -1.7597   -4.1740 C   0  0  2  0  0  0  0  0  0  0  0  0
   -0.9662   -1.0886   -4.5972 H   0  0  0  0  0  0  0  0  0  0  0  0
   -0.6743   -3.1237   -4.2612 N   0  0  0  0  0  0  0  0  0  0  0  0
   -1.9751   -3.4792   -4.2182 C   0  0  0  0  0  0  0  0  0  0  0  0
   -2.2424   -4.9649   -4.3987 C   0  0  0  0  0  0  0  0  0  0  0  0
   -2.8933   -2.6978   -4.0242 O   0  0  0  0  0  0  0  0  0  0  0  0
    1.0685   -1.6985   -5.0402 C   0  0  0  0  0  0  0  0  0  0  0  0
    1.6106   -0.4736   -5.1602 N   0  0  0  0  0  0  0  0  0  0  0  0
    2.8796   -0.2618   -5.8031 C   0  0  0  0  0  0  0  0  0  0  0  0
    1.5263   -2.7105   -5.5652 O   0  0  0  0  0  0  0  0  0  0  0  0
   -2.0315    1.4388   -0.8008 C   0  0  0  0  0  0  0  0  0  0  0  0
   -1.7848    2.6116   -0.6731 O   0  0  0  0  0  0  0  0  0  0  0  0
   -0.9572   -0.3130    2.2637 C   0  0  0  0  0  0  0  0  0  0  0  0
   -0.5050   -0.0896    3.5609 C   0  0  0  0  0  0  0  0  0  0  0  0
    5.4630    1.5604    9.0228 H   0  0  0  0  0  0  0  0  0  0  0  0
    4.5635    3.0830    8.8382 H   0  0  0  0  0  0  0  0  0  0  0  0
    6.1574    2.8978    8.0779 H   0  0  0  0  0  0  0  0  0  0  0  0
    3.6440    1.2746    7.3330 H   0  0  0  0  0  0  0  0  0  0  0  0
    5.2177    1.0995    6.5639 H   0  0  0  0  0  0  0  0  0  0  0  0
    5.0990    3.5229    5.8333 H   0  0  0  0  0  0  0  0  0  0  0  0
    3.4884    3.6337    6.5292 H   0  0  0  0  0  0  0  0  0  0  0  0
    4.3839    1.8381    4.2013 H   0  0  0  0  0  0  0  0  0  0  0  0
    3.3914    3.2872    4.0860 H   0  0  0  0  0  0  0  0  0  0  0  0
    2.5807    0.6122    5.3617 H   0  0  0  0  0  0  0  0  0  0  0  0
    2.0277    1.2784    3.8323 H   0  0  0  0  0  0  0  0  0  0  0  0
    0.9859    3.2188    5.0792 H   0  0  0  0  0  0  0  0  0  0  0  0
    1.4631    2.4707    6.6063 H   0  0  0  0  0  0  0  0  0  0  0  0
   -0.8633    1.9421    6.1729 H   0  0  0  0  0  0  0  0  0  0  0  0
    0.0853    0.4552    6.0772 H   0  0  0  0  0  0  0  0  0  0  0  0
   -1.4358    3.1476    3.9289 H   0  0  0  0  0  0  0  0  0  0  0  0
   -2.2580    2.7606    1.6288 H   0  0  0  0  0  0  0  0  0  0  0  0
   -3.3066   -1.3116   -2.2995 H   0  0  0  0  0  0  0  0  0  0  0  0
   -2.5763    1.2051   -2.9761 H   0  0  0  0  0  0  0  0  0  0  0  0
   -0.8688   -1.5983   -2.1583 H   0  0  0  0  0  0  0  0  0  0  0  0
    0.8666   -1.9141   -2.2898 H   0  0  0  0  0  0  0  0  0  0  0  0
    0.0238   -3.7694   -4.6202 H   0  0  0  0  0  0  0  0  0  0  0  0
   -2.5664   -5.3776   -3.4319 H   0  0  0  0  0  0  0  0  0  0  0  0
   -1.3682   -5.5299   -4.7512 H   0  0  0  0  0  0  0  0  0  0  0  0
   -3.0733   -5.0885   -5.1062 H   0  0  0  0  0  0  0  0  0  0  0  0
    1.2614    0.2239   -4.4785 H   0  0  0  0  0  0  0  0  0  0  0  0
    3.0939   -1.1194   -6.4541 H   0  0  0  0  0  0  0  0  0  0  0  0
    3.6999   -0.1684   -5.0706 H   0  0  0  0  0  0  0  0  0  0  0  0
    2.8564    0.6560   -6.4110 H   0  0  0  0  0  0  0  0  0  0  0  0
   -0.8228   -1.2849    1.7926 H   0  0  0  0  0  0  0  0  0  0  0  0
   -0.0042   -0.9027    4.0947 H   0  0  0  0  0  0  0  0  0  0  0  0
  1 34  1  0  0  0  0
  1 33  1  0  0  0  0
  2 36  1  0  0  0  0
  2  1  1  0  0  0  0
  3 39  1  0  0  0  0
  3  2  1  0  0  0  0
  4  5  1  0  0  0  0
  4  3  1  0  0  0  0
  5 42  1  0  0  0  0
  5  6  1  0  0  0  0
  6  7  1  0  0  0  0
  6 45  1  0  0  0  0
  7 47  1  0  0  0  0
  7 46  1  0  0  0  0
  8  7  1  0  0  0  0
  9 48  1  0  0  0  0
  9  8  2  0  0  0  0
 10  9  1  0  0  0  0
 11 10  2  0  0  0  0
 11 31  1  0  0  0  0
 12 11  1  0  0  0  0
 13 12  1  0  0  0  0
 13 14  2  0  0  0  0
 15 13  1  0  0  0  0
 16 15  2  0  0  0  0
 16 29  1  0  0  0  0
 18 17  1  0  0  0  0
 18 53  1  0  0  0  0
 18 52  1  0  0  0  0
 19 20  1  6  0  0  0
 19 18  1  0  0  0  0
 21 22  1  0  0  0  0
 21 19  1  0  0  0  0
 22 24  2  0  0  0  0
 23 22  1  0  0  0  0
 23 55  1  0  0  0  0
 25 19  1  0  0  0  0
 26 25  1  0  0  0  0
 26 58  1  0  0  0  0
 27 26  1  0  0  0  0
 27 60  1  0  0  0  0
 28 25  2  0  0  0  0
 29 30  2  0  0  0  0
 29 12  1  0  0  0  0
 31 32  2  0  0  0  0
 32 63  1  0  0  0  0
 32  8  1  0  0  0  0
 35  1  1  0  0  0  0
 37  2  1  0  0  0  0
 38  3  1  0  0  0  0
 40  4  1  0  0  0  0
 41  4  1  0  0  0  0
 43  5  1  0  0  0  0
 44  6  1  0  0  0  0
 49 10  1  0  0  0  0
 50 15  1  0  0  0  0
 51 16  1  0  0  0  0
 54 21  1  0  0  0  0
 56 23  1  0  0  0  0
 57 23  1  0  0  0  0
 59 27  1  0  0  0  0
 61 27  1  0  0  0  0
 62 31  1  0  0  0  0
M  END
