46
-1 1
C         0.118415    1.758256   -2.471770
O        -0.110681    0.495618   -1.908933
C        -0.674161   -0.460083   -2.677385
C        -1.007106   -1.678496   -2.046722
N        -0.733416   -1.888673   -0.688054
C         0.504813   -1.965262   -0.140466
C         0.308176   -2.296882    1.348620
S         1.166162   -1.015744    2.412136
C         0.184594    0.474109    2.051503
C         1.075554    1.731752    2.012003
H         1.834683    1.641737    2.810020
N         0.311654    2.935083    2.237034
C        -0.109160    3.320381    3.464261
C        -0.843340    4.650368    3.502688
O         0.046881    2.648397    4.468731
C         1.803800    1.937461    0.668050
N         2.496105    0.891774    0.204808
C         3.112186    0.864191   -1.099668
O         1.723646    3.022717    0.090199
C        -1.146661   -2.450860    1.509566
C        -1.811689   -2.248963    0.307842
O        -2.969733   -2.317887   -0.087216
O         1.574473   -1.821930   -0.709677
C        -1.671546   -2.661962   -2.776398
C        -1.977655   -2.480878   -4.125215
C        -1.608392   -1.298401   -4.754026
C        -0.961776   -0.289825   -4.036470
H         0.530372    2.393524   -1.678819
H        -0.816908    2.204015   -2.856240
H         0.851105    1.708024   -3.297639
H         0.935400   -3.177521    1.580865
H        -0.562040    0.606427    2.843386
H        -0.346280    0.330801    1.097454
H         0.340494    3.584195    1.455041
H        -1.920831    4.451805    3.603279
H        -0.681663    5.264665    2.605900
H        -0.521835    5.203063    4.395171
H         2.381690   -0.005152    0.684996
H         3.060282    1.868730   -1.536759
H         2.584323    0.138580   -1.735269
H         4.168027    0.562153   -1.020009
H        -1.646104   -2.747645    2.428705
H        -1.960583   -3.572260   -2.251414
H        -2.500361   -3.264858   -4.677440
H        -1.829425   -1.141650   -5.813001
H        -0.696679    0.637185   -4.544264
