-1 1
 OpenBabel05232414493D

 46 46  0  0  1  0  0  0  0  0999 V2000
    4.2539    7.6111   -5.9607 C   0  0  0  0  0  0  0  0  0  0  0  0
    5.6124    7.9186   -6.0375 O   0  0  0  0  0  0  0  0  0  0  0  0
    6.5101    7.0039   -5.5786 C   0  0  0  0  0  0  0  0  0  0  0  0
    7.8598    7.3627   -5.6453 C   0  0  0  0  0  0  0  0  0  0  0  0
    8.8505    6.4946   -5.2056 C   0  0  0  0  0  0  0  0  0  0  0  0
    8.5138    5.2415   -4.6691 C   0  0  0  0  0  0  0  0  0  0  0  0
    9.4960    4.3746   -4.1581 N   0  0  0  0  0  0  0  0  0  0  0  0
   10.6513    4.7761   -3.4770 C   0  0  0  0  0  0  0  0  0  0  0  0
   11.1176    3.5568   -2.7308 C   0  0  0  0  0  3  0  0  0  0  0  0
   10.2191    4.3458   -0.6620 S   0  0  0  0  0  1  0  0  0  0  0  0
    8.5188    4.0568   -1.1894 C   0  0  0  0  0  0  0  0  0  0  0  0
    7.4841    3.8894   -0.0621 C   0  0  2  0  0  0  0  0  0  0  0  0
    7.2629    4.8729    0.3895 H   0  0  0  0  0  0  0  0  0  0  0  0
    7.9749    3.0064    0.9546 N   0  0  0  0  0  0  0  0  0  0  0  0
    7.3859    2.9214    2.1713 C   0  0  0  0  0  0  0  0  0  0  0  0
    8.0433    1.9423    3.1282 C   0  0  0  0  0  0  0  0  0  0  0  0
    6.3877    3.5510    2.4732 O   0  0  0  0  0  0  0  0  0  0  0  0
    6.1749    3.3497   -0.6688 C   0  0  0  0  0  0  0  0  0  0  0  0
    5.5629    4.2267   -1.5209 N   0  0  0  0  0  0  0  0  0  0  0  0
    4.4064    3.8568   -2.2927 C   0  0  0  0  0  0  0  0  0  0  0  0
    5.7332    2.2452   -0.4338 O   0  0  0  0  0  0  0  0  0  0  0  0
   10.4364    2.4701   -3.2523 C   0  0  0  0  0  3  0  0  0  0  0  0
    9.3710    2.9324   -4.1007 C   0  0  0  0  0  0  0  0  0  0  0  0
    8.5134    2.3278   -4.7151 O   0  0  0  0  0  0  0  0  0  0  0  0
   11.1624    5.8700   -3.5304 O   0  0  0  0  0  0  0  0  0  0  0  0
    7.1614    4.8876   -4.6015 C   0  0  0  0  0  0  0  0  0  0  0  0
    6.1672    5.7541   -5.0568 C   0  0  0  0  0  0  0  0  0  0  0  0
    3.7075    8.4751   -6.3616 H   0  0  0  0  0  0  0  0  0  0  0  0
    3.9250    7.4369   -4.9196 H   0  0  0  0  0  0  0  0  0  0  0  0
    3.9937    6.7192   -6.5601 H   0  0  0  0  0  0  0  0  0  0  0  0
    8.1179    8.3425   -6.0520 H   0  0  0  0  0  0  0  0  0  0  0  0
    9.8973    6.7898   -5.2432 H   0  0  0  0  0  0  0  0  0  0  0  0
   12.1249    3.5494   -2.3195 H   0  0  0  0  0  0  0  0  0  0  0  0
    8.5148    3.1352   -1.8054 H   0  0  0  0  0  0  0  0  0  0  0  0
    8.1845    4.8809   -1.8372 H   0  0  0  0  0  0  0  0  0  0  0  0
    8.9094    2.6386    0.8033 H   0  0  0  0  0  0  0  0  0  0  0  0
    7.8387    2.2618    4.1575 H   0  0  0  0  0  0  0  0  0  0  0  0
    9.1284    1.8600    2.9703 H   0  0  0  0  0  0  0  0  0  0  0  0
    7.5956    0.9483    2.9765 H   0  0  0  0  0  0  0  0  0  0  0  0
    6.0581    5.0708   -1.7782 H   0  0  0  0  0  0  0  0  0  0  0  0
    4.6675    3.5417   -3.3185 H   0  0  0  0  0  0  0  0  0  0  0  0
    3.6941    4.6940   -2.3526 H   0  0  0  0  0  0  0  0  0  0  0  0
    3.9232    3.0085   -1.7915 H   0  0  0  0  0  0  0  0  0  0  0  0
   10.5872    1.4168   -3.0303 H   0  0  0  0  0  0  0  0  0  0  0  0
    6.8870    3.9118   -4.2031 H   0  0  0  0  0  0  0  0  0  0  0  0
    5.1269    5.4326   -4.9908 H   0  0  0  0  0  0  0  0  0  0  0  0
  1 29  1  0  0  0  0
  2  1  1  0  0  0  0
  2  3  1  0  0  0  0
  3 27  1  0  0  0  0
  4  3  2  0  0  0  0
  4  5  1  0  0  0  0
  5  6  2  0  0  0  0
  6 26  1  0  0  0  0
  6  7  1  0  0  0  0
  7 23  1  0  0  0  0
  7  8  1  0  0  0  0
  8  9  1  0  0  0  0
  9 33  1  0  0  0  0
 11 10  1  0  0  0  0
 11 12  1  0  0  0  0
 12 13  1  1  0  0  0
 12 14  1  0  0  0  0
 14 15  1  0  0  0  0
 15 17  2  0  0  0  0
 15 16  1  0  0  0  0
 16 37  1  0  0  0  0
 18 21  2  0  0  0  0
 18 12  1  0  0  0  0
 19 18  1  0  0  0  0
 20 43  1  0  0  0  0
 20 19  1  0  0  0  0
 22 44  1  0  0  0  0
 22  9  1  0  0  0  0
 23 22  1  0  0  0  0
 24 23  2  0  0  0  0
 25  8  2  0  0  0  0
 26 45  1  0  0  0  0
 27 46  1  0  0  0  0
 27 26  2  0  0  0  0
 28  1  1  0  0  0  0
 30  1  1  0  0  0  0
 31  4  1  0  0  0  0
 32  5  1  0  0  0  0
 34 11  1  0  0  0  0
 35 11  1  0  0  0  0
 36 14  1  0  0  0  0
 38 16  1  0  0  0  0
 39 16  1  0  0  0  0
 40 19  1  0  0  0  0
 41 20  1  0  0  0  0
 42 20  1  0  0  0  0
M  END
