-1 1
 OpenBabel05232414493D

106106  0  0  1  0  0  0  0  0999 V2000
    7.4245   -2.4953   -0.4205 C   0  0  0  0  0  0  0  0  0  0  0  0
    6.2431   -2.6054    0.5200 C   0  0  0  0  0  0  0  0  0  0  0  0
    6.2548   -1.4867    1.3813 O   0  0  0  0  0  0  0  0  0  0  0  0
    5.4024   -1.5186    2.4450 C   0  0  0  0  0  0  0  0  0  0  0  0
    4.9261   -2.5589    2.8464 O   0  0  0  0  0  0  0  0  0  0  0  0
    5.1984   -0.1966    3.0142 C   0  0  0  0  0  3  0  0  0  0  0  0
    5.4345    0.9277    2.3066 C   0  0  0  0  0  2  0  0  0  0  0  0
    4.1648    0.7394    0.1144 S   0  0  0  0  0  1  0  0  0  0  0  0
    5.6480    0.8418   -0.9218 C   0  0  0  0  0  0  0  0  0  0  0  0
    5.7120    2.1298   -1.7365 C   0  0  2  0  0  0  0  0  0  0  0  0
    5.7351    2.9821   -1.0400 H   0  0  0  0  0  0  0  0  0  0  0  0
    4.4917    2.2313   -2.5325 N   0  0  0  0  0  0  0  0  0  0  0  0
    3.9219    3.3983   -2.8780 C   0  0  0  0  0  0  0  0  0  0  0  0
    2.4749    3.3276   -3.3020 C   0  0  0  0  0  0  0  0  0  0  0  0
    4.5201    4.4771   -2.8376 O   0  0  0  0  0  0  0  0  0  0  0  0
    6.9858    2.2336   -2.5939 C   0  0  0  0  0  0  0  0  0  0  0  0
    7.1207    3.4165   -3.2263 N   0  0  0  0  0  0  0  0  0  0  0  0
    8.2641    3.7456   -4.0337 C   0  0  0  0  0  0  0  0  0  0  0  0
    7.8171    1.3331   -2.6650 O   0  0  0  0  0  0  0  0  0  0  0  0
    6.1798    2.0261    2.2397 C   0  0  0  0  0  0  0  0  0  0  0  0
    5.9475    3.1769    1.4612 N   0  0  0  0  0  4  0  0  0  0  0  0
    4.8984    4.0296    1.5296 C   0  0  0  0  0  0  0  0  0  0  0  0
    5.1065    5.3009    0.6945 C   0  0  2  0  0  0  0  0  0  0  0  0
    5.8563    5.1165   -0.0920 H   0  0  0  0  0  0  0  0  0  0  0  0
    5.6180    6.4300    1.6154 C   0  0  0  0  0  0  0  0  0  0  0  0
    6.9054    6.0962    2.3287 C   0  0  0  0  0  0  0  0  0  0  0  0
    8.0973    5.9421    1.6107 C   0  0  0  0  0  0  0  0  0  0  0  0
    9.2805    5.5883    2.2533 C   0  0  0  0  0  0  0  0  0  0  0  0
    9.2966    5.3974    3.6346 C   0  0  0  0  0  0  0  0  0  0  0  0
    8.1172    5.5483    4.3625 C   0  0  0  0  0  0  0  0  0  0  0  0
    6.9315    5.8863    3.7115 C   0  0  0  0  0  0  0  0  0  0  0  0
    3.7878    5.6633    0.0322 C   0  0  0  0  0  0  0  0  0  0  0  0
    3.8308    6.7473   -1.0229 C   0  0  0  0  0  0  0  0  0  0  0  0
    2.4870    6.9414   -1.7678 C   0  0  2  0  0  0  0  0  0  0  0  0
    2.1912    5.9376   -2.1005 H   0  0  0  0  0  0  0  0  0  0  0  0
    2.4881    7.8621   -3.0139 C   0  0  0  0  0  0  0  0  0  0  0  0
    1.1106    7.7322   -3.6816 C   0  0  0  0  0  0  0  0  0  0  0  0
    2.7360    9.3306   -2.6368 C   0  0  0  0  0  0  0  0  0  0  0  0
    3.5643    7.3969   -4.0055 C   0  0  0  0  0  0  0  0  0  0  0  0
    1.5005    7.3760   -0.7820 N   0  0  0  0  0  0  0  0  0  0  0  0
    0.7519    6.6039    0.0651 C   0  0  0  0  0  0  0  0  0  0  0  0
    0.3421    4.9557   -0.5421 S   0  0  0  0  0  0  0  0  0  0  0  0
    0.7218    3.9787    0.9569 C   0  0  0  0  0  0  0  0  0  0  0  0
   -0.3765    3.8715    2.0124 C   0  0  0  0  0  0  0  0  0  0  0  0
    0.0731    2.6621    2.8622 C   0  0  0  0  0  0  0  0  0  0  0  0
    1.0656    1.8599    1.9764 C   0  0  0  0  0  0  0  0  0  0  0  0
    1.0247    2.5260    0.5956 C   0  0  0  0  0  0  0  0  0  0  0  0
    0.3673    7.0120    1.1366 O   0  0  0  0  0  0  0  0  0  0  0  0
    4.8029    7.4353   -1.2296 O   0  0  0  0  0  0  0  0  0  0  0  0
    3.8998    3.8760    2.2110 O   0  0  0  0  0  0  0  0  0  0  0  0
    7.5376    2.0262    2.9363 C   0  0  0  0  0  0  0  0  0  0  0  0
    8.5653    1.1910    2.1704 C   0  0  0  0  0  0  0  0  0  0  0  0
    8.7329    1.6507    0.7276 C   0  0  0  0  0  0  0  0  0  0  0  0
    9.1154    0.6981   -0.1553 N   0  0  0  0  0  0  0  0  0  0  0  0
    8.5527    2.8146    0.3860 O   0  0  0  0  0  0  0  0  0  0  0  0
    7.3800   -1.5622   -1.0016 H   0  0  0  0  0  0  0  0  0  0  0  0
    7.4305   -3.3385   -1.1274 H   0  0  0  0  0  0  0  0  0  0  0  0
    8.3724   -2.5220    0.1420 H   0  0  0  0  0  0  0  0  0  0  0  0
    6.2815   -3.5344    1.1105 H   0  0  0  0  0  0  0  0  0  0  0  0
    5.2932   -2.6056   -0.0423 H   0  0  0  0  0  0  0  0  0  0  0  0
    4.6844   -0.1567    3.9782 H   0  0  0  0  0  0  0  0  0  0  0  0
    5.7092   -0.0149   -1.6142 H   0  0  0  0  0  0  0  0  0  0  0  0
    6.5375    0.7869   -0.2829 H   0  0  0  0  0  0  0  0  0  0  0  0
    3.8486    1.4639   -2.3351 H   0  0  0  0  0  0  0  0  0  0  0  0
    2.1683    2.3189   -3.6085 H   0  0  0  0  0  0  0  0  0  0  0  0
    2.3008    4.0355   -4.1230 H   0  0  0  0  0  0  0  0  0  0  0  0
    1.8496    3.6356   -2.4485 H   0  0  0  0  0  0  0  0  0  0  0  0
    6.3595    4.0898   -3.1076 H   0  0  0  0  0  0  0  0  0  0  0  0
    8.9066    2.8581   -4.0946 H   0  0  0  0  0  0  0  0  0  0  0  0
    8.8455    4.5702   -3.5899 H   0  0  0  0  0  0  0  0  0  0  0  0
    7.9626    4.0411   -5.0515 H   0  0  0  0  0  0  0  0  0  0  0  0
    6.7835    3.4914    0.9687 H   0  0  0  0  0  0  0  0  0  0  0  0
    4.8326    6.6479    2.3565 H   0  0  0  0  0  0  0  0  0  0  0  0
    5.7551    7.3291    0.9972 H   0  0  0  0  0  0  0  0  0  0  0  0
    8.0927    6.0756    0.5257 H   0  0  0  0  0  0  0  0  0  0  0  0
   10.1898    5.4434    1.6668 H   0  0  0  0  0  0  0  0  0  0  0  0
   10.2233    5.1163    4.1405 H   0  0  0  0  0  0  0  0  0  0  0  0
    8.1147    5.3846    5.4429 H   0  0  0  0  0  0  0  0  0  0  0  0
    6.0031    5.9751    4.2816 H   0  0  0  0  0  0  0  0  0  0  0  0
    3.0797    5.9675    0.8197 H   0  0  0  0  0  0  0  0  0  0  0  0
    3.3364    4.7705   -0.4258 H   0  0  0  0  0  0  0  0  0  0  0  0
    0.3010    8.0113   -2.9910 H   0  0  0  0  0  0  0  0  0  0  0  0
    0.9300    6.6968   -4.0128 H   0  0  0  0  0  0  0  0  0  0  0  0
    1.0501    8.3856   -4.5662 H   0  0  0  0  0  0  0  0  0  0  0  0
    1.9235    9.7367   -2.0123 H   0  0  0  0  0  0  0  0  0  0  0  0
    2.7771    9.9492   -3.5473 H   0  0  0  0  0  0  0  0  0  0  0  0
    3.6895    9.4419   -2.1025 H   0  0  0  0  0  0  0  0  0  0  0  0
    4.5726    7.5906   -3.6194 H   0  0  0  0  0  0  0  0  0  0  0  0
    3.4437    7.9322   -4.9611 H   0  0  0  0  0  0  0  0  0  0  0  0
    3.4942    6.3158   -4.1919 H   0  0  0  0  0  0  0  0  0  0  0  0
    1.6710    8.2911   -0.3739 H   0  0  0  0  0  0  0  0  0  0  0  0
    1.6310    4.4090    1.4027 H   0  0  0  0  0  0  0  0  0  0  0  0
   -1.3362    3.6643    1.5103 H   0  0  0  0  0  0  0  0  0  0  0  0
   -0.4951    4.8022    2.5829 H   0  0  0  0  0  0  0  0  0  0  0  0
   -0.7916    2.0563    3.1735 H   0  0  0  0  0  0  0  0  0  0  0  0
    0.5704    3.0002    3.7834 H   0  0  0  0  0  0  0  0  0  0  0  0
    0.8298    0.7880    1.9245 H   0  0  0  0  0  0  0  0  0  0  0  0
    2.0901    1.9504    2.3662 H   0  0  0  0  0  0  0  0  0  0  0  0
    0.2074    2.1137   -0.0246 H   0  0  0  0  0  0  0  0  0  0  0  0
    1.9747    2.3948    0.0566 H   0  0  0  0  0  0  0  0  0  0  0  0
    7.4394    1.6199    3.9528 H   0  0  0  0  0  0  0  0  0  0  0  0
    7.8906    3.0632    3.0262 H   0  0  0  0  0  0  0  0  0  0  0  0
    8.2550    0.1341    2.1824 H   0  0  0  0  0  0  0  0  0  0  0  0
    9.5538    1.2536    2.6591 H   0  0  0  0  0  0  0  0  0  0  0  0
    8.9287    0.9099   -1.1404 H   0  0  0  0  0  0  0  0  0  0  0  0
    8.9845   -0.2680    0.1144 H   0  0  0  0  0  0  0  0  0  0  0  0
  1 58  1  0  0  0  0
  1  2  1  0  0  0  0
  2 59  1  0  0  0  0
  2  3  1  0  0  0  0
  3  4  1  0  0  0  0
  4  5  2  0  0  0  0
  4  6  1  0  0  0  0
  6 61  1  0  0  0  0
  7  6  1  0  0  0  0
  9 63  1  0  0  0  0
  9  8  1  0  0  0  0
 10 11  1  1  0  0  0
 10  9  1  0  0  0  0
 12 64  1  0  0  0  0
 12 10  1  0  0  0  0
 13 15  2  0  0  0  0
 13 12  1  0  0  0  0
 14 13  1  0  0  0  0
 14 67  1  0  0  0  0
 16 10  1  0  0  0  0
 17 68  1  0  0  0  0
 17 16  1  0  0  0  0
 18 70  1  0  0  0  0
 18 17  1  0  0  0  0
 19 16  2  0  0  0  0
 20  7  1  0  0  0  0
 20 51  1  0  0  0  0
 21 22  1  0  0  0  0
 21 20  2  0  0  0  0
 22 50  2  0  0  0  0
 23 24  1  6  0  0  0
 23 22  1  0  0  0  0
 23 25  1  0  0  0  0
 25 26  1  0  0  0  0
 25 73  1  0  0  0  0
 26 31  1  0  0  0  0
 27 28  1  0  0  0  0
 27 26  2  0  0  0  0
 28 29  2  0  0  0  0
 29 77  1  0  0  0  0
 29 30  1  0  0  0  0
 30 78  1  0  0  0  0
 31 79  1  0  0  0  0
 31 30  2  0  0  0  0
 32 23  1  0  0  0  0
 32 80  1  0  0  0  0
 33 32  1  0  0  0  0
 34 35  1  6  0  0  0
 34 33  1  0  0  0  0
 34 40  1  0  0  0  0
 36 38  1  0  0  0  0
 36 34  1  0  0  0  0
 37 36  1  0  0  0  0
 37 82  1  0  0  0  0
 38 87  1  0  0  0  0
 38 85  1  0  0  0  0
 39 88  1  0  0  0  0
 39 36  1  0  0  0  0
 40 91  1  0  0  0  0
 40 41  1  0  0  0  0
 41 48  2  0  0  0  0
 42 41  1  0  0  0  0
 42 43  1  0  0  0  0
 43 92  1  0  0  0  0
 43 44  1  0  0  0  0
 44 94  1  0  0  0  0
 44 45  1  0  0  0  0
 45 95  1  0  0  0  0
 45 96  1  0  0  0  0
 46 98  1  0  0  0  0
 46 45  1  0  0  0  0
 47 43  1  0  0  0  0
 47 46  1  0  0  0  0
 49 33  2  0  0  0  0
 51102  1  0  0  0  0
 51101  1  0  0  0  0
 52103  1  0  0  0  0
 52104  1  0  0  0  0
 52 51  1  0  0  0  0
 53 52  1  0  0  0  0
 54106  1  0  0  0  0
 54 53  1  0  0  0  0
 55 53  2  0  0  0  0
 56  1  1  0  0  0  0
 57  1  1  0  0  0  0
 60  2  1  0  0  0  0
 62  9  1  0  0  0  0
 65 14  1  0  0  0  0
 66 14  1  0  0  0  0
 69 18  1  0  0  0  0
 71 18  1  0  0  0  0
 72 21  1  0  0  0  0
 74 25  1  0  0  0  0
 75 27  1  0  0  0  0
 76 28  1  0  0  0  0
 81 32  1  0  0  0  0
 83 37  1  0  0  0  0
 84 37  1  0  0  0  0
 86 38  1  0  0  0  0
 89 39  1  0  0  0  0
 90 39  1  0  0  0  0
 93 44  1  0  0  0  0
 97 46  1  0  0  0  0
 99 47  1  0  0  0  0
100 47  1  0  0  0  0
105 54  1  0  0  0  0
M  END
