106
-1 1
C         2.527796   -6.177877   -1.078194
C         1.655917   -6.267594    0.160761
O         1.730949   -5.053215    0.861029
C         1.430395   -5.089529    2.255392
O         1.585353   -6.146494    2.851888
C         1.071274   -3.816628    2.729057
C         0.796984   -2.688272    1.875770
S        -0.503052   -2.923600    0.613550
C         0.447614   -2.847843   -0.927302
C         0.390567   -1.518965   -1.672074
H         0.204393   -0.723335   -0.941361
N        -0.721968   -1.493158   -2.612062
C        -1.316768   -0.350358   -3.003155
C        -2.598182   -0.478219   -3.789770
O        -0.859462    0.753745   -2.715340
C         1.747586   -1.201660   -2.332584
N         1.978512    0.115275   -2.500716
C         3.272379    0.601427   -2.914322
O         2.566786   -2.065954   -2.612349
C         1.413578   -1.484852    2.004080
N         1.127584   -0.327172    1.217711
C         0.162322    0.603306    1.410003
C         0.378590    1.875375    0.579249
H         1.088138    1.661341   -0.235568
C         0.974875    2.984996    1.467557
C         2.284595    2.616604    2.122506
C         3.405816    2.293630    1.349603
C         4.602898    1.909790    1.947311
C         4.706540    1.863513    3.336794
C         3.599628    2.186650    4.120118
C         2.397256    2.550677    3.515405
C        -0.945540    2.303308   -0.034153
C        -0.844808    3.250564   -1.209729
C        -2.180988    3.463722   -1.958892
H        -2.456705    2.447846   -2.275984
C        -2.153550    4.349247   -3.229198
C        -3.551566    4.296117   -3.864304
C        -1.796216    5.805478   -2.897973
C        -1.140273    3.778744   -4.233866
N        -3.188991    3.907262   -1.005037
C        -3.984821    3.140594   -0.201925
S        -4.321579    1.470163   -0.804818
C        -4.017976    0.545875    0.743386
C        -5.206973    0.386732    1.689916
C        -4.799621   -0.804970    2.586413
C        -3.638420   -1.521557    1.847232
C        -3.583466   -0.889036    0.452761
O        -4.447016    3.552787    0.836223
O         0.195167    3.769842   -1.545026
O        -0.798811    0.488953    2.153452
C         2.669672   -1.327250    2.840374
C         3.854829   -2.099357    2.232343
C         3.913272   -1.886100    0.729210
N         3.807704   -3.000570   -0.028899
O         4.037235   -0.763589    0.240709
H         2.238676   -5.324013   -1.711262
H         2.442881   -7.096459   -1.679764
H         3.586082   -6.048167   -0.802214
H         1.976117   -7.090903    0.818570
H         0.603594   -6.463245   -0.124729
H         1.133727   -3.665713    3.809019
H         0.116940   -3.675399   -1.576236
H         1.479169   -3.079390   -0.658103
H        -1.132106   -2.379383   -2.875894
H        -2.828269   -1.508266   -4.093273
H        -2.539066    0.163444   -4.679097
H        -3.412896   -0.098122   -3.154474
H         1.183180    0.744076   -2.407485
H         3.527913    0.277853   -3.936574
H         4.037668    0.220153   -2.221247
H         3.265057    1.698444   -2.877642
H         1.929029   -0.024860    0.663985
H         0.234786    3.233638    2.244677
H         1.110374    3.878570    0.838288
H         3.335132    2.309875    0.258844
H         5.445278    1.615394    1.319910
H         5.642681    1.555103    3.808041
H         3.664408    2.134482    5.209561
H         1.523266    2.773463    4.132944
H        -1.582441    2.750834    0.746140
H        -1.500339    1.424639   -0.394413
H        -4.322829    4.679007   -3.180308
H        -3.822603    3.261784   -4.131212
H        -3.576180    4.900661   -4.784641
H        -2.547319    6.271252   -2.238678
H        -1.765913    6.406894   -3.820354
H        -0.811419    5.868451   -2.415112
H        -0.111265    3.898318   -3.874314
H        -1.238892    4.299796   -5.199713
H        -1.312092    2.704000   -4.394543
H        -3.051751    4.831876   -0.606575
H        -3.186671    1.048610    1.260251
H        -6.104504    0.143983    1.097493
H        -5.417572    1.312906    2.240884
H        -5.655526   -1.475513    2.757377
H        -4.469081   -0.458219    3.576367
H        -3.757747   -2.612859    1.805880
H        -2.679458   -1.317877    2.345646
H        -4.301600   -1.370074   -0.237009
H        -2.578024   -0.956038    0.012514
H         2.515937   -1.672232    3.873660
H         2.921511   -0.259853    2.895355
H         3.752112   -3.169470    2.460137
H         4.802760   -1.740219    2.664710
H         3.650888   -2.840567   -1.024478
H         3.350311   -3.819180    0.377233
