-1 1
 OpenBabel05232413483D

106106  0  0  1  0  0  0  0  0999 V2000
    1.2591   -5.8189    0.8255 C   0  0  0  0  0  0  0  0  0  0  0  0
   -0.0171   -5.2376    1.3892 C   0  0  0  0  0  0  0  0  0  0  0  0
    0.3223   -4.0863    2.1704 O   0  0  0  0  0  0  0  0  0  0  0  0
   -0.4540   -3.7569    3.2041 C   0  0  0  0  0  0  0  0  0  0  0  0
   -1.3860   -4.4150    3.5975 O   0  0  0  0  0  0  0  0  0  0  0  0
   -0.0261   -2.4817    3.8474 C   0  0  0  0  0  0  0  0  0  0  0  0
    0.8257   -1.6709    3.2638 C   0  0  0  0  0  0  0  0  0  0  0  0
   -0.7468   -4.0833   -1.9879 S   0  0  0  0  0  1  0  0  0  0  0  0
    0.7254   -3.0428   -1.6795 C   0  0  0  0  0  0  0  0  0  0  0  0
    0.5553   -1.5403   -2.0305 C   0  0  2  0  0  0  0  0  0  0  0  0
    0.2482   -0.9863   -1.1253 H   0  0  0  0  0  0  0  0  0  0  0  0
   -0.4911   -1.3967   -3.0251 N   0  0  0  0  0  0  0  0  0  0  0  0
   -1.1916   -0.2805   -3.2267 C   0  0  0  0  0  0  0  0  0  0  0  0
   -2.4513   -0.4151   -4.0466 C   0  0  0  0  0  0  0  0  0  0  0  0
   -0.8578    0.8285   -2.7800 O   0  0  0  0  0  0  0  0  0  0  0  0
    1.8805   -0.8933   -2.4958 C   0  0  0  0  0  0  0  0  0  0  0  0
    1.8747    0.4542   -2.4758 N   0  0  0  0  0  0  0  0  0  0  0  0
    3.0536    1.2141   -2.8025 C   0  0  0  0  0  0  0  0  0  0  0  0
    2.8745   -1.5336   -2.8232 O   0  0  0  0  0  0  0  0  0  0  0  0
    1.7844   -1.0892    2.5749 C   0  0  0  0  0  0  0  0  0  0  0  0
    1.5819   -0.1022    1.6047 N   0  0  0  0  0  0  0  0  0  0  0  0
    0.4759    0.6875    1.5223 C   0  0  0  0  0  0  0  0  0  0  0  0
    0.6184    1.8740    0.5704 C   0  0  2  0  0  0  0  0  0  0  0  0
    1.2669    1.5752   -0.2685 H   0  0  0  0  0  0  0  0  0  0  0  0
    1.2867    3.0570    1.3123 C   0  0  0  0  0  0  0  0  0  0  0  0
    2.6501    2.7286    1.8673 C   0  0  0  0  0  0  0  0  0  0  0  0
    3.7312    2.5159    1.0042 C   0  0  0  0  0  0  0  0  0  0  0  0
    4.9722    2.1202    1.4957 C   0  0  0  0  0  0  0  0  0  0  0  0
    5.1588    1.9467    2.8666 C   0  0  0  0  0  0  0  0  0  0  0  0
    4.0929    2.1654    3.7387 C   0  0  0  0  0  0  0  0  0  0  0  0
    2.8487    2.5483    3.2402 C   0  0  0  0  0  0  0  0  0  0  0  0
   -0.7598    2.2384    0.0417 C   0  0  0  0  0  0  0  0  0  0  0  0
   -0.8048    3.2186   -1.1095 C   0  0  0  0  0  0  0  0  0  0  0  0
   -2.2028    3.3514   -1.7520 C   0  0  2  0  0  0  0  0  0  0  0  0
   -2.3693    2.3409   -2.1565 H   0  0  0  0  0  0  0  0  0  0  0  0
   -2.3575    4.3462   -2.9282 C   0  0  0  0  0  0  0  0  0  0  0  0
   -3.7903    4.2107   -3.4661 C   0  0  0  0  0  0  0  0  0  0  0  0
   -2.1119    5.7934   -2.4787 C   0  0  0  0  0  0  0  0  0  0  0  0
   -1.3802    3.9710   -4.0540 C   0  0  0  0  0  0  0  0  0  0  0  0
   -3.1931    3.5688   -0.7058 N   0  0  0  0  0  0  0  0  0  0  0  0
   -3.8494    2.6190    0.0303 C   0  0  0  0  0  0  0  0  0  0  0  0
   -4.1289    1.0507   -0.8166 S   0  0  0  0  0  0  0  0  0  0  0  0
   -3.5657   -0.1162    0.4813 C   0  0  0  0  0  0  0  0  0  0  0  0
   -4.6679   -0.9318    1.1685 C   0  0  0  0  0  0  0  0  0  0  0  0
   -3.9464   -2.2037    1.6841 C   0  0  0  0  0  0  0  0  0  0  0  0
   -2.5256   -2.1663    1.0752 C   0  0  0  0  0  0  0  0  0  0  0  0
   -2.6173   -1.1746   -0.0801 C   0  0  0  0  0  0  0  0  0  0  0  0
   -4.2348    2.8275    1.1571 O   0  0  0  0  0  0  0  0  0  0  0  0
    0.1758    3.8042   -1.5117 O   0  0  0  0  0  0  0  0  0  0  0  0
   -0.5214    0.5022    2.1961 O   0  0  0  0  0  0  0  0  0  0  0  0
    3.2252   -1.5150    2.7825 C   0  0  0  0  0  0  0  0  0  0  0  0
    3.6805   -2.5544    1.7581 C   0  0  0  0  0  0  0  0  0  0  0  0
    3.8403   -1.9839    0.3537 C   0  0  0  0  0  0  0  0  0  0  0  0
    3.9625   -2.8845   -0.6400 N   0  0  0  0  0  0  0  0  0  0  0  0
    3.8857   -0.7734    0.1551 O   0  0  0  0  0  0  0  0  0  0  0  0
    1.7555   -5.0847    0.1739 H   0  0  0  0  0  0  0  0  0  0  0  0
    1.0200   -6.6907    0.2006 H   0  0  0  0  0  0  0  0  0  0  0  0
    1.9516   -6.1274    1.6249 H   0  0  0  0  0  0  0  0  0  0  0  0
   -0.5545   -5.9539    2.0270 H   0  0  0  0  0  0  0  0  0  0  0  0
   -0.6718   -4.9153    0.5614 H   0  0  0  0  0  0  0  0  0  0  0  0
   -0.5245   -2.2483    4.7927 H   0  0  0  0  0  0  0  0  0  0  0  0
    1.5732   -3.4246   -2.2654 H   0  0  0  0  0  0  0  0  0  0  0  0
    1.0153   -3.0827   -0.6164 H   0  0  0  0  0  0  0  0  0  0  0  0
   -0.9427   -2.3268   -3.1795 H   0  0  0  0  0  0  0  0  0  0  0  0
   -2.6345   -1.4441   -4.3817 H   0  0  0  0  0  0  0  0  0  0  0  0
   -2.3863    0.2528   -4.9175 H   0  0  0  0  0  0  0  0  0  0  0  0
   -3.2931   -0.0754   -3.4253 H   0  0  0  0  0  0  0  0  0  0  0  0
    0.9532    0.9017   -2.4420 H   0  0  0  0  0  0  0  0  0  0  0  0
    3.8951    0.8661   -2.1848 H   0  0  0  0  0  0  0  0  0  0  0  0
    2.8562    2.2739   -2.5903 H   0  0  0  0  0  0  0  0  0  0  0  0
    3.3408    1.1101   -3.8627 H   0  0  0  0  0  0  0  0  0  0  0  0
    2.3956    0.0886    1.0159 H   0  0  0  0  0  0  0  0  0  0  0  0
    0.6184    3.3768    2.1280 H   0  0  0  0  0  0  0  0  0  0  0  0
    1.3615    3.8872    0.5955 H   0  0  0  0  0  0  0  0  0  0  0  0
    3.5875    2.6278   -0.0737 H   0  0  0  0  0  0  0  0  0  0  0  0
    5.7917    1.9279    0.8006 H   0  0  0  0  0  0  0  0  0  0  0  0
    6.1306    1.6314    3.2535 H   0  0  0  0  0  0  0  0  0  0  0  0
    4.2256    2.0227    4.8139 H   0  0  0  0  0  0  0  0  0  0  0  0
    2.0079    2.6883    3.9249 H   0  0  0  0  0  0  0  0  0  0  0  0
   -1.3809    2.6056    0.8741 H   0  0  0  0  0  0  0  0  0  0  0  0
   -1.2706    1.3339   -0.3203 H   0  0  0  0  0  0  0  0  0  0  0  0
   -4.5372    4.4577   -2.6978 H   0  0  0  0  0  0  0  0  0  0  0  0
   -3.9850    3.1806   -3.8049 H   0  0  0  0  0  0  0  0  0  0  0  0
   -3.9407    4.8848   -4.3241 H   0  0  0  0  0  0  0  0  0  0  0  0
   -2.8419    6.1126   -1.7163 H   0  0  0  0  0  0  0  0  0  0  0  0
   -2.2195    6.4810   -3.3327 H   0  0  0  0  0  0  0  0  0  0  0  0
   -1.0983    5.9123   -2.0705 H   0  0  0  0  0  0  0  0  0  0  0  0
   -0.3418    4.1707   -3.7646 H   0  0  0  0  0  0  0  0  0  0  0  0
   -1.6131    4.5536   -4.9600 H   0  0  0  0  0  0  0  0  0  0  0  0
   -1.4567    2.8998   -4.2931 H   0  0  0  0  0  0  0  0  0  0  0  0
   -3.1081    4.4356   -0.1824 H   0  0  0  0  0  0  0  0  0  0  0  0
   -3.0234    0.4871    1.2241 H   0  0  0  0  0  0  0  0  0  0  0  0
   -5.4398   -1.1956    0.4279 H   0  0  0  0  0  0  0  0  0  0  0  0
   -5.1640   -0.3502    1.9585 H   0  0  0  0  0  0  0  0  0  0  0  0
   -4.4869   -3.1072    1.3652 H   0  0  0  0  0  0  0  0  0  0  0  0
   -3.9014   -2.2371    2.7821 H   0  0  0  0  0  0  0  0  0  0  0  0
   -2.1658   -3.1458    0.7338 H   0  0  0  0  0  0  0  0  0  0  0  0
   -1.8115   -1.7711    1.8123 H   0  0  0  0  0  0  0  0  0  0  0  0
   -3.0406   -1.6592   -0.9767 H   0  0  0  0  0  0  0  0  0  0  0  0
   -1.6422   -0.7603   -0.3673 H   0  0  0  0  0  0  0  0  0  0  0  0
    3.3159   -1.9452    3.7885 H   0  0  0  0  0  0  0  0  0  0  0  0
    3.8747   -0.6269    2.7331 H   0  0  0  0  0  0  0  0  0  0  0  0
    2.9641   -3.3916    1.7397 H   0  0  0  0  0  0  0  0  0  0  0  0
    4.6580   -2.9709    2.0561 H   0  0  0  0  0  0  0  0  0  0  0  0
    3.7781   -2.5263   -1.5864 H   0  0  0  0  0  0  0  0  0  0  0  0
    3.7100   -3.8467   -0.4576 H   0  0  0  0  0  0  0  0  0  0  0  0
  1  2  1  0  0  0  0
  1 58  1  0  0  0  0
  2 59  1  0  0  0  0
  2  3  1  0  0  0  0
  3  4  1  0  0  0  0
  4  5  2  0  0  0  0
  4  6  1  0  0  0  0
  6 61  1  0  0  0  0
  7  6  2  0  0  0  0
  8  9  1  0  0  0  0
  9 63  1  0  0  0  0
 10  9  1  0  0  0  0
 10 11  1  1  0  0  0
 12 10  1  0  0  0  0
 13 12  1  0  0  0  0
 13 15  2  0  0  0  0
 14 67  1  0  0  0  0
 14 13  1  0  0  0  0
 16 17  1  0  0  0  0
 16 10  1  0  0  0  0
 17 68  1  0  0  0  0
 18 70  1  0  0  0  0
 18 17  1  0  0  0  0
 18 69  1  0  0  0  0
 19 16  2  0  0  0  0
 20 51  1  0  0  0  0
 20  7  2  0  0  0  0
 21 20  1  0  0  0  0
 22 21  1  0  0  0  0
 22 50  2  0  0  0  0
 23 24  1  6  0  0  0
 23 25  1  0  0  0  0
 23 22  1  0  0  0  0
 25 26  1  0  0  0  0
 25 73  1  0  0  0  0
 26 31  1  0  0  0  0
 27 28  1  0  0  0  0
 27 26  2  0  0  0  0
 28 29  2  0  0  0  0
 29 77  1  0  0  0  0
 29 30  1  0  0  0  0
 30 78  1  0  0  0  0
 31 30  2  0  0  0  0
 31 79  1  0  0  0  0
 32 23  1  0  0  0  0
 32 80  1  0  0  0  0
 33 32  1  0  0  0  0
 34 35  1  6  0  0  0
 34 33  1  0  0  0  0
 34 40  1  0  0  0  0
 36 38  1  0  0  0  0
 36 34  1  0  0  0  0
 37 36  1  0  0  0  0
 37 82  1  0  0  0  0
 38 87  1  0  0  0  0
 38 85  1  0  0  0  0
 39 88  1  0  0  0  0
 39 36  1  0  0  0  0
 40 91  1  0  0  0  0
 40 41  1  0  0  0  0
 41 48  2  0  0  0  0
 42 41  1  0  0  0  0
 42 43  1  0  0  0  0
 43 44  1  0  0  0  0
 43 92  1  0  0  0  0
 44 45  1  0  0  0  0
 44 94  1  0  0  0  0
 45 96  1  0  0  0  0
 46 45  1  0  0  0  0
 46 98  1  0  0  0  0
 47 43  1  0  0  0  0
 47 46  1  0  0  0  0
 49 33  2  0  0  0  0
 51101  1  0  0  0  0
 52104  1  0  0  0  0
 52 51  1  0  0  0  0
 53 52  1  0  0  0  0
 54106  1  0  0  0  0
 54 53  1  0  0  0  0
 55 53  2  0  0  0  0
 56  1  1  0  0  0  0
 57  1  1  0  0  0  0
 60  2  1  0  0  0  0
 62  9  1  0  0  0  0
 64 12  1  0  0  0  0
 65 14  1  0  0  0  0
 66 14  1  0  0  0  0
 71 18  1  0  0  0  0
 72 21  1  0  0  0  0
 74 25  1  0  0  0  0
 75 27  1  0  0  0  0
 76 28  1  0  0  0  0
 81 32  1  0  0  0  0
 83 37  1  0  0  0  0
 84 37  1  0  0  0  0
 86 38  1  0  0  0  0
 89 39  1  0  0  0  0
 90 39  1  0  0  0  0
 93 44  1  0  0  0  0
 95 45  1  0  0  0  0
 97 46  1  0  0  0  0
 99 47  1  0  0  0  0
100 47  1  0  0  0  0
102 51  1  0  0  0  0
103 52  1  0  0  0  0
105 54  1  0  0  0  0
M  END
