-1 1
 OpenBabel05192410563D

106107  0  0  1  0  0  0  0  0999 V2000
    2.5278   -6.1779   -1.0782 C   0  0  0  0  0  0  0  0  0  0  0  0
    1.6559   -6.2676    0.1608 C   0  0  0  0  0  0  0  0  0  0  0  0
    1.7309   -5.0532    0.8610 O   0  0  0  0  0  0  0  0  0  0  0  0
    1.4304   -5.0895    2.2554 C   0  0  0  0  0  0  0  0  0  0  0  0
    1.5854   -6.1465    2.8519 O   0  0  0  0  0  0  0  0  0  0  0  0
    1.0713   -3.8166    2.7291 C   0  0  0  0  0  3  0  0  0  0  0  0
    0.7970   -2.6883    1.8758 C   0  0  1  0  0  3  0  0  0  0  0  0
   -0.5031   -2.9236    0.6136 S   0  0  0  0  0  0  0  0  0  0  0  0
    0.4476   -2.8478   -0.9273 C   0  0  0  0  0  0  0  0  0  0  0  0
    0.3906   -1.5190   -1.6721 C   0  0  2  0  0  0  0  0  0  0  0  0
    0.2044   -0.7233   -0.9414 H   0  0  0  0  0  0  0  0  0  0  0  0
   -0.7220   -1.4932   -2.6121 N   0  0  0  0  0  0  0  0  0  0  0  0
   -1.3168   -0.3504   -3.0032 C   0  0  0  0  0  0  0  0  0  0  0  0
   -2.5982   -0.4782   -3.7898 C   0  0  0  0  0  0  0  0  0  0  0  0
   -0.8595    0.7537   -2.7153 O   0  0  0  0  0  0  0  0  0  0  0  0
    1.7476   -1.2017   -2.3326 C   0  0  0  0  0  0  0  0  0  0  0  0
    1.9785    0.1153   -2.5007 N   0  0  0  0  0  0  0  0  0  0  0  0
    3.2724    0.6014   -2.9143 C   0  0  0  0  0  0  0  0  0  0  0  0
    2.5668   -2.0660   -2.6123 O   0  0  0  0  0  0  0  0  0  0  0  0
    1.4136   -1.4849    2.0041 C   0  0  0  0  0  0  0  0  0  0  0  0
    1.1276   -0.3272    1.2177 N   0  0  0  0  0  4  0  0  0  0  0  0
    0.1623    0.6033    1.4100 C   0  0  0  0  0  0  0  0  0  0  0  0
    0.3786    1.8754    0.5792 C   0  0  2  0  0  0  0  0  0  0  0  0
    1.0881    1.6613   -0.2356 H   0  0  0  0  0  0  0  0  0  0  0  0
    0.9749    2.9850    1.4676 C   0  0  0  0  0  0  0  0  0  0  0  0
    2.2846    2.6166    2.1225 C   0  0  0  0  0  0  0  0  0  0  0  0
    3.4058    2.2936    1.3496 C   0  0  0  0  0  0  0  0  0  0  0  0
    4.6029    1.9098    1.9473 C   0  0  0  0  0  0  0  0  0  0  0  0
    4.7065    1.8635    3.3368 C   0  0  0  0  0  0  0  0  0  0  0  0
    3.5996    2.1867    4.1201 C   0  0  0  0  0  0  0  0  0  0  0  0
    2.3973    2.5507    3.5154 C   0  0  0  0  0  0  0  0  0  0  0  0
   -0.9455    2.3033   -0.0342 C   0  0  0  0  0  0  0  0  0  0  0  0
   -0.8448    3.2506   -1.2097 C   0  0  0  0  0  0  0  0  0  0  0  0
   -2.1810    3.4637   -1.9589 C   0  0  2  0  0  0  0  0  0  0  0  0
   -2.4567    2.4478   -2.2760 H   0  0  0  0  0  0  0  0  0  0  0  0
   -2.1536    4.3492   -3.2292 C   0  0  0  0  0  0  0  0  0  0  0  0
   -3.5516    4.2961   -3.8643 C   0  0  0  0  0  0  0  0  0  0  0  0
   -1.7962    5.8055   -2.8980 C   0  0  0  0  0  0  0  0  0  0  0  0
   -1.1403    3.7787   -4.2339 C   0  0  0  0  0  0  0  0  0  0  0  0
   -3.1890    3.9073   -1.0050 N   0  0  0  0  0  0  0  0  0  0  0  0
   -3.9848    3.1406   -0.2019 C   0  0  0  0  0  0  0  0  0  0  0  0
   -4.3216    1.4702   -0.8048 S   0  0  0  0  0  0  0  0  0  0  0  0
   -4.0180    0.5459    0.7434 C   0  0  0  0  0  0  0  0  0  0  0  0
   -5.2070    0.3867    1.6899 C   0  0  0  0  0  0  0  0  0  0  0  0
   -4.7996   -0.8050    2.5864 C   0  0  0  0  0  0  0  0  0  0  0  0
   -3.6384   -1.5216    1.8472 C   0  0  0  0  0  0  0  0  0  0  0  0
   -3.5835   -0.8890    0.4528 C   0  0  0  0  0  0  0  0  0  0  0  0
   -4.4470    3.5528    0.8362 O   0  0  0  0  0  0  0  0  0  0  0  0
    0.1952    3.7698   -1.5450 O   0  0  0  0  0  0  0  0  0  0  0  0
   -0.7988    0.4890    2.1535 O   0  0  0  0  0  0  0  0  0  0  0  0
    2.6697   -1.3273    2.8404 C   0  0  0  0  0  0  0  0  0  0  0  0
    3.8548   -2.0994    2.2323 C   0  0  0  0  0  0  0  0  0  0  0  0
    3.9133   -1.8861    0.7292 C   0  0  0  0  0  0  0  0  0  0  0  0
    3.8077   -3.0006   -0.0289 N   0  0  0  0  0  0  0  0  0  0  0  0
    4.0372   -0.7636    0.2407 O   0  0  0  0  0  0  0  0  0  0  0  0
    2.2387   -5.3240   -1.7113 H   0  0  0  0  0  0  0  0  0  0  0  0
    2.4429   -7.0965   -1.6798 H   0  0  0  0  0  0  0  0  0  0  0  0
    3.5861   -6.0482   -0.8022 H   0  0  0  0  0  0  0  0  0  0  0  0
    1.9761   -7.0909    0.8186 H   0  0  0  0  0  0  0  0  0  0  0  0
    0.6036   -6.4632   -0.1247 H   0  0  0  0  0  0  0  0  0  0  0  0
    1.1337   -3.6657    3.8090 H   0  0  0  0  0  0  0  0  0  0  0  0
    0.1169   -3.6754   -1.5762 H   0  0  0  0  0  0  0  0  0  0  0  0
    1.4792   -3.0794   -0.6581 H   0  0  0  0  0  0  0  0  0  0  0  0
   -1.1321   -2.3794   -2.8759 H   0  0  0  0  0  0  0  0  0  0  0  0
   -2.8283   -1.5083   -4.0933 H   0  0  0  0  0  0  0  0  0  0  0  0
   -2.5391    0.1634   -4.6791 H   0  0  0  0  0  0  0  0  0  0  0  0
   -3.4129   -0.0981   -3.1545 H   0  0  0  0  0  0  0  0  0  0  0  0
    1.1832    0.7441   -2.4075 H   0  0  0  0  0  0  0  0  0  0  0  0
    3.5279    0.2779   -3.9366 H   0  0  0  0  0  0  0  0  0  0  0  0
    4.0377    0.2202   -2.2212 H   0  0  0  0  0  0  0  0  0  0  0  0
    3.2651    1.6984   -2.8776 H   0  0  0  0  0  0  0  0  0  0  0  0
    1.9290   -0.0249    0.6640 H   0  0  0  0  0  0  0  0  0  0  0  0
    0.2348    3.2336    2.2447 H   0  0  0  0  0  0  0  0  0  0  0  0
    1.1104    3.8786    0.8383 H   0  0  0  0  0  0  0  0  0  0  0  0
    3.3351    2.3099    0.2588 H   0  0  0  0  0  0  0  0  0  0  0  0
    5.4453    1.6154    1.3199 H   0  0  0  0  0  0  0  0  0  0  0  0
    5.6427    1.5551    3.8080 H   0  0  0  0  0  0  0  0  0  0  0  0
    3.6644    2.1345    5.2096 H   0  0  0  0  0  0  0  0  0  0  0  0
    1.5233    2.7735    4.1329 H   0  0  0  0  0  0  0  0  0  0  0  0
   -1.5824    2.7508    0.7461 H   0  0  0  0  0  0  0  0  0  0  0  0
   -1.5003    1.4246   -0.3944 H   0  0  0  0  0  0  0  0  0  0  0  0
   -4.3228    4.6790   -3.1803 H   0  0  0  0  0  0  0  0  0  0  0  0
   -3.8226    3.2618   -4.1312 H   0  0  0  0  0  0  0  0  0  0  0  0
   -3.5762    4.9007   -4.7846 H   0  0  0  0  0  0  0  0  0  0  0  0
   -2.5473    6.2713   -2.2387 H   0  0  0  0  0  0  0  0  0  0  0  0
   -1.7659    6.4069   -3.8204 H   0  0  0  0  0  0  0  0  0  0  0  0
   -0.8114    5.8685   -2.4151 H   0  0  0  0  0  0  0  0  0  0  0  0
   -0.1113    3.8983   -3.8743 H   0  0  0  0  0  0  0  0  0  0  0  0
   -1.2389    4.2998   -5.1997 H   0  0  0  0  0  0  0  0  0  0  0  0
   -1.3121    2.7040   -4.3945 H   0  0  0  0  0  0  0  0  0  0  0  0
   -3.0518    4.8319   -0.6066 H   0  0  0  0  0  0  0  0  0  0  0  0
   -3.1867    1.0486    1.2603 H   0  0  0  0  0  0  0  0  0  0  0  0
   -6.1045    0.1440    1.0975 H   0  0  0  0  0  0  0  0  0  0  0  0
   -5.4176    1.3129    2.2409 H   0  0  0  0  0  0  0  0  0  0  0  0
   -5.6555   -1.4755    2.7574 H   0  0  0  0  0  0  0  0  0  0  0  0
   -4.4691   -0.4582    3.5764 H   0  0  0  0  0  0  0  0  0  0  0  0
   -3.7577   -2.6129    1.8059 H   0  0  0  0  0  0  0  0  0  0  0  0
   -2.6795   -1.3179    2.3456 H   0  0  0  0  0  0  0  0  0  0  0  0
   -4.3016   -1.3701   -0.2370 H   0  0  0  0  0  0  0  0  0  0  0  0
   -2.5780   -0.9560    0.0125 H   0  0  0  0  0  0  0  0  0  0  0  0
    2.5159   -1.6722    3.8737 H   0  0  0  0  0  0  0  0  0  0  0  0
    2.9215   -0.2599    2.8954 H   0  0  0  0  0  0  0  0  0  0  0  0
    3.7521   -3.1695    2.4601 H   0  0  0  0  0  0  0  0  0  0  0  0
    4.8028   -1.7402    2.6647 H   0  0  0  0  0  0  0  0  0  0  0  0
    3.6509   -2.8406   -1.0245 H   0  0  0  0  0  0  0  0  0  0  0  0
    3.3503   -3.8192    0.3772 H   0  0  0  0  0  0  0  0  0  0  0  0
  1 58  1  0  0  0  0
  1  2  1  0  0  0  0
  2 59  1  0  0  0  0
  2  3  1  0  0  0  0
  3  4  1  0  0  0  0
  4  6  1  0  0  0  0
  4  5  2  0  0  0  0
  6 61  1  0  0  0  0
  7  8  1  1  0  0  0
  7 20  1  0  0  0  0
  7  6  1  0  0  0  0
  9 63  1  0  0  0  0
  9  8  1  0  0  0  0
 10 11  1  1  0  0  0
 10  9  1  0  0  0  0
 12 10  1  0  0  0  0
 13 15  2  0  0  0  0
 13 12  1  0  0  0  0
 14 67  1  0  0  0  0
 14 13  1  0  0  0  0
 16 10  1  0  0  0  0
 17 68  1  0  0  0  0
 17 16  1  0  0  0  0
 18 71  1  0  0  0  0
 18 17  1  0  0  0  0
 18 70  1  0  0  0  0
 19 16  2  0  0  0  0
 20 51  1  0  0  0  0
 21 22  1  0  0  0  0
 21 20  2  0  0  0  0
 22 50  2  0  0  0  0
 23 24  1  6  0  0  0
 23 22  1  0  0  0  0
 23 25  1  0  0  0  0
 25 26  1  0  0  0  0
 25 73  1  0  0  0  0
 26 31  1  0  0  0  0
 27 28  1  0  0  0  0
 27 26  2  0  0  0  0
 28 29  2  0  0  0  0
 29 77  1  0  0  0  0
 29 30  1  0  0  0  0
 30 78  1  0  0  0  0
 31 30  2  0  0  0  0
 31 79  1  0  0  0  0
 32 23  1  0  0  0  0
 32 80  1  0  0  0  0
 33 32  1  0  0  0  0
 34 35  1  6  0  0  0
 34 33  1  0  0  0  0
 34 40  1  0  0  0  0
 36 38  1  0  0  0  0
 36 34  1  0  0  0  0
 37 36  1  0  0  0  0
 37 82  1  0  0  0  0
 38 87  1  0  0  0  0
 38 85  1  0  0  0  0
 39 88  1  0  0  0  0
 39 36  1  0  0  0  0
 40 91  1  0  0  0  0
 40 41  1  0  0  0  0
 41 48  2  0  0  0  0
 42 41  1  0  0  0  0
 42 43  1  0  0  0  0
 43 92  1  0  0  0  0
 43 44  1  0  0  0  0
 44 94  1  0  0  0  0
 44 45  1  0  0  0  0
 45 95  1  0  0  0  0
 45 96  1  0  0  0  0
 46 98  1  0  0  0  0
 46 45  1  0  0  0  0
 47 43  1  0  0  0  0
 47 46  1  0  0  0  0
 49 33  2  0  0  0  0
 51102  1  0  0  0  0
 51101  1  0  0  0  0
 52103  1  0  0  0  0
 52104  1  0  0  0  0
 52 51  1  0  0  0  0
 53 52  1  0  0  0  0
 54106  1  0  0  0  0
 54 53  1  0  0  0  0
 55 53  2  0  0  0  0
 56  1  1  0  0  0  0
 57  1  1  0  0  0  0
 60  2  1  0  0  0  0
 62  9  1  0  0  0  0
 64 12  1  0  0  0  0
 65 14  1  0  0  0  0
 66 14  1  0  0  0  0
 69 18  1  0  0  0  0
 72 21  1  0  0  0  0
 74 25  1  0  0  0  0
 75 27  1  0  0  0  0
 76 28  1  0  0  0  0
 81 32  1  0  0  0  0
 83 37  1  0  0  0  0
 84 37  1  0  0  0  0
 86 38  1  0  0  0  0
 89 39  1  0  0  0  0
 90 39  1  0  0  0  0
 93 44  1  0  0  0  0
 97 46  1  0  0  0  0
 99 47  1  0  0  0  0
100 47  1  0  0  0  0
105 54  1  0  0  0  0
M  END
