-1 1
 OpenBabel05192410563D

 42 43  0  0  1  0  0  0  0  0999 V2000
   -2.9584   -0.2872    0.8476 O   0  0  0  0  0  0  0  0  0  0  0  0
   -1.8732    0.2735    0.8261 C   0  0  0  0  0  0  0  0  0  0  0  0
   -1.2240    1.0675   -0.1368 C   0  0  0  0  0  3  0  0  0  0  0  0
    0.0896    1.4254    0.3115 C   0  0  2  0  0  0  0  0  0  0  0  0
    1.6278    0.3139   -0.4537 S   0  0  0  0  0  0  0  0  0  0  0  0
    0.7655   -0.4301   -1.8518 C   0  0  0  0  0  0  0  0  0  0  0  0
    0.8606    0.3415   -3.1861 C   0  0  2  0  0  0  0  0  0  0  0  0
    0.6078    1.3945   -2.9813 H   0  0  0  0  0  0  0  0  0  0  0  0
   -0.0772   -0.1626   -4.1585 N   0  0  0  0  0  0  0  0  0  0  0  0
   -1.2990    0.3957   -4.3570 C   0  0  0  0  0  0  0  0  0  0  0  0
   -2.1213   -0.2423   -5.4628 C   0  0  0  0  0  0  0  0  0  0  0  0
   -1.7350    1.3130   -3.6873 O   0  0  0  0  0  0  0  0  0  0  0  0
    2.2552    0.2542   -3.8229 C   0  0  0  0  0  0  0  0  0  0  0  0
    3.2365    0.8735   -3.1318 N   0  0  0  0  0  0  0  0  0  0  0  0
    4.6238    0.7714   -3.5045 C   0  0  0  0  0  0  0  0  0  0  0  0
    2.4364   -0.3443   -4.8752 O   0  0  0  0  0  0  0  0  0  0  0  0
    0.1557    0.9968    1.7647 C   0  0  0  0  0  0  0  0  0  0  0  0
   -0.9612    0.2207    2.0084 N   0  0  0  0  0  0  0  0  0  0  0  0
   -1.2110   -0.4646    3.2040 C   0  0  0  0  0  0  0  0  0  0  0  0
   -0.1438   -0.8672    4.0262 C   0  0  0  0  0  0  0  0  0  0  0  0
   -0.4146   -1.5431    5.2048 C   0  0  0  0  0  0  0  0  0  0  0  0
    0.6182   -1.9148    5.9807 F   0  0  0  0  0  0  0  0  0  0  0  0
   -1.7028   -1.8561    5.6159 C   0  0  0  0  0  0  0  0  0  0  0  0
   -2.7535   -1.4574    4.7893 C   0  0  0  0  0  0  0  0  0  0  0  0
   -2.5270   -0.7661    3.6042 C   0  0  0  0  0  0  0  0  0  0  0  0
    1.0327    1.2822    2.5535 O   0  0  0  0  0  0  0  0  0  0  0  0
   -1.6777    1.3295   -1.0904 H   0  0  0  0  0  0  0  0  0  0  0  0
    0.4860    2.4320    0.1437 H   0  0  0  0  0  0  0  0  0  0  0  0
   -0.3009   -0.4607   -1.5575 H   0  0  0  0  0  0  0  0  0  0  0  0
    1.1142   -1.4655   -1.9840 H   0  0  0  0  0  0  0  0  0  0  0  0
    0.3331   -0.7676   -4.8625 H   0  0  0  0  0  0  0  0  0  0  0  0
   -1.5193   -0.8285   -6.1715 H   0  0  0  0  0  0  0  0  0  0  0  0
   -2.6635    0.5476   -5.9983 H   0  0  0  0  0  0  0  0  0  0  0  0
   -2.8672   -0.9062   -5.0009 H   0  0  0  0  0  0  0  0  0  0  0  0
    2.9951    1.1711   -2.1832 H   0  0  0  0  0  0  0  0  0  0  0  0
    4.6774    0.3984   -4.5350 H   0  0  0  0  0  0  0  0  0  0  0  0
    5.1729    0.0730   -2.8509 H   0  0  0  0  0  0  0  0  0  0  0  0
    5.1149    1.7552   -3.4518 H   0  0  0  0  0  0  0  0  0  0  0  0
    0.8849   -0.6333    3.7621 H   0  0  0  0  0  0  0  0  0  0  0  0
   -1.8635   -2.3908    6.5533 H   0  0  0  0  0  0  0  0  0  0  0  0
   -3.7817   -1.6875    5.0803 H   0  0  0  0  0  0  0  0  0  0  0  0
   -3.3474   -0.4761    2.9526 H   0  0  0  0  0  0  0  0  0  0  0  0
  2  1  2  0  0  0  0
  2 18  1  0  0  0  0
  3  4  1  0  0  0  0
  3  2  1  0  0  0  0
  4 28  1  6  0  0  0
  4 17  1  0  0  0  0
  5  4  1  0  0  0  0
  6 29  1  0  0  0  0
  6  5  1  0  0  0  0
  7  8  1  1  0  0  0
  7  6  1  0  0  0  0
  9  7  1  0  0  0  0
 10  9  1  0  0  0  0
 10 12  2  0  0  0  0
 11 34  1  0  0  0  0
 11 10  1  0  0  0  0
 13  7  1  0  0  0  0
 13 14  1  0  0  0  0
 14 35  1  0  0  0  0
 15 38  1  0  0  0  0
 15 14  1  0  0  0  0
 15 37  1  0  0  0  0
 16 13  2  0  0  0  0
 17 18  1  0  0  0  0
 17 26  2  0  0  0  0
 18 19  1  0  0  0  0
 19 25  2  0  0  0  0
 19 20  1  0  0  0  0
 20 21  2  0  0  0  0
 21 23  1  0  0  0  0
 21 22  1  0  0  0  0
 23 40  1  0  0  0  0
 24 41  1  0  0  0  0
 24 23  2  0  0  0  0
 25 24  1  0  0  0  0
 27  3  1  0  0  0  0
 30  6  1  0  0  0  0
 31  9  1  0  0  0  0
 32 11  1  0  0  0  0
 33 11  1  0  0  0  0
 36 15  1  0  0  0  0
 39 20  1  0  0  0  0
 42 25  1  0  0  0  0
M  END
