42
-1 1
O        -2.980064   -0.344015    0.524943
C        -2.099403    0.472784    0.666904
C        -1.686085    1.560966   -0.246505
C        -0.641784    2.210581    0.298871
S         1.674659    0.514838   -0.171551
C         0.705100   -0.260480   -1.492935
C         0.896236    0.349677   -2.901657
H         0.786385    1.442259   -2.802858
N        -0.085007   -0.133885   -3.847689
C        -1.279680    0.454174   -4.068096
C        -2.124155   -0.193376   -5.153543
O        -1.695236    1.416610   -3.441819
C         2.269334    0.025522   -3.512884
N         3.321193    0.494004   -2.817119
C         4.675491    0.149677   -3.158559
O         2.362604   -0.616369   -4.555795
C        -0.372110    1.661748    1.657719
N        -1.248989    0.555200    1.790761
C        -1.216635   -0.354321    2.860154
C         0.020190   -0.721995    3.403913
C         0.039118   -1.607952    4.469159
F         1.219660   -1.955568    4.999119
C        -1.118290   -2.164175    5.000794
C        -2.339094   -1.803953    4.432464
C        -2.400129   -0.900565    3.375253
O         0.315295    2.104642    2.541574
H        -2.119990    1.692804   -1.236676
H        -0.096729    3.069421   -0.082283
H        -0.370274   -0.140939   -1.262933
H         0.892906   -1.346118   -1.543963
H         0.295319   -0.793039   -4.521352
H        -1.564669   -0.899269   -5.783167
H        -2.559010    0.597614   -5.779043
H        -2.954726   -0.729783   -4.671096
H         3.102099    0.800566   -1.853486
H         4.701283   -0.189963   -4.202123
H         5.065619   -0.661089   -2.519419
H         5.336354    1.023178   -3.046957
H         0.949558   -0.329794    2.991406
H        -1.048674   -2.863242    5.835570
H        -3.263707   -2.232268    4.826602
H        -3.353884   -0.628626    2.927126
