42
-1 1
O        -2.958384   -0.287240    0.847582
C        -1.873217    0.273502    0.826063
C        -1.224043    1.067484   -0.136770
C         0.089603    1.425389    0.311497
S         1.627788    0.313906   -0.453666
C         0.765540   -0.430111   -1.851792
C         0.860573    0.341544   -3.186095
H         0.607778    1.394457   -2.981276
N        -0.077209   -0.162644   -4.158541
C        -1.298956    0.395702   -4.356975
C        -2.121260   -0.242346   -5.462842
O        -1.734959    1.313033   -3.687304
C         2.255177    0.254217   -3.822876
N         3.236532    0.873521   -3.131754
C         4.623784    0.771418   -3.504475
O         2.436435   -0.344287   -4.875214
C         0.155661    0.996827    1.764661
N        -0.961167    0.220729    2.008426
C        -1.211016   -0.464624    3.203971
C        -0.143813   -0.867221    4.026183
C        -0.414554   -1.543097    5.204839
F         0.618215   -1.914755    5.980719
C        -1.702754   -1.856088    5.615938
C        -2.753496   -1.457435    4.789296
C        -2.526986   -0.766145    3.604154
O         1.032654    1.282233    2.553524
H        -1.677696    1.329523   -1.090356
H         0.486018    2.432027    0.143696
H        -0.300900   -0.460660   -1.557547
H         1.114219   -1.465466   -1.983992
H         0.333074   -0.767616   -4.862512
H        -1.519285   -0.828541   -6.171542
H        -2.663485    0.547573   -5.998259
H        -2.867198   -0.906231   -5.000854
H         2.995058    1.171127   -2.183239
H         4.677362    0.398421   -4.535038
H         5.172917    0.073049   -2.850881
H         5.114902    1.755156   -3.451773
H         0.884872   -0.633294    3.762136
H        -1.863485   -2.390779    6.553281
H        -3.781680   -1.687490    5.080276
H        -3.347352   -0.476132    2.952589
