80
-1 1
C        21.059009  -16.097558  -24.077237
C        20.705651  -14.624300  -23.903623
C        19.240655  -14.388176  -23.543941
C        18.883064  -12.912589  -23.376809
C        17.445526  -12.643786  -22.933014
C        16.374161  -13.081590  -23.929934
C        14.968659  -12.688869  -23.487355
C        13.874258  -13.054876  -24.487683
C        12.488939  -12.556855  -24.073491
C        11.860276  -13.347594  -22.924197
C        10.684676  -12.635404  -22.250405
C        11.051012  -11.330842  -21.534374
C        12.067420  -11.504177  -20.406002
C        12.391939  -10.207330  -19.660409
C        13.229267   -9.193586  -20.441034
C        14.659682   -9.667713  -20.709260
N        15.511105   -8.603965  -21.180511
C        16.169906   -8.557419  -22.381006
C        16.926274   -7.245017  -22.386469
S        15.603054   -6.031467  -23.912976
C        14.058629   -6.044554  -22.962980
C        12.819097   -6.662460  -23.654575
H        12.596000   -6.036437  -24.536037
N        11.677238   -6.646720  -22.768901
C        10.966107   -5.536790  -22.469321
C         9.797665   -5.766274  -21.524123
O        11.240740   -4.423819  -22.884841
C        12.944378   -8.114924  -24.156948
N        13.878336   -8.321827  -25.092643
C        14.142729   -9.628672  -25.640369
O        12.169686   -8.985104  -23.756585
C        16.862666   -6.739141  -21.095590
C        15.955096   -7.537019  -20.319124
O        15.596562   -7.475278  -19.156594
O        16.166793   -9.427453  -23.233600
H        22.120498  -16.235179  -24.334844
H        20.457862  -16.558198  -24.877744
H        20.862842  -16.664131  -23.152594
H        20.941689  -14.075466  -24.832124
H        21.346876  -14.179719  -23.122355
H        19.003209  -14.928091  -22.608491
H        18.604246  -14.843217  -24.322980
H        19.072314  -12.383701  -24.328489
H        19.572978  -12.462065  -22.641978
H        17.319871  -11.563500  -22.758663
H        17.264209  -13.140989  -21.962018
H        16.416900  -14.173626  -24.096216
H        16.585991  -12.613392  -24.908857
H        14.953365  -11.599322  -23.318376
H        14.757922  -13.154452  -22.507750
H        13.854415  -14.150543  -24.641990
H        14.137815  -12.617154  -25.465864
H        11.803540  -12.589366  -24.938500
H        12.569066  -11.491083  -23.803986
H        12.625804  -13.574529  -22.164018
H        11.525005  -14.329936  -23.301705
H        10.217722  -13.326276  -21.524885
H         9.912409  -12.419998  -23.009822
H        10.129080  -10.894393  -21.109492
H        11.421149  -10.593815  -22.264252
H        13.002081  -11.933393  -20.805078
H        11.680161  -12.249914  -19.687787
H        12.924675  -10.449795  -18.723961
H        11.445633   -9.728662  -19.351979
H        13.296105   -8.264514  -19.856259
H        12.752384   -8.947486  -21.401024
H        14.686953  -10.462555  -21.468172
H        15.087875  -10.074101  -19.776218
H        17.764933   -7.141980  -23.073175
H        13.774370   -5.012255  -22.719758
H        14.234535   -6.559300  -22.002467
H        11.326968   -7.572963  -22.540243
H        10.082374   -5.401585  -20.525854
H         9.503897   -6.821930  -21.439617
H         8.943456   -5.167752  -21.867115
H        14.622056   -7.608925  -25.125449
H        13.206644  -10.200326  -25.687743
H        14.870462  -10.176059  -25.022697
H        14.548527   -9.521880  -26.656764
H        17.352400   -5.850957  -20.705565
