-1 1
 OpenBabel05232413483D

 80 79  0  0  1  0  0  0  0  0999 V2000
    6.5210   -6.3801   -1.6185 C   0  0  0  0  0  0  0  0  0  0  0  0
    6.1582   -4.9411   -1.2680 C   0  0  0  0  0  0  0  0  0  0  0  0
    4.6882   -4.7571   -0.8986 C   0  0  0  0  0  0  0  0  0  0  0  0
    4.3209   -3.3142   -0.5581 C   0  0  0  0  0  0  0  0  0  0  0  0
    2.8779   -3.1089   -0.0980 C   0  0  0  0  0  0  0  0  0  0  0  0
    1.8175   -3.4484   -1.1435 C   0  0  0  0  0  0  0  0  0  0  0  0
    0.4062   -3.0871   -0.6919 C   0  0  0  0  0  0  0  0  0  0  0  0
   -0.6769   -3.4312   -1.7128 C   0  0  0  0  0  0  0  0  0  0  0  0
   -2.0606   -2.9056   -1.3306 C   0  0  0  0  0  0  0  0  0  0  0  0
   -2.6975   -3.6280   -0.1415 C   0  0  0  0  0  0  0  0  0  0  0  0
   -3.8926   -2.8891    0.4666 C   0  0  0  0  0  0  0  0  0  0  0  0
   -3.5491   -1.5505    1.1288 C   0  0  0  0  0  0  0  0  0  0  0  0
   -2.6079   -1.6698    2.3277 C   0  0  0  0  0  0  0  0  0  0  0  0
   -2.2772   -0.3276    2.9869 C   0  0  0  0  0  0  0  0  0  0  0  0
   -1.3090    0.5630    2.2069 C   0  0  0  0  0  0  0  0  0  0  0  0
    0.1177    0.0128    2.1671 C   0  0  0  0  0  0  0  0  0  0  0  0
    1.0786    0.9900    1.7087 N   0  0  0  0  0  0  0  0  0  0  0  0
    1.7396    0.9836    0.4891 C   0  0  0  0  0  0  0  0  0  0  0  0
    2.6219    2.2011    0.4900 C   0  0  0  0  0  0  0  0  0  0  0  0
    0.9362    3.7850   -1.4413 S   0  0  0  0  0  1  0  0  0  0  0  0
   -0.5202    3.5522   -0.3663 C   0  0  0  0  0  0  0  0  0  0  0  0
   -1.7580    2.9072   -1.0344 C   0  0  2  0  0  0  0  0  0  0  0  0
   -2.0205    3.5393   -1.9007 H   0  0  0  0  0  0  0  0  0  0  0  0
   -2.8841    2.8342   -0.1278 N   0  0  0  0  0  0  0  0  0  0  0  0
   -3.6233    3.8892    0.2786 C   0  0  0  0  0  0  0  0  0  0  0  0
   -4.7566    3.5341    1.2316 C   0  0  0  0  0  0  0  0  0  0  0  0
   -3.4070    5.0444   -0.0444 O   0  0  0  0  0  0  0  0  0  0  0  0
   -1.5491    1.4705   -1.5471 C   0  0  0  0  0  0  0  0  0  0  0  0
   -0.5714    1.3124   -2.4408 N   0  0  0  0  0  0  0  0  0  0  0  0
   -0.2191    0.0168   -2.9620 C   0  0  0  0  0  0  0  0  0  0  0  0
   -2.2815    0.5521   -1.1616 O   0  0  0  0  0  0  0  0  0  0  0  0
    2.5261    2.7896    1.6937 C   0  0  0  0  0  0  0  0  0  0  0  0
    1.5330    2.0514    2.5076 C   0  0  0  0  0  0  0  0  0  0  0  0
    1.1726    2.2433    3.6455 O   0  0  0  0  0  0  0  0  0  0  0  0
    1.6476    0.1177   -0.3505 O   0  0  0  0  0  0  0  0  0  0  0  0
    7.5860   -6.4805   -1.8788 H   0  0  0  0  0  0  0  0  0  0  0  0
    5.9314   -6.7399   -2.4771 H   0  0  0  0  0  0  0  0  0  0  0  0
    6.3176   -7.0579   -0.7737 H   0  0  0  0  0  0  0  0  0  0  0  0
    6.4011   -4.2808   -2.1188 H   0  0  0  0  0  0  0  0  0  0  0  0
    6.7888   -4.5941   -0.4305 H   0  0  0  0  0  0  0  0  0  0  0  0
    4.4436   -5.4080   -0.0385 H   0  0  0  0  0  0  0  0  0  0  0  0
    4.0625   -5.1160   -1.7343 H   0  0  0  0  0  0  0  0  0  0  0  0
    4.5129   -2.6739   -1.4378 H   0  0  0  0  0  0  0  0  0  0  0  0
    5.0028   -2.9517    0.2310 H   0  0  0  0  0  0  0  0  0  0  0  0
    2.7431   -2.0542    0.1886 H   0  0  0  0  0  0  0  0  0  0  0  0
    2.6957   -3.7079    0.8136 H   0  0  0  0  0  0  0  0  0  0  0  0
    1.8572   -4.5227   -1.4003 H   0  0  0  0  0  0  0  0  0  0  0  0
    2.0463   -2.9004   -2.0758 H   0  0  0  0  0  0  0  0  0  0  0  0
    0.3746   -2.0045   -0.4839 H   0  0  0  0  0  0  0  0  0  0  0  0
    0.1975   -3.5934    0.2676 H   0  0  0  0  0  0  0  0  0  0  0  0
   -0.7116   -4.5265   -1.8674 H   0  0  0  0  0  0  0  0  0  0  0  0
   -0.3872   -2.9970   -2.6851 H   0  0  0  0  0  0  0  0  0  0  0  0
   -2.7415   -2.9870   -2.1960 H   0  0  0  0  0  0  0  0  0  0  0  0
   -1.9773   -1.8255   -1.1267 H   0  0  0  0  0  0  0  0  0  0  0  0
   -1.9422   -3.7952    0.6440 H   0  0  0  0  0  0  0  0  0  0  0  0
   -3.0151   -4.6374   -0.4586 H   0  0  0  0  0  0  0  0  0  0  0  0
   -4.3798   -3.5456    1.2106 H   0  0  0  0  0  0  0  0  0  0  0  0
   -4.6428   -2.7116   -0.3239 H   0  0  0  0  0  0  0  0  0  0  0  0
   -4.4874   -1.0780    1.4713 H   0  0  0  0  0  0  0  0  0  0  0  0
   -3.1225   -0.8639    0.3808 H   0  0  0  0  0  0  0  0  0  0  0  0
   -1.6699   -2.1644    2.0224 H   0  0  0  0  0  0  0  0  0  0  0  0
   -3.0667   -2.3403    3.0769 H   0  0  0  0  0  0  0  0  0  0  0  0
   -1.8552   -0.5064    3.9919 H   0  0  0  0  0  0  0  0  0  0  0  0
   -3.2171    0.2278    3.1512 H   0  0  0  0  0  0  0  0  0  0  0  0
   -1.2742    1.5546    2.6832 H   0  0  0  0  0  0  0  0  0  0  0  0
   -1.6602    0.7130    1.1762 H   0  0  0  0  0  0  0  0  0  0  0  0
    0.1979   -0.8535    1.4946 H   0  0  0  0  0  0  0  0  0  0  0  0
    0.4188   -0.3105    3.1778 H   0  0  0  0  0  0  0  0  0  0  0  0
    3.2725    2.4342   -0.3456 H   0  0  0  0  0  0  0  0  0  0  0  0
   -0.8648    4.5298   -0.0025 H   0  0  0  0  0  0  0  0  0  0  0  0
   -0.2623    2.9542    0.5259 H   0  0  0  0  0  0  0  0  0  0  0  0
   -3.2028    1.8832    0.0379 H   0  0  0  0  0  0  0  0  0  0  0  0
   -4.4640    3.8392    2.2475 H   0  0  0  0  0  0  0  0  0  0  0  0
   -4.9999    2.4621    1.2447 H   0  0  0  0  0  0  0  0  0  0  0  0
   -5.6467    4.1140    0.9534 H   0  0  0  0  0  0  0  0  0  0  0  0
    0.1179    2.0932   -2.4718 H   0  0  0  0  0  0  0  0  0  0  0  0
   -1.1290   -0.5772   -3.1279 H   0  0  0  0  0  0  0  0  0  0  0  0
    0.4399   -0.5308   -2.2701 H   0  0  0  0  0  0  0  0  0  0  0  0
    0.3052    0.1433   -3.9198 H   0  0  0  0  0  0  0  0  0  0  0  0
    3.0256    3.6852    2.0549 H   0  0  0  0  0  0  0  0  0  0  0  0
  1  2  1  0  0  0  0
  1 38  1  0  0  0  0
  2  3  1  0  0  0  0
  2 40  1  0  0  0  0
  3  4  1  0  0  0  0
  3 41  1  0  0  0  0
  4  5  1  0  0  0  0
  4 44  1  0  0  0  0
  5 45  1  0  0  0  0
  5 46  1  0  0  0  0
  6  7  1  0  0  0  0
  6  5  1  0  0  0  0
  7 49  1  0  0  0  0
  7 50  1  0  0  0  0
  8  9  1  0  0  0  0
  8  7  1  0  0  0  0
  9 54  1  0  0  0  0
  9 10  1  0  0  0  0
 10 11  1  0  0  0  0
 10 55  1  0  0  0  0
 11 12  1  0  0  0  0
 11 57  1  0  0  0  0
 12 59  1  0  0  0  0
 12 13  1  0  0  0  0
 13 14  1  0  0  0  0
 13 62  1  0  0  0  0
 14 64  1  0  0  0  0
 14 63  1  0  0  0  0
 15 65  1  0  0  0  0
 15 14  1  0  0  0  0
 16 15  1  0  0  0  0
 16 68  1  0  0  0  0
 17 16  1  0  0  0  0
 17 33  1  0  0  0  0
 18 19  1  0  0  0  0
 18 17  1  0  0  0  0
 19 32  2  0  0  0  0
 20 21  1  0  0  0  0
 21 70  1  0  0  0  0
 21 71  1  0  0  0  0
 22 23  1  6  0  0  0
 22 21  1  0  0  0  0
 22 24  1  0  0  0  0
 24 72  1  0  0  0  0
 24 25  1  0  0  0  0
 25 26  1  0  0  0  0
 26 74  1  0  0  0  0
 26 73  1  0  0  0  0
 27 25  2  0  0  0  0
 28 31  2  0  0  0  0
 28 22  1  0  0  0  0
 29 28  1  0  0  0  0
 30 29  1  0  0  0  0
 30 78  1  0  0  0  0
 32 80  1  0  0  0  0
 32 33  1  0  0  0  0
 33 34  2  0  0  0  0
 35 18  2  0  0  0  0
 36  1  1  0  0  0  0
 37  1  1  0  0  0  0
 39  2  1  0  0  0  0
 42  3  1  0  0  0  0
 43  4  1  0  0  0  0
 47  6  1  0  0  0  0
 48  6  1  0  0  0  0
 51  8  1  0  0  0  0
 52  8  1  0  0  0  0
 53  9  1  0  0  0  0
 56 10  1  0  0  0  0
 58 11  1  0  0  0  0
 60 12  1  0  0  0  0
 61 13  1  0  0  0  0
 66 15  1  0  0  0  0
 67 16  1  0  0  0  0
 69 19  1  0  0  0  0
 75 26  1  0  0  0  0
 76 29  1  0  0  0  0
 77 30  1  0  0  0  0
 79 30  1  0  0  0  0
M  END
