80
-1 1
C         6.521039   -6.380117   -1.618526
C         6.158219   -4.941077   -1.267960
C         4.688190   -4.757122   -0.898572
C         4.320872   -3.314237   -0.558117
C         2.877919   -3.108854   -0.098026
C         1.817548   -3.448364   -1.143507
C         0.406249   -3.087098   -0.691928
C        -0.676869   -3.431187   -1.712803
C        -2.060639   -2.905586   -1.330625
C        -2.697532   -3.628008   -0.141503
C        -3.892601   -2.889051    0.466554
C        -3.549059   -1.550484    1.128757
C        -2.607915   -1.669846    2.327676
C        -2.277232   -0.327646    2.986929
C        -1.308954    0.562999    2.206894
C         0.117697    0.012776    2.167081
N         1.078580    0.990022    1.708731
C         1.739559    0.983579    0.489143
C         2.621855    2.201085    0.489983
S         0.936151    3.784955   -1.441322
C        -0.520159    3.552236   -0.366295
C        -1.757964    2.907150   -1.034353
H        -2.020477    3.539342   -1.900740
N        -2.884070    2.834219   -0.127768
C        -3.623323    3.889162    0.278561
C        -4.756621    3.534060    1.231558
O        -3.406976    5.044404   -0.044389
C        -1.549112    1.470482   -1.547112
N        -0.571441    1.312380   -2.440829
C        -0.219143    0.016788   -2.962012
O        -2.281487    0.552108   -1.161555
C         2.526058    2.789636    1.693661
C         1.533004    2.051404    2.507607
O         1.172640    2.243291    3.645533
O         1.647599    0.117658   -0.350538
H         7.585991   -6.480462   -1.878783
H         5.931409   -6.739948   -2.477072
H         6.317578   -7.057861   -0.773687
H         6.401092   -4.280762   -2.118770
H         6.788765   -4.594065   -0.430516
H         4.443644   -5.407962   -0.038513
H         4.062452   -5.116013   -1.734256
H         4.512890   -2.673852   -1.437818
H         5.002845   -2.951659    0.231029
H         2.743135   -2.054163    0.188624
H         2.695693   -3.707939    0.813592
H         1.857164   -4.522690   -1.400350
H         2.046334   -2.900397   -2.075771
H         0.374586   -2.004520   -0.483852
H         0.197488   -3.593435    0.267643
H        -0.711558   -4.526539   -1.867408
H        -0.387215   -2.997000   -2.685079
H        -2.741530   -2.987005   -2.196002
H        -1.977278   -1.825534   -1.126660
H        -1.942230   -3.795236    0.643950
H        -3.015058   -4.637419   -0.458557
H        -4.379752   -3.545561    1.210608
H        -4.642848   -2.711625   -0.323873
H        -4.487417   -1.078046    1.471271
H        -3.122529   -0.863857    0.380760
H        -1.669932   -2.164372    2.022442
H        -3.066698   -2.340286    3.076912
H        -1.855249   -0.506392    3.991873
H        -3.217128    0.227792    3.151203
H        -1.274245    1.554563    2.683217
H        -1.660192    0.712982    1.176210
H         0.197909   -0.853460    1.494646
H         0.418818   -0.310491    3.177767
H         3.272497    2.434196   -0.345553
H        -0.864783    4.529850   -0.002506
H        -0.262311    2.954181    0.525916
H        -3.202803    1.883237    0.037883
H        -4.464028    3.839158    2.247534
H        -4.999927    2.462068    1.244722
H        -5.646690    4.113999    0.953393
H         0.117865    2.093250   -2.471772
H        -1.128967   -0.577217   -3.127921
H         0.439936   -0.530780   -2.270074
H         0.305207    0.143343   -3.919847
H         3.025562    3.685177    2.054941
