-1 1
 OpenBabel05232414493D

 93 95  0  0  1  0  0  0  0  0999 V2000
   -5.2939    1.5864   -6.5311 C   0  0  0  0  0  0  0  0  0  0  0  0
   -3.6704    1.6003   -7.2980 S   0  0  0  0  0  0  0  0  0  0  0  0
   -3.1686    0.2172   -7.1942 O   0  0  0  0  0  0  0  0  0  0  0  0
   -3.8450    2.1891   -8.6413 O   0  0  0  0  0  0  0  0  0  0  0  0
   -2.7076    2.6713   -6.3569 C   0  0  0  0  0  3  0  0  0  0  0  0
   -2.1973    2.3609   -5.1085 C   0  0  0  0  0  3  0  0  0  0  0  0
   -3.7948    2.7354   -3.3294 S   0  0  0  0  0  1  0  0  0  0  0  0
   -3.9672    4.4735   -3.7814 C   0  0  0  0  0  0  0  0  0  0  0  0
   -2.7735    5.3763   -3.3712 C   0  0  2  0  0  0  0  0  0  0  0  0
   -1.8854    5.1004   -3.9592 H   0  0  0  0  0  0  0  0  0  0  0  0
   -2.4213    5.2564   -1.9822 N   0  0  0  0  0  0  0  0  0  0  0  0
   -1.4717    4.4185   -1.5299 C   0  0  0  0  0  0  0  0  0  0  0  0
   -1.3622    4.2813   -0.0313 C   0  0  0  0  0  0  0  0  0  0  0  0
   -0.7356    3.7822   -2.2792 O   0  0  0  0  0  0  0  0  0  0  0  0
   -3.1401    6.8326   -3.6382 C   0  0  0  0  0  0  0  0  0  0  0  0
   -3.0001    7.2179   -4.9299 N   0  0  0  0  0  0  0  0  0  0  0  0
   -3.3290    8.5388   -5.3948 C   0  0  0  0  0  0  0  0  0  0  0  0
   -3.5855    7.5544   -2.7603 O   0  0  0  0  0  0  0  0  0  0  0  0
   -1.7376    0.9949   -4.6449 C   0  0  0  0  0  0  0  0  0  0  0  0
   -0.9114    1.1840   -3.4688 N   0  0  0  0  0  0  0  0  0  0  0  0
    0.0032    0.3034   -3.0421 C   0  0  0  0  0  0  0  0  0  0  0  0
    0.9509    0.8786   -1.9792 C   0  0  0  0  0  0  0  0  0  0  0  0
    1.6913    2.0362   -2.4861 N   0  0  0  0  0  0  0  0  0  0  0  0
    1.9876    3.0310   -1.5841 C   0  0  0  0  0  0  0  0  0  0  0  0
    2.6619    4.3034   -2.1169 C   0  0  2  0  0  0  0  0  0  0  0  0
    2.6995    4.9524   -1.2346 H   0  0  0  0  0  0  0  0  0  0  0  0
    1.8439    4.9846   -3.0885 N   0  0  0  0  0  0  0  0  0  0  0  0
    1.5752    4.4610   -4.2202 C   0  0  0  0  0  0  0  0  0  0  0  0
    2.0788    3.1373   -4.6759 C   0  0  0  0  0  0  0  0  0  0  0  0
    2.1437    2.0159   -3.8254 C   0  0  0  0  0  0  0  0  0  0  0  0
    2.6577    0.8083   -4.3255 C   0  0  0  0  0  0  0  0  0  0  0  0
    3.1297    0.7138   -5.6258 C   0  0  0  0  0  0  0  0  0  0  0  0
    3.1102    1.8309   -6.4592 C   0  0  0  0  0  0  0  0  0  0  0  0
    2.5842    3.0210   -5.9814 C   0  0  0  0  0  0  0  0  0  0  0  0
    0.8030    5.3070   -5.1850 C   0  0  0  0  0  0  0  0  0  0  0  0
    0.8390    6.7002   -5.0311 C   0  0  0  0  0  0  0  0  0  0  0  0
    0.2283    7.5343   -5.9600 C   0  0  0  0  0  0  0  0  0  0  0  0
   -0.4574    6.9859   -7.0466 C   0  0  0  0  0  0  0  0  0  0  0  0
   -0.5550    5.6007   -7.1740 C   0  0  0  0  0  0  0  0  0  0  0  0
    0.0764    4.7651   -6.2513 C   0  0  0  0  0  0  0  0  0  0  0  0
    4.1405    4.0605   -2.5684 C   0  0  0  0  0  0  0  0  0  0  0  0
    4.4645    4.7633   -3.7579 O   0  0  0  0  0  0  0  0  0  0  0  0
    4.3690    6.0993   -3.7179 C   0  0  0  0  0  0  0  0  0  0  0  0
    4.2329    6.5578   -5.0106 N   0  0  0  0  0  0  0  0  0  0  0  0
    3.9009    7.8466   -5.4199 C   0  0  0  0  0  0  0  0  0  0  0  0
    3.6552    8.1103   -6.7852 C   0  0  0  0  0  0  0  0  0  0  0  0
    3.7856    7.0243   -7.8228 C   0  0  0  0  0  0  0  0  0  0  0  0
    5.0124    6.4777   -7.8147 F   0  0  0  0  0  0  0  0  0  0  0  0
    2.9257    6.0171   -7.5996 F   0  0  0  0  0  0  0  0  0  0  0  0
    3.5593    7.4679   -9.0563 F   0  0  0  0  0  0  0  0  0  0  0  0
    3.2649    9.3801   -7.2040 C   0  0  0  0  0  0  0  0  0  0  0  0
    3.1205   10.4024   -6.2773 C   0  0  0  0  0  0  0  0  0  0  0  0
    2.6185   11.9894   -6.8107 Cl  0  0  0  0  0  0  0  0  0  0  0  0
    3.3724   10.1661   -4.9303 C   0  0  0  0  0  0  0  0  0  0  0  0
    3.7624    8.9027   -4.5061 C   0  0  0  0  0  0  0  0  0  0  0  0
    4.4080    6.7605   -2.7129 O   0  0  0  0  0  0  0  0  0  0  0  0
    1.7398    2.9220   -0.4009 O   0  0  0  0  0  0  0  0  0  0  0  0
    0.1445   -0.8350   -3.4621 O   0  0  0  0  0  0  0  0  0  0  0  0
   -5.8842    0.8076   -7.0314 H   0  0  0  0  0  0  0  0  0  0  0  0
   -5.7443    2.5768   -6.6704 H   0  0  0  0  0  0  0  0  0  0  0  0
   -5.1611    1.3826   -5.4593 H   0  0  0  0  0  0  0  0  0  0  0  0
   -2.7776    3.7043   -6.7011 H   0  0  0  0  0  0  0  0  0  0  0  0
   -1.5795    3.1583   -4.6864 H   0  0  0  0  0  0  0  0  0  0  0  0
   -4.8822    4.8850   -3.3249 H   0  0  0  0  0  0  0  0  0  0  0  0
   -4.0914    4.5595   -4.8772 H   0  0  0  0  0  0  0  0  0  0  0  0
   -2.9878    5.7947   -1.3377 H   0  0  0  0  0  0  0  0  0  0  0  0
   -1.7625    5.1508    0.5087 H   0  0  0  0  0  0  0  0  0  0  0  0
   -0.3114    4.1090    0.2344 H   0  0  0  0  0  0  0  0  0  0  0  0
   -1.9392    3.3905    0.2608 H   0  0  0  0  0  0  0  0  0  0  0  0
   -2.5350    6.5823   -5.5670 H   0  0  0  0  0  0  0  0  0  0  0  0
   -3.7954    9.0802   -4.5621 H   0  0  0  0  0  0  0  0  0  0  0  0
   -4.0352    8.5024   -6.2391 H   0  0  0  0  0  0  0  0  0  0  0  0
   -2.4289    9.0906   -5.7133 H   0  0  0  0  0  0  0  0  0  0  0  0
   -1.1379    0.5142   -5.4341 H   0  0  0  0  0  0  0  0  0  0  0  0
   -2.5851    0.3189   -4.4549 H   0  0  0  0  0  0  0  0  0  0  0  0
   -0.9793    2.0885   -2.9925 H   0  0  0  0  0  0  0  0  0  0  0  0
    1.6232    0.0707   -1.6529 H   0  0  0  0  0  0  0  0  0  0  0  0
    0.3939    1.2304   -1.1014 H   0  0  0  0  0  0  0  0  0  0  0  0
    2.6591   -0.0771   -3.6914 H   0  0  0  0  0  0  0  0  0  0  0  0
    3.5145   -0.2416   -5.9877 H   0  0  0  0  0  0  0  0  0  0  0  0
    3.4897    1.7718   -7.4807 H   0  0  0  0  0  0  0  0  0  0  0  0
    2.5564    3.8928   -6.6349 H   0  0  0  0  0  0  0  0  0  0  0  0
    1.3716    7.1086   -4.1712 H   0  0  0  0  0  0  0  0  0  0  0  0
    0.2933    8.6186   -5.8380 H   0  0  0  0  0  0  0  0  0  0  0  0
   -0.9305    7.6390   -7.7842 H   0  0  0  0  0  0  0  0  0  0  0  0
   -1.1144    5.1536   -7.9991 H   0  0  0  0  0  0  0  0  0  0  0  0
   -0.0114    3.6844   -6.3762 H   0  0  0  0  0  0  0  0  0  0  0  0
    4.8132    4.3707   -1.7568 H   0  0  0  0  0  0  0  0  0  0  0  0
    4.3387    3.0111   -2.8143 H   0  0  0  0  0  0  0  0  0  0  0  0
    4.1717    5.8085   -5.6891 H   0  0  0  0  0  0  0  0  0  0  0  0
    3.0678    9.5649   -8.2590 H   0  0  0  0  0  0  0  0  0  0  0  0
    3.2588   10.9704   -4.2023 H   0  0  0  0  0  0  0  0  0  0  0  0
    3.9476    8.7099   -3.4521 H   0  0  0  0  0  0  0  0  0  0  0  0
  1 61  1  0  0  0  0
  2  3  2  0  0  0  0
  2  1  1  0  0  0  0
  2  5  1  0  0  0  0
  4  2  2  0  0  0  0
  5  6  1  0  0  0  0
  6 63  1  0  0  0  0
  6 19  1  0  0  0  0
  8  9  1  0  0  0  0
  8  7  1  0  0  0  0
  8 64  1  0  0  0  0
  9 10  1  6  0  0  0
  9 11  1  0  0  0  0
 11 12  1  0  0  0  0
 11 66  1  0  0  0  0
 12 13  1  0  0  0  0
 13 68  1  0  0  0  0
 13 69  1  0  0  0  0
 13 67  1  0  0  0  0
 14 12  2  0  0  0  0
 15  9  1  0  0  0  0
 15 18  2  0  0  0  0
 16 15  1  0  0  0  0
 17 16  1  0  0  0  0
 17 71  1  0  0  0  0
 19 75  1  0  0  0  0
 19 20  1  0  0  0  0
 20 21  1  0  0  0  0
 20 76  1  0  0  0  0
 21 22  1  0  0  0  0
 22 77  1  0  0  0  0
 22 78  1  0  0  0  0
 23 22  1  0  0  0  0
 23 24  1  0  0  0  0
 24 57  2  0  0  0  0
 25 24  1  0  0  0  0
 25 26  1  1  0  0  0
 27 25  1  0  0  0  0
 28 27  2  0  0  0  0
 29 28  1  0  0  0  0
 29 30  1  0  0  0  0
 30 23  1  0  0  0  0
 31 30  2  0  0  0  0
 31 79  1  0  0  0  0
 32 31  1  0  0  0  0
 33 34  1  0  0  0  0
 33 32  2  0  0  0  0
 34 29  2  0  0  0  0
 35 36  1  0  0  0  0
 35 28  1  0  0  0  0
 36 83  1  0  0  0  0
 37 84  1  0  0  0  0
 37 36  2  0  0  0  0
 38 37  1  0  0  0  0
 39 38  2  0  0  0  0
 39 40  1  0  0  0  0
 40 35  2  0  0  0  0
 41 25  1  0  0  0  0
 41 88  1  0  0  0  0
 42 43  1  0  0  0  0
 42 41  1  0  0  0  0
 43 56  2  0  0  0  0
 44 43  1  0  0  0  0
 45 44  1  0  0  0  0
 45 55  1  0  0  0  0
 46 45  2  0  0  0  0
 47 48  1  0  0  0  0
 47 49  1  0  0  0  0
 47 46  1  0  0  0  0
 50 47  1  0  0  0  0
 51 46  1  0  0  0  0
 51 52  2  0  0  0  0
 52 54  1  0  0  0  0
 53 52  1  0  0  0  0
 54 55  2  0  0  0  0
 54 92  1  0  0  0  0
 55 93  1  0  0  0  0
 58 21  2  0  0  0  0
 59  1  1  0  0  0  0
 60  1  1  0  0  0  0
 62  5  1  0  0  0  0
 65  8  1  0  0  0  0
 70 16  1  0  0  0  0
 72 17  1  0  0  0  0
 73 17  1  0  0  0  0
 74 19  1  0  0  0  0
 80 32  1  0  0  0  0
 81 33  1  0  0  0  0
 82 34  1  0  0  0  0
 85 38  1  0  0  0  0
 86 39  1  0  0  0  0
 87 40  1  0  0  0  0
 89 41  1  0  0  0  0
 90 44  1  0  0  0  0
 91 51  1  0  0  0  0
M  END
