93
-1 1
C        -5.293916    1.586365   -6.531140
S        -3.670367    1.600321   -7.298002
O        -3.168632    0.217210   -7.194225
O        -3.844954    2.189052   -8.641274
C        -2.707552    2.671307   -6.356902
C        -2.197292    2.360942   -5.108507
S        -3.794787    2.735422   -3.329429
C        -3.967202    4.473479   -3.781434
C        -2.773546    5.376297   -3.371222
H        -1.885411    5.100372   -3.959218
N        -2.421340    5.256408   -1.982150
C        -1.471726    4.418513   -1.529855
C        -1.362154    4.281272   -0.031338
O        -0.735624    3.782185   -2.279234
C        -3.140124    6.832568   -3.638217
N        -3.000104    7.217940   -4.929884
C        -3.328959    8.538824   -5.394757
O        -3.585505    7.554351   -2.760303
C        -1.737569    0.994891   -4.644857
N        -0.911404    1.183982   -3.468756
C         0.003226    0.303406   -3.042073
C         0.950863    0.878550   -1.979219
N         1.691322    2.036165   -2.486077
C         1.987586    3.031018   -1.584051
C         2.661910    4.303445   -2.116866
H         2.699519    4.952368   -1.234585
N         1.843886    4.984551   -3.088457
C         1.575159    4.460962   -4.220169
C         2.078769    3.137302   -4.675910
C         2.143721    2.015883   -3.825370
C         2.657732    0.808349   -4.325485
C         3.129693    0.713781   -5.625757
C         3.110206    1.830942   -6.459177
C         2.584172    3.021045   -5.981431
C         0.803020    5.307009   -5.184970
C         0.838952    6.700175   -5.031139
C         0.228289    7.534337   -5.959956
C        -0.457398    6.985909   -7.046602
C        -0.554980    5.600700   -7.174040
C         0.076373    4.765078   -6.251335
C         4.140458    4.060491   -2.568431
O         4.464466    4.763317   -3.757870
C         4.368990    6.099274   -3.717876
N         4.232941    6.557783   -5.010563
C         3.900853    7.846559   -5.419940
C         3.655205    8.110286   -6.785204
C         3.785650    7.024261   -7.822809
F         5.012445    6.477690   -7.814739
F         2.925738    6.017114   -7.599637
F         3.559342    7.467870   -9.056332
C         3.264867    9.380055   -7.203980
C         3.120503   10.402361   -6.277266
Cl         2.618508   11.989374   -6.810688
C         3.372403   10.166106   -4.930305
C         3.762413    8.902711   -4.506103
O         4.408048    6.760530   -2.712923
O         1.739844    2.922043   -0.400925
O         0.144531   -0.834964   -3.462085
H        -5.884234    0.807639   -7.031448
H        -5.744325    2.576817   -6.670410
H        -5.161054    1.382647   -5.459348
H        -2.777617    3.704309   -6.701088
H        -1.579546    3.158340   -4.686428
H        -4.882194    4.885038   -3.324886
H        -4.091411    4.559468   -4.877189
H        -2.987805    5.794740   -1.337672
H        -1.762504    5.150805    0.508669
H        -0.311399    4.109023    0.234379
H        -1.939189    3.390462    0.260758
H        -2.534984    6.582348   -5.566962
H        -3.795423    9.080198   -4.562055
H        -4.035199    8.502446   -6.239086
H        -2.428914    9.090558   -5.713307
H        -1.137947    0.514220   -5.434059
H        -2.585058    0.318868   -4.454856
H        -0.979256    2.088476   -2.992510
H         1.623182    0.070653   -1.652924
H         0.393907    1.230386   -1.101406
H         2.659076   -0.077147   -3.691388
H         3.514519   -0.241581   -5.987715
H         3.489724    1.771778   -7.480696
H         2.556404    3.892808   -6.634922
H         1.371573    7.108577   -4.171225
H         0.293344    8.618574   -5.838006
H        -0.930477    7.638986   -7.784241
H        -1.114426    5.153629   -7.999052
H        -0.011394    3.684385   -6.376246
H         4.813166    4.370681   -1.756753
H         4.338651    3.011057   -2.814278
H         4.171718    5.808522   -5.689067
H         3.067765    9.564915   -8.258966
H         3.258760   10.970430   -4.202322
H         3.947644    8.709876   -3.452098
