93
-1 1
C        -5.902396   -2.762444   -1.093683
S        -4.538550   -3.101371   -2.187833
O        -4.199398   -4.525456   -2.067839
O        -4.849574   -2.553597   -3.518858
C        -3.225395   -2.124858   -1.521636
C        -2.444526   -2.505893   -0.507310
S        -4.603484   -1.838013    2.096254
C        -4.594261   -0.213624    1.289037
C        -3.255482    0.575796    1.393845
H        -2.501289    0.110927    0.742387
N        -2.718728    0.580808    2.727248
C        -1.832798   -0.329667    3.165365
C        -1.668208   -0.423142    4.661528
O        -1.183736   -1.051013    2.407835
C        -3.514978    2.017674    0.976521
N        -3.564206    2.218898   -0.367936
C        -3.887353    3.493506   -0.948981
O        -3.753533    2.895918    1.788437
C        -2.376664   -3.812547    0.231434
N        -1.491312   -3.647190    1.359413
C        -0.532879   -4.526527    1.687516
C         0.454351   -3.992033    2.731585
N         1.211050   -2.845734    2.224497
C         1.546042   -1.873774    3.141029
C         2.233421   -0.601692    2.626471
H         2.269476    0.036674    3.516371
N         1.429293    0.096957    1.656664
C         1.170769   -0.409096    0.515666
C         1.672466   -1.732877    0.056972
C         1.678553   -2.868498    0.891647
C         2.166330   -4.084647    0.384106
C         2.685313   -4.168957   -0.898684
C         2.742463   -3.034107   -1.706932
C         2.232925   -1.837678   -1.227070
C         0.402258    0.449762   -0.442073
C         0.329178    1.827607   -0.192953
C        -0.285263    2.683829   -1.098162
C        -0.860666    2.174060   -2.263524
C        -0.848392    0.800040   -2.493864
C        -0.219030   -0.056575   -1.589953
C         3.712289   -0.846803    2.180549
O         4.055636   -0.086171    1.032133
C         3.936249    1.246387    1.132724
N         3.777068    1.759695   -0.135967
C         3.372585    3.047603   -0.479905
C         3.129996    3.367163   -1.833340
C         3.364662    2.353434   -2.923293
F         4.641634    1.943115   -2.951668
F         2.620932    1.246054   -2.743068
F         3.073523    2.825583   -4.132236
C         2.658460    4.627724   -2.191598
C         2.432036    5.586292   -1.214554
Cl         1.825759    7.160047   -1.672075
C         2.683526    5.296437    0.122125
C         3.153268    4.041314    0.485938
O         3.973859    1.861579    2.166077
O         1.318599   -2.003985    4.325185
O        -0.391681   -5.637182    1.197512
H        -6.650331   -3.544186   -1.277747
H        -6.298261   -1.771315   -1.346636
H        -5.539953   -2.771425   -0.042424
H        -3.153592   -1.133644   -1.974858
H        -1.715345   -1.765741   -0.159786
H        -5.384302    0.431237    1.713430
H        -4.816270   -0.300377    0.208083
H        -3.245508    1.121540    3.401842
H        -1.936760    0.510204    5.176292
H        -0.637064   -0.712376    4.899206
H        -2.345636   -1.219144    5.007181
H        -3.240492    1.473464   -0.970208
H        -4.317989    4.121033   -0.158346
H        -4.621306    3.382435   -1.761881
H        -2.996145    4.008092   -1.348002
H        -1.976280   -4.607161   -0.417376
H        -3.382808   -4.123273    0.547721
H        -1.551430   -2.756467    1.866955
H         1.114395   -4.820388    3.030646
H        -0.072858   -3.639847    3.627060
H         2.114848   -4.981641    0.999335
H         3.053410   -5.129399   -1.264835
H         3.170206   -3.084235   -2.709819
H         2.264043   -0.950723   -1.860293
H         0.779403    2.206635    0.725185
H        -0.313665    3.756670   -0.892785
H        -1.334922    2.846460   -2.982428
H        -1.317800    0.384948   -3.388852
H        -0.212101   -1.127803   -1.794511
H         4.380253   -0.591001    3.014909
H         3.897785   -1.884507    1.880577
H         3.713967    1.039573   -0.845106
H         2.462475    4.855784   -3.238250
H         2.504579    6.050854    0.889316
H         3.337625    3.805186    1.531357
