-1 1
 OpenBabel05232413483D

 93 95  0  0  1  0  0  0  0  0999 V2000
   -5.9024   -2.7624   -1.0937 C   0  0  0  0  0  0  0  0  0  0  0  0
   -4.5385   -3.1014   -2.1878 S   0  0  0  0  0  0  0  0  0  0  0  0
   -4.1994   -4.5255   -2.0678 O   0  0  0  0  0  0  0  0  0  0  0  0
   -4.8496   -2.5536   -3.5189 O   0  0  0  0  0  0  0  0  0  0  0  0
   -3.2254   -2.1249   -1.5216 C   0  0  0  0  0  0  0  0  0  0  0  0
   -2.4445   -2.5059   -0.5073 C   0  0  0  0  0  0  0  0  0  0  0  0
   -4.6035   -1.8380    2.0963 S   0  0  0  0  0  1  0  0  0  0  0  0
   -4.5943   -0.2136    1.2890 C   0  0  0  0  0  0  0  0  0  0  0  0
   -3.2555    0.5758    1.3938 C   0  0  2  0  0  0  0  0  0  0  0  0
   -2.5013    0.1109    0.7424 H   0  0  0  0  0  0  0  0  0  0  0  0
   -2.7187    0.5808    2.7272 N   0  0  0  0  0  0  0  0  0  0  0  0
   -1.8328   -0.3297    3.1654 C   0  0  0  0  0  0  0  0  0  0  0  0
   -1.6682   -0.4231    4.6615 C   0  0  0  0  0  0  0  0  0  0  0  0
   -1.1837   -1.0510    2.4078 O   0  0  0  0  0  0  0  0  0  0  0  0
   -3.5150    2.0177    0.9765 C   0  0  0  0  0  0  0  0  0  0  0  0
   -3.5642    2.2189   -0.3679 N   0  0  0  0  0  0  0  0  0  0  0  0
   -3.8874    3.4935   -0.9490 C   0  0  0  0  0  0  0  0  0  0  0  0
   -3.7535    2.8959    1.7884 O   0  0  0  0  0  0  0  0  0  0  0  0
   -2.3767   -3.8125    0.2314 C   0  0  0  0  0  0  0  0  0  0  0  0
   -1.4913   -3.6472    1.3594 N   0  0  0  0  0  0  0  0  0  0  0  0
   -0.5329   -4.5265    1.6875 C   0  0  0  0  0  0  0  0  0  0  0  0
    0.4544   -3.9920    2.7316 C   0  0  0  0  0  0  0  0  0  0  0  0
    1.2110   -2.8457    2.2245 N   0  0  0  0  0  0  0  0  0  0  0  0
    1.5460   -1.8738    3.1410 C   0  0  0  0  0  0  0  0  0  0  0  0
    2.2334   -0.6017    2.6265 C   0  0  2  0  0  0  0  0  0  0  0  0
    2.2695    0.0367    3.5164 H   0  0  0  0  0  0  0  0  0  0  0  0
    1.4293    0.0970    1.6567 N   0  0  0  0  0  0  0  0  0  0  0  0
    1.1708   -0.4091    0.5157 C   0  0  0  0  0  0  0  0  0  0  0  0
    1.6725   -1.7329    0.0570 C   0  0  0  0  0  0  0  0  0  0  0  0
    1.6786   -2.8685    0.8916 C   0  0  0  0  0  0  0  0  0  0  0  0
    2.1663   -4.0846    0.3841 C   0  0  0  0  0  0  0  0  0  0  0  0
    2.6853   -4.1690   -0.8987 C   0  0  0  0  0  0  0  0  0  0  0  0
    2.7425   -3.0341   -1.7069 C   0  0  0  0  0  0  0  0  0  0  0  0
    2.2329   -1.8377   -1.2271 C   0  0  0  0  0  0  0  0  0  0  0  0
    0.4023    0.4498   -0.4421 C   0  0  0  0  0  0  0  0  0  0  0  0
    0.3292    1.8276   -0.1930 C   0  0  0  0  0  0  0  0  0  0  0  0
   -0.2853    2.6838   -1.0982 C   0  0  0  0  0  0  0  0  0  0  0  0
   -0.8607    2.1741   -2.2635 C   0  0  0  0  0  0  0  0  0  0  0  0
   -0.8484    0.8000   -2.4939 C   0  0  0  0  0  0  0  0  0  0  0  0
   -0.2190   -0.0566   -1.5900 C   0  0  0  0  0  0  0  0  0  0  0  0
    3.7123   -0.8468    2.1805 C   0  0  0  0  0  0  0  0  0  0  0  0
    4.0556   -0.0862    1.0321 O   0  0  0  0  0  0  0  0  0  0  0  0
    3.9362    1.2464    1.1327 C   0  0  0  0  0  0  0  0  0  0  0  0
    3.7771    1.7597   -0.1360 N   0  0  0  0  0  0  0  0  0  0  0  0
    3.3726    3.0476   -0.4799 C   0  0  0  0  0  0  0  0  0  0  0  0
    3.1300    3.3672   -1.8333 C   0  0  0  0  0  0  0  0  0  0  0  0
    3.3647    2.3534   -2.9233 C   0  0  0  0  0  0  0  0  0  0  0  0
    4.6416    1.9431   -2.9517 F   0  0  0  0  0  0  0  0  0  0  0  0
    2.6209    1.2461   -2.7431 F   0  0  0  0  0  0  0  0  0  0  0  0
    3.0735    2.8256   -4.1322 F   0  0  0  0  0  0  0  0  0  0  0  0
    2.6585    4.6277   -2.1916 C   0  0  0  0  0  0  0  0  0  0  0  0
    2.4320    5.5863   -1.2146 C   0  0  0  0  0  0  0  0  0  0  0  0
    1.8258    7.1600   -1.6721 Cl  0  0  0  0  0  0  0  0  0  0  0  0
    2.6835    5.2964    0.1221 C   0  0  0  0  0  0  0  0  0  0  0  0
    3.1533    4.0413    0.4859 C   0  0  0  0  0  0  0  0  0  0  0  0
    3.9739    1.8616    2.1661 O   0  0  0  0  0  0  0  0  0  0  0  0
    1.3186   -2.0040    4.3252 O   0  0  0  0  0  0  0  0  0  0  0  0
   -0.3917   -5.6372    1.1975 O   0  0  0  0  0  0  0  0  0  0  0  0
   -6.6503   -3.5442   -1.2777 H   0  0  0  0  0  0  0  0  0  0  0  0
   -6.2983   -1.7713   -1.3466 H   0  0  0  0  0  0  0  0  0  0  0  0
   -5.5400   -2.7714   -0.0424 H   0  0  0  0  0  0  0  0  0  0  0  0
   -3.1536   -1.1336   -1.9749 H   0  0  0  0  0  0  0  0  0  0  0  0
   -1.7153   -1.7657   -0.1598 H   0  0  0  0  0  0  0  0  0  0  0  0
   -5.3843    0.4312    1.7134 H   0  0  0  0  0  0  0  0  0  0  0  0
   -4.8163   -0.3004    0.2081 H   0  0  0  0  0  0  0  0  0  0  0  0
   -3.2455    1.1215    3.4018 H   0  0  0  0  0  0  0  0  0  0  0  0
   -1.9368    0.5102    5.1763 H   0  0  0  0  0  0  0  0  0  0  0  0
   -0.6371   -0.7124    4.8992 H   0  0  0  0  0  0  0  0  0  0  0  0
   -2.3456   -1.2191    5.0072 H   0  0  0  0  0  0  0  0  0  0  0  0
   -3.2405    1.4735   -0.9702 H   0  0  0  0  0  0  0  0  0  0  0  0
   -4.3180    4.1210   -0.1583 H   0  0  0  0  0  0  0  0  0  0  0  0
   -4.6213    3.3824   -1.7619 H   0  0  0  0  0  0  0  0  0  0  0  0
   -2.9961    4.0081   -1.3480 H   0  0  0  0  0  0  0  0  0  0  0  0
   -1.9763   -4.6072   -0.4174 H   0  0  0  0  0  0  0  0  0  0  0  0
   -3.3828   -4.1233    0.5477 H   0  0  0  0  0  0  0  0  0  0  0  0
   -1.5514   -2.7565    1.8670 H   0  0  0  0  0  0  0  0  0  0  0  0
    1.1144   -4.8204    3.0306 H   0  0  0  0  0  0  0  0  0  0  0  0
   -0.0729   -3.6398    3.6271 H   0  0  0  0  0  0  0  0  0  0  0  0
    2.1148   -4.9816    0.9993 H   0  0  0  0  0  0  0  0  0  0  0  0
    3.0534   -5.1294   -1.2648 H   0  0  0  0  0  0  0  0  0  0  0  0
    3.1702   -3.0842   -2.7098 H   0  0  0  0  0  0  0  0  0  0  0  0
    2.2640   -0.9507   -1.8603 H   0  0  0  0  0  0  0  0  0  0  0  0
    0.7794    2.2066    0.7252 H   0  0  0  0  0  0  0  0  0  0  0  0
   -0.3137    3.7567   -0.8928 H   0  0  0  0  0  0  0  0  0  0  0  0
   -1.3349    2.8465   -2.9824 H   0  0  0  0  0  0  0  0  0  0  0  0
   -1.3178    0.3849   -3.3889 H   0  0  0  0  0  0  0  0  0  0  0  0
   -0.2121   -1.1278   -1.7945 H   0  0  0  0  0  0  0  0  0  0  0  0
    4.3803   -0.5910    3.0149 H   0  0  0  0  0  0  0  0  0  0  0  0
    3.8978   -1.8845    1.8806 H   0  0  0  0  0  0  0  0  0  0  0  0
    3.7140    1.0396   -0.8451 H   0  0  0  0  0  0  0  0  0  0  0  0
    2.4625    4.8558   -3.2382 H   0  0  0  0  0  0  0  0  0  0  0  0
    2.5046    6.0509    0.8893 H   0  0  0  0  0  0  0  0  0  0  0  0
    3.3376    3.8052    1.5314 H   0  0  0  0  0  0  0  0  0  0  0  0
  1 61  1  0  0  0  0
  2  3  2  0  0  0  0
  2  5  1  0  0  0  0
  2  1  1  0  0  0  0
  4  2  2  0  0  0  0
  5  6  2  0  0  0  0
  6 63  1  0  0  0  0
  6 19  1  0  0  0  0
  8  9  1  0  0  0  0
  8 64  1  0  0  0  0
  8  7  1  0  0  0  0
  9 10  1  6  0  0  0
  9 11  1  0  0  0  0
 11 12  1  0  0  0  0
 11 66  1  0  0  0  0
 12 13  1  0  0  0  0
 13 68  1  0  0  0  0
 13 69  1  0  0  0  0
 13 67  1  0  0  0  0
 14 12  2  0  0  0  0
 15  9  1  0  0  0  0
 15 18  2  0  0  0  0
 16 15  1  0  0  0  0
 17 16  1  0  0  0  0
 17 71  1  0  0  0  0
 19 75  1  0  0  0  0
 19 20  1  0  0  0  0
 20 21  1  0  0  0  0
 20 76  1  0  0  0  0
 21 22  1  0  0  0  0
 22 77  1  0  0  0  0
 22 78  1  0  0  0  0
 23 22  1  0  0  0  0
 23 24  1  0  0  0  0
 24 57  2  0  0  0  0
 25 24  1  0  0  0  0
 25 26  1  1  0  0  0
 27 25  1  0  0  0  0
 28 27  2  0  0  0  0
 29 28  1  0  0  0  0
 29 30  1  0  0  0  0
 30 23  1  0  0  0  0
 31 30  2  0  0  0  0
 31 79  1  0  0  0  0
 32 31  1  0  0  0  0
 33 34  1  0  0  0  0
 33 32  2  0  0  0  0
 34 29  2  0  0  0  0
 35 36  1  0  0  0  0
 35 28  1  0  0  0  0
 36 83  1  0  0  0  0
 37 84  1  0  0  0  0
 37 36  2  0  0  0  0
 38 37  1  0  0  0  0
 39 38  2  0  0  0  0
 39 40  1  0  0  0  0
 40 35  2  0  0  0  0
 41 25  1  0  0  0  0
 41 88  1  0  0  0  0
 42 43  1  0  0  0  0
 42 41  1  0  0  0  0
 43 56  2  0  0  0  0
 44 43  1  0  0  0  0
 45 44  1  0  0  0  0
 45 55  1  0  0  0  0
 46 45  2  0  0  0  0
 47 49  1  0  0  0  0
 47 46  1  0  0  0  0
 48 47  1  0  0  0  0
 50 47  1  0  0  0  0
 51 46  1  0  0  0  0
 51 52  2  0  0  0  0
 52 54  1  0  0  0  0
 53 52  1  0  0  0  0
 54 55  2  0  0  0  0
 54 92  1  0  0  0  0
 55 93  1  0  0  0  0
 58 21  2  0  0  0  0
 59  1  1  0  0  0  0
 60  1  1  0  0  0  0
 62  5  1  0  0  0  0
 65  8  1  0  0  0  0
 70 16  1  0  0  0  0
 72 17  1  0  0  0  0
 73 17  1  0  0  0  0
 74 19  1  0  0  0  0
 80 32  1  0  0  0  0
 81 33  1  0  0  0  0
 82 34  1  0  0  0  0
 85 38  1  0  0  0  0
 86 39  1  0  0  0  0
 87 40  1  0  0  0  0
 89 41  1  0  0  0  0
 90 44  1  0  0  0  0
 91 51  1  0  0  0  0
M  END
