-1 1
 OpenBabel05232414493D

 62 63  0  0  1  0  0  0  0  0999 V2000
    4.1125    1.4818   -2.2131 O   0  0  0  0  0  0  0  0  0  0  0  0
    2.9150    1.6746   -2.3275 C   0  0  0  0  0  0  0  0  0  0  0  0
    2.0079    1.7225   -1.0911 C   0  0  2  0  0  0  0  0  0  0  0  0
    1.9561    0.3323   -0.4238 C   0  0  0  0  0  0  0  0  0  0  0  0
    0.7946   -0.8067   -1.2021 S   0  0  0  0  0  1  0  0  0  0  0  0
   -0.8411   -0.7909    0.6283 C   0  0  0  0  0  3  0  0  0  0  0  0
   -0.4624    0.0593    1.6558 C   0  0  2  0  0  3  0  0  0  0  0  0
   -0.8168    1.7895    1.8878 S   0  0  0  0  0  0  0  0  0  0  0  0
    0.4072   -0.4245    2.7110 C   0  0  0  0  0  0  0  0  0  0  0  0
    0.8525   -1.5456    2.8752 O   0  0  0  0  0  0  0  0  0  0  0  0
    0.6963    0.6287    3.6033 N   0  0  0  0  0  0  0  0  0  0  0  0
    0.1598    1.8685    3.3783 C   0  0  0  0  0  0  0  0  0  0  0  0
    0.3025    2.8521    4.0608 O   0  0  0  0  0  0  0  0  0  0  0  0
   -2.0030   -0.6615   -0.2781 C   0  0  0  0  0  0  0  0  0  0  0  0
   -2.7819    0.4936   -0.4029 C   0  0  0  0  0  0  0  0  0  0  0  0
   -3.8571    0.5293   -1.2924 C   0  0  0  0  0  0  0  0  0  0  0  0
   -4.1657   -0.5776   -2.0617 C   0  0  0  0  0  0  0  0  0  0  0  0
   -5.1982   -0.5152   -2.9780 O   0  0  0  0  0  0  0  0  0  0  0  0
   -6.3155   -1.2310   -2.7774 C   0  0  0  0  0  0  0  0  0  0  0  0
   -7.2300   -1.2552   -3.8401 C   0  0  0  0  0  0  0  0  0  0  0  0
   -8.4239   -1.9464   -3.7255 C   0  0  0  0  0  0  0  0  0  0  0  0
   -9.3918   -1.9590   -4.8891 C   0  0  0  0  0  0  0  0  0  0  0  0
   -8.9317   -1.2537   -5.9256 F   0  0  0  0  0  0  0  0  0  0  0  0
   -9.6165   -3.2018   -5.3232 F   0  0  0  0  0  0  0  0  0  0  0  0
  -10.5723   -1.4364   -4.5469 F   0  0  0  0  0  0  0  0  0  0  0  0
   -8.7306   -2.6346   -2.5335 C   0  0  0  0  0  0  0  0  0  0  0  0
   -9.9526   -3.3699   -2.3600 C   0  0  0  0  0  0  0  0  0  0  0  0
  -10.9251   -3.9724   -2.1839 N   0  0  0  0  0  0  0  0  0  0  0  0
   -7.8095   -2.5986   -1.4794 C   0  0  0  0  0  0  0  0  0  0  0  0
   -6.6116   -1.9059   -1.5899 C   0  0  0  0  0  0  0  0  0  0  0  0
   -3.4013   -1.7547   -1.9548 C   0  0  0  0  0  0  0  0  0  0  0  0
   -3.7843   -2.7811   -2.7427 O   0  0  0  0  0  0  0  0  0  0  0  0
   -3.0373   -3.9686   -2.7096 C   0  0  0  0  0  0  0  0  0  0  0  0
   -2.3424   -1.7851   -1.0560 C   0  0  0  0  0  0  0  0  0  0  0  0
    0.6696    2.1917   -1.3559 N   0  0  0  0  0  0  0  0  0  0  0  0
    0.2967    3.4928   -1.2285 C   0  0  0  0  0  0  0  0  0  0  0  0
   -1.1959    3.7425   -1.3463 C   0  0  0  0  0  0  0  0  0  0  0  0
    1.0861    4.3967   -1.0277 O   0  0  0  0  0  0  0  0  0  0  0  0
    2.4980    2.4349   -0.4098 H   0  0  0  0  0  0  0  0  0  0  0  0
    2.2899    1.8403   -3.5193 N   0  0  0  0  0  0  0  0  0  0  0  0
    2.9769    1.7476   -4.7770 C   0  0  0  0  0  0  0  0  0  0  0  0
    2.9727   -0.0824   -0.4024 H   0  0  0  0  0  0  0  0  0  0  0  0
    1.6289    0.4636    0.6256 H   0  0  0  0  0  0  0  0  0  0  0  0
   -0.5464   -1.8198    0.8418 H   0  0  0  0  0  0  0  0  0  0  0  0
    1.2968    0.4700    4.4034 H   0  0  0  0  0  0  0  0  0  0  0  0
   -2.5683    1.3800    0.1915 H   0  0  0  0  0  0  0  0  0  0  0  0
   -4.4689    1.4271   -1.3982 H   0  0  0  0  0  0  0  0  0  0  0  0
   -6.9752   -0.7220   -4.7550 H   0  0  0  0  0  0  0  0  0  0  0  0
   -8.0439   -3.1267   -0.5538 H   0  0  0  0  0  0  0  0  0  0  0  0
   -5.9067   -1.8855   -0.7583 H   0  0  0  0  0  0  0  0  0  0  0  0
   -3.4992   -4.6481   -3.4361 H   0  0  0  0  0  0  0  0  0  0  0  0
   -3.0637   -4.4387   -1.7113 H   0  0  0  0  0  0  0  0  0  0  0  0
   -1.9857   -3.7940   -2.9929 H   0  0  0  0  0  0  0  0  0  0  0  0
   -1.7193   -2.6755   -0.9681 H   0  0  0  0  0  0  0  0  0  0  0  0
   -0.0223    1.4436   -1.4380 H   0  0  0  0  0  0  0  0  0  0  0  0
   -1.7308    2.9267   -1.8528 H   0  0  0  0  0  0  0  0  0  0  0  0
   -1.3574    4.6886   -1.8788 H   0  0  0  0  0  0  0  0  0  0  0  0
   -1.6050    3.8508   -0.3302 H   0  0  0  0  0  0  0  0  0  0  0  0
    1.2842    1.9411   -3.4916 H   0  0  0  0  0  0  0  0  0  0  0  0
    4.0469    1.6319   -4.5598 H   0  0  0  0  0  0  0  0  0  0  0  0
    2.8333    2.6557   -5.3853 H   0  0  0  0  0  0  0  0  0  0  0  0
    2.6414    0.8754   -5.3622 H   0  0  0  0  0  0  0  0  0  0  0  0
  2  1  2  0  0  0  0
  2  3  1  0  0  0  0
  3  4  1  0  0  0  0
  3 39  1  1  0  0  0
  4 42  1  0  0  0  0
  4 43  1  0  0  0  0
  5  4  1  0  0  0  0
  6 44  1  0  0  0  0
  7  6  1  6  0  0  0
  7  8  1  0  0  0  0
  7  9  1  0  0  0  0
  8 12  1  0  0  0  0
  9 10  2  0  0  0  0
  9 11  1  0  0  0  0
 11 45  1  0  0  0  0
 12 11  1  0  0  0  0
 12 13  2  0  0  0  0
 14  6  1  0  0  0  0
 15 14  1  0  0  0  0
 15 46  1  0  0  0  0
 16 15  2  0  0  0  0
 17 31  2  0  0  0  0
 17 16  1  0  0  0  0
 18 19  1  0  0  0  0
 18 17  1  0  0  0  0
 19 30  1  0  0  0  0
 20 21  1  0  0  0  0
 20 19  2  0  0  0  0
 21 26  2  0  0  0  0
 22 25  1  0  0  0  0
 22 21  1  0  0  0  0
 23 22  1  0  0  0  0
 24 22  1  0  0  0  0
 26 27  1  0  0  0  0
 26 29  1  0  0  0  0
 27 28  3  0  0  0  0
 29 49  1  0  0  0  0
 30 29  2  0  0  0  0
 30 50  1  0  0  0  0
 31 34  1  0  0  0  0
 32 33  1  0  0  0  0
 32 31  1  0  0  0  0
 33 52  1  0  0  0  0
 34 54  1  0  0  0  0
 34 14  2  0  0  0  0
 35 36  1  0  0  0  0
 35  3  1  0  0  0  0
 36 38  2  0  0  0  0
 37 36  1  0  0  0  0
 37 58  1  0  0  0  0
 40 59  1  0  0  0  0
 40  2  1  0  0  0  0
 41 60  1  0  0  0  0
 41 40  1  0  0  0  0
 47 16  1  0  0  0  0
 48 20  1  0  0  0  0
 51 33  1  0  0  0  0
 53 33  1  0  0  0  0
 55 35  1  0  0  0  0
 56 37  1  0  0  0  0
 57 37  1  0  0  0  0
 61 41  1  0  0  0  0
 62 41  1  0  0  0  0
M  END
