-1 1
 OpenBabel05232413483D

 62 63  0  0  1  0  0  0  0  0999 V2000
    6.8905    1.7425   -0.5299 O   0  0  0  0  0  0  0  0  0  0  0  0
    5.9159    1.0736   -0.8333 C   0  0  0  0  0  0  0  0  0  0  0  0
    4.8280    0.7094    0.1939 C   0  0  2  0  0  0  0  0  0  0  0  0
    4.5124   -0.8029    0.2246 C   0  0  0  0  0  0  0  0  0  0  0  0
    3.3679   -1.3750   -1.0947 S   0  0  0  0  0  1  0  0  0  0  0  0
    1.5176    0.3099    2.3147 C   0  0  0  0  0  0  0  0  0  0  0  0
    1.9751    1.1878    3.2222 C   0  0  0  0  0  0  0  0  0  0  0  0
    1.1890    2.6315    3.8669 S   0  0  0  0  0  0  0  0  0  0  0  0
    3.3832    1.1002    3.7215 C   0  0  0  0  0  0  0  0  0  0  0  0
    4.1623    0.2073    3.5120 O   0  0  0  0  0  0  0  0  0  0  0  0
    3.6677    2.2129    4.5008 N   0  0  0  0  0  0  0  0  0  0  0  0
    2.7049    3.1801    4.6595 C   0  0  0  0  0  0  0  0  0  0  0  0
    2.8138    4.2100    5.2616 O   0  0  0  0  0  0  0  0  0  0  0  0
    0.2261    0.3018    1.6202 C   0  0  0  0  0  0  0  0  0  0  0  0
   -0.9372    0.8631    2.1635 C   0  0  0  0  0  0  0  0  0  0  0  0
   -2.1213    0.8513    1.4296 C   0  0  0  0  0  0  0  0  0  0  0  0
   -2.1453    0.2959    0.1606 C   0  0  0  0  0  0  0  0  0  0  0  0
   -3.3118    0.3456   -0.5727 O   0  0  0  0  0  0  0  0  0  0  0  0
   -3.9677   -0.7859   -0.8826 C   0  0  0  0  0  0  0  0  0  0  0  0
   -5.0408   -0.6478   -1.7734 C   0  0  0  0  0  0  0  0  0  0  0  0
   -5.8034   -1.7465   -2.1312 C   0  0  0  0  0  0  0  0  0  0  0  0
   -6.9584   -1.5694   -3.0934 C   0  0  0  0  0  0  0  0  0  0  0  0
   -7.0834   -0.3003   -3.4904 F   0  0  0  0  0  0  0  0  0  0  0  0
   -6.8002   -2.3148   -4.1892 F   0  0  0  0  0  0  0  0  0  0  0  0
   -8.1178   -1.9248   -2.5327 F   0  0  0  0  0  0  0  0  0  0  0  0
   -5.5029   -3.0178   -1.6010 C   0  0  0  0  0  0  0  0  0  0  0  0
   -6.2629   -4.1909   -1.9339 C   0  0  0  0  0  0  0  0  0  0  0  0
   -6.8546   -5.1556   -2.1764 N   0  0  0  0  0  0  0  0  0  0  0  0
   -4.4270   -3.1404   -0.7133 C   0  0  0  0  0  0  0  0  0  0  0  0
   -3.6618   -2.0406   -0.3499 C   0  0  0  0  0  0  0  0  0  0  0  0
   -0.9877   -0.2732   -0.4058 C   0  0  0  0  0  0  0  0  0  0  0  0
   -1.1284   -0.7870   -1.6356 O   0  0  0  0  0  0  0  0  0  0  0  0
   -0.0166   -1.4313   -2.2305 C   0  0  0  0  0  0  0  0  0  0  0  0
    0.1909   -0.2819    0.3402 C   0  0  0  0  0  0  0  0  0  0  0  0
    3.6155    1.4586   -0.0668 N   0  0  0  0  0  0  0  0  0  0  0  0
    3.1922    2.5346    0.6222 C   0  0  0  0  0  0  0  0  0  0  0  0
    1.8715    3.1160    0.1526 C   0  0  0  0  0  0  0  0  0  0  0  0
    3.7928    3.0238    1.5728 O   0  0  0  0  0  0  0  0  0  0  0  0
    5.2234    1.0354    1.1644 H   0  0  0  0  0  0  0  0  0  0  0  0
    5.6830    0.6012   -2.0839 N   0  0  0  0  0  0  0  0  0  0  0  0
    6.6066    0.8016   -3.1654 C   0  0  0  0  0  0  0  0  0  0  0  0
    5.4657   -1.3511    0.1636 H   0  0  0  0  0  0  0  0  0  0  0  0
    4.0941   -1.0296    1.2163 H   0  0  0  0  0  0  0  0  0  0  0  0
    2.2408   -0.4501    2.0027 H   0  0  0  0  0  0  0  0  0  0  0  0
    4.6207    2.3967    4.7941 H   0  0  0  0  0  0  0  0  0  0  0  0
   -0.9406    1.2800    3.1713 H   0  0  0  0  0  0  0  0  0  0  0  0
   -3.0433    1.2740    1.8319 H   0  0  0  0  0  0  0  0  0  0  0  0
   -5.2564    0.3405   -2.1772 H   0  0  0  0  0  0  0  0  0  0  0  0
   -4.1895   -4.1224   -0.3013 H   0  0  0  0  0  0  0  0  0  0  0  0
   -2.8280   -2.1548    0.3433 H   0  0  0  0  0  0  0  0  0  0  0  0
   -0.3545   -1.7717   -3.2160 H   0  0  0  0  0  0  0  0  0  0  0  0
    0.3161   -2.2929   -1.6303 H   0  0  0  0  0  0  0  0  0  0  0  0
    0.8415   -0.7495   -2.3375 H   0  0  0  0  0  0  0  0  0  0  0  0
    1.1179   -0.7107   -0.0757 H   0  0  0  0  0  0  0  0  0  0  0  0
    3.0088    0.9979   -0.7496 H   0  0  0  0  0  0  0  0  0  0  0  0
    1.4479    2.5963   -0.7178 H   0  0  0  0  0  0  0  0  0  0  0  0
    2.0267    4.1762   -0.0921 H   0  0  0  0  0  0  0  0  0  0  0  0
    1.1524    3.0723    0.9831 H   0  0  0  0  0  0  0  0  0  0  0  0
    4.8999   -0.0591   -2.1895 H   0  0  0  0  0  0  0  0  0  0  0  0
    7.3746    1.5121   -2.8319 H   0  0  0  0  0  0  0  0  0  0  0  0
    6.1001    1.2131   -4.0542 H   0  0  0  0  0  0  0  0  0  0  0  0
    7.1050   -0.1380   -3.4611 H   0  0  0  0  0  0  0  0  0  0  0  0
  2  1  2  0  0  0  0
  2  3  1  0  0  0  0
  3  4  1  0  0  0  0
  3 39  1  1  0  0  0
  4 43  1  0  0  0  0
  5  4  1  0  0  0  0
  6  7  2  0  0  0  0
  7  9  1  0  0  0  0
  7  8  1  0  0  0  0
  8 12  1  0  0  0  0
  9 11  1  0  0  0  0
 10  9  2  0  0  0  0
 11 12  1  0  0  0  0
 11 45  1  0  0  0  0
 12 13  2  0  0  0  0
 14 15  1  0  0  0  0
 14  6  1  0  0  0  0
 15 46  1  0  0  0  0
 16 47  1  0  0  0  0
 16 15  2  0  0  0  0
 17 16  1  0  0  0  0
 18 17  1  0  0  0  0
 19 18  1  0  0  0  0
 19 30  1  0  0  0  0
 20 19  2  0  0  0  0
 21 20  1  0  0  0  0
 21 26  2  0  0  0  0
 22 25  1  0  0  0  0
 22 21  1  0  0  0  0
 23 22  1  0  0  0  0
 24 22  1  0  0  0  0
 26 29  1  0  0  0  0
 27 26  1  0  0  0  0
 28 27  3  0  0  0  0
 29 30  2  0  0  0  0
 29 49  1  0  0  0  0
 30 50  1  0  0  0  0
 31 17  2  0  0  0  0
 31 34  1  0  0  0  0
 32 31  1  0  0  0  0
 33 32  1  0  0  0  0
 33 52  1  0  0  0  0
 34 14  2  0  0  0  0
 35  3  1  0  0  0  0
 35 36  1  0  0  0  0
 36 38  2  0  0  0  0
 37 36  1  0  0  0  0
 37 58  1  0  0  0  0
 40  2  1  0  0  0  0
 41 60  1  0  0  0  0
 41 40  1  0  0  0  0
 42  4  1  0  0  0  0
 44  6  1  0  0  0  0
 48 20  1  0  0  0  0
 51 33  1  0  0  0  0
 53 33  1  0  0  0  0
 54 34  1  0  0  0  0
 55 35  1  0  0  0  0
 56 37  1  0  0  0  0
 57 37  1  0  0  0  0
 59 40  1  0  0  0  0
 61 41  1  0  0  0  0
 62 41  1  0  0  0  0
M  END
