64
-1 1
C         1.064692   -4.939083   -1.511090
C         1.532109   -3.497420   -1.342876
S         2.482285   -3.448613    0.389854
C         1.112868   -2.961254    1.481981
C         0.814856   -1.456551    1.437373
H         0.501794   -1.185924    0.414789
N         2.018015   -0.725229    1.770140
C         2.040533    0.597380    2.051657
C         3.423822    1.219107    2.053324
O         1.038022    1.260232    2.270854
C        -0.324661   -1.135518    2.412601
N        -1.414872   -0.590671    1.805833
C        -2.497087   -0.037108    2.574430
O        -0.279285   -1.428072    3.591334
C         2.306400   -2.973116   -2.466740
C         2.399014   -1.627542   -2.854863
C         1.443109   -0.632115   -2.197590
C         1.977612    0.496278   -1.561565
C         1.158078    1.422856   -0.929541
C        -0.236409    1.275706   -0.927928
C        -1.101570    2.249831   -0.166508
C        -1.268803    3.607033   -0.854221
C        -2.016899    4.640239   -0.007113
C        -3.385586    4.193045    0.513424
C        -4.366879    3.756863   -0.571213
C        -5.737300    3.362617   -0.026085
C        -6.713110    2.912564   -1.107744
C        -0.776256    0.193310   -1.628364
C         0.051225   -0.747311   -2.249875
O         3.186659   -1.135207   -3.687364
H         0.530823   -5.315478   -0.623922
H         1.923303   -5.603308   -1.696106
H         0.394819   -5.004655   -2.384092
H         0.675576   -2.858953   -1.092672
H         1.365017   -3.236724    2.516407
H         0.203986   -3.517508    1.203053
H         2.860085   -1.166211    1.403221
H         4.191654    0.530774    2.433454
H         3.402805    2.132040    2.660310
H         3.687567    1.488328    1.018480
H        -1.256806   -0.217833    0.876675
H        -2.321421    1.025215    2.820386
H        -2.574453   -0.595423    3.516383
H        -3.446155   -0.122759    2.023836
H         3.020512   -3.651904   -2.948674
H         3.063843    0.618735   -1.565454
H         1.598945    2.266284   -0.389746
H        -0.659961    2.388079    0.835897
H        -2.097497    1.799817   -0.010917
H        -1.778319    3.460096   -1.822177
H        -0.272099    4.006472   -1.103706
H        -2.140275    5.564930   -0.598473
H        -1.388363    4.911168    0.858479
H        -3.833834    5.020285    1.091440
H        -3.254801    3.366619    1.233666
H        -3.947847    2.902813   -1.131398
H        -4.484642    4.571052   -1.310028
H        -6.166952    4.214496    0.530196
H        -5.608932    2.554407    0.715122
H        -6.884185    3.712382   -1.846212
H        -7.689889    2.633303   -0.684104
H        -6.323294    2.039075   -1.654207
H        -1.864293    0.069615   -1.671329
H        -0.387075   -1.599800   -2.775944
