-1 1
 OpenBabel05192410563D

 64 64  0  0  1  0  0  0  0  0999 V2000
    1.0647   -4.9391   -1.5111 C   0  0  0  0  0  0  0  0  0  0  0  0
    1.5321   -3.4974   -1.3429 C   0  0  1  0  0  0  0  0  0  0  0  0
    2.4823   -3.4486    0.3899 S   0  0  0  0  0  0  0  0  0  0  0  0
    1.1129   -2.9613    1.4820 C   0  0  0  0  0  0  0  0  0  0  0  0
    0.8149   -1.4566    1.4374 C   0  0  2  0  0  0  0  0  0  0  0  0
    0.5018   -1.1859    0.4148 H   0  0  0  0  0  0  0  0  0  0  0  0
    2.0180   -0.7252    1.7701 N   0  0  0  0  0  0  0  0  0  0  0  0
    2.0405    0.5974    2.0517 C   0  0  0  0  0  0  0  0  0  0  0  0
    3.4238    1.2191    2.0533 C   0  0  0  0  0  0  0  0  0  0  0  0
    1.0380    1.2602    2.2709 O   0  0  0  0  0  0  0  0  0  0  0  0
   -0.3247   -1.1355    2.4126 C   0  0  0  0  0  0  0  0  0  0  0  0
   -1.4149   -0.5907    1.8058 N   0  0  0  0  0  0  0  0  0  0  0  0
   -2.4971   -0.0371    2.5744 C   0  0  0  0  0  0  0  0  0  0  0  0
   -0.2793   -1.4281    3.5913 O   0  0  0  0  0  0  0  0  0  0  0  0
    2.3064   -2.9731   -2.4667 C   0  0  0  0  0  3  0  0  0  0  0  0
    2.3990   -1.6275   -2.8549 C   0  0  0  0  0  0  0  0  0  0  0  0
    1.4431   -0.6321   -2.1976 C   0  0  0  0  0  0  0  0  0  0  0  0
    1.9776    0.4963   -1.5616 C   0  0  0  0  0  0  0  0  0  0  0  0
    1.1581    1.4229   -0.9295 C   0  0  0  0  0  0  0  0  0  0  0  0
   -0.2364    1.2757   -0.9279 C   0  0  0  0  0  0  0  0  0  0  0  0
   -1.1016    2.2498   -0.1665 C   0  0  0  0  0  0  0  0  0  0  0  0
   -1.2688    3.6070   -0.8542 C   0  0  0  0  0  0  0  0  0  0  0  0
   -2.0169    4.6402   -0.0071 C   0  0  0  0  0  0  0  0  0  0  0  0
   -3.3856    4.1930    0.5134 C   0  0  0  0  0  0  0  0  0  0  0  0
   -4.3669    3.7569   -0.5712 C   0  0  0  0  0  0  0  0  0  0  0  0
   -5.7373    3.3626   -0.0261 C   0  0  0  0  0  0  0  0  0  0  0  0
   -6.7131    2.9126   -1.1077 C   0  0  0  0  0  0  0  0  0  0  0  0
   -0.7763    0.1933   -1.6284 C   0  0  0  0  0  0  0  0  0  0  0  0
    0.0512   -0.7473   -2.2499 C   0  0  0  0  0  0  0  0  0  0  0  0
    3.1867   -1.1352   -3.6874 O   0  0  0  0  0  0  0  0  0  0  0  0
    0.5308   -5.3155   -0.6239 H   0  0  0  0  0  0  0  0  0  0  0  0
    1.9233   -5.6033   -1.6961 H   0  0  0  0  0  0  0  0  0  0  0  0
    0.3948   -5.0047   -2.3841 H   0  0  0  0  0  0  0  0  0  0  0  0
    0.6756   -2.8590   -1.0927 H   0  0  0  0  0  0  0  0  0  0  0  0
    1.3650   -3.2367    2.5164 H   0  0  0  0  0  0  0  0  0  0  0  0
    0.2040   -3.5175    1.2031 H   0  0  0  0  0  0  0  0  0  0  0  0
    2.8601   -1.1662    1.4032 H   0  0  0  0  0  0  0  0  0  0  0  0
    4.1917    0.5308    2.4335 H   0  0  0  0  0  0  0  0  0  0  0  0
    3.4028    2.1320    2.6603 H   0  0  0  0  0  0  0  0  0  0  0  0
    3.6876    1.4883    1.0185 H   0  0  0  0  0  0  0  0  0  0  0  0
   -1.2568   -0.2178    0.8767 H   0  0  0  0  0  0  0  0  0  0  0  0
   -2.3214    1.0252    2.8204 H   0  0  0  0  0  0  0  0  0  0  0  0
   -2.5745   -0.5954    3.5164 H   0  0  0  0  0  0  0  0  0  0  0  0
   -3.4462   -0.1228    2.0238 H   0  0  0  0  0  0  0  0  0  0  0  0
    3.0205   -3.6519   -2.9487 H   0  0  0  0  0  0  0  0  0  0  0  0
    3.0638    0.6187   -1.5655 H   0  0  0  0  0  0  0  0  0  0  0  0
    1.5989    2.2663   -0.3897 H   0  0  0  0  0  0  0  0  0  0  0  0
   -0.6600    2.3881    0.8359 H   0  0  0  0  0  0  0  0  0  0  0  0
   -2.0975    1.7998   -0.0109 H   0  0  0  0  0  0  0  0  0  0  0  0
   -1.7783    3.4601   -1.8222 H   0  0  0  0  0  0  0  0  0  0  0  0
   -0.2721    4.0065   -1.1037 H   0  0  0  0  0  0  0  0  0  0  0  0
   -2.1403    5.5649   -0.5985 H   0  0  0  0  0  0  0  0  0  0  0  0
   -1.3884    4.9112    0.8585 H   0  0  0  0  0  0  0  0  0  0  0  0
   -3.8338    5.0203    1.0914 H   0  0  0  0  0  0  0  0  0  0  0  0
   -3.2548    3.3666    1.2337 H   0  0  0  0  0  0  0  0  0  0  0  0
   -3.9478    2.9028   -1.1314 H   0  0  0  0  0  0  0  0  0  0  0  0
   -4.4846    4.5711   -1.3100 H   0  0  0  0  0  0  0  0  0  0  0  0
   -6.1670    4.2145    0.5302 H   0  0  0  0  0  0  0  0  0  0  0  0
   -5.6089    2.5544    0.7151 H   0  0  0  0  0  0  0  0  0  0  0  0
   -6.8842    3.7124   -1.8462 H   0  0  0  0  0  0  0  0  0  0  0  0
   -7.6899    2.6333   -0.6841 H   0  0  0  0  0  0  0  0  0  0  0  0
   -6.3233    2.0391   -1.6542 H   0  0  0  0  0  0  0  0  0  0  0  0
   -1.8643    0.0696   -1.6713 H   0  0  0  0  0  0  0  0  0  0  0  0
   -0.3871   -1.5998   -2.7759 H   0  0  0  0  0  0  0  0  0  0  0  0
  1  2  1  0  0  0  0
  1 31  1  0  0  0  0
  2 34  1  1  0  0  0
  2  3  1  0  0  0  0
  3  4  1  0  0  0  0
  4 35  1  0  0  0  0
  5  6  1  6  0  0  0
  5  4  1  0  0  0  0
  5  7  1  0  0  0  0
  5 11  1  0  0  0  0
  7  8  1  0  0  0  0
  8  9  1  0  0  0  0
  8 10  2  0  0  0  0
  9 38  1  0  0  0  0
  9 39  1  0  0  0  0
 11 14  2  0  0  0  0
 12 11  1  0  0  0  0
 12 13  1  0  0  0  0
 13 42  1  0  0  0  0
 13 43  1  0  0  0  0
 15  2  1  0  0  0  0
 16 15  1  0  0  0  0
 16 17  1  0  0  0  0
 17 18  1  0  0  0  0
 18 19  2  0  0  0  0
 19 20  1  0  0  0  0
 19 47  1  0  0  0  0
 20 21  1  0  0  0  0
 21 49  1  0  0  0  0
 21 48  1  0  0  0  0
 22 21  1  0  0  0  0
 22 23  1  0  0  0  0
 23 24  1  0  0  0  0
 23 53  1  0  0  0  0
 24 54  1  0  0  0  0
 24 55  1  0  0  0  0
 25 26  1  0  0  0  0
 25 24  1  0  0  0  0
 26 58  1  0  0  0  0
 26 59  1  0  0  0  0
 27 61  1  0  0  0  0
 27 26  1  0  0  0  0
 28 20  2  0  0  0  0
 29 17  2  0  0  0  0
 29 28  1  0  0  0  0
 30 16  2  0  0  0  0
 32  1  1  0  0  0  0
 33  1  1  0  0  0  0
 36  4  1  0  0  0  0
 37  7  1  0  0  0  0
 40  9  1  0  0  0  0
 41 12  1  0  0  0  0
 44 13  1  0  0  0  0
 45 15  1  0  0  0  0
 46 18  1  0  0  0  0
 50 22  1  0  0  0  0
 51 22  1  0  0  0  0
 52 23  1  0  0  0  0
 56 25  1  0  0  0  0
 57 25  1  0  0  0  0
 60 27  1  0  0  0  0
 62 27  1  0  0  0  0
 63 28  1  0  0  0  0
 64 29  1  0  0  0  0
M  END
