64
-1 1
C         1.266425   -8.337192   -1.232524
C         1.580015   -6.857577   -1.255567
S         2.680878   -6.679687    0.724438
C         1.245273   -6.206952    1.734603
C         0.924904   -4.705066    1.671257
H         0.626352   -4.452287    0.639508
N         2.112115   -3.955488    2.012006
C         2.122368   -2.626967    2.241067
C         3.503109   -1.999286    2.281938
O         1.110592   -1.953710    2.383108
C        -0.231887   -4.382632    2.623515
N        -1.345411   -3.924656    1.983985
C        -2.466418   -3.398626    2.714077
O        -0.182944   -4.601163    3.817878
C         2.284124   -6.343212   -2.362994
C         2.373116   -4.972020   -2.733171
C         1.439441   -3.980770   -2.052835
C         1.988421   -2.847920   -1.439307
C         1.179730   -1.919469   -0.796719
C        -0.213481   -2.072191   -0.763243
C        -1.063743   -1.097762    0.013401
C        -1.214497    0.271326   -0.654029
C        -1.934818    1.304112    0.217240
C        -3.306308    0.874364    0.744627
C        -4.309025    0.480139   -0.336463
C        -5.681674    0.106046    0.217261
C        -6.679347   -0.302545   -0.860905
C        -0.765834   -3.166284   -1.434930
C         0.049165   -4.111983   -2.063732
O         3.157715   -4.504967   -3.567770
H         0.841236   -8.658496   -0.271412
H         2.173715   -8.931066   -1.418285
H         0.543305   -8.567452   -2.034931
H         0.763132   -6.238658   -0.872907
H         1.419347   -6.476505    2.787077
H         0.352418   -6.762457    1.399230
H         2.967563   -4.431284    1.722018
H         4.267946   -2.688077    2.666760
H         3.464760   -1.094778    2.901106
H         3.785629   -1.710559    1.257222
H        -1.206602   -3.607408    1.032147
H        -2.377613   -2.309050    2.873601
H        -2.494000   -3.884110    3.698236
H        -3.408882   -3.603346    2.183179
H         2.982097   -7.003135   -2.890918
H         3.073516   -2.722678   -1.462279
H         1.629645   -1.071605   -0.272904
H        -0.612200   -0.982109    1.014012
H        -2.064045   -1.537948    0.166889
H        -1.736838    0.148689   -1.618667
H        -0.213990    0.658588   -0.907514
H        -2.046561    2.240585   -0.357708
H        -1.292332    1.548090    1.080426
H        -3.730672    1.699026    1.343894
H        -3.184247    0.031603    1.447127
H        -3.915767   -0.372399   -0.917268
H        -4.417071    1.310438   -1.058701
H        -6.086021    0.956871    0.793710
H        -5.562930   -0.718119    0.942249
H        -6.840948    0.514150   -1.582887
H        -7.657269   -0.567875   -0.431000
H        -6.315351   -1.174406   -1.427479
H        -1.853636   -3.295737   -1.448557
H        -0.398362   -4.974072   -2.564954
