-1 1
 OpenBabel05232413483D

 67 66  0  0  1  0  0  0  0  0999 V2000
    1.8945   -0.7399    4.0158 C   0  0  0  0  0  0  0  0  0  0  0  0
    1.8485    0.7605    4.2861 C   0  0  0  0  0  0  0  0  0  0  0  0
    1.7684    1.5807    3.0021 C   0  0  0  0  0  0  0  0  0  0  0  0
    1.6034    3.0823    3.2333 C   0  0  0  0  0  0  0  0  0  0  0  0
    1.4023    3.8777    1.9418 C   0  0  0  0  0  0  0  0  0  0  0  0
    2.6526    3.9867    1.0645 C   0  0  0  0  0  0  0  0  0  0  0  0
    2.3468    4.3151   -0.3990 C   0  0  0  0  0  0  0  0  0  0  0  0
    1.5120    3.2752   -1.1197 C   0  0  0  0  0  0  0  0  0  0  0  0
    1.6474    1.9097   -0.8480 C   0  0  0  0  0  0  0  0  0  0  0  0
    0.8776    0.9596   -1.5117 C   0  0  0  0  0  0  0  0  0  0  0  0
   -0.0647    1.3544   -2.4662 C   0  0  0  0  0  0  0  0  0  0  0  0
   -1.0055    0.3710   -3.1105 C   0  0  0  0  0  0  0  0  0  0  0  0
   -2.0632    0.7707   -3.5746 O   0  0  0  0  0  0  0  0  0  0  0  0
   -0.5867   -1.0447   -3.1042 C   0  0  0  0  0  0  0  0  0  0  0  0
   -1.3953   -2.1298   -3.0863 C   0  0  0  0  0  0  0  0  0  0  0  0
   -0.8125   -3.5045   -2.9714 C   0  0  0  0  0  0  0  0  0  0  0  0
   -2.6240   -4.2889    0.2517 S   0  0  0  0  0  1  0  0  0  0  0  0
   -2.6193   -2.5333    0.7503 C   0  0  0  0  0  0  0  0  0  0  0  0
   -1.2495   -1.8412    0.5535 C   0  0  2  0  0  0  0  0  0  0  0  0
   -1.0638   -1.7263   -0.5281 H   0  0  0  0  0  0  0  0  0  0  0  0
   -0.2216   -2.6645    1.1277 N   0  0  0  0  0  0  0  0  0  0  0  0
    1.0899   -2.4073    0.9760 C   0  0  0  0  0  0  0  0  0  0  0  0
    2.0164   -3.4764    1.5243 C   0  0  0  0  0  0  0  0  0  0  0  0
    1.5279   -1.3773    0.4735 O   0  0  0  0  0  0  0  0  0  0  0  0
   -1.2804   -0.4469    1.1744 C   0  0  0  0  0  0  0  0  0  0  0  0
   -1.7741    0.5010    0.3319 N   0  0  0  0  0  0  0  0  0  0  0  0
   -1.8604    1.8945    0.6748 C   0  0  0  0  0  0  0  0  0  0  0  0
   -0.9635   -0.2069    2.3271 O   0  0  0  0  0  0  0  0  0  0  0  0
   -2.8929   -2.0922   -3.0510 C   0  0  0  0  0  0  0  0  0  0  0  0
   -0.2184    2.7194   -2.7371 C   0  0  0  0  0  0  0  0  0  0  0  0
    0.5647    3.6619   -2.0796 C   0  0  0  0  0  0  0  0  0  0  0  0
    1.9997   -1.3173    4.9482 H   0  0  0  0  0  0  0  0  0  0  0  0
    2.7418   -0.9935    3.3581 H   0  0  0  0  0  0  0  0  0  0  0  0
    0.9698   -1.0543    3.5077 H   0  0  0  0  0  0  0  0  0  0  0  0
    2.7309    1.0751    4.8749 H   0  0  0  0  0  0  0  0  0  0  0  0
    0.9663    0.9879    4.9099 H   0  0  0  0  0  0  0  0  0  0  0  0
    0.9189    1.2044    2.4100 H   0  0  0  0  0  0  0  0  0  0  0  0
    2.6717    1.3811    2.3989 H   0  0  0  0  0  0  0  0  0  0  0  0
    2.4724    3.4814    3.7907 H   0  0  0  0  0  0  0  0  0  0  0  0
    0.7272    3.2398    3.8860 H   0  0  0  0  0  0  0  0  0  0  0  0
    1.0399    4.8945    2.1729 H   0  0  0  0  0  0  0  0  0  0  0  0
    0.5972    3.3913    1.3674 H   0  0  0  0  0  0  0  0  0  0  0  0
    3.2252    3.0473    1.1101 H   0  0  0  0  0  0  0  0  0  0  0  0
    3.3266    4.7585    1.4736 H   0  0  0  0  0  0  0  0  0  0  0  0
    3.2977    4.4448   -0.9460 H   0  0  0  0  0  0  0  0  0  0  0  0
    1.8295    5.2879   -0.4601 H   0  0  0  0  0  0  0  0  0  0  0  0
    2.3354    1.5534   -0.0799 H   0  0  0  0  0  0  0  0  0  0  0  0
    0.9870   -0.0823   -1.2015 H   0  0  0  0  0  0  0  0  0  0  0  0
    0.4895   -1.2202   -3.0281 H   0  0  0  0  0  0  0  0  0  0  0  0
    0.2843   -3.5045   -3.0394 H   0  0  0  0  0  0  0  0  0  0  0  0
   -1.2265   -4.1645   -3.7514 H   0  0  0  0  0  0  0  0  0  0  0  0
   -1.1303   -3.9350   -1.9982 H   0  0  0  0  0  0  0  0  0  0  0  0
   -2.8905   -2.4339    1.8151 H   0  0  0  0  0  0  0  0  0  0  0  0
   -3.3594   -1.9504    0.1777 H   0  0  0  0  0  0  0  0  0  0  0  0
   -0.5475   -3.6259    1.2797 H   0  0  0  0  0  0  0  0  0  0  0  0
    1.6010   -4.4867    1.3986 H   0  0  0  0  0  0  0  0  0  0  0  0
    2.1695   -3.2983    2.5993 H   0  0  0  0  0  0  0  0  0  0  0  0
    2.9855   -3.4009    1.0160 H   0  0  0  0  0  0  0  0  0  0  0  0
   -1.9684    0.2300   -0.6228 H   0  0  0  0  0  0  0  0  0  0  0  0
   -1.2105    2.5041    0.0252 H   0  0  0  0  0  0  0  0  0  0  0  0
   -1.5278    2.0017    1.7156 H   0  0  0  0  0  0  0  0  0  0  0  0
   -2.8928    2.2713    0.5920 H   0  0  0  0  0  0  0  0  0  0  0  0
   -3.2925   -2.5727   -3.9598 H   0  0  0  0  0  0  0  0  0  0  0  0
   -3.2942   -1.0748   -3.0013 H   0  0  0  0  0  0  0  0  0  0  0  0
   -3.2319   -2.7060   -2.1962 H   0  0  0  0  0  0  0  0  0  0  0  0
   -0.9814    3.0232   -3.4571 H   0  0  0  0  0  0  0  0  0  0  0  0
    0.4275    4.7253   -2.2979 H   0  0  0  0  0  0  0  0  0  0  0  0
  1  2  1  0  0  0  0
  1 32  1  0  0  0  0
  2 35  1  0  0  0  0
  2 36  1  0  0  0  0
  3  4  1  0  0  0  0
  3  2  1  0  0  0  0
  4 39  1  0  0  0  0
  4 40  1  0  0  0  0
  5 41  1  0  0  0  0
  5  4  1  0  0  0  0
  6 43  1  0  0  0  0
  6 44  1  0  0  0  0
  6  5  1  0  0  0  0
  7  6  1  0  0  0  0
  8  9  1  0  0  0  0
  8  7  1  0  0  0  0
  9 47  1  0  0  0  0
 10 48  1  0  0  0  0
 10  9  2  0  0  0  0
 11 10  1  0  0  0  0
 12 14  1  0  0  0  0
 12 11  1  0  0  0  0
 13 12  2  0  0  0  0
 14 15  2  0  0  0  0
 14 49  1  0  0  0  0
 15 29  1  0  0  0  0
 15 16  1  0  0  0  0
 16 52  1  0  0  0  0
 17 18  1  0  0  0  0
 18 53  1  0  0  0  0
 19 20  1  6  0  0  0
 19 18  1  0  0  0  0
 19 21  1  0  0  0  0
 19 25  1  0  0  0  0
 21 55  1  0  0  0  0
 22 21  1  0  0  0  0
 22 23  1  0  0  0  0
 23 57  1  0  0  0  0
 24 22  2  0  0  0  0
 25 28  2  0  0  0  0
 26 27  1  0  0  0  0
 26 25  1  0  0  0  0
 27 61  1  0  0  0  0
 29 64  1  0  0  0  0
 29 65  1  0  0  0  0
 30 11  2  0  0  0  0
 30 31  1  0  0  0  0
 31  8  2  0  0  0  0
 33  1  1  0  0  0  0
 34  1  1  0  0  0  0
 37  3  1  0  0  0  0
 38  3  1  0  0  0  0
 42  5  1  0  0  0  0
 45  7  1  0  0  0  0
 46  7  1  0  0  0  0
 50 16  1  0  0  0  0
 51 16  1  0  0  0  0
 54 18  1  0  0  0  0
 56 23  1  0  0  0  0
 58 23  1  0  0  0  0
 59 26  1  0  0  0  0
 60 27  1  0  0  0  0
 62 27  1  0  0  0  0
 63 29  1  0  0  0  0
 66 30  1  0  0  0  0
 67 31  1  0  0  0  0
M  END
