67
-1 1
C         1.820723   -0.463175    4.213616
C         1.610169    1.045164    4.273490
C         1.705949    1.706622    2.902311
C         1.514436    3.222733    2.933993
C         1.459184    3.859885    1.544478
C         2.789064    3.846688    0.786941
C         2.639723    4.059995   -0.729434
C         1.744728    3.007034   -1.340794
C         2.124916    1.660718   -1.327365
C         1.233994    0.650752   -1.683318
C        -0.077678    0.958674   -2.069118
C        -1.159254   -0.085868   -2.253509
O        -2.325292    0.288455   -1.852559
C        -0.790842   -1.323373   -2.724098
C        -1.661510   -2.541089   -2.822971
C        -1.033134   -3.557041   -3.783300
S        -1.722302   -3.501743   -1.183330
C        -2.113717   -2.201894    0.021195
C        -0.889796   -1.495136    0.627491
H        -0.258142   -1.137701   -0.194652
N        -0.079784   -2.373746    1.431298
C         1.222099   -2.646931    1.150562
C         1.925515   -3.509907    2.184971
O         1.798795   -2.280492    0.143898
C        -1.319524   -0.291898    1.484548
N        -1.855083    0.731089    0.804592
C        -2.235509    1.946625    1.471326
O        -1.162402   -0.296588    2.705840
C        -3.095063   -2.235347   -3.267810
C        -0.447141    2.308021   -2.118341
C         0.449629    3.314076   -1.771617
H         1.759802   -0.923308    5.212650
H         2.805421   -0.713596    3.785427
H         1.042243   -0.912093    3.580127
H         2.344735    1.508161    4.958725
H         0.612071    1.249939    4.696487
H         0.944790    1.259585    2.241305
H         2.681343    1.456713    2.449626
H         2.316180    3.689656    3.537210
H         0.570627    3.443563    3.463060
H         1.097469    4.900578    1.619825
H         0.703479    3.315644    0.954474
H         3.288944    2.877191    0.943458
H         3.467498    4.609909    1.208329
H         3.640161    4.038537   -1.194411
H         2.220678    5.061565   -0.926167
H         3.123811    1.384475   -0.974667
H         1.539674   -0.392858   -1.574555
H         0.261972   -1.480603   -2.969387
H        -0.006003   -3.805970   -3.476859
H        -0.995415   -3.120818   -4.794385
H        -1.620253   -4.489276   -3.829323
H        -2.699413   -2.677112    0.824063
H        -2.747548   -1.457917   -0.479182
H        -0.402379   -2.501992    2.383096
H         1.394959   -3.563227    3.146019
H         2.935176   -3.110118    2.345251
H         2.024231   -4.526753    1.776768
H        -2.047478    0.639576   -0.224283
H        -2.248433    2.764814    0.737714
H        -1.512637    2.186849    2.265808
H        -3.233443    1.879923    1.940983
H        -3.064786   -1.783486   -4.273896
H        -3.560746   -1.496054   -2.605369
H        -3.699897   -3.155261   -3.305789
H        -1.480934    2.540088   -2.383254
H         0.123952    4.359628   -1.784231
