-1 1
 OpenBabel05232414493D

 67 66  0  0  1  0  0  0  0  0999 V2000
   18.0205    2.9218   13.9929 C   0  0  0  0  0  0  0  0  0  0  0  0
   17.7605    4.4206   13.8830 C   0  0  0  0  0  0  0  0  0  0  0  0
   18.1536    4.9799   12.5199 C   0  0  0  0  0  0  0  0  0  0  0  0
   17.7780    6.4470   12.3140 C   0  0  0  0  0  0  0  0  0  0  0  0
   17.7895    6.8739   10.8460 C   0  0  0  0  0  0  0  0  0  0  0  0
   19.1506    6.7757   10.1607 C   0  0  0  0  0  0  0  0  0  0  0  0
   19.1019    7.1000    8.6571 C   0  0  0  0  0  0  0  0  0  0  0  0
   18.1644    6.1663    7.9302 C   0  0  0  0  0  0  0  0  0  0  0  0
   18.4932    4.8165    7.7874 C   0  0  0  0  0  0  0  0  0  0  0  0
   17.5640    3.8964    7.3131 C   0  0  0  0  0  0  0  0  0  0  0  0
   16.2649    4.2963    6.9851 C   0  0  0  0  0  0  0  0  0  0  0  0
   15.1342    3.3161    6.7424 C   0  0  0  0  0  0  0  0  0  0  0  0
   13.9998    3.7021    7.0951 O   0  0  0  0  0  0  0  0  0  0  0  0
   15.4628    2.0298    6.2334 C   0  0  0  0  0  3  0  0  0  0  0  0
   14.6149    0.9196    6.1546 C   0  0  0  0  0  3  0  0  0  0  0  0
   15.1224   -0.2648    5.3678 C   0  0  0  0  0  0  0  0  0  0  0  0
   14.7324   -0.3300    8.3615 S   0  0  0  0  0  1  0  0  0  0  0  0
   14.4129    1.1144    9.4203 C   0  0  0  0  0  0  0  0  0  0  0  0
   15.6656    1.9332    9.7799 C   0  0  2  0  0  0  0  0  0  0  0  0
   16.1012    2.3386    8.8578 H   0  0  0  0  0  0  0  0  0  0  0  0
   16.6428    1.0911   10.4211 N   0  0  0  0  0  0  0  0  0  0  0  0
   17.9372    1.4588   10.5430 C   0  0  0  0  0  0  0  0  0  0  0  0
   18.8522    0.4070   11.1439 C   0  0  0  0  0  0  0  0  0  0  0  0
   18.3534    2.5670   10.2406 O   0  0  0  0  0  0  0  0  0  0  0  0
   15.2831    3.1238   10.6706 C   0  0  0  0  0  0  0  0  0  0  0  0
   14.6973    4.1431    9.9963 N   0  0  0  0  0  0  0  0  0  0  0  0
   14.2797    5.3529   10.6500 C   0  0  0  0  0  0  0  0  0  0  0  0
   15.4704    3.1395   11.8775 O   0  0  0  0  0  0  0  0  0  0  0  0
   13.1165    1.0764    6.1587 C   0  0  0  0  0  0  0  0  0  0  0  0
   15.9481    5.6566    7.0823 C   0  0  0  0  0  0  0  0  0  0  0  0
   16.8865    6.5782    7.5324 C   0  0  0  0  0  0  0  0  0  0  0  0
   17.7827    2.5393   14.9985 H   0  0  0  0  0  0  0  0  0  0  0  0
   19.0764    2.6833   13.7807 H   0  0  0  0  0  0  0  0  0  0  0  0
   17.3876    2.3923   13.2644 H   0  0  0  0  0  0  0  0  0  0  0  0
   18.2925    4.9671   14.6849 H   0  0  0  0  0  0  0  0  0  0  0  0
   16.6831    4.5998   14.0382 H   0  0  0  0  0  0  0  0  0  0  0  0
   17.6713    4.3679   11.7423 H   0  0  0  0  0  0  0  0  0  0  0  0
   19.2387    4.8402   12.3701 H   0  0  0  0  0  0  0  0  0  0  0  0
   18.4405    7.1029   12.9105 H   0  0  0  0  0  0  0  0  0  0  0  0
   16.7593    6.6088   12.7087 H   0  0  0  0  0  0  0  0  0  0  0  0
   17.4108    7.9085   10.7519 H   0  0  0  0  0  0  0  0  0  0  0  0
   17.0765    6.2324   10.3021 H   0  0  0  0  0  0  0  0  0  0  0  0
   19.5406    5.7519   10.2813 H   0  0  0  0  0  0  0  0  0  0  0  0
   19.8716    7.4488   10.6591 H   0  0  0  0  0  0  0  0  0  0  0  0
   20.1190    7.0218    8.2378 H   0  0  0  0  0  0  0  0  0  0  0  0
   18.7759    8.1440    8.5115 H   0  0  0  0  0  0  0  0  0  0  0  0
   19.4683    4.4559    8.1242 H   0  0  0  0  0  0  0  0  0  0  0  0
   17.8369    2.8407    7.2890 H   0  0  0  0  0  0  0  0  0  0  0  0
   16.5130    1.8530    5.9922 H   0  0  0  0  0  0  0  0  0  0  0  0
   16.1940   -0.4320    5.5421 H   0  0  0  0  0  0  0  0  0  0  0  0
   14.9745   -0.0643    4.2903 H   0  0  0  0  0  0  0  0  0  0  0  0
   14.5762   -1.1828    5.6252 H   0  0  0  0  0  0  0  0  0  0  0  0
   13.9322    0.7878   10.3581 H   0  0  0  0  0  0  0  0  0  0  0  0
   13.7069    1.7891    8.9159 H   0  0  0  0  0  0  0  0  0  0  0  0
   16.4092    0.1043   10.4487 H   0  0  0  0  0  0  0  0  0  0  0  0
   18.4934   -0.6190   10.9794 H   0  0  0  0  0  0  0  0  0  0  0  0
   18.9209    0.5863   12.2274 H   0  0  0  0  0  0  0  0  0  0  0  0
   19.8545    0.5250   10.7135 H   0  0  0  0  0  0  0  0  0  0  0  0
   14.4772    4.0393    9.0024 H   0  0  0  0  0  0  0  0  0  0  0  0
   14.5351    6.2244   10.0276 H   0  0  0  0  0  0  0  0  0  0  0  0
   14.8048    5.4310   11.6114 H   0  0  0  0  0  0  0  0  0  0  0  0
   13.1934    5.3721   10.8486 H   0  0  0  0  0  0  0  0  0  0  0  0
   12.8198    1.5578    5.2083 H   0  0  0  0  0  0  0  0  0  0  0  0
   12.7784    1.7442    6.9575 H   0  0  0  0  0  0  0  0  0  0  0  0
   12.6196    0.1011    6.2400 H   0  0  0  0  0  0  0  0  0  0  0  0
   14.9263    5.9632    6.8493 H   0  0  0  0  0  0  0  0  0  0  0  0
   16.6074    7.6315    7.6347 H   0  0  0  0  0  0  0  0  0  0  0  0
  1 32  1  0  0  0  0
  2  1  1  0  0  0  0
  2 36  1  0  0  0  0
  2 35  1  0  0  0  0
  3  2  1  0  0  0  0
  4  3  1  0  0  0  0
  4 40  1  0  0  0  0
  4 39  1  0  0  0  0
  5  4  1  0  0  0  0
  6 43  1  0  0  0  0
  6 44  1  0  0  0  0
  6  5  1  0  0  0  0
  7  6  1  0  0  0  0
  8  7  1  0  0  0  0
  9  8  1  0  0  0  0
  9 47  1  0  0  0  0
 10  9  2  0  0  0  0
 11 30  2  0  0  0  0
 11 10  1  0  0  0  0
 12 11  1  0  0  0  0
 12 13  2  0  0  0  0
 14 12  1  0  0  0  0
 15 29  1  0  0  0  0
 15 14  1  0  0  0  0
 16 50  1  0  0  0  0
 16 52  1  0  0  0  0
 16 15  1  0  0  0  0
 17 18  1  0  0  0  0
 18 19  1  0  0  0  0
 18 53  1  0  0  0  0
 19 20  1  6  0  0  0
 19 21  1  0  0  0  0
 19 25  1  0  0  0  0
 21 55  1  0  0  0  0
 21 22  1  0  0  0  0
 22 23  1  0  0  0  0
 23 57  1  0  0  0  0
 24 22  2  0  0  0  0
 25 28  2  0  0  0  0
 26 27  1  0  0  0  0
 26 25  1  0  0  0  0
 27 62  1  0  0  0  0
 27 61  1  0  0  0  0
 29 65  1  0  0  0  0
 29 64  1  0  0  0  0
 30 31  1  0  0  0  0
 31 67  1  0  0  0  0
 31  8  2  0  0  0  0
 33  1  1  0  0  0  0
 34  1  1  0  0  0  0
 37  3  1  0  0  0  0
 38  3  1  0  0  0  0
 41  5  1  0  0  0  0
 42  5  1  0  0  0  0
 45  7  1  0  0  0  0
 46  7  1  0  0  0  0
 48 10  1  0  0  0  0
 49 14  1  0  0  0  0
 51 16  1  0  0  0  0
 54 18  1  0  0  0  0
 56 23  1  0  0  0  0
 58 23  1  0  0  0  0
 59 26  1  0  0  0  0
 60 27  1  0  0  0  0
 63 29  1  0  0  0  0
 66 30  1  0  0  0  0
M  END
