-1 1
 OpenBabel05232414493D

 67 69  0  0  1  0  0  0  0  0999 V2000
   -3.7326    3.9029   -1.0838 O   0  0  0  0  0  0  0  0  0  0  0  0
   -3.0138    3.1115   -0.4776 C   0  0  0  0  0  0  0  0  0  0  0  0
   -1.6247    3.5422    0.0269 C   0  0  2  0  0  0  0  0  0  0  0  0
   -0.4607    2.8141   -0.6612 C   0  0  0  0  0  0  0  0  0  0  0  0
   -0.2509    1.0666   -0.1877 S   0  0  0  0  0  0  0  0  0  0  0  0
   -0.4742   -0.2416   -1.9293 C   0  0  1  0  0  0  0  0  0  0  0  0
   -1.0070   -1.4750   -1.4842 C   0  0  2  0  0  3  0  0  0  0  0  0
   -2.6910   -1.8104   -1.0186 S   0  0  0  0  0  0  0  0  0  0  0  0
   -0.1395   -2.5196   -1.0369 C   0  0  0  0  0  0  0  0  0  0  0  0
    1.0788   -2.6116   -1.1153 O   0  0  0  0  0  0  0  0  0  0  0  0
   -0.9110   -3.5445   -0.4261 N   0  0  0  0  0  0  0  0  0  0  0  0
   -2.2584   -3.3808   -0.2886 C   0  0  0  0  0  0  0  0  0  0  0  0
   -3.0415   -4.1531    0.2140 O   0  0  0  0  0  0  0  0  0  0  0  0
   -1.1098    0.6492   -2.9401 C   0  0  0  0  0  0  0  0  0  0  0  0
   -0.2860    1.4745   -3.7105 C   0  0  0  0  0  0  0  0  0  0  0  0
   -0.7963    2.3928   -4.6333 C   0  0  0  0  0  0  0  0  0  0  0  0
    0.1016    3.1339   -5.3255 O   0  0  0  0  0  0  0  0  0  0  0  0
   -0.1530    4.4991   -5.5583 C   0  0  0  0  0  0  0  0  0  0  0  0
   -2.1855    2.4655   -4.8020 C   0  0  0  0  0  0  0  0  0  0  0  0
   -2.7158    3.3080   -5.7580 O   0  0  0  0  0  0  0  0  0  0  0  0
   -3.4257    4.4002   -5.3902 C   0  0  0  0  0  0  0  0  0  0  0  0
   -3.9184    5.1824   -6.4412 C   0  0  0  0  0  0  0  0  0  0  0  0
   -4.6537    6.3339   -6.1881 C   0  0  0  0  0  0  0  0  0  0  0  0
   -5.1035    7.1453   -7.3890 C   0  0  0  0  0  0  0  0  0  0  0  0
   -4.4100    6.8079   -8.4871 F   0  0  0  0  0  0  0  0  0  0  0  0
   -6.3903    6.9618   -7.6889 F   0  0  0  0  0  0  0  0  0  0  0  0
   -4.9071    8.4574   -7.2097 F   0  0  0  0  0  0  0  0  0  0  0  0
   -4.9031    6.7247   -4.8558 C   0  0  0  0  0  0  0  0  0  0  0  0
   -5.6935    7.9208   -4.4358 C   0  0  0  0  0  0  0  0  0  0  0  0
   -6.7396    8.1482   -5.2338 O   0  0  0  0  0  0  0  0  0  0  0  0
   -7.5046    9.3049   -4.9594 C   0  0  0  0  0  0  0  0  0  0  0  0
   -5.4533    8.5842   -3.4601 O   0  0  0  0  0  0  0  0  0  0  0  0
   -4.3686    5.9491   -3.8248 C   0  0  0  0  0  0  0  0  0  0  0  0
   -3.6415    4.7901   -4.0698 C   0  0  0  0  0  0  0  0  0  0  0  0
   -3.0195    1.6334   -4.0574 C   0  0  0  0  0  0  0  0  0  0  0  0
   -2.4957    0.7389   -3.1358 C   0  0  0  0  0  0  0  0  0  0  0  0
   -1.5018    3.4357    1.4659 N   0  0  0  0  0  0  0  0  0  0  0  0
   -2.0883    4.2386    2.4020 C   0  0  0  0  0  0  0  0  0  0  0  0
   -2.7702    5.4922    1.8848 C   0  0  0  0  0  0  0  0  0  0  0  0
   -2.0367    3.9748    3.5884 O   0  0  0  0  0  0  0  0  0  0  0  0
   -1.5602    4.6010   -0.2647 H   0  0  0  0  0  0  0  0  0  0  0  0
   -3.4017    1.8619   -0.1730 N   0  0  0  0  0  0  0  0  0  0  0  0
   -4.7033    1.3686   -0.5475 C   0  0  0  0  0  0  0  0  0  0  0  0
   -0.6044    2.8794   -1.7504 H   0  0  0  0  0  0  0  0  0  0  0  0
    0.4646    3.3610   -0.4230 H   0  0  0  0  0  0  0  0  0  0  0  0
   -0.4556   -4.3707   -0.0583 H   0  0  0  0  0  0  0  0  0  0  0  0
    0.7982    1.4429   -3.5839 H   0  0  0  0  0  0  0  0  0  0  0  0
    0.8236    4.9856   -5.6885 H   0  0  0  0  0  0  0  0  0  0  0  0
   -0.6677    4.9672   -4.7016 H   0  0  0  0  0  0  0  0  0  0  0  0
   -0.7561    4.6606   -6.4646 H   0  0  0  0  0  0  0  0  0  0  0  0
   -3.6960    4.8723   -7.4615 H   0  0  0  0  0  0  0  0  0  0  0  0
   -7.9444    9.2553   -3.9528 H   0  0  0  0  0  0  0  0  0  0  0  0
   -8.2938    9.3359   -5.7188 H   0  0  0  0  0  0  0  0  0  0  0  0
   -6.8812   10.2089   -5.0239 H   0  0  0  0  0  0  0  0  0  0  0  0
   -4.5371    6.2494   -2.7893 H   0  0  0  0  0  0  0  0  0  0  0  0
   -3.2816    4.2113   -3.2180 H   0  0  0  0  0  0  0  0  0  0  0  0
   -4.0978    1.7004   -4.2167 H   0  0  0  0  0  0  0  0  0  0  0  0
   -3.1775    0.1047   -2.5722 H   0  0  0  0  0  0  0  0  0  0  0  0
   -1.1065    2.5696    1.8268 H   0  0  0  0  0  0  0  0  0  0  0  0
   -2.0256    6.1780    1.4509 H   0  0  0  0  0  0  0  0  0  0  0  0
   -3.2587    5.9852    2.7327 H   0  0  0  0  0  0  0  0  0  0  0  0
   -3.5062    5.2723    1.0979 H   0  0  0  0  0  0  0  0  0  0  0  0
   -2.6855    1.2158    0.1665 H   0  0  0  0  0  0  0  0  0  0  0  0
   -4.9257    1.6099   -1.5985 H   0  0  0  0  0  0  0  0  0  0  0  0
   -5.4951    1.8209    0.0712 H   0  0  0  0  0  0  0  0  0  0  0  0
   -4.7223    0.2802   -0.4123 H   0  0  0  0  0  0  0  0  0  0  0  0
    0.5969   -0.3701   -2.1126 H   0  0  0  0  0  0  0  0  0  0  0  0
  1  2  2  0  0  0  0
  2 42  1  0  0  0  0
  2  3  1  0  0  0  0
  3 41  1  6  0  0  0
  3 37  1  0  0  0  0
  4 45  1  0  0  0  0
  4  5  1  0  0  0  0
  4  3  1  0  0  0  0
  6 67  1  6  0  0  0
  6  5  1  0  0  0  0
  7  6  1  1  0  0  0
  7  9  1  0  0  0  0
  7  8  1  0  0  0  0
  8 12  1  0  0  0  0
  9 11  1  0  0  0  0
 10  9  2  0  0  0  0
 11 12  1  0  0  0  0
 11 46  1  0  0  0  0
 12 13  2  0  0  0  0
 14  6  1  0  0  0  0
 15 47  1  0  0  0  0
 15 14  2  0  0  0  0
 16 15  1  0  0  0  0
 17 16  1  0  0  0  0
 18 17  1  0  0  0  0
 18 49  1  0  0  0  0
 19 16  2  0  0  0  0
 19 35  1  0  0  0  0
 20 21  1  0  0  0  0
 20 19  1  0  0  0  0
 21 34  1  0  0  0  0
 22 23  1  0  0  0  0
 22 21  2  0  0  0  0
 23 28  2  0  0  0  0
 24 27  1  0  0  0  0
 24 23  1  0  0  0  0
 25 24  1  0  0  0  0
 26 24  1  0  0  0  0
 28 29  1  0  0  0  0
 28 33  1  0  0  0  0
 29 32  2  0  0  0  0
 30 31  1  0  0  0  0
 30 29  1  0  0  0  0
 31 52  1  0  0  0  0
 33 55  1  0  0  0  0
 34 33  2  0  0  0  0
 34 56  1  0  0  0  0
 35 36  2  0  0  0  0
 36 14  1  0  0  0  0
 36 58  1  0  0  0  0
 37 59  1  0  0  0  0
 37 38  1  0  0  0  0
 38 40  2  0  0  0  0
 39 38  1  0  0  0  0
 39 61  1  0  0  0  0
 42 63  1  0  0  0  0
 43 66  1  0  0  0  0
 43 42  1  0  0  0  0
 43 65  1  0  0  0  0
 44  4  1  0  0  0  0
 48 18  1  0  0  0  0
 50 18  1  0  0  0  0
 51 22  1  0  0  0  0
 53 31  1  0  0  0  0
 54 31  1  0  0  0  0
 57 35  1  0  0  0  0
 60 39  1  0  0  0  0
 62 39  1  0  0  0  0
 64 43  1  0  0  0  0
M  END
