-1 1
 OpenBabel05192410563D

 67 67  0  0  1  0  0  0  0  0999 V2000
   -3.1838    3.7447    1.5974 C   0  0  0  0  0  0  0  0  0  0  0  0
   -2.8154    2.2819    1.3627 C   0  0  1  0  0  0  0  0  0  0  0  0
   -1.7764    1.7202    2.9317 S   0  0  0  0  0  0  0  0  0  0  0  0
   -0.2065    2.6319    2.8330 C   0  0  0  0  0  0  0  0  0  0  0  0
    0.8916    1.9802    1.9748 C   0  0  2  0  0  0  0  0  0  0  0  0
    0.6673    2.1230    0.9010 H   0  0  0  0  0  0  0  0  0  0  0  0
    0.9272    0.5453    2.2446 N   0  0  0  0  0  0  0  0  0  0  0  0
    1.4794   -0.3837    1.4319 C   0  0  0  0  0  0  0  0  0  0  0  0
    1.0009   -1.8003    1.6407 C   0  0  0  0  0  0  0  0  0  0  0  0
    2.2905   -0.1188    0.5454 O   0  0  0  0  0  0  0  0  0  0  0  0
    2.2416    2.6878    2.2638 C   0  0  0  0  0  0  0  0  0  0  0  0
    3.2629    2.2867    1.4741 N   0  0  0  0  0  0  0  0  0  0  0  0
    4.5986    2.7977    1.6258 C   0  0  0  0  0  0  0  0  0  0  0  0
    2.3408    3.5606    3.1100 O   0  0  0  0  0  0  0  0  0  0  0  0
   -3.9518    1.3685    1.1682 C   0  0  1  0  0  3  0  0  0  0  0  0
   -5.1663    1.5609    2.0430 C   0  0  0  0  0  0  0  0  0  0  0  0
   -4.0426    0.3648    0.1818 C   0  0  0  0  0  0  0  0  0  0  0  0
   -2.8728    0.0765   -0.7560 C   0  0  0  0  0  0  0  0  0  0  0  0
   -1.5175    0.0993   -0.4024 C   0  0  0  0  0  0  0  0  0  0  0  0
   -0.5202   -0.2016   -1.3296 C   0  0  0  0  0  0  0  0  0  0  0  0
   -0.8361   -0.5752   -2.6392 C   0  0  0  0  0  0  0  0  0  0  0  0
    0.2627   -0.9252   -3.6167 C   0  0  0  0  0  0  0  0  0  0  0  0
    1.1870   -2.0405   -3.1191 C   0  0  0  0  0  0  0  0  0  0  0  0
    2.2830   -2.4117   -4.1155 C   0  0  0  0  0  0  0  0  0  0  0  0
    3.3239   -3.3899   -3.5682 C   0  0  0  0  0  0  0  0  0  0  0  0
    2.7590   -4.7541   -3.1724 C   0  0  0  0  0  0  0  0  0  0  0  0
    3.8157   -5.7817   -2.7614 C   0  0  0  0  0  0  0  0  0  0  0  0
    4.6017   -5.4058   -1.5079 C   0  0  0  0  0  0  0  0  0  0  0  0
   -2.1904   -0.6387   -2.9856 C   0  0  0  0  0  0  0  0  0  0  0  0
   -3.1843   -0.3231   -2.0622 C   0  0  0  0  0  0  0  0  0  0  0  0
   -5.0730   -0.3136   -0.0451 O   0  0  0  0  0  0  0  0  0  0  0  0
   -2.2988    4.3821    1.7529 H   0  0  0  0  0  0  0  0  0  0  0  0
   -3.8416    3.8589    2.4703 H   0  0  0  0  0  0  0  0  0  0  0  0
   -3.7219    4.1200    0.7115 H   0  0  0  0  0  0  0  0  0  0  0  0
   -2.0892    2.2238    0.5432 H   0  0  0  0  0  0  0  0  0  0  0  0
    0.1767    2.7451    3.8564 H   0  0  0  0  0  0  0  0  0  0  0  0
   -0.3796    3.6520    2.4644 H   0  0  0  0  0  0  0  0  0  0  0  0
    0.1029    0.2426    2.7679 H   0  0  0  0  0  0  0  0  0  0  0  0
    0.6240   -1.9814    2.6562 H   0  0  0  0  0  0  0  0  0  0  0  0
    1.8181   -2.4940    1.4081 H   0  0  0  0  0  0  0  0  0  0  0  0
    0.1801   -1.9795    0.9278 H   0  0  0  0  0  0  0  0  0  0  0  0
    3.0860    1.4726    0.8774 H   0  0  0  0  0  0  0  0  0  0  0  0
    5.2901    2.0273    2.0071 H   0  0  0  0  0  0  0  0  0  0  0  0
    4.5710    3.6282    2.3428 H   0  0  0  0  0  0  0  0  0  0  0  0
    4.9935    3.1682    0.6661 H   0  0  0  0  0  0  0  0  0  0  0  0
   -4.9037    1.6858    3.1112 H   0  0  0  0  0  0  0  0  0  0  0  0
   -5.8120    0.6778    1.9413 H   0  0  0  0  0  0  0  0  0  0  0  0
   -5.7815    2.4417    1.7654 H   0  0  0  0  0  0  0  0  0  0  0  0
   -1.2376    0.3362    0.6260 H   0  0  0  0  0  0  0  0  0  0  0  0
    0.5279   -0.1491   -1.0247 H   0  0  0  0  0  0  0  0  0  0  0  0
    0.8736   -0.0282   -3.8269 H   0  0  0  0  0  0  0  0  0  0  0  0
   -0.1837   -1.2230   -4.5810 H   0  0  0  0  0  0  0  0  0  0  0  0
    0.5707   -2.9235   -2.8803 H   0  0  0  0  0  0  0  0  0  0  0  0
    1.6555   -1.7299   -2.1690 H   0  0  0  0  0  0  0  0  0  0  0  0
    2.7991   -1.4897   -4.4356 H   0  0  0  0  0  0  0  0  0  0  0  0
    1.8242   -2.8339   -5.0287 H   0  0  0  0  0  0  0  0  0  0  0  0
    3.8180   -2.9250   -2.6975 H   0  0  0  0  0  0  0  0  0  0  0  0
    4.1150   -3.5397   -4.3251 H   0  0  0  0  0  0  0  0  0  0  0  0
    2.1774   -5.1568   -4.0205 H   0  0  0  0  0  0  0  0  0  0  0  0
    2.0398   -4.6317   -2.3444 H   0  0  0  0  0  0  0  0  0  0  0  0
    4.5168   -5.9382   -3.6010 H   0  0  0  0  0  0  0  0  0  0  0  0
    3.3197   -6.7531   -2.5969 H   0  0  0  0  0  0  0  0  0  0  0  0
    5.1974   -4.4924   -1.6571 H   0  0  0  0  0  0  0  0  0  0  0  0
    5.2959   -6.2083   -1.2148 H   0  0  0  0  0  0  0  0  0  0  0  0
    3.9244   -5.2210   -0.6586 H   0  0  0  0  0  0  0  0  0  0  0  0
   -2.4711   -0.9466   -3.9987 H   0  0  0  0  0  0  0  0  0  0  0  0
   -4.2434   -0.4026   -2.3160 H   0  0  0  0  0  0  0  0  0  0  0  0
  1 32  1  0  0  0  0
  1 33  1  0  0  0  0
  2 35  1  6  0  0  0
  2  1  1  0  0  0  0
  2  3  1  0  0  0  0
  4  3  1  0  0  0  0
  4 36  1  0  0  0  0
  5  6  1  6  0  0  0
  5  7  1  0  0  0  0
  5 11  1  0  0  0  0
  5  4  1  0  0  0  0
  7 38  1  0  0  0  0
  8  9  1  0  0  0  0
  8  7  1  0  0  0  0
  9 39  1  0  0  0  0
 10  8  2  0  0  0  0
 11 14  2  0  0  0  0
 12 13  1  0  0  0  0
 12 11  1  0  0  0  0
 13 43  1  0  0  0  0
 13 44  1  0  0  0  0
 15 17  1  6  0  0  0
 15  2  1  0  0  0  0
 15 16  1  0  0  0  0
 16 46  1  0  0  0  0
 18 19  1  0  0  0  0
 18 17  1  0  0  0  0
 19 49  1  0  0  0  0
 20 50  1  0  0  0  0
 20 19  2  0  0  0  0
 21 20  1  0  0  0  0
 22 23  1  0  0  0  0
 22 21  1  0  0  0  0
 23 53  1  0  0  0  0
 23 54  1  0  0  0  0
 24 25  1  0  0  0  0
 24 23  1  0  0  0  0
 25 26  1  0  0  0  0
 25 57  1  0  0  0  0
 26 27  1  0  0  0  0
 26 60  1  0  0  0  0
 27 62  1  0  0  0  0
 27 28  1  0  0  0  0
 28 64  1  0  0  0  0
 28 65  1  0  0  0  0
 29 21  2  0  0  0  0
 29 30  1  0  0  0  0
 30 18  2  0  0  0  0
 31 17  2  0  0  0  0
 34  1  1  0  0  0  0
 37  4  1  0  0  0  0
 40  9  1  0  0  0  0
 41  9  1  0  0  0  0
 42 12  1  0  0  0  0
 45 13  1  0  0  0  0
 47 16  1  0  0  0  0
 48 16  1  0  0  0  0
 51 22  1  0  0  0  0
 52 22  1  0  0  0  0
 55 24  1  0  0  0  0
 56 24  1  0  0  0  0
 58 25  1  0  0  0  0
 59 26  1  0  0  0  0
 61 27  1  0  0  0  0
 63 28  1  0  0  0  0
 66 29  1  0  0  0  0
 67 30  1  0  0  0  0
M  END
