67
-1 1
C        -4.234947    3.760938    1.165937
C        -4.101153    2.418855    0.524036
S        -0.904208    2.534675    2.216619
C         0.905560    2.599269    2.455579
C         1.686087    1.612128    1.568669
H         1.727002    1.996909    0.531970
N         0.968237    0.341944    1.550237
C         1.100891   -0.610903    0.619873
C         0.068741   -1.714763    0.639245
O         2.021839   -0.635605   -0.211072
C         3.148126    1.463721    2.058229
N         3.930417    0.708293    1.245098
C         5.296111    0.396995    1.563500
O         3.564242    2.012488    3.064145
C        -4.180898    1.228726    1.143977
C        -4.472604    1.051682    2.607889
C        -4.000772   -0.033236    0.361044
C        -3.020619   -0.079956   -0.779479
C        -1.873629    0.724678   -0.826376
C        -0.943323    0.544103   -1.846977
C        -1.121644   -0.429454   -2.835270
C        -0.021337   -0.712312   -3.827309
C         1.005684   -1.662862   -3.201424
C         2.287105   -1.871522   -4.006965
C         3.408964   -2.465843   -3.152170
C         3.170070   -3.903338   -2.683761
C         4.094581   -4.321132   -1.535435
C         3.643724   -3.780067   -0.179039
C        -2.275105   -1.223053   -2.783870
C        -3.206053   -1.058143   -1.764597
O        -4.625360   -1.038870    0.652363
H        -3.222922    4.106093    1.446010
H        -4.836601    3.735710    2.085466
H        -4.671251    4.497986    0.475030
H        -3.861356    2.425225   -0.543849
H         1.161451    2.380672    3.502591
H         1.300951    3.604100    2.248116
H         0.034839    0.472161    1.978901
H        -0.739139   -1.535016    1.360404
H         0.574095   -2.661394    0.881564
H        -0.364981   -1.811533   -0.365939
H         3.451404    0.218192    0.483805
H         5.436865   -0.681692    1.750542
H         5.569739    0.949700    2.471959
H         5.979680    0.693376    0.749961
H        -3.526613    1.106394    3.173063
H        -4.938949    0.072645    2.780699
H        -5.137457    1.835725    2.997549
H        -1.659274    1.449503   -0.028775
H        -0.031067    1.147489   -1.843490
H         0.478714    0.230944   -4.104018
H        -0.435240   -1.141033   -4.755986
H         0.510104   -2.629176   -3.005587
H         1.287205   -1.263791   -2.213750
H         2.624914   -0.894525   -4.394265
H         2.098111   -2.503667   -4.894696
H         3.536284   -1.813948   -2.271740
H         4.363375   -2.431168   -3.706602
H         3.294559   -4.586544   -3.542158
H         2.125408   -4.022514   -2.349793
H         5.120475   -3.975704   -1.756660
H         4.152153   -5.421875   -1.485456
H         3.442311   -2.697923   -0.208345
H         4.393870   -3.970741    0.603907
H         2.705340   -4.265346    0.134902
H        -2.429470   -1.996203   -3.542795
H        -4.087585   -1.699588   -1.700335
