55
-1 1
O         8.278058    1.091469   -6.360873
C         7.629824    2.138375   -6.484305
C         6.987534    2.401374   -7.844237
C         7.082394    1.387999   -8.804676
C         6.540370    1.545763  -10.076565
C         5.886802    2.729404  -10.438088
C         5.249257    2.879742  -11.797752
C         3.795844    2.392533  -11.821264
C         3.084800    2.578425  -13.163495
C         3.745139    1.888641  -14.361634
C         3.934376    0.384376  -14.190229
C         5.796670    3.744305   -9.479630
C         6.336296    3.588537   -8.202889
C         7.440002    3.101792   -5.445198
C         8.059753    2.931056   -4.203576
S        10.152328    3.897056   -4.136244
C        10.045737    4.677190   -5.756158
C         9.657445    6.173545   -5.754161
H         8.795229    6.293230   -5.080285
N         9.258784    6.621653   -7.067481
C         7.968826    6.719127   -7.460489
C         7.765264    7.150842   -8.900322
O         7.019812    6.433727   -6.746481
C        10.808952    7.074135   -5.294854
N        11.168852    6.904770   -4.004039
C        12.339233    7.528998   -3.447071
O        11.350494    7.862160   -6.060877
H         7.608987    0.477524   -8.510739
H         6.630909    0.737335  -10.810373
H         5.841205    2.317490  -12.539273
H         5.278978    3.937502  -12.112498
H         3.233800    2.930175  -11.039951
H         3.772863    1.331495  -11.519605
H         3.002807    3.658153  -13.380068
H         2.048432    2.208656  -13.067012
H         4.722243    2.357497  -14.568088
H         3.130141    2.079333  -15.257569
H         4.636661    0.154022  -13.374311
H         4.332911   -0.075854  -15.107203
H         2.979379   -0.112183  -13.952464
H         5.295552    4.684037   -9.735449
H         6.263646    4.420154   -7.499879
H         6.884936    4.020214   -5.639423
H         8.435257    1.930462   -3.978161
H         7.691667    3.502405   -3.350217
H         9.238794    4.149256   -6.301895
H        10.978904    4.533567   -6.323717
H         9.993717    7.062637   -7.609444
H         6.871384    7.785039   -8.958767
H         7.578650    6.244754   -9.497897
H         8.630071    7.680875   -9.324138
H        10.782192    6.067791   -3.550346
H        12.125480    7.942771   -2.449016
H        12.647694    8.344558   -4.113789
H        13.177987    6.818008   -3.354309
