-1 1
 OpenBabel05192410563D

 55 55  0  0  1  0  0  0  0  0999 V2000
    0.7433   -2.9223    1.3061 O   0  0  0  0  0  0  0  0  0  0  0  0
    0.0423   -1.8882    1.2379 C   0  0  0  0  0  0  0  0  0  0  0  0
   -0.6706   -1.6327   -0.0907 C   0  0  0  0  0  0  0  0  0  0  0  0
   -0.5587   -2.6214   -1.0749 C   0  0  0  0  0  0  0  0  0  0  0  0
   -1.1504   -2.4695   -2.3261 C   0  0  0  0  0  0  0  0  0  0  0  0
   -1.8745   -1.3155   -2.6453 C   0  0  0  0  0  0  0  0  0  0  0  0
   -2.5627   -1.1727   -3.9811 C   0  0  0  0  0  0  0  0  0  0  0  0
   -3.9935   -1.7230   -3.9686 C   0  0  0  0  0  0  0  0  0  0  0  0
   -4.7557   -1.5452   -5.2836 C   0  0  0  0  0  0  0  0  0  0  0  0
   -4.1047   -2.1830   -6.5153 C   0  0  0  0  0  0  0  0  0  0  0  0
   -3.8429   -3.6799   -6.3786 C   0  0  0  0  0  0  0  0  0  0  0  0
   -1.9846   -0.3242   -1.6634 C   0  0  0  0  0  0  0  0  0  0  0  0
   -1.3948   -0.4756   -0.4087 C   0  0  0  0  0  0  0  0  0  0  0  0
   -0.1249   -0.9519    2.2707 C   0  0  0  0  0  3  0  0  0  0  0  0
    0.5849   -1.1316    3.5212 C   0  0  0  0  0  0  0  0  0  0  0  0
    2.4150   -0.3309    3.5908 S   0  0  0  0  0  0  0  0  0  0  0  0
    2.4662    0.4656    1.9734 C   0  0  0  0  0  0  0  0  0  0  0  0
    1.9437    1.9185    1.9330 C   0  0  2  0  0  0  0  0  0  0  0  0
    1.0118    1.9621    2.5156 H   0  0  0  0  0  0  0  0  0  0  0  0
    1.6051    2.3135    0.5892 N   0  0  0  0  0  0  0  0  0  0  0  0
    0.3325    2.5665    0.1901 C   0  0  0  0  0  0  0  0  0  0  0  0
    0.1792    2.8990   -1.2806 C   0  0  0  0  0  0  0  0  0  0  0  0
   -0.6352    2.4810    0.9268 O   0  0  0  0  0  0  0  0  0  0  0  0
    2.9653    2.9095    2.4991 C   0  0  0  0  0  0  0  0  0  0  0  0
    3.1756    2.7905    3.8324 N   0  0  0  0  0  0  0  0  0  0  0  0
    4.2126    3.5171    4.5159 C   0  0  0  0  0  0  0  0  0  0  0  0
    3.5481    3.7129    1.7860 O   0  0  0  0  0  0  0  0  0  0  0  0
    0.0250   -3.5058   -0.8098 H   0  0  0  0  0  0  0  0  0  0  0  0
   -1.0431   -3.2597   -3.0780 H   0  0  0  0  0  0  0  0  0  0  0  0
   -1.9712   -1.6964   -4.7510 H   0  0  0  0  0  0  0  0  0  0  0  0
   -2.5899   -0.1098   -4.2795 H   0  0  0  0  0  0  0  0  0  0  0  0
   -4.5527   -1.2246   -3.1596 H   0  0  0  0  0  0  0  0  0  0  0  0
   -3.9603   -2.7891   -3.6863 H   0  0  0  0  0  0  0  0  0  0  0  0
   -4.8921   -0.4665   -5.4768 H   0  0  0  0  0  0  0  0  0  0  0  0
   -5.7712   -1.9626   -5.1621 H   0  0  0  0  0  0  0  0  0  0  0  0
   -3.1565   -1.6670   -6.7429 H   0  0  0  0  0  0  0  0  0  0  0  0
   -4.7562   -2.0045   -7.3878 H   0  0  0  0  0  0  0  0  0  0  0  0
   -3.1053   -3.8920   -5.5893 H   0  0  0  0  0  0  0  0  0  0  0  0
   -3.4538   -4.1056   -7.3161 H   0  0  0  0  0  0  0  0  0  0  0  0
   -4.7666   -4.2233   -6.1203 H   0  0  0  0  0  0  0  0  0  0  0  0
   -2.5411    0.5934   -1.8843 H   0  0  0  0  0  0  0  0  0  0  0  0
   -1.4884    0.3365    0.3141 H   0  0  0  0  0  0  0  0  0  0  0  0
   -0.7043   -0.0400    2.1220 H   0  0  0  0  0  0  0  0  0  0  0  0
    0.8243   -2.1856    3.7083 H   0  0  0  0  0  0  0  0  0  0  0  0
    0.1116   -0.6613    4.3918 H   0  0  0  0  0  0  0  0  0  0  0  0
    1.7979   -0.1285    1.3277 H   0  0  0  0  0  0  0  0  0  0  0  0
    3.4906    0.4048    1.5753 H   0  0  0  0  0  0  0  0  0  0  0  0
    2.3758    2.6017    0.0001 H   0  0  0  0  0  0  0  0  0  0  0  0
   -0.6431    3.6155   -1.3996 H   0  0  0  0  0  0  0  0  0  0  0  0
   -0.0973    1.9704   -1.8045 H   0  0  0  0  0  0  0  0  0  0  0  0
    1.0963    3.3013   -1.7344 H   0  0  0  0  0  0  0  0  0  0  0  0
    2.7701    1.9623    4.2744 H   0  0  0  0  0  0  0  0  0  0  0  0
    3.8297    3.9756    5.4414 H   0  0  0  0  0  0  0  0  0  0  0  0
    4.5717    4.3101    3.8474 H   0  0  0  0  0  0  0  0  0  0  0  0
    5.0653    2.8678    4.7777 H   0  0  0  0  0  0  0  0  0  0  0  0
  2  1  2  0  0  0  0
  2 14  1  0  0  0  0
  3  2  1  0  0  0  0
  4 28  1  0  0  0  0
  4  3  2  0  0  0  0
  5  4  1  0  0  0  0
  6  5  2  0  0  0  0
  6 12  1  0  0  0  0
  7  8  1  0  0  0  0
  7  6  1  0  0  0  0
  8 33  1  0  0  0  0
  8 32  1  0  0  0  0
  9 35  1  0  0  0  0
  9  8  1  0  0  0  0
 10 11  1  0  0  0  0
 10  9  1  0  0  0  0
 11 40  1  0  0  0  0
 11 38  1  0  0  0  0
 12 13  2  0  0  0  0
 13  3  1  0  0  0  0
 13 42  1  0  0  0  0
 14 15  1  0  0  0  0
 15 16  1  0  0  0  0
 15 44  1  0  0  0  0
 15 45  1  0  0  0  0
 17 16  1  0  0  0  0
 18 17  1  0  0  0  0
 18 24  1  0  0  0  0
 18 19  1  1  0  0  0
 20 18  1  0  0  0  0
 21 20  1  0  0  0  0
 21 23  2  0  0  0  0
 22 21  1  0  0  0  0
 24 25  1  0  0  0  0
 25 52  1  0  0  0  0
 25 26  1  0  0  0  0
 26 55  1  0  0  0  0
 26 53  1  0  0  0  0
 27 24  2  0  0  0  0
 29  5  1  0  0  0  0
 30  7  1  0  0  0  0
 31  7  1  0  0  0  0
 34  9  1  0  0  0  0
 36 10  1  0  0  0  0
 37 10  1  0  0  0  0
 39 11  1  0  0  0  0
 41 12  1  0  0  0  0
 43 14  1  0  0  0  0
 46 17  1  0  0  0  0
 47 17  1  0  0  0  0
 48 20  1  0  0  0  0
 49 22  1  0  0  0  0
 50 22  1  0  0  0  0
 51 22  1  0  0  0  0
 54 26  1  0  0  0  0
M  END
