64
-1 1
O        -1.321687    3.196349   -0.438091
C        -1.087446    2.115997    0.160555
C        -0.516220    1.005410   -0.712338
C        -0.924433    0.972374   -2.052144
C        -0.433617    0.014745   -2.933879
C         0.510691   -0.932739   -2.519347
C         1.015868   -2.008135   -3.452771
C         0.394297   -3.386083   -3.185209
C        -1.118340   -3.428091   -3.376806
C        -1.730661   -4.795767   -3.089244
C        -3.244558   -4.832513   -3.289781
C        -3.912165   -6.153900   -2.907105
C        -3.488096   -7.355367   -3.751014
C        -4.240170   -8.632990   -3.393446
C         0.946022   -0.877287   -1.192177
C         0.443115    0.072016   -0.300764
C        -1.316510    1.911486    1.529341
C        -1.207444    0.671196    2.331117
S         0.404504    0.248154    3.234958
C         0.957403    1.791815    4.028346
C         1.854688    2.719519    3.191833
H         2.350491    3.430650    3.872395
N         1.098391    3.497606    2.247043
C         1.300026    4.836083    2.088014
C         0.303666    5.520370    1.175477
O         2.202438    5.440705    2.646733
C         2.995761    1.901513    2.567540
N         3.028162    1.902611    1.216029
C         3.956125    1.113264    0.454646
O         3.786823    1.296786    3.272970
H        -1.628232    1.739674   -2.381067
H        -0.782050    0.003788   -3.971967
H         2.111701   -2.091120   -3.361630
H         0.810227   -1.715871   -4.496663
H         0.635908   -3.692285   -2.152126
H         0.869070   -4.132737   -3.847059
H        -1.363675   -3.126969   -4.412060
H        -1.587001   -2.671717   -2.724788
H        -1.496313   -5.086633   -2.049051
H        -1.245661   -5.552009   -3.731727
H        -3.477051   -4.598438   -4.344822
H        -3.697184   -4.020564   -2.695890
H        -5.007473   -6.036915   -2.984843
H        -3.707621   -6.370037   -1.842633
H        -2.405153   -7.527979   -3.635955
H        -3.644607   -7.118936   -4.818582
H        -4.077547   -8.905808   -2.338379
H        -3.915103   -9.483398   -4.012077
H        -5.325800   -8.509695   -3.537059
H         1.701133   -1.589178   -0.841557
H         0.831403    0.100164    0.720472
H        -1.809614    2.758846    2.019615
H        -1.330042   -0.248801    1.735759
H        -1.974199    0.652073    3.119216
H         1.533833    1.455618    4.900511
H         0.086889    2.357918    4.392970
H         0.254819    3.049199    1.850976
H        -0.369611    6.126925    1.801642
H        -0.298955    4.818959    0.573597
H         0.852628    6.214938    0.524298
H         2.289165    2.409725    0.743261
H         3.422931    0.422021   -0.217132
H         4.563059    0.534702    1.163444
H         4.625977    1.744232   -0.153052
