-1 1
 OpenBabel05232413483D

 64 63  0  0  1  0  0  0  0  0999 V2000
   -2.6882    3.0952    0.2086 O   0  0  0  0  0  0  0  0  0  0  0  0
   -2.1153    2.0939    0.6040 C   0  0  0  0  0  0  0  0  0  0  0  0
   -1.4980    1.1534   -0.3948 C   0  0  0  0  0  0  0  0  0  0  0  0
   -1.9782    1.1975   -1.7090 C   0  0  0  0  0  0  0  0  0  0  0  0
   -1.4013    0.4132   -2.7012 C   0  0  0  0  0  0  0  0  0  0  0  0
   -0.3122   -0.4201   -2.4151 C   0  0  0  0  0  0  0  0  0  0  0  0
    0.3013   -1.3040   -3.4747 C   0  0  0  0  0  0  0  0  0  0  0  0
   -0.0726   -2.7843   -3.3165 C   0  0  0  0  0  0  0  0  0  0  0  0
   -1.5675   -3.0609   -3.4416 C   0  0  0  0  0  0  0  0  0  0  0  0
   -1.9281   -4.5343   -3.2769 C   0  0  0  0  0  0  0  0  0  0  0  0
   -3.4253   -4.8071   -3.4088 C   0  0  0  0  0  0  0  0  0  0  0  0
   -3.8403   -6.2543   -3.1416 C   0  0  0  0  0  0  0  0  0  0  0  0
   -3.2765   -7.2761   -4.1283 C   0  0  0  0  0  0  0  0  0  0  0  0
   -3.7867   -8.6916   -3.8800 C   0  0  0  0  0  0  0  0  0  0  0  0
    0.1750   -0.4419   -1.1042 C   0  0  0  0  0  0  0  0  0  0  0  0
   -0.4071    0.3266   -0.0988 C   0  0  0  0  0  0  0  0  0  0  0  0
   -2.0307    1.8270    2.0600 C   0  0  0  0  0  0  0  0  0  0  0  0
   -1.8645    0.6324    2.6400 C   0  0  0  0  0  0  0  0  0  0  0  0
    1.3825    0.0975    3.0538 S   0  0  0  0  0  1  0  0  0  0  0  0
    1.3434    1.8163    3.6985 C   0  0  0  0  0  0  0  0  0  0  0  0
    2.1268    2.8620    2.8788 C   0  0  2  0  0  0  0  0  0  0  0  0
    1.8823    3.8742    3.2293 H   0  0  0  0  0  0  0  0  0  0  0  0
    1.7381    2.7955    1.4853 N   0  0  0  0  0  0  0  0  0  0  0  0
    1.4161    3.8808    0.7379 C   0  0  0  0  0  0  0  0  0  0  0  0
    0.9593    3.5778   -0.6796 C   0  0  0  0  0  0  0  0  0  0  0  0
    1.4641    5.0265    1.1514 O   0  0  0  0  0  0  0  0  0  0  0  0
    3.6544    2.7567    3.0483 C   0  0  0  0  0  0  0  0  0  0  0  0
    4.1738    1.5427    2.7345 N   0  0  0  0  0  0  0  0  0  0  0  0
    5.5674    1.2441    2.9097 C   0  0  0  0  0  0  0  0  0  0  0  0
    4.3262    3.7049    3.4239 O   0  0  0  0  0  0  0  0  0  0  0  0
   -2.8054    1.8728   -1.9365 H   0  0  0  0  0  0  0  0  0  0  0  0
   -1.7941    0.4523   -3.7216 H   0  0  0  0  0  0  0  0  0  0  0  0
    1.3985   -1.2084   -3.4368 H   0  0  0  0  0  0  0  0  0  0  0  0
   -0.0115   -0.9546   -4.4729 H   0  0  0  0  0  0  0  0  0  0  0  0
    0.2812   -3.1405   -2.3333 H   0  0  0  0  0  0  0  0  0  0  0  0
    0.4747   -3.3747   -4.0724 H   0  0  0  0  0  0  0  0  0  0  0  0
   -1.9243   -2.7038   -4.4254 H   0  0  0  0  0  0  0  0  0  0  0  0
   -2.1124   -2.4653   -2.6895 H   0  0  0  0  0  0  0  0  0  0  0  0
   -1.5816   -4.8841   -2.2876 H   0  0  0  0  0  0  0  0  0  0  0  0
   -1.3688   -5.1283   -4.0211 H   0  0  0  0  0  0  0  0  0  0  0  0
   -3.7606   -4.5120   -4.4199 H   0  0  0  0  0  0  0  0  0  0  0  0
   -3.9660   -4.1476   -2.7089 H   0  0  0  0  0  0  0  0  0  0  0  0
   -4.9425   -6.3185   -3.1579 H   0  0  0  0  0  0  0  0  0  0  0  0
   -3.5376   -6.5365   -2.1168 H   0  0  0  0  0  0  0  0  0  0  0  0
   -2.1750   -7.2741   -4.0781 H   0  0  0  0  0  0  0  0  0  0  0  0
   -3.5330   -6.9640   -5.1563 H   0  0  0  0  0  0  0  0  0  0  0  0
   -3.5190   -9.0371   -2.8686 H   0  0  0  0  0  0  0  0  0  0  0  0
   -3.3640   -9.4084   -4.6002 H   0  0  0  0  0  0  0  0  0  0  0  0
   -4.8844   -8.7400   -3.9639 H   0  0  0  0  0  0  0  0  0  0  0  0
    1.0395   -1.0638   -0.8524 H   0  0  0  0  0  0  0  0  0  0  0  0
    0.0358    0.2949    0.9075 H   0  0  0  0  0  0  0  0  0  0  0  0
   -2.1842    2.7237    2.6679 H   0  0  0  0  0  0  0  0  0  0  0  0
   -1.7490   -0.2895    2.0691 H   0  0  0  0  0  0  0  0  0  0  0  0
   -1.8486    0.5329    3.7269 H   0  0  0  0  0  0  0  0  0  0  0  0
    1.7214    1.8429    4.7335 H   0  0  0  0  0  0  0  0  0  0  0  0
    0.2976    2.1648    3.7279 H   0  0  0  0  0  0  0  0  0  0  0  0
    1.6098    1.8521    1.1269 H   0  0  0  0  0  0  0  0  0  0  0  0
    1.4451    4.2942   -1.3559 H   0  0  0  0  0  0  0  0  0  0  0  0
   -0.1270    3.7427   -0.7425 H   0  0  0  0  0  0  0  0  0  0  0  0
    1.1759    2.5511   -1.0054 H   0  0  0  0  0  0  0  0  0  0  0  0
    3.4924    0.7730    2.6448 H   0  0  0  0  0  0  0  0  0  0  0  0
    5.7507    0.6230    3.8046 H   0  0  0  0  0  0  0  0  0  0  0  0
    6.1103    2.1909    3.0320 H   0  0  0  0  0  0  0  0  0  0  0  0
    5.9710    0.7081    2.0350 H   0  0  0  0  0  0  0  0  0  0  0  0
  1  2  2  0  0  0  0
  2 17  1  0  0  0  0
  3 16  1  0  0  0  0
  3  2  1  0  0  0  0
  4  3  2  0  0  0  0
  5  6  2  0  0  0  0
  5  4  1  0  0  0  0
  6 15  1  0  0  0  0
  7 33  1  0  0  0  0
  7  8  1  0  0  0  0
  7  6  1  0  0  0  0
  8 35  1  0  0  0  0
  9  8  1  0  0  0  0
  9 10  1  0  0  0  0
  9 38  1  0  0  0  0
 10 39  1  0  0  0  0
 11 10  1  0  0  0  0
 11 12  1  0  0  0  0
 11 42  1  0  0  0  0
 12 44  1  0  0  0  0
 13 45  1  0  0  0  0
 13 14  1  0  0  0  0
 13 12  1  0  0  0  0
 14 47  1  0  0  0  0
 15 50  1  0  0  0  0
 15 16  2  0  0  0  0
 16 51  1  0  0  0  0
 17 18  2  0  0  0  0
 17 52  1  0  0  0  0
 18 54  1  0  0  0  0
 19 20  1  0  0  0  0
 20 56  1  0  0  0  0
 20 55  1  0  0  0  0
 21 27  1  0  0  0  0
 21 22  1  1  0  0  0
 21 20  1  0  0  0  0
 23 21  1  0  0  0  0
 24 26  2  0  0  0  0
 24 23  1  0  0  0  0
 25 24  1  0  0  0  0
 27 30  2  0  0  0  0
 28 29  1  0  0  0  0
 28 27  1  0  0  0  0
 29 63  1  0  0  0  0
 29 62  1  0  0  0  0
 31  4  1  0  0  0  0
 32  5  1  0  0  0  0
 34  7  1  0  0  0  0
 36  8  1  0  0  0  0
 37  9  1  0  0  0  0
 40 10  1  0  0  0  0
 41 11  1  0  0  0  0
 43 12  1  0  0  0  0
 46 13  1  0  0  0  0
 48 14  1  0  0  0  0
 49 14  1  0  0  0  0
 53 18  1  0  0  0  0
 57 23  1  0  0  0  0
 58 25  1  0  0  0  0
 59 25  1  0  0  0  0
 60 25  1  0  0  0  0
 61 28  1  0  0  0  0
 64 29  1  0  0  0  0
M  END
