-1 1
 OpenBabel05232414493D

 50 49  0  0  1  0  0  0  0  0999 V2000
   10.8058   -2.2769   10.8273 O   0  0  0  0  0  0  0  0  0  0  0  0
   11.1684   -1.8271    9.7560 C   0  0  0  0  0  0  0  0  0  0  0  0
   10.4374   -0.8149    9.1385 O   0  0  0  0  0  0  0  0  0  0  0  0
    9.0718   -0.9150    9.1285 C   0  0  0  0  0  0  0  0  0  0  0  0
    8.2949   -0.4502   10.1866 C   0  0  0  0  0  0  0  0  0  0  0  0
    6.9066   -0.5804   10.1244 C   0  0  0  0  0  0  0  0  0  0  0  0
    6.2825   -1.1684    9.0199 C   0  0  0  0  0  0  0  0  0  0  0  0
    4.7998   -1.4482    9.0039 C   0  0  0  0  0  0  0  0  0  0  0  0
    4.4837   -2.8922    9.4154 C   0  0  0  0  0  0  0  0  0  0  0  0
    2.9998   -3.2306    9.3345 C   0  0  0  0  0  0  0  0  0  0  0  0
    7.0863   -1.6084    7.9610 C   0  0  0  0  0  0  0  0  0  0  0  0
    8.4689   -1.4875    8.0080 C   0  0  0  0  0  0  0  0  0  0  0  0
   12.3147   -2.2141    8.9895 C   0  0  0  0  0  3  0  0  0  0  0  0
   12.4846   -1.8466    7.6651 C   0  0  0  0  0  3  0  0  0  0  0  0
   11.2578   -3.2734    6.1298 S   0  0  0  0  0  1  0  0  0  0  0  0
   11.2954   -4.7359    7.1952 C   0  0  0  0  0  0  0  0  0  0  0  0
    9.9832   -5.5314    7.2624 C   0  0  2  0  0  0  0  0  0  0  0  0
   10.1855   -6.4996    7.7514 H   0  0  0  0  0  0  0  0  0  0  0  0
    9.5079   -5.8375    5.9416 N   0  0  0  0  0  0  0  0  0  0  0  0
    8.8308   -6.9747    5.6502 C   0  0  0  0  0  0  0  0  0  0  0  0
    8.1208   -6.9525    4.3079 C   0  0  0  0  0  0  0  0  0  0  0  0
    8.7803   -7.9418    6.3898 O   0  0  0  0  0  0  0  0  0  0  0  0
    8.8351   -4.9156    8.0978 C   0  0  0  0  0  0  0  0  0  0  0  0
    9.1812   -4.4901    9.3350 N   0  0  0  0  0  0  0  0  0  0  0  0
    8.2105   -4.0474   10.3060 C   0  0  0  0  0  0  0  0  0  0  0  0
    7.6833   -4.9195    7.6954 O   0  0  0  0  0  0  0  0  0  0  0  0
    8.7886   -0.0155   11.0566 H   0  0  0  0  0  0  0  0  0  0  0  0
    6.2970   -0.2365   10.9659 H   0  0  0  0  0  0  0  0  0  0  0  0
    4.3984   -1.2691    7.9912 H   0  0  0  0  0  0  0  0  0  0  0  0
    4.2726   -0.7500    9.6771 H   0  0  0  0  0  0  0  0  0  0  0  0
    4.8508   -3.0538   10.4432 H   0  0  0  0  0  0  0  0  0  0  0  0
    5.0671   -3.5806    8.7812 H   0  0  0  0  0  0  0  0  0  0  0  0
    2.4008   -2.5715    9.9847 H   0  0  0  0  0  0  0  0  0  0  0  0
    2.8070   -4.2700    9.6410 H   0  0  0  0  0  0  0  0  0  0  0  0
    2.6214   -3.1115    8.3061 H   0  0  0  0  0  0  0  0  0  0  0  0
    6.6278   -2.1032    7.1011 H   0  0  0  0  0  0  0  0  0  0  0  0
    9.1091   -1.8778    7.2101 H   0  0  0  0  0  0  0  0  0  0  0  0
   12.9743   -2.9413    9.4678 H   0  0  0  0  0  0  0  0  0  0  0  0
   13.4272   -2.0720    7.1659 H   0  0  0  0  0  0  0  0  0  0  0  0
   11.9377   -0.9866    7.2817 H   0  0  0  0  0  0  0  0  0  0  0  0
   11.5878   -4.4032    8.2105 H   0  0  0  0  0  0  0  0  0  0  0  0
   12.0808   -5.4291    6.8553 H   0  0  0  0  0  0  0  0  0  0  0  0
    9.4451   -5.0348    5.3227 H   0  0  0  0  0  0  0  0  0  0  0  0
    8.6830   -6.3914    3.5472 H   0  0  0  0  0  0  0  0  0  0  0  0
    7.1435   -6.4644    4.4439 H   0  0  0  0  0  0  0  0  0  0  0  0
    7.9575   -7.9834    3.9710 H   0  0  0  0  0  0  0  0  0  0  0  0
   10.1584   -4.3803    9.5740 H   0  0  0  0  0  0  0  0  0  0  0  0
    8.6888   -3.3167   10.9694 H   0  0  0  0  0  0  0  0  0  0  0  0
    7.8185   -4.8911   10.9015 H   0  0  0  0  0  0  0  0  0  0  0  0
    7.3668   -3.5699    9.7934 H   0  0  0  0  0  0  0  0  0  0  0  0
  2  1  2  0  0  0  0
  3  2  1  0  0  0  0
  4  3  1  0  0  0  0
  4  5  1  0  0  0  0
  5 27  1  0  0  0  0
  6  5  2  0  0  0  0
  6 28  1  0  0  0  0
  7  6  1  0  0  0  0
  8  7  1  0  0  0  0
  8  9  1  0  0  0  0
  8 30  1  0  0  0  0
  9 31  1  0  0  0  0
 10  9  1  0  0  0  0
 10 34  1  0  0  0  0
 10 33  1  0  0  0  0
 11 12  1  0  0  0  0
 11  7  2  0  0  0  0
 12  4  2  0  0  0  0
 13 38  1  0  0  0  0
 13  2  1  0  0  0  0
 14 13  1  0  0  0  0
 15 16  1  0  0  0  0
 16 17  1  0  0  0  0
 16 41  1  0  0  0  0
 17 18  1  1  0  0  0
 17 23  1  0  0  0  0
 19 17  1  0  0  0  0
 20 19  1  0  0  0  0
 20 22  2  0  0  0  0
 21 45  1  0  0  0  0
 21 20  1  0  0  0  0
 23 24  1  0  0  0  0
 24 47  1  0  0  0  0
 24 25  1  0  0  0  0
 25 49  1  0  0  0  0
 25 48  1  0  0  0  0
 26 23  2  0  0  0  0
 29  8  1  0  0  0  0
 32  9  1  0  0  0  0
 35 10  1  0  0  0  0
 36 11  1  0  0  0  0
 37 12  1  0  0  0  0
 39 14  1  0  0  0  0
 40 14  1  0  0  0  0
 42 16  1  0  0  0  0
 43 19  1  0  0  0  0
 44 21  1  0  0  0  0
 46 21  1  0  0  0  0
 50 25  1  0  0  0  0
M  END
