50
-1 1
O        10.805833   -2.276910   10.827334
C        11.168377   -1.827126    9.755988
O        10.437394   -0.814877    9.138474
C         9.071777   -0.914984    9.128533
C         8.294938   -0.450154   10.186577
C         6.906612   -0.580415   10.124404
C         6.282488   -1.168436    9.019880
C         4.799808   -1.448199    9.003894
C         4.483731   -2.892212    9.415393
C         2.999845   -3.230640    9.334459
C         7.086297   -1.608365    7.960990
C         8.468877   -1.487463    8.008025
C        12.314678   -2.214113    8.989513
C        12.484638   -1.846577    7.665079
S        11.257841   -3.273394    6.129831
C        11.295357   -4.735892    7.195221
C         9.983191   -5.531362    7.262382
H        10.185511   -6.499560    7.751446
N         9.507935   -5.837506    5.941621
C         8.830764   -6.974682    5.650178
C         8.120796   -6.952479    4.307876
O         8.780336   -7.941845    6.389843
C         8.835094   -4.915613    8.097795
N         9.181177   -4.490090    9.335024
C         8.210485   -4.047382   10.305995
O         7.683253   -4.919486    7.695390
H         8.788629   -0.015531   11.056558
H         6.297027   -0.236478   10.965906
H         4.398394   -1.269058    7.991176
H         4.272560   -0.749965    9.677097
H         4.850757   -3.053760   10.443201
H         5.067145   -3.580581    8.781153
H         2.400794   -2.571492    9.984658
H         2.807035   -4.269958    9.640981
H         2.621425   -3.111492    8.306132
H         6.627806   -2.103246    7.101115
H         9.109149   -1.877779    7.210100
H        12.974343   -2.941340    9.467778
H        13.427220   -2.071997    7.165941
H        11.937698   -0.986647    7.281739
H        11.587790   -4.403250    8.210534
H        12.080756   -5.429141    6.855343
H         9.445092   -5.034839    5.322679
H         8.682955   -6.391359    3.547223
H         7.143486   -6.464384    4.443862
H         7.957469   -7.983425    3.970978
H        10.158395   -4.380326    9.574006
H         8.688759   -3.316663   10.969352
H         7.818489   -4.891148   10.901508
H         7.366782   -3.569866    9.793397
