-1 1
 OpenBabel05232414493D

 67 68  0  0  1  0  0  0  0  0999 V2000
    2.9164   -2.3083   -1.6065 O   0  0  0  0  0  0  0  0  0  0  0  0
    3.8414   -1.5207   -1.4894 C   0  0  0  0  0  0  0  0  0  0  0  0
    3.7356   -0.2195   -0.6461 C   0  0  2  0  0  0  0  0  0  0  0  0
    2.2860   -0.0309   -0.1054 C   0  0  0  0  0  0  0  0  0  0  0  0
    1.5489    1.6300   -0.2232 S   0  0  0  0  0  1  0  0  0  0  0  0
    0.2098    1.3412   -2.1537 C   0  0  0  0  0  3  0  0  0  0  0  0
   -0.8028    2.2958   -2.2319 C   0  0  2  0  0  3  0  0  0  0  0  0
   -0.7361    3.9059   -2.9891 S   0  0  0  0  0  0  0  0  0  0  0  0
   -2.0458    2.1146   -1.5277 C   0  0  0  0  0  0  0  0  0  0  0  0
   -2.4325    1.1557   -0.8817 O   0  0  0  0  0  0  0  0  0  0  0  0
   -2.8489    3.2704   -1.6873 N   0  0  0  0  0  0  0  0  0  0  0  0
   -2.3678    4.3293   -2.4048 C   0  0  0  0  0  0  0  0  0  0  0  0
   -2.9340    5.3736   -2.6261 O   0  0  0  0  0  0  0  0  0  0  0  0
    1.3207    1.2034   -3.1259 C   0  0  0  0  0  0  0  0  0  0  0  0
    2.0075    2.3191   -3.6376 C   0  0  0  0  0  0  0  0  0  0  0  0
    3.1146    2.1636   -4.4620 C   0  0  0  0  0  0  0  0  0  0  0  0
    3.8502    3.1796   -4.9667 O   0  0  0  0  0  0  0  0  0  0  0  0
    3.4334    4.4968   -4.7244 C   0  0  0  0  0  0  0  0  0  0  0  0
    3.5527    0.8647   -4.7825 C   0  0  0  0  0  0  0  0  0  0  0  0
    4.7515    0.6844   -5.4316 O   0  0  0  0  0  0  0  0  0  0  0  0
    4.9748    1.1785   -6.6574 C   0  0  0  0  0  0  0  0  0  0  0  0
    6.3060    1.3701   -7.0753 C   0  0  0  0  0  0  0  0  0  0  0  0
    7.5224    1.1716   -6.2218 C   0  0  0  0  0  0  0  0  0  0  0  0
    7.2683    1.1258   -4.9209 O   0  0  0  0  0  0  0  0  0  0  0  0
    8.3742    0.9441   -4.0472 C   0  0  0  0  0  0  0  0  0  0  0  0
    8.6370    1.1001   -6.6828 O   0  0  0  0  0  0  0  0  0  0  0  0
    6.5458    1.7893   -8.3886 C   0  0  0  0  0  0  0  0  0  0  0  0
    5.5034    2.0502   -9.2656 C   0  0  0  0  0  0  0  0  0  0  0  0
    5.7600    2.5009  -10.6744 C   0  0  0  0  0  0  0  0  0  0  0  0
    5.1073    3.6385  -10.9583 F   0  0  0  0  0  0  0  0  0  0  0  0
    7.0565    2.7187  -10.9141 F   0  0  0  0  0  0  0  0  0  0  0  0
    5.3405    1.5946  -11.5716 F   0  0  0  0  0  0  0  0  0  0  0  0
    4.1827    1.8783   -8.8322 C   0  0  0  0  0  0  0  0  0  0  0  0
    3.9208    1.4428   -7.5466 C   0  0  0  0  0  0  0  0  0  0  0  0
    2.8591   -0.2383   -4.3212 C   0  0  0  0  0  0  0  0  0  0  0  0
    1.7411   -0.0733   -3.5037 C   0  0  0  0  0  0  0  0  0  0  0  0
    4.1601    0.9594   -1.3769 N   0  0  0  0  0  0  0  0  0  0  0  0
    5.4215    1.3385   -1.6181 C   0  0  0  0  0  0  0  0  0  0  0  0
    5.5891    2.7027   -2.2429 C   0  0  0  0  0  0  0  0  0  0  0  0
    6.4054    0.6209   -1.3996 O   0  0  0  0  0  0  0  0  0  0  0  0
    4.4334   -0.3573    0.1997 H   0  0  0  0  0  0  0  0  0  0  0  0
    5.0543   -1.7079   -2.0559 N   0  0  0  0  0  0  0  0  0  0  0  0
    5.3271   -2.7878   -2.9647 C   0  0  0  0  0  0  0  0  0  0  0  0
    1.6403   -0.7404   -0.6421 H   0  0  0  0  0  0  0  0  0  0  0  0
    2.2641   -0.3429    0.9474 H   0  0  0  0  0  0  0  0  0  0  0  0
   -0.1619    0.3919   -1.7582 H   0  0  0  0  0  0  0  0  0  0  0  0
   -3.7671    3.3149   -1.2625 H   0  0  0  0  0  0  0  0  0  0  0  0
    1.7160    3.3172   -3.3152 H   0  0  0  0  0  0  0  0  0  0  0  0
    4.1248    5.1485   -5.2720 H   0  0  0  0  0  0  0  0  0  0  0  0
    3.4765    4.7476   -3.6506 H   0  0  0  0  0  0  0  0  0  0  0  0
    2.4052    4.6695   -5.0850 H   0  0  0  0  0  0  0  0  0  0  0  0
    8.9137    0.0196   -4.2999 H   0  0  0  0  0  0  0  0  0  0  0  0
    7.9486    0.8835   -3.0376 H   0  0  0  0  0  0  0  0  0  0  0  0
    9.0745    1.7882   -4.1331 H   0  0  0  0  0  0  0  0  0  0  0  0
    7.5845    1.9136   -8.6965 H   0  0  0  0  0  0  0  0  0  0  0  0
    3.3518    2.0823   -9.5111 H   0  0  0  0  0  0  0  0  0  0  0  0
    2.8948    1.2958   -7.2060 H   0  0  0  0  0  0  0  0  0  0  0  0
    3.2288   -1.2343   -4.5686 H   0  0  0  0  0  0  0  0  0  0  0  0
    1.2384   -0.9557   -3.1078 H   0  0  0  0  0  0  0  0  0  0  0  0
    3.4083    1.6616   -1.4240 H   0  0  0  0  0  0  0  0  0  0  0  0
    5.7415    2.5707   -3.3250 H   0  0  0  0  0  0  0  0  0  0  0  0
    6.4849    3.1765   -1.8208 H   0  0  0  0  0  0  0  0  0  0  0  0
    4.7145    3.3480   -2.0844 H   0  0  0  0  0  0  0  0  0  0  0  0
    5.7740   -1.0049   -1.8631 H   0  0  0  0  0  0  0  0  0  0  0  0
    4.4136   -3.3874   -3.0714 H   0  0  0  0  0  0  0  0  0  0  0  0
    6.1324   -3.4422   -2.5916 H   0  0  0  0  0  0  0  0  0  0  0  0
    5.6250   -2.4036   -3.9547 H   0  0  0  0  0  0  0  0  0  0  0  0
  1  2  2  0  0  0  0
  2  3  1  0  0  0  0
  3  4  1  0  0  0  0
  3 41  1  1  0  0  0
  4 45  1  0  0  0  0
  5  4  1  0  0  0  0
  6 46  1  0  0  0  0
  7  6  1  1  0  0  0
  7  9  1  0  0  0  0
  8 12  1  0  0  0  0
  8  7  1  0  0  0  0
  9 10  2  0  0  0  0
 11  9  1  0  0  0  0
 11 47  1  0  0  0  0
 12 11  1  0  0  0  0
 13 12  2  0  0  0  0
 14  6  1  0  0  0  0
 15 48  1  0  0  0  0
 15 14  2  0  0  0  0
 16 15  1  0  0  0  0
 17 18  1  0  0  0  0
 17 16  1  0  0  0  0
 18 50  1  0  0  0  0
 19 16  2  0  0  0  0
 19 35  1  0  0  0  0
 20 19  1  0  0  0  0
 21 20  1  0  0  0  0
 22 21  1  0  0  0  0
 22 23  1  0  0  0  0
 23 24  1  0  0  0  0
 24 25  1  0  0  0  0
 25 53  1  0  0  0  0
 26 23  2  0  0  0  0
 27 22  2  0  0  0  0
 28 33  2  0  0  0  0
 28 27  1  0  0  0  0
 29 28  1  0  0  0  0
 30 29  1  0  0  0  0
 31 29  1  0  0  0  0
 32 29  1  0  0  0  0
 33 34  1  0  0  0  0
 34 57  1  0  0  0  0
 34 21  2  0  0  0  0
 35 36  2  0  0  0  0
 36 14  1  0  0  0  0
 36 59  1  0  0  0  0
 37  3  1  0  0  0  0
 38 40  2  0  0  0  0
 38 37  1  0  0  0  0
 39 63  1  0  0  0  0
 39 62  1  0  0  0  0
 39 38  1  0  0  0  0
 42 64  1  0  0  0  0
 42  2  1  0  0  0  0
 43 66  1  0  0  0  0
 43 42  1  0  0  0  0
 44  4  1  0  0  0  0
 49 18  1  0  0  0  0
 51 18  1  0  0  0  0
 52 25  1  0  0  0  0
 54 25  1  0  0  0  0
 55 27  1  0  0  0  0
 56 33  1  0  0  0  0
 58 35  1  0  0  0  0
 60 37  1  0  0  0  0
 61 39  1  0  0  0  0
 65 43  1  0  0  0  0
 67 43  1  0  0  0  0
M  END
