67
-1 1
O        -0.500970   -3.811030    2.864013
C         0.417033   -3.009284    2.908140
C         0.333448   -1.696564    3.738888
C        -1.104105   -1.501311    4.303416
S        -1.980461    0.066571    3.992762
C        -2.989042   -0.259863    2.351471
C        -4.066912    0.709183    2.199101
S        -3.901638    2.425649    1.747143
C        -5.362140    0.429030    2.679201
O        -5.837649   -0.611355    3.138210
N        -6.166865    1.607453    2.574489
C        -5.610571    2.766340    2.129986
O        -6.155284    3.841853    1.992847
C        -1.968217   -0.419456    1.254505
C        -1.293986    0.692403    0.722597
C        -0.222598    0.535680   -0.148419
O         0.500793    1.551774   -0.671285
C         0.068539    2.868547   -0.447172
C         0.191735   -0.764654   -0.492855
O         1.373020   -0.958369   -1.169893
C         1.600543   -0.417151   -2.375465
C         2.932759   -0.196946   -2.772410
C         4.139211   -0.401232   -1.907152
O         3.872458   -0.441268   -0.606869
C         4.970777   -0.626252    0.274972
O         5.258416   -0.477755   -2.355123
C         3.181897    0.261178   -4.070874
C         2.144521    0.536683   -4.949422
C         2.409989    1.028518   -6.343045
F         1.737491    2.159021   -6.606571
F         3.704815    1.278805   -6.559002
F         2.021817    0.136596   -7.267978
C         0.821129    0.339997   -4.533901
C         0.551488   -0.136980   -3.264628
C        -0.508039   -1.863391   -0.028800
C        -1.591723   -1.693787    0.834145
N         0.776249   -0.520749    3.016115
C         2.044310   -0.169993    2.751881
C         2.229807    1.167158    2.077238
O         3.012295   -0.898431    2.992790
H         1.034698   -1.849134    4.578882
N         1.601186   -3.192613    2.286282
C         1.851366   -4.300929    1.404502
H        -1.725959   -2.325727    3.928910
H        -1.076827   -1.601368    5.396171
H        -3.475222   -1.222633    2.562578
H        -7.138123    1.581483    2.858425
H        -1.580898    1.692292    1.045024
H         0.732316    3.517796   -1.030689
H         0.139330    3.146351    0.618434
H        -0.973148    3.014765   -0.778254
H         5.505441   -1.556122    0.032167
H         4.540846   -0.677634    1.283168
H         5.678527    0.211765    0.190131
H         4.221799    0.405735   -4.365688
H        -0.005056    0.556984   -5.214459
H        -0.475812   -0.303848   -2.936717
H        -0.163650   -2.860122   -0.308445
H        -2.095291   -2.572232    1.238085
H         0.032812    0.163746    2.862178
H         2.362692    0.994329    0.998102
H         3.141720    1.635879    2.469017
H         1.372387    1.837790    2.223112
H         2.336221   -2.502977    2.461300
H         0.920176   -4.871434    1.293480
H         2.626329   -4.976447    1.803742
H         2.178505   -3.943002    0.414821
