-1 1
 OpenBabel05192410563D

 67 69  0  0  1  0  0  0  0  0999 V2000
   -0.5010   -3.8110    2.8640 O   0  0  0  0  0  0  0  0  0  0  0  0
    0.4170   -3.0093    2.9081 C   0  0  0  0  0  0  0  0  0  0  0  0
    0.3334   -1.6966    3.7389 C   0  0  2  0  0  0  0  0  0  0  0  0
   -1.1041   -1.5013    4.3034 C   0  0  0  0  0  0  0  0  0  0  0  0
   -1.9805    0.0666    3.9928 S   0  0  0  0  0  0  0  0  0  0  0  0
   -2.9890   -0.2599    2.3515 C   0  0  1  0  0  0  0  0  0  0  0  0
   -4.0669    0.7092    2.1991 C   0  0  2  0  0  3  0  0  0  0  0  0
   -3.9016    2.4256    1.7471 S   0  0  0  0  0  0  0  0  0  0  0  0
   -5.3621    0.4290    2.6792 C   0  0  0  0  0  0  0  0  0  0  0  0
   -5.8376   -0.6114    3.1382 O   0  0  0  0  0  0  0  0  0  0  0  0
   -6.1669    1.6075    2.5745 N   0  0  0  0  0  0  0  0  0  0  0  0
   -5.6106    2.7663    2.1300 C   0  0  0  0  0  0  0  0  0  0  0  0
   -6.1553    3.8419    1.9928 O   0  0  0  0  0  0  0  0  0  0  0  0
   -1.9682   -0.4195    1.2545 C   0  0  0  0  0  0  0  0  0  0  0  0
   -1.2940    0.6924    0.7226 C   0  0  0  0  0  0  0  0  0  0  0  0
   -0.2226    0.5357   -0.1484 C   0  0  0  0  0  0  0  0  0  0  0  0
    0.5008    1.5518   -0.6713 O   0  0  0  0  0  0  0  0  0  0  0  0
    0.0685    2.8685   -0.4472 C   0  0  0  0  0  0  0  0  0  0  0  0
    0.1917   -0.7647   -0.4929 C   0  0  0  0  0  0  0  0  0  0  0  0
    1.3730   -0.9584   -1.1699 O   0  0  0  0  0  0  0  0  0  0  0  0
    1.6005   -0.4172   -2.3755 C   0  0  0  0  0  0  0  0  0  0  0  0
    2.9328   -0.1969   -2.7724 C   0  0  0  0  0  0  0  0  0  0  0  0
    4.1392   -0.4012   -1.9072 C   0  0  0  0  0  0  0  0  0  0  0  0
    3.8725   -0.4413   -0.6069 O   0  0  0  0  0  0  0  0  0  0  0  0
    4.9708   -0.6263    0.2750 C   0  0  0  0  0  0  0  0  0  0  0  0
    5.2584   -0.4778   -2.3551 O   0  0  0  0  0  0  0  0  0  0  0  0
    3.1819    0.2612   -4.0709 C   0  0  0  0  0  0  0  0  0  0  0  0
    2.1445    0.5367   -4.9494 C   0  0  0  0  0  0  0  0  0  0  0  0
    2.4100    1.0285   -6.3430 C   0  0  0  0  0  0  0  0  0  0  0  0
    1.7375    2.1590   -6.6066 F   0  0  0  0  0  0  0  0  0  0  0  0
    3.7048    1.2788   -6.5590 F   0  0  0  0  0  0  0  0  0  0  0  0
    2.0218    0.1366   -7.2680 F   0  0  0  0  0  0  0  0  0  0  0  0
    0.8211    0.3400   -4.5339 C   0  0  0  0  0  0  0  0  0  0  0  0
    0.5515   -0.1370   -3.2646 C   0  0  0  0  0  0  0  0  0  0  0  0
   -0.5080   -1.8634   -0.0288 C   0  0  0  0  0  0  0  0  0  0  0  0
   -1.5917   -1.6938    0.8341 C   0  0  0  0  0  0  0  0  0  0  0  0
    0.7762   -0.5207    3.0161 N   0  0  0  0  0  0  0  0  0  0  0  0
    2.0443   -0.1700    2.7519 C   0  0  0  0  0  0  0  0  0  0  0  0
    2.2298    1.1672    2.0772 C   0  0  0  0  0  0  0  0  0  0  0  0
    3.0123   -0.8984    2.9928 O   0  0  0  0  0  0  0  0  0  0  0  0
    1.0347   -1.8491    4.5789 H   0  0  0  0  0  0  0  0  0  0  0  0
    1.6012   -3.1926    2.2863 N   0  0  0  0  0  0  0  0  0  0  0  0
    1.8514   -4.3009    1.4045 C   0  0  0  0  0  0  0  0  0  0  0  0
   -1.7260   -2.3257    3.9289 H   0  0  0  0  0  0  0  0  0  0  0  0
   -1.0768   -1.6014    5.3962 H   0  0  0  0  0  0  0  0  0  0  0  0
   -3.4752   -1.2226    2.5626 H   0  0  0  0  0  0  0  0  0  0  0  0
   -7.1381    1.5815    2.8584 H   0  0  0  0  0  0  0  0  0  0  0  0
   -1.5809    1.6923    1.0450 H   0  0  0  0  0  0  0  0  0  0  0  0
    0.7323    3.5178   -1.0307 H   0  0  0  0  0  0  0  0  0  0  0  0
    0.1393    3.1464    0.6184 H   0  0  0  0  0  0  0  0  0  0  0  0
   -0.9731    3.0148   -0.7783 H   0  0  0  0  0  0  0  0  0  0  0  0
    5.5054   -1.5561    0.0322 H   0  0  0  0  0  0  0  0  0  0  0  0
    4.5408   -0.6776    1.2832 H   0  0  0  0  0  0  0  0  0  0  0  0
    5.6785    0.2118    0.1901 H   0  0  0  0  0  0  0  0  0  0  0  0
    4.2218    0.4057   -4.3657 H   0  0  0  0  0  0  0  0  0  0  0  0
   -0.0051    0.5570   -5.2145 H   0  0  0  0  0  0  0  0  0  0  0  0
   -0.4758   -0.3038   -2.9367 H   0  0  0  0  0  0  0  0  0  0  0  0
   -0.1636   -2.8601   -0.3084 H   0  0  0  0  0  0  0  0  0  0  0  0
   -2.0953   -2.5722    1.2381 H   0  0  0  0  0  0  0  0  0  0  0  0
    0.0328    0.1637    2.8622 H   0  0  0  0  0  0  0  0  0  0  0  0
    2.3627    0.9943    0.9981 H   0  0  0  0  0  0  0  0  0  0  0  0
    3.1417    1.6359    2.4690 H   0  0  0  0  0  0  0  0  0  0  0  0
    1.3724    1.8378    2.2231 H   0  0  0  0  0  0  0  0  0  0  0  0
    2.3362   -2.5030    2.4613 H   0  0  0  0  0  0  0  0  0  0  0  0
    0.9202   -4.8714    1.2935 H   0  0  0  0  0  0  0  0  0  0  0  0
    2.6263   -4.9764    1.8037 H   0  0  0  0  0  0  0  0  0  0  0  0
    2.1785   -3.9430    0.4148 H   0  0  0  0  0  0  0  0  0  0  0  0
  1  2  2  0  0  0  0
  2  3  1  0  0  0  0
  3  4  1  0  0  0  0
  3 41  1  1  0  0  0
  4 45  1  0  0  0  0
  5  4  1  0  0  0  0
  6 46  1  1  0  0  0
  6  5  1  0  0  0  0
  7  6  1  1  0  0  0
  7  9  1  0  0  0  0
  8 12  1  0  0  0  0
  8  7  1  0  0  0  0
  9 10  2  0  0  0  0
 11  9  1  0  0  0  0
 11 47  1  0  0  0  0
 12 11  1  0  0  0  0
 13 12  2  0  0  0  0
 14  6  1  0  0  0  0
 15 48  1  0  0  0  0
 15 14  2  0  0  0  0
 16 15  1  0  0  0  0
 17 18  1  0  0  0  0
 17 16  1  0  0  0  0
 18 50  1  0  0  0  0
 19 16  2  0  0  0  0
 19 35  1  0  0  0  0
 20 19  1  0  0  0  0
 21 20  1  0  0  0  0
 22 21  1  0  0  0  0
 22 23  1  0  0  0  0
 23 24  1  0  0  0  0
 24 25  1  0  0  0  0
 25 53  1  0  0  0  0
 26 23  2  0  0  0  0
 27 22  2  0  0  0  0
 28 33  2  0  0  0  0
 28 27  1  0  0  0  0
 29 28  1  0  0  0  0
 30 29  1  0  0  0  0
 31 29  1  0  0  0  0
 32 29  1  0  0  0  0
 33 34  1  0  0  0  0
 34 57  1  0  0  0  0
 34 21  2  0  0  0  0
 35 36  2  0  0  0  0
 36 59  1  0  0  0  0
 36 14  1  0  0  0  0
 37  3  1  0  0  0  0
 38 40  2  0  0  0  0
 38 37  1  0  0  0  0
 39 63  1  0  0  0  0
 39 62  1  0  0  0  0
 39 38  1  0  0  0  0
 42 64  1  0  0  0  0
 42  2  1  0  0  0  0
 43 66  1  0  0  0  0
 43 42  1  0  0  0  0
 44  4  1  0  0  0  0
 49 18  1  0  0  0  0
 51 18  1  0  0  0  0
 52 25  1  0  0  0  0
 54 25  1  0  0  0  0
 55 27  1  0  0  0  0
 56 33  1  0  0  0  0
 58 35  1  0  0  0  0
 60 37  1  0  0  0  0
 61 39  1  0  0  0  0
 65 43  1  0  0  0  0
 67 43  1  0  0  0  0
M  END
