-1 1
 OpenBabel05232413483D

 56 55  0  0  1  0  0  0  0  0999 V2000
    2.2814    2.7598    0.1763 O   0  0  0  0  0  0  0  0  0  0  0  0
    1.4890    2.7324   -0.7363 C   0  0  0  0  0  0  0  0  0  0  0  0
    1.1579    1.6203   -1.4259 O   0  0  0  0  0  0  0  0  0  0  0  0
    1.5595    0.3353   -1.1679 C   0  0  0  0  0  0  0  0  0  0  0  0
    1.1149   -0.5923   -2.1108 C   0  0  0  0  0  0  0  0  0  0  0  0
    1.4368   -1.9339   -1.9732 C   0  0  0  0  0  0  0  0  0  0  0  0
    2.2051   -2.3869   -0.8963 C   0  0  0  0  0  0  0  0  0  0  0  0
    2.4874   -3.8580   -0.7057 C   0  0  0  0  0  0  0  0  0  0  0  0
    1.5233   -4.5493    0.2707 C   0  0  0  0  0  0  0  0  0  0  0  0
    0.0533   -4.4436   -0.1308 C   0  0  0  0  0  0  0  0  0  0  0  0
   -0.9067   -5.1760    0.8075 C   0  0  0  0  0  0  0  0  0  0  0  0
   -0.7937   -6.6985    0.7849 C   0  0  0  0  0  0  0  0  0  0  0  0
    2.6384   -1.4399    0.0348 C   0  0  0  0  0  0  0  0  0  0  0  0
    2.3268   -0.0843   -0.0799 C   0  0  0  0  0  0  0  0  0  0  0  0
    0.7723    3.9130   -1.2447 C   0  0  0  0  0  0  0  0  0  0  0  0
   -0.1798    3.8682   -2.1891 C   0  0  0  0  0  0  0  0  0  0  0  0
   -3.0420    2.7769   -1.3943 S   0  0  0  0  0  1  0  0  0  0  0  0
   -2.4130    1.1143   -0.9655 C   0  0  0  0  0  0  0  0  0  0  0  0
   -1.9773    0.9826    0.5049 C   0  0  2  0  0  0  0  0  0  0  0  0
   -2.8792    0.9963    1.1477 H   0  0  0  0  0  0  0  0  0  0  0  0
   -1.1655    2.1518    0.8255 N   0  0  0  0  0  0  0  0  0  0  0  0
   -0.8802    2.6228    2.0544 C   0  0  0  0  0  0  0  0  0  0  0  0
   -0.3362    4.0358    2.0801 C   0  0  0  0  0  0  0  0  0  0  0  0
   -0.9885    1.9721    3.0954 O   0  0  0  0  0  0  0  0  0  0  0  0
   -1.2909   -0.3747    0.7628 C   0  0  0  0  0  0  0  0  0  0  0  0
   -0.6938   -0.4979    1.9663 N   0  0  0  0  0  0  0  0  0  0  0  0
   -0.0851   -1.7326    2.3729 C   0  0  0  0  0  0  0  0  0  0  0  0
   -1.3453   -1.2933   -0.0444 O   0  0  0  0  0  0  0  0  0  0  0  0
    0.4945   -0.2402   -2.9359 H   0  0  0  0  0  0  0  0  0  0  0  0
    1.0625   -2.6508   -2.7086 H   0  0  0  0  0  0  0  0  0  0  0  0
    3.5206   -3.9933   -0.3445 H   0  0  0  0  0  0  0  0  0  0  0  0
    2.4294   -4.3667   -1.6829 H   0  0  0  0  0  0  0  0  0  0  0  0
    1.6529   -4.1103    1.2764 H   0  0  0  0  0  0  0  0  0  0  0  0
    1.8257   -5.6075    0.3600 H   0  0  0  0  0  0  0  0  0  0  0  0
   -0.0717   -4.8387   -1.1568 H   0  0  0  0  0  0  0  0  0  0  0  0
   -0.2452   -3.3828   -0.1716 H   0  0  0  0  0  0  0  0  0  0  0  0
   -1.9364   -4.8835    0.5457 H   0  0  0  0  0  0  0  0  0  0  0  0
   -0.7482   -4.8118    1.8378 H   0  0  0  0  0  0  0  0  0  0  0  0
   -0.9548   -7.0907   -0.2329 H   0  0  0  0  0  0  0  0  0  0  0  0
   -1.5407   -7.1675    1.4444 H   0  0  0  0  0  0  0  0  0  0  0  0
    0.1983   -7.0437    1.1171 H   0  0  0  0  0  0  0  0  0  0  0  0
    3.2382   -1.7662    0.8903 H   0  0  0  0  0  0  0  0  0  0  0  0
    2.6687    0.6379    0.6556 H   0  0  0  0  0  0  0  0  0  0  0  0
    1.0350    4.8414   -0.7328 H   0  0  0  0  0  0  0  0  0  0  0  0
   -0.4566    2.9412   -2.6895 H   0  0  0  0  0  0  0  0  0  0  0  0
   -0.7083    4.7695   -2.5025 H   0  0  0  0  0  0  0  0  0  0  0  0
   -1.5433    0.8557   -1.5918 H   0  0  0  0  0  0  0  0  0  0  0  0
   -3.1679    0.3401   -1.1568 H   0  0  0  0  0  0  0  0  0  0  0  0
   -1.3433    2.8675    0.1002 H   0  0  0  0  0  0  0  0  0  0  0  0
    0.7341    4.0028    1.8236 H   0  0  0  0  0  0  0  0  0  0  0  0
   -0.4513    4.4404    3.0928 H   0  0  0  0  0  0  0  0  0  0  0  0
   -0.8472    4.6803    1.3504 H   0  0  0  0  0  0  0  0  0  0  0  0
   -0.7678    0.2973    2.6122 H   0  0  0  0  0  0  0  0  0  0  0  0
    0.6668   -2.0576    1.6383 H   0  0  0  0  0  0  0  0  0  0  0  0
   -0.8243   -2.5472    2.4714 H   0  0  0  0  0  0  0  0  0  0  0  0
    0.4101   -1.5879    3.3428 H   0  0  0  0  0  0  0  0  0  0  0  0
  2  1  2  0  0  0  0
  3  4  1  0  0  0  0
  3  2  1  0  0  0  0
  4 14  1  0  0  0  0
  5  6  1  0  0  0  0
  5  4  2  0  0  0  0
  6  7  2  0  0  0  0
  7  8  1  0  0  0  0
  7 13  1  0  0  0  0
  8 31  1  0  0  0  0
  8  9  1  0  0  0  0
  9 34  1  0  0  0  0
  9 33  1  0  0  0  0
 10  9  1  0  0  0  0
 10 11  1  0  0  0  0
 11 38  1  0  0  0  0
 12 11  1  0  0  0  0
 12 41  1  0  0  0  0
 12 40  1  0  0  0  0
 13 42  1  0  0  0  0
 14 13  2  0  0  0  0
 14 43  1  0  0  0  0
 15  2  1  0  0  0  0
 15 44  1  0  0  0  0
 16 15  2  0  0  0  0
 17 18  1  0  0  0  0
 18 19  1  0  0  0  0
 19 25  1  0  0  0  0
 19 21  1  0  0  0  0
 19 20  1  1  0  0  0
 21 22  1  0  0  0  0
 22 23  1  0  0  0  0
 22 24  2  0  0  0  0
 23 51  1  0  0  0  0
 25 26  1  0  0  0  0
 26 27  1  0  0  0  0
 26 53  1  0  0  0  0
 27 55  1  0  0  0  0
 27 56  1  0  0  0  0
 28 25  2  0  0  0  0
 29  5  1  0  0  0  0
 30  6  1  0  0  0  0
 32  8  1  0  0  0  0
 35 10  1  0  0  0  0
 36 10  1  0  0  0  0
 37 11  1  0  0  0  0
 39 12  1  0  0  0  0
 45 16  1  0  0  0  0
 46 16  1  0  0  0  0
 47 18  1  0  0  0  0
 48 18  1  0  0  0  0
 49 21  1  0  0  0  0
 50 23  1  0  0  0  0
 52 23  1  0  0  0  0
 54 27  1  0  0  0  0
M  END
