56
-1 1
O         2.123726    3.249401   -0.657462
C         1.171587    2.880041   -1.344298
O         1.381889    1.756044   -2.220455
C         1.712163    0.555310   -1.715711
C         1.773282   -0.512566   -2.621896
C         2.021469   -1.806978   -2.176141
C         2.215610   -2.088193   -0.820209
C         2.390667   -3.501246   -0.317384
C         1.102219   -4.116719    0.249152
C        -0.009185   -4.278039   -0.784002
C        -1.327629   -4.796510   -0.208829
C        -1.255100   -6.192571    0.404820
C         2.174136   -1.009144    0.068088
C         1.940754    0.295220   -0.355123
C        -0.129321    3.366569   -1.406869
C        -1.227732    2.811981   -2.228943
S        -2.658124    1.999811   -1.315439
C        -1.860623    0.563522   -0.535020
C        -1.544946    0.714754    0.954637
H        -2.478953    0.922171    1.511354
N        -0.638000    1.829221    1.150823
C        -0.434467    2.484018    2.307647
C         0.341882    3.774764    2.176057
O        -0.841761    2.076344    3.399649
C        -1.020706   -0.633694    1.502621
N        -0.531120   -0.586001    2.757305
C        -0.044400   -1.770862    3.410754
O        -1.101257   -1.670455    0.859381
H         1.601434   -0.301648   -3.679395
H         2.047271   -2.625516   -2.902397
H         3.165386   -3.516490    0.468069
H         2.767819   -4.139305   -1.135934
H         0.719379   -3.470888    1.056064
H         1.350730   -5.093739    0.700324
H         0.336224   -4.946882   -1.596636
H        -0.199718   -3.294110   -1.239692
H        -2.084909   -4.796781   -1.011279
H        -1.677345   -4.067450    0.539279
H        -0.870648   -6.930348   -0.320045
H        -2.247790   -6.537015    0.735567
H        -0.591883   -6.219282    1.283713
H         2.322096   -1.190056    1.137511
H         1.939266    1.119783    0.354788
H        -0.313130    4.293264   -0.855798
H        -0.858419    2.062595   -2.941130
H        -1.773433    3.580943   -2.801749
H        -0.934894    0.329992   -1.082899
H        -2.519286   -0.303181   -0.663284
H        -0.333500    2.309479    0.285432
H         1.058855    3.746455    1.338511
H         0.855363    3.973473    3.125230
H        -0.369569    4.594546    1.989853
H        -0.604288    0.309207    3.255743
H         0.913786   -2.111845    2.983005
H        -0.759140   -2.603612    3.309995
H         0.109355   -1.557389    4.476950
