59
-1 1
O        -2.454183   -0.205844    3.189689
C        -1.461061    0.342769    2.737355
O        -1.390405    0.565704    1.306743
C        -2.352227    0.126819    0.470857
C        -2.756067    0.994561   -0.562357
C        -2.218088    2.403759   -0.645251
C        -1.133894    2.616659   -1.710143
C         0.094382    1.730629   -1.524114
C         1.247755    2.044742   -2.478941
C         2.015470    3.334357   -2.166623
C         2.868876    3.254266   -0.902896
C        -3.668133    0.523784   -1.511437
C        -4.203780   -0.759009   -1.438323
C        -3.823728   -1.592959   -0.386600
C        -2.905927   -1.158126    0.562972
C        -0.324421    0.848482    3.373302
C         0.783454    1.508759    2.701076
S         2.362622    0.409871    2.341601
C         1.559421   -1.129984    1.847993
C         1.208545   -1.246128    0.357119
H         0.724069   -0.310811    0.049698
N         0.259262   -2.310314    0.152095
C        -0.384716   -2.445848   -1.038984
C        -1.181189   -3.724681   -1.199014
O        -0.315886   -1.613427   -1.922922
C         2.455064   -1.481393   -0.514537
N         3.215150   -0.370529   -0.698045
C         4.471748   -0.400716   -1.395088
O         2.727141   -2.572632   -0.982189
H        -1.815026    2.683017    0.339245
H        -3.057750    3.087387   -0.856910
H        -0.845788    3.683304   -1.696392
H        -1.560613    2.428219   -2.712603
H        -0.199245    0.678973   -1.663184
H         0.437378    1.811078   -0.478316
H         0.851447    2.097022   -3.508396
H         1.952990    1.196969   -2.466502
H         1.306133    4.175639   -2.076829
H         2.666829    3.585347   -3.021971
H         2.276539    2.964588   -0.021002
H         3.349290    4.218727   -0.675965
H         3.670471    2.506995   -1.017214
H        -3.971681    1.193412   -2.322843
H        -4.918126   -1.102669   -2.190507
H        -4.244168   -2.599201   -0.304495
H        -2.602994   -1.796345    1.390158
H        -0.291092    0.703774    4.455093
H         1.261741    2.302157    3.294324
H         0.507916    1.906707    1.717068
H         0.623021   -1.164224    2.436080
H         2.199538   -1.969729    2.162042
H         0.305573   -3.110094    0.768135
H        -1.581520   -4.092497   -0.243459
H        -0.525270   -4.496031   -1.632029
H        -2.008350   -3.529920   -1.891555
H         2.998847    0.426701   -0.102604
H         5.328459   -0.289732   -0.708710
H         4.523556    0.400835   -2.150067
H         4.552450   -1.371232   -1.901581
