60
-1 1
O         3.991668    2.686436   -1.531476
C         3.411886    1.800135   -0.893878
N         1.952188    1.966929   -0.820380
C         1.154401    2.142870    0.289838
C        -0.186951    2.541279    0.108478
C        -1.048956    2.685120    1.183536
C        -0.634451    2.436628    2.497687
C        -1.616713    2.455290    3.643727
C        -2.287406    1.094192    3.893458
C        -3.081203    0.563970    2.703229
C        -3.770519   -0.771457    2.965795
C        -4.398418   -1.369460    1.708934
C        -5.033568   -2.736173    1.937641
C         0.705138    2.078005    2.680228
C         1.590579    1.938027    1.614003
C         3.969397    0.660202   -0.297396
C         3.255790   -0.502343    0.216264
S         2.870375   -1.961066   -1.019976
C         1.609438   -1.173109   -2.067083
C         0.149023   -1.631531   -1.849172
H         0.116342   -2.727312   -1.979972
N        -0.727724   -1.020757   -2.819865
C        -0.834506   -1.445335   -4.099121
C        -1.842744   -0.686520   -4.945894
O        -0.161095   -2.348268   -4.565933
C        -0.452211   -1.298821   -0.471878
N         0.178538   -1.841544    0.581220
C        -0.185503   -1.491184    1.932149
O        -1.461317   -0.608052   -0.370228
H         1.672016    2.543936   -1.606433
H        -0.553473    2.711248   -0.907517
H        -2.087449    2.972942    0.993988
H        -2.401614    3.206113    3.445325
H        -1.106960    2.775483    4.567897
H        -2.948787    1.172865    4.775966
H        -1.506753    0.358523    4.159502
H        -2.414853    0.449077    1.832567
H        -3.839353    1.312218    2.405662
H        -4.537955   -0.658596    3.754825
H        -3.031602   -1.486436    3.373137
H        -3.621764   -1.435810    0.928475
H        -5.156592   -0.668330    1.317436
H        -4.285613   -3.465730    2.288617
H        -5.478087   -3.136907    1.013695
H        -5.829312   -2.688572    2.699655
H         1.075041    1.895607    3.695193
H         2.636199    1.675048    1.783183
H         5.053376    0.580945   -0.415606
H         2.264619   -0.283710    0.634060
H         3.826995   -1.061837    0.973841
H         1.851308   -1.400186   -3.113494
H         1.690494   -0.085471   -1.917744
H        -1.393780   -0.367924   -2.415577
H        -2.409599   -1.408915   -5.548007
H        -1.293593   -0.033409   -5.640311
H        -2.535380   -0.070726   -4.355545
H         1.086872   -2.273389    0.387798
H        -0.105474   -0.405203    2.102302
H         0.488515   -2.009451    2.626278
H        -1.220003   -1.796738    2.149702
