60
-1 1
O         4.774680    2.024297   -1.196558
C         3.895759    1.603631   -0.469101
N         2.583849    1.993766   -0.676647
C         1.501781    2.086741    0.217795
C         0.200650    1.934757   -0.270602
C        -0.895578    2.123168    0.566142
C        -0.734850    2.435845    1.919162
C        -1.916082    2.621406    2.843702
C        -2.447467    1.319524    3.462389
C        -3.168603    0.414027    2.470465
C        -3.655436   -0.898058    3.076191
C        -4.293846   -1.821972    2.041458
C        -4.674317   -3.188017    2.600209
C         0.573984    2.550850    2.403471
C         1.678195    2.398254    1.572133
C         4.191232    0.601371    0.589774
C         3.364121   -0.384501    0.945080
S         2.325311   -2.764824   -1.398363
C         1.362134   -1.382926   -2.122435
C        -0.165924   -1.525176   -1.977167
H        -0.428324   -2.543460   -2.320865
N        -0.911618   -0.539574   -2.742741
C        -1.025828   -0.534542   -4.092497
C        -1.975610    0.523020   -4.642673
O        -0.417580   -1.277130   -4.840447
C        -0.685582   -1.366766   -0.536490
N         0.083946   -1.880188    0.422242
C        -0.243659   -1.735685    1.813150
O        -1.750300   -0.777350   -0.314353
H         2.457597    2.437980   -1.579311
H         0.049583    1.640865   -1.312443
H        -1.898878    1.991388    0.155989
H        -2.737007    3.115923    2.296852
H        -1.624460    3.309988    3.653515
H        -3.130245    1.573043    4.293576
H        -1.602643    0.770736    3.916257
H        -2.512029    0.173144    1.619099
H        -4.030642    0.960617    2.044322
H        -4.368987   -0.702713    3.899526
H        -2.797477   -1.416977    3.541859
H        -3.593799   -1.935584    1.197057
H        -5.188824   -1.328721    1.622572
H        -3.786361   -3.720950    2.977412
H        -5.139946   -3.824753    1.832536
H        -5.385245   -3.097647    3.438535
H         0.735186    2.796077    3.457715
H         2.685137    2.528030    1.970564
H         5.229184    0.626099    0.932188
H         2.348163   -0.470902    0.554580
H         3.691164   -1.176111    1.622424
H         1.564270   -1.327569   -3.200590
H         1.664106   -0.414037   -1.683312
H        -1.622800   -0.076097   -2.181179
H        -2.686845    0.034941   -5.323563
H        -1.390154    1.238693   -5.238188
H        -2.527558    1.072120   -3.866848
H         0.961573   -2.366201    0.096148
H        -0.312147   -0.673025    2.103815
H         0.543049   -2.213962    2.412233
H        -1.208192   -2.211548    2.056873
