-1 1
 OpenBabel05232414493D

 66 65  0  0  1  0  0  0  0  0999 V2000
   -5.7038  -13.4054  -13.2726 C   0  0  0  0  0  0  0  0  0  0  0  0
   -5.5493  -12.0555  -12.5801 C   0  0  0  0  0  0  0  0  0  0  0  0
   -4.8968  -10.9974  -13.4689 C   0  0  0  0  0  0  0  0  0  0  0  0
   -4.7992   -9.6061  -12.8415 C   0  0  0  0  0  0  0  0  0  0  0  0
   -3.9150   -9.5261  -11.5991 C   0  0  0  0  0  0  0  0  0  0  0  0
   -3.7534   -8.1009  -11.0604 C   0  0  0  0  0  0  0  0  0  0  0  0
   -2.8752   -8.0259   -9.8361 C   0  0  0  0  0  0  0  0  0  0  0  0
   -1.4814   -8.0115   -9.9513 C   0  0  0  0  0  0  0  0  0  0  0  0
   -0.6511   -7.9735   -8.8381 C   0  0  0  0  0  0  0  0  0  0  0  0
   -1.1871   -7.9563   -7.5412 C   0  0  0  0  0  0  0  0  0  0  0  0
   -0.4281   -7.8644   -6.3813 N   0  0  0  0  0  0  0  0  0  0  0  0
    0.9617   -7.9115   -6.1106 C   0  0  0  0  0  0  0  0  0  0  0  0
    1.3115   -7.2573   -5.1173 O   0  0  0  0  0  0  0  0  0  0  0  0
    1.8034   -8.7098   -6.9419 C   0  0  0  0  0  3  0  0  0  0  0  0
    3.1993   -8.8231   -6.8161 C   0  0  0  0  0  3  0  0  0  0  0  0
    3.8150   -9.9493   -7.6211 C   0  0  0  0  0  0  0  0  0  0  0  0
    4.3014   -7.0045   -7.9865 S   0  0  0  0  0  1  0  0  0  0  0  0
    3.1725   -6.9454   -9.3968 C   0  0  0  0  0  0  0  0  0  0  0  0
    2.2604   -5.7095   -9.4553 C   0  0  2  0  0  0  0  0  0  0  0  0
    2.8564   -4.8213   -9.7385 H   0  0  0  0  0  0  0  0  0  0  0  0
    1.6961   -5.4743   -8.1324 N   0  0  0  0  0  0  0  0  0  0  0  0
    1.2044   -4.2971   -7.6958 C   0  0  0  0  0  0  0  0  0  0  0  0
    1.0663   -4.1615   -6.1972 C   0  0  0  0  0  0  0  0  0  0  0  0
    0.8927   -3.3718   -8.4485 O   0  0  0  0  0  0  0  0  0  0  0  0
    1.1983   -5.8952  -10.5681 C   0  0  0  0  0  0  0  0  0  0  0  0
    0.2805   -4.9089  -10.6436 N   0  0  0  0  0  0  0  0  0  0  0  0
   -0.8192   -4.9479  -11.5679 C   0  0  0  0  0  0  0  0  0  0  0  0
    1.2281   -6.8491  -11.3343 O   0  0  0  0  0  0  0  0  0  0  0  0
    3.8986   -8.5484   -5.5053 C   0  0  0  0  0  0  0  0  0  0  0  0
   -2.5893   -7.9780   -7.4203 C   0  0  0  0  0  0  0  0  0  0  0  0
   -3.4093   -8.0069   -8.5439 C   0  0  0  0  0  0  0  0  0  0  0  0
   -6.1717  -14.1502  -12.6109 H   0  0  0  0  0  0  0  0  0  0  0  0
   -4.7251  -13.8042  -13.5841 H   0  0  0  0  0  0  0  0  0  0  0  0
   -6.3278  -13.3212  -14.1772 H   0  0  0  0  0  0  0  0  0  0  0  0
   -4.9561  -12.1854  -11.6602 H   0  0  0  0  0  0  0  0  0  0  0  0
   -6.5392  -11.6906  -12.2527 H   0  0  0  0  0  0  0  0  0  0  0  0
   -5.4672  -10.9270  -14.4122 H   0  0  0  0  0  0  0  0  0  0  0  0
   -3.8848  -11.3392  -13.7527 H   0  0  0  0  0  0  0  0  0  0  0  0
   -5.8145   -9.2471  -12.5906 H   0  0  0  0  0  0  0  0  0  0  0  0
   -4.4104   -8.9024  -13.5978 H   0  0  0  0  0  0  0  0  0  0  0  0
   -2.9159   -9.9358  -11.8293 H   0  0  0  0  0  0  0  0  0  0  0  0
   -4.3230  -10.1598  -10.7937 H   0  0  0  0  0  0  0  0  0  0  0  0
   -4.7510   -7.6876  -10.8309 H   0  0  0  0  0  0  0  0  0  0  0  0
   -3.3302   -7.4638  -11.8566 H   0  0  0  0  0  0  0  0  0  0  0  0
   -1.0028   -7.9910  -10.9348 H   0  0  0  0  0  0  0  0  0  0  0  0
    0.4234   -7.9195   -8.9843 H   0  0  0  0  0  0  0  0  0  0  0  0
   -0.9037   -7.4416   -5.5926 H   0  0  0  0  0  0  0  0  0  0  0  0
    1.3293   -9.2705   -7.7479 H   0  0  0  0  0  0  0  0  0  0  0  0
    3.4425   -9.9511   -8.6562 H   0  0  0  0  0  0  0  0  0  0  0  0
    3.5331  -10.9146   -7.1609 H   0  0  0  0  0  0  0  0  0  0  0  0
    4.9097   -9.8757   -7.6495 H   0  0  0  0  0  0  0  0  0  0  0  0
    2.5251   -7.8383   -9.3537 H   0  0  0  0  0  0  0  0  0  0  0  0
    3.7156   -7.0111  -10.3482 H   0  0  0  0  0  0  0  0  0  0  0  0
    2.1190   -6.0788   -7.4233 H   0  0  0  0  0  0  0  0  0  0  0  0
    1.0587   -5.1292   -5.6742 H   0  0  0  0  0  0  0  0  0  0  0  0
    0.1534   -3.5908   -5.9815 H   0  0  0  0  0  0  0  0  0  0  0  0
    1.9239   -3.5750   -5.8322 H   0  0  0  0  0  0  0  0  0  0  0  0
    0.3553   -4.1555   -9.9497 H   0  0  0  0  0  0  0  0  0  0  0  0
   -1.7590   -5.2541  -11.0757 H   0  0  0  0  0  0  0  0  0  0  0  0
   -0.5912   -5.6785  -12.3556 H   0  0  0  0  0  0  0  0  0  0  0  0
   -0.9731   -3.9600  -12.0299 H   0  0  0  0  0  0  0  0  0  0  0  0
    3.6694   -9.3761   -4.8086 H   0  0  0  0  0  0  0  0  0  0  0  0
    3.5372   -7.6235   -5.0469 H   0  0  0  0  0  0  0  0  0  0  0  0
    4.9887   -8.5062   -5.6471 H   0  0  0  0  0  0  0  0  0  0  0  0
   -3.0364   -7.9621   -6.4221 H   0  0  0  0  0  0  0  0  0  0  0  0
   -4.4958   -8.0123   -8.4086 H   0  0  0  0  0  0  0  0  0  0  0  0
  1 32  1  0  0  0  0
  1  2  1  0  0  0  0
  2 36  1  0  0  0  0
  2 35  1  0  0  0  0
  3  4  1  0  0  0  0
  3  2  1  0  0  0  0
  4 39  1  0  0  0  0
  4  5  1  0  0  0  0
  5  6  1  0  0  0  0
  5 42  1  0  0  0  0
  6 43  1  0  0  0  0
  6  7  1  0  0  0  0
  7 31  1  0  0  0  0
  8  7  2  0  0  0  0
  8  9  1  0  0  0  0
  9 10  2  0  0  0  0
 10 30  1  0  0  0  0
 10 11  1  0  0  0  0
 11 12  1  0  0  0  0
 11 47  1  0  0  0  0
 12 13  2  0  0  0  0
 14 15  1  0  0  0  0
 14 12  1  0  0  0  0
 15 29  1  0  0  0  0
 16 50  1  0  0  0  0
 16 15  1  0  0  0  0
 18 52  1  0  0  0  0
 18 17  1  0  0  0  0
 19 20  1  6  0  0  0
 19 18  1  0  0  0  0
 19 21  1  0  0  0  0
 21 22  1  0  0  0  0
 21 54  1  0  0  0  0
 22 23  1  0  0  0  0
 23 56  1  0  0  0  0
 23 57  1  0  0  0  0
 23 55  1  0  0  0  0
 24 22  2  0  0  0  0
 25 19  1  0  0  0  0
 26 25  1  0  0  0  0
 26 58  1  0  0  0  0
 27 59  1  0  0  0  0
 27 26  1  0  0  0  0
 28 25  2  0  0  0  0
 29 63  1  0  0  0  0
 29 62  1  0  0  0  0
 30 65  1  0  0  0  0
 31 66  1  0  0  0  0
 31 30  2  0  0  0  0
 33  1  1  0  0  0  0
 34  1  1  0  0  0  0
 37  3  1  0  0  0  0
 38  3  1  0  0  0  0
 40  4  1  0  0  0  0
 41  5  1  0  0  0  0
 44  6  1  0  0  0  0
 45  8  1  0  0  0  0
 46  9  1  0  0  0  0
 48 14  1  0  0  0  0
 49 16  1  0  0  0  0
 51 16  1  0  0  0  0
 53 18  1  0  0  0  0
 60 27  1  0  0  0  0
 61 27  1  0  0  0  0
 64 29  1  0  0  0  0
M  END
