-1 1
 OpenBabel05232413483D

 59 60  0  0  1  0  0  0  0  0999 V2000
    2.9603    0.6256   -3.3342 O   0  0  0  0  0  0  0  0  0  0  0  0
    2.5608   -0.3759   -2.8094 C   0  0  0  0  0  0  0  0  0  0  0  0
    3.3737   -1.1898   -2.0994 O   0  0  0  0  0  0  0  0  0  0  0  0
    2.7159   -2.4060   -1.7241 C   0  0  1  0  0  0  0  0  0  0  0  0
    3.0582   -3.1742   -2.4389 H   0  0  0  0  0  0  0  0  0  0  0  0
    3.1215   -2.8311   -0.3303 C   0  0  0  0  0  0  0  0  0  0  0  0
    2.5158   -2.0584    0.8575 C   0  0  1  0  0  0  0  0  0  0  0  0
    3.2144   -0.6972    1.0984 C   0  0  0  0  0  0  0  0  0  0  0  0
    2.5170    0.1387    2.1787 C   0  0  0  0  0  0  0  0  0  0  0  0
    1.0223    0.3301    1.9043 C   0  0  0  0  0  0  0  0  0  0  0  0
    0.2778   -1.0033    1.6841 C   0  0  1  0  0  0  0  0  0  0  0  0
   -0.6971   -0.7643    1.2386 H   0  0  0  0  0  0  0  0  0  0  0  0
    1.0429   -1.7542    0.6069 C   0  0  1  0  0  3  0  0  0  0  0  0
    0.4831   -1.8657   -0.6056 C   0  0  0  0  0  3  0  0  0  0  0  0
    1.2023   -2.1699   -1.8940 C   0  0  1  0  0  0  0  0  0  0  0  0
    0.7268   -3.0220   -2.4049 H   0  0  0  0  0  0  0  0  0  0  0  0
   -0.0383   -1.7166    3.0031 C   0  0  0  0  0  0  0  0  0  0  0  0
    2.7333   -2.9745    2.0799 C   0  0  0  0  0  0  0  0  0  0  0  0
    1.1822   -0.9391   -2.7779 C   0  0  0  0  0  0  0  0  0  0  0  0
    0.1517   -0.3272   -3.3620 C   0  0  0  0  0  0  0  0  0  0  0  0
   -2.9545   -0.4038   -1.5199 S   0  0  0  0  0  1  0  0  0  0  0  0
   -1.9112    0.9280   -0.8191 C   0  0  0  0  0  0  0  0  0  0  0  0
   -2.4601    1.6636    0.4274 C   0  0  2  0  0  0  0  0  0  0  0  0
   -3.4429    2.0840    0.1496 H   0  0  0  0  0  0  0  0  0  0  0  0
   -1.5761    2.7320    0.8423 N   0  0  0  0  0  0  0  0  0  0  0  0
   -1.4634    3.9222    0.2133 C   0  0  0  0  0  0  0  0  0  0  0  0
   -0.4769    4.8882    0.8550 C   0  0  0  0  0  0  0  0  0  0  0  0
   -2.0632    4.2179   -0.8058 O   0  0  0  0  0  0  0  0  0  0  0  0
   -2.6588    0.7880    1.6788 C   0  0  0  0  0  0  0  0  0  0  0  0
   -3.4319   -0.2911    1.4942 N   0  0  0  0  0  0  0  0  0  0  0  0
   -3.6592   -1.2604    2.5305 C   0  0  0  0  0  0  0  0  0  0  0  0
   -2.1474    1.0945    2.7582 O   0  0  0  0  0  0  0  0  0  0  0  0
    4.2219   -2.8200   -0.2577 H   0  0  0  0  0  0  0  0  0  0  0  0
    2.8115   -3.8861   -0.2367 H   0  0  0  0  0  0  0  0  0  0  0  0
    3.2201   -0.1353    0.1521 H   0  0  0  0  0  0  0  0  0  0  0  0
    4.2718   -0.8679    1.3688 H   0  0  0  0  0  0  0  0  0  0  0  0
    3.0086    1.1227    2.2473 H   0  0  0  0  0  0  0  0  0  0  0  0
    2.6569   -0.3316    3.1674 H   0  0  0  0  0  0  0  0  0  0  0  0
    0.8981    0.9435    0.9958 H   0  0  0  0  0  0  0  0  0  0  0  0
    0.5393    0.8834    2.7254 H   0  0  0  0  0  0  0  0  0  0  0  0
   -0.5736   -1.5946   -0.7442 H   0  0  0  0  0  0  0  0  0  0  0  0
    0.8233   -1.7931    3.6812 H   0  0  0  0  0  0  0  0  0  0  0  0
   -0.4203   -2.7338    2.8252 H   0  0  0  0  0  0  0  0  0  0  0  0
   -0.8162   -1.1388    3.5244 H   0  0  0  0  0  0  0  0  0  0  0  0
    3.7738   -3.3394    2.0840 H   0  0  0  0  0  0  0  0  0  0  0  0
    2.0648   -3.8483    2.0420 H   0  0  0  0  0  0  0  0  0  0  0  0
    2.5647   -2.4669    3.0355 H   0  0  0  0  0  0  0  0  0  0  0  0
    0.3373    0.5971   -3.9165 H   0  0  0  0  0  0  0  0  0  0  0  0
   -0.8822   -0.6757   -3.2458 H   0  0  0  0  0  0  0  0  0  0  0  0
   -1.7717    1.7151   -1.5740 H   0  0  0  0  0  0  0  0  0  0  0  0
   -0.9039    0.5508   -0.5673 H   0  0  0  0  0  0  0  0  0  0  0  0
   -1.1947    2.5968    1.7748 H   0  0  0  0  0  0  0  0  0  0  0  0
    0.4258    4.9297    0.2272 H   0  0  0  0  0  0  0  0  0  0  0  0
   -0.1824    4.6034    1.8750 H   0  0  0  0  0  0  0  0  0  0  0  0
   -0.9218    5.8922    0.8635 H   0  0  0  0  0  0  0  0  0  0  0  0
   -3.5863   -0.5532    0.4942 H   0  0  0  0  0  0  0  0  0  0  0  0
   -3.5000   -0.7882    3.5093 H   0  0  0  0  0  0  0  0  0  0  0  0
   -2.9743   -2.1220    2.4477 H   0  0  0  0  0  0  0  0  0  0  0  0
   -4.6917   -1.6384    2.4764 H   0  0  0  0  0  0  0  0  0  0  0  0
  1  2  2  0  0  0  0
  2 19  1  0  0  0  0
  2  3  1  0  0  0  0
  3  4  1  0  0  0  0
  4  5  1  6  0  0  0
  4  6  1  0  0  0  0
  6 33  1  0  0  0  0
  6 34  1  0  0  0  0
  6  7  1  0  0  0  0
  7  8  1  0  0  0  0
  7 18  1  1  0  0  0
  8 36  1  0  0  0  0
  8  9  1  0  0  0  0
  9 37  1  0  0  0  0
  9 38  1  0  0  0  0
 10  9  1  0  0  0  0
 10 40  1  0  0  0  0
 11 12  1  6  0  0  0
 11 10  1  0  0  0  0
 11 17  1  0  0  0  0
 13 14  1  6  0  0  0
 13  7  1  0  0  0  0
 13 11  1  0  0  0  0
 15 16  1  6  0  0  0
 15  4  1  0  0  0  0
 15 14  1  0  0  0  0
 17 44  1  0  0  0  0
 17 42  1  0  0  0  0
 18 45  1  0  0  0  0
 18 47  1  0  0  0  0
 19 15  1  0  0  0  0
 20 49  1  0  0  0  0
 20 19  2  0  0  0  0
 21 22  1  0  0  0  0
 22 51  1  0  0  0  0
 22 23  1  0  0  0  0
 23 24  1  6  0  0  0
 23 25  1  0  0  0  0
 23 29  1  0  0  0  0
 25 52  1  0  0  0  0
 26 25  1  0  0  0  0
 26 27  1  0  0  0  0
 27 55  1  0  0  0  0
 27 54  1  0  0  0  0
 28 26  2  0  0  0  0
 29 32  2  0  0  0  0
 30 29  1  0  0  0  0
 30 31  1  0  0  0  0
 31 57  1  0  0  0  0
 35  8  1  0  0  0  0
 39 10  1  0  0  0  0
 41 14  1  0  0  0  0
 43 17  1  0  0  0  0
 46 18  1  0  0  0  0
 48 20  1  0  0  0  0
 50 22  1  0  0  0  0
 53 27  1  0  0  0  0
 56 30  1  0  0  0  0
 58 31  1  0  0  0  0
 59 31  1  0  0  0  0
M  END
