70
-1 1
O        -1.175457   -4.237417    1.816103
C        -0.871116   -3.181269    2.337414
C        -1.436952   -1.832699    1.851348
C        -2.653987   -1.488432    2.717928
S        -3.553796    0.017107    2.286579
C        -2.242890    1.366299    2.671979
C        -1.559614    1.197655    3.961293
S        -0.033728    0.318529    4.270758
C        -2.153264    1.618543    5.164507
O        -3.200259    2.236234    5.366771
N        -1.333949    1.210178    6.270180
C        -0.202430    0.497348    6.040784
O         0.580548    0.058461    6.857438
C        -1.378005    1.670200    1.450176
C        -1.866024    1.475998    0.149239
C        -1.099485    1.784383   -0.969318
O        -1.506703    1.609149   -2.250200
C        -2.856856    1.319625   -2.484291
C         0.199157    2.288026   -0.789941
O         0.970743    2.573994   -1.894968
C         1.493744    1.540258   -2.592361
C         1.995263    1.850128   -3.896079
C         1.913082    3.175808   -4.393917
C         2.391716    3.485390   -5.643274
C         2.968796    2.471805   -6.438503
C         3.054853    1.176563   -5.983153
C         2.568256    0.814120   -4.694428
C         2.611012   -0.526152   -4.163052
C         3.164545   -1.671232   -4.931857
O         3.021255   -2.837548   -4.276591
C         3.532658   -3.984556   -4.919426
O         3.692839   -1.633052   -6.020457
C         2.113460   -0.757723   -2.891918
C         1.567087    0.260115   -2.096213
C         0.683660    2.512157    0.486469
C        -0.102817    2.220246    1.602909
N        -1.772639   -1.891005    0.455748
C        -0.805934   -1.930602   -0.488804
C        -1.270836   -1.896757   -1.928218
O         0.381402   -1.957230   -0.200295
H        -0.658529   -1.064515    1.986465
N        -0.076430   -3.064424    3.427695
C         0.505247   -4.199481    4.093385
H        -3.389636   -2.306610    2.660679
H        -2.330460   -1.404391    3.765176
H        -2.932751    2.213352    2.824675
H        -1.617723    1.434464    7.215759
H        -2.860065    1.047740    0.033066
H        -2.989610    1.303127   -3.573316
H        -3.517040    2.088718   -2.047173
H        -3.147311    0.336436   -2.076245
H         1.458467    3.936409   -3.758809
H         2.325228    4.508509   -6.020324
H         3.352419    2.715956   -7.432372
H         3.500201    0.401706   -6.602639
H         3.038091   -4.150276   -5.888355
H         3.334415   -4.826681   -4.246190
H         4.614271   -3.890407   -5.098670
H         2.130307   -1.762902   -2.471472
H         1.195010    0.002898   -1.104287
H         1.693199    2.911532    0.598199
H         0.284873    2.410192    2.603363
H        -2.745317   -1.811286    0.192887
H        -2.348085   -2.082695   -2.043918
H        -0.708596   -2.648227   -2.497888
H        -1.022099   -0.909554   -2.347664
H         0.099722   -2.130239    3.793985
H         0.137449   -5.106242    3.596119
H         0.218821   -4.229255    5.156635
H         1.605451   -4.184523    4.030775
