70
-1 1
O         2.037767   -3.344509   -2.470798
C         2.329008   -2.250380   -2.028214
C         1.680193   -0.950746   -2.525392
C         0.415710   -0.681484   -1.686901
S        -0.640121    0.646159   -2.308226
C         0.927192    2.430121   -1.604797
C         1.479807    2.103259   -0.374103
S         3.068842    1.347401   -0.055672
C         0.715949    2.203891    0.849495
O        -0.390527    2.677230    1.022168
N         1.453683    1.635695    1.916288
C         2.691068    1.110166    1.673016
O         3.428156    0.584413    2.472152
C         1.759994    2.688742   -2.821746
C         1.245218    2.497741   -4.113398
C         2.010101    2.758496   -5.243951
O         1.586958    2.566304   -6.513477
C         0.242461    2.221094   -6.718739
C         3.328563    3.223428   -5.087476
O         4.095521    3.467601   -6.203353
C         4.586190    2.405720   -6.885502
C         5.079841    2.676299   -8.200763
C         5.024832    3.992416   -8.726772
C         5.497217    4.262760   -9.987667
C         6.040366    3.218259  -10.766585
C         6.099104    1.931406  -10.283803
C         5.617589    1.609240   -8.982616
C         5.629211    0.279294   -8.424363
C         6.136236   -0.897570   -9.178041
O         5.926935   -2.048929   -8.516042
C         6.390638   -3.226011   -9.140409
O         6.679582   -0.892879  -10.259966
C         5.142316    0.086101   -7.143482
C         4.634652    1.136008   -6.362892
C         3.837966    3.450047   -3.821752
C         3.057196    3.197217   -2.691751
N         1.351579   -1.037998   -3.921724
C         2.313119   -1.100438   -4.865001
C         1.842090   -1.011002   -6.301911
O         3.502174   -1.195670   -4.586652
H         2.395435   -0.122979   -2.377913
N         3.184061   -2.055368   -0.990756
C         3.845173   -3.135886   -0.310697
H        -0.177963   -1.607498   -1.629569
H         0.734817   -0.439013   -0.659589
H         0.013833    3.021143   -1.512757
H         1.057259    1.602282    2.847930
H         0.244823    2.076845   -4.196217
H         0.103012    2.143554   -7.804005
H        -0.437417    2.991598   -6.316217
H        -0.010655    1.254144   -6.253142
H         4.595602    4.778189   -8.104827
H         5.451333    5.278750  -10.386486
H         6.418930    3.431230  -11.769516
H         6.519078    1.132383  -10.890287
H         5.904367   -3.375160  -10.116168
H         6.138826   -4.050612   -8.463530
H         7.478502   -3.187796   -9.301859
H         5.128305   -0.909211   -6.699646
H         4.267457    0.907565   -5.362279
H         4.859767    3.822011   -3.729649
H         3.467153    3.405935   -1.703273
H         0.406234   -0.747050   -4.159572
H         0.763835   -1.192636   -6.412783
H         2.400712   -1.739925   -6.903666
H         2.085959   -0.008716   -6.687318
H         3.366567   -1.100711   -0.698299
H         3.424490   -4.076741   -0.688687
H         3.684942   -3.078077    0.777466
H         4.931251   -3.138161   -0.503156
