-1 1
 OpenBabel05192410563D

 70 73  0  0  1  0  0  0  0  0999 V2000
   -1.1755   -4.2374    1.8161 O   0  0  0  0  0  0  0  0  0  0  0  0
   -0.8711   -3.1813    2.3374 C   0  0  0  0  0  0  0  0  0  0  0  0
   -1.4370   -1.8327    1.8513 C   0  0  2  0  0  0  0  0  0  0  0  0
   -2.6540   -1.4884    2.7179 C   0  0  0  0  0  0  0  0  0  0  0  0
   -3.5538    0.0171    2.2866 S   0  0  0  0  0  0  0  0  0  0  0  0
   -2.2429    1.3663    2.6720 C   0  0  1  0  0  0  0  0  0  0  0  0
   -1.5596    1.1977    3.9613 C   0  0  2  0  0  3  0  0  0  0  0  0
   -0.0337    0.3185    4.2708 S   0  0  0  0  0  0  0  0  0  0  0  0
   -2.1533    1.6185    5.1645 C   0  0  0  0  0  0  0  0  0  0  0  0
   -3.2003    2.2362    5.3668 O   0  0  0  0  0  0  0  0  0  0  0  0
   -1.3339    1.2102    6.2702 N   0  0  0  0  0  0  0  0  0  0  0  0
   -0.2024    0.4973    6.0408 C   0  0  0  0  0  0  0  0  0  0  0  0
    0.5805    0.0585    6.8574 O   0  0  0  0  0  0  0  0  0  0  0  0
   -1.3780    1.6702    1.4502 C   0  0  0  0  0  0  0  0  0  0  0  0
   -1.8660    1.4760    0.1492 C   0  0  0  0  0  0  0  0  0  0  0  0
   -1.0995    1.7844   -0.9693 C   0  0  0  0  0  0  0  0  0  0  0  0
   -1.5067    1.6091   -2.2502 O   0  0  0  0  0  0  0  0  0  0  0  0
   -2.8569    1.3196   -2.4843 C   0  0  0  0  0  0  0  0  0  0  0  0
    0.1992    2.2880   -0.7899 C   0  0  0  0  0  0  0  0  0  0  0  0
    0.9707    2.5740   -1.8950 O   0  0  0  0  0  0  0  0  0  0  0  0
    1.4937    1.5403   -2.5924 C   0  0  0  0  0  0  0  0  0  0  0  0
    1.9953    1.8501   -3.8961 C   0  0  0  0  0  0  0  0  0  0  0  0
    1.9131    3.1758   -4.3939 C   0  0  0  0  0  0  0  0  0  0  0  0
    2.3917    3.4854   -5.6433 C   0  0  0  0  0  0  0  0  0  0  0  0
    2.9688    2.4718   -6.4385 C   0  0  0  0  0  0  0  0  0  0  0  0
    3.0549    1.1766   -5.9832 C   0  0  0  0  0  0  0  0  0  0  0  0
    2.5683    0.8141   -4.6944 C   0  0  0  0  0  0  0  0  0  0  0  0
    2.6110   -0.5262   -4.1631 C   0  0  0  0  0  0  0  0  0  0  0  0
    3.1645   -1.6712   -4.9319 C   0  0  0  0  0  0  0  0  0  0  0  0
    3.0213   -2.8375   -4.2766 O   0  0  0  0  0  0  0  0  0  0  0  0
    3.5327   -3.9846   -4.9194 C   0  0  0  0  0  0  0  0  0  0  0  0
    3.6928   -1.6331   -6.0205 O   0  0  0  0  0  0  0  0  0  0  0  0
    2.1135   -0.7577   -2.8919 C   0  0  0  0  0  0  0  0  0  0  0  0
    1.5671    0.2601   -2.0962 C   0  0  0  0  0  0  0  0  0  0  0  0
    0.6837    2.5122    0.4865 C   0  0  0  0  0  0  0  0  0  0  0  0
   -0.1028    2.2202    1.6029 C   0  0  0  0  0  0  0  0  0  0  0  0
   -1.7726   -1.8910    0.4557 N   0  0  0  0  0  0  0  0  0  0  0  0
   -0.8059   -1.9306   -0.4888 C   0  0  0  0  0  0  0  0  0  0  0  0
   -1.2708   -1.8968   -1.9282 C   0  0  0  0  0  0  0  0  0  0  0  0
    0.3814   -1.9572   -0.2003 O   0  0  0  0  0  0  0  0  0  0  0  0
   -0.6585   -1.0645    1.9865 H   0  0  0  0  0  0  0  0  0  0  0  0
   -0.0764   -3.0644    3.4277 N   0  0  0  0  0  0  0  0  0  0  0  0
    0.5052   -4.1995    4.0934 C   0  0  0  0  0  0  0  0  0  0  0  0
   -3.3896   -2.3066    2.6607 H   0  0  0  0  0  0  0  0  0  0  0  0
   -2.3305   -1.4044    3.7652 H   0  0  0  0  0  0  0  0  0  0  0  0
   -2.9328    2.2134    2.8247 H   0  0  0  0  0  0  0  0  0  0  0  0
   -1.6177    1.4345    7.2158 H   0  0  0  0  0  0  0  0  0  0  0  0
   -2.8601    1.0477    0.0331 H   0  0  0  0  0  0  0  0  0  0  0  0
   -2.9896    1.3031   -3.5733 H   0  0  0  0  0  0  0  0  0  0  0  0
   -3.5170    2.0887   -2.0472 H   0  0  0  0  0  0  0  0  0  0  0  0
   -3.1473    0.3364   -2.0762 H   0  0  0  0  0  0  0  0  0  0  0  0
    1.4585    3.9364   -3.7588 H   0  0  0  0  0  0  0  0  0  0  0  0
    2.3252    4.5085   -6.0203 H   0  0  0  0  0  0  0  0  0  0  0  0
    3.3524    2.7160   -7.4324 H   0  0  0  0  0  0  0  0  0  0  0  0
    3.5002    0.4017   -6.6026 H   0  0  0  0  0  0  0  0  0  0  0  0
    3.0381   -4.1503   -5.8884 H   0  0  0  0  0  0  0  0  0  0  0  0
    3.3344   -4.8267   -4.2462 H   0  0  0  0  0  0  0  0  0  0  0  0
    4.6143   -3.8904   -5.0987 H   0  0  0  0  0  0  0  0  0  0  0  0
    2.1303   -1.7629   -2.4715 H   0  0  0  0  0  0  0  0  0  0  0  0
    1.1950    0.0029   -1.1043 H   0  0  0  0  0  0  0  0  0  0  0  0
    1.6932    2.9115    0.5982 H   0  0  0  0  0  0  0  0  0  0  0  0
    0.2849    2.4102    2.6034 H   0  0  0  0  0  0  0  0  0  0  0  0
   -2.7453   -1.8113    0.1929 H   0  0  0  0  0  0  0  0  0  0  0  0
   -2.3481   -2.0827   -2.0439 H   0  0  0  0  0  0  0  0  0  0  0  0
   -0.7086   -2.6482   -2.4979 H   0  0  0  0  0  0  0  0  0  0  0  0
   -1.0221   -0.9096   -2.3477 H   0  0  0  0  0  0  0  0  0  0  0  0
    0.0997   -2.1302    3.7940 H   0  0  0  0  0  0  0  0  0  0  0  0
    0.1374   -5.1062    3.5961 H   0  0  0  0  0  0  0  0  0  0  0  0
    0.2188   -4.2293    5.1566 H   0  0  0  0  0  0  0  0  0  0  0  0
    1.6055   -4.1845    4.0308 H   0  0  0  0  0  0  0  0  0  0  0  0
  1  2  2  0  0  0  0
  2 42  1  0  0  0  0
  3 41  1  1  0  0  0
  3  2  1  0  0  0  0
  3  4  1  0  0  0  0
  4 45  1  0  0  0  0
  5  6  1  0  0  0  0
  5  4  1  0  0  0  0
  6 46  1  1  0  0  0
  7  6  1  1  0  0  0
  7  8  1  0  0  0  0
  7  9  1  0  0  0  0
  8 12  1  0  0  0  0
  9 10  2  0  0  0  0
  9 11  1  0  0  0  0
 11 47  1  0  0  0  0
 12 11  1  0  0  0  0
 12 13  2  0  0  0  0
 14 36  1  0  0  0  0
 14  6  1  0  0  0  0
 15 14  2  0  0  0  0
 16 19  2  0  0  0  0
 16 15  1  0  0  0  0
 17 16  1  0  0  0  0
 18 17  1  0  0  0  0
 18 51  1  0  0  0  0
 18 50  1  0  0  0  0
 19 35  1  0  0  0  0
 20 19  1  0  0  0  0
 21 34  1  0  0  0  0
 21 20  1  0  0  0  0
 22 21  2  0  0  0  0
 23 22  1  0  0  0  0
 23 52  1  0  0  0  0
 24 23  2  0  0  0  0
 25 26  2  0  0  0  0
 25 24  1  0  0  0  0
 26 27  1  0  0  0  0
 27 28  2  0  0  0  0
 27 22  1  0  0  0  0
 28 33  1  0  0  0  0
 29 30  1  0  0  0  0
 29 28  1  0  0  0  0
 31 30  1  0  0  0  0
 31 57  1  0  0  0  0
 32 29  2  0  0  0  0
 33 59  1  0  0  0  0
 33 34  2  0  0  0  0
 34 60  1  0  0  0  0
 35 61  1  0  0  0  0
 35 36  2  0  0  0  0
 36 62  1  0  0  0  0
 37  3  1  0  0  0  0
 38 40  2  0  0  0  0
 38 37  1  0  0  0  0
 39 38  1  0  0  0  0
 42 67  1  0  0  0  0
 42 43  1  0  0  0  0
 43 69  1  0  0  0  0
 44  4  1  0  0  0  0
 48 15  1  0  0  0  0
 49 18  1  0  0  0  0
 53 24  1  0  0  0  0
 54 25  1  0  0  0  0
 55 26  1  0  0  0  0
 56 31  1  0  0  0  0
 58 31  1  0  0  0  0
 63 37  1  0  0  0  0
 64 39  1  0  0  0  0
 65 39  1  0  0  0  0
 66 39  1  0  0  0  0
 68 43  1  0  0  0  0
 70 43  1  0  0  0  0
M  END
