-1 1
 OpenBabel05232413483D

 70 72  0  0  1  0  0  0  0  0999 V2000
   -1.6393   -2.2261    3.9830 O   0  0  0  0  0  0  0  0  0  0  0  0
   -1.1855   -2.2305    2.8436 C   0  0  0  0  0  0  0  0  0  0  0  0
   -1.9080   -1.4930    1.7069 C   0  0  2  0  0  0  0  0  0  0  0  0
   -3.4057   -1.3136    2.0321 C   0  0  0  0  0  0  0  0  0  0  0  0
   -4.3809   -0.6180    0.6497 S   0  0  0  0  0  1  0  0  0  0  0  0
   -1.7852    1.7248    2.9211 C   0  0  0  0  0  0  0  0  0  0  0  0
   -1.2631    1.1098    3.9945 C   0  0  0  0  0  0  0  0  0  0  0  0
    0.4059    0.5711    4.2278 S   0  0  0  0  0  0  0  0  0  0  0  0
   -2.1211    0.6576    5.1325 C   0  0  0  0  0  0  0  0  0  0  0  0
   -3.2952    0.8789    5.2758 O   0  0  0  0  0  0  0  0  0  0  0  0
   -1.3463   -0.0600    6.0343 N   0  0  0  0  0  0  0  0  0  0  0  0
   -0.0249   -0.2974    5.7361 C   0  0  0  0  0  0  0  0  0  0  0  0
    0.7494   -0.9414    6.3880 O   0  0  0  0  0  0  0  0  0  0  0  0
   -1.0517    2.0987    1.7023 C   0  0  0  0  0  0  0  0  0  0  0  0
   -1.6553    1.8182    0.4640 C   0  0  0  0  0  0  0  0  0  0  0  0
   -0.9453    2.0100   -0.7211 C   0  0  0  0  0  0  0  0  0  0  0  0
   -1.4000    1.7091   -1.9457 O   0  0  0  0  0  0  0  0  0  0  0  0
   -2.7341    1.2544   -2.0746 C   0  0  0  0  0  0  0  0  0  0  0  0
    0.3650    2.5258   -0.6539 C   0  0  0  0  0  0  0  0  0  0  0  0
    1.0736    2.7136   -1.8170 O   0  0  0  0  0  0  0  0  0  0  0  0
    1.5434    1.6201   -2.4628 C   0  0  0  0  0  0  0  0  0  0  0  0
    2.0254    1.8350   -3.7925 C   0  0  0  0  0  0  0  0  0  0  0  0
    1.9758    3.1300   -4.3690 C   0  0  0  0  0  0  0  0  0  0  0  0
    2.4360    3.3464   -5.6447 C   0  0  0  0  0  0  0  0  0  0  0  0
    2.9611    2.2674   -6.3883 C   0  0  0  0  0  0  0  0  0  0  0  0
    3.0149    1.0001   -5.8561 C   0  0  0  0  0  0  0  0  0  0  0  0
    2.5459    0.7339   -4.5380 C   0  0  0  0  0  0  0  0  0  0  0  0
    2.5526   -0.5729   -3.9283 C   0  0  0  0  0  0  0  0  0  0  0  0
    3.0355   -1.7837   -4.6411 C   0  0  0  0  0  0  0  0  0  0  0  0
    2.7682   -2.9125   -3.9578 O   0  0  0  0  0  0  0  0  0  0  0  0
    3.2087   -4.1180   -4.5443 C   0  0  0  0  0  0  0  0  0  0  0  0
    3.6044   -1.8249   -5.7085 O   0  0  0  0  0  0  0  0  0  0  0  0
    2.0798   -0.7103   -2.6353 C   0  0  0  0  0  0  0  0  0  0  0  0
    1.5855    0.3711   -1.8914 C   0  0  0  0  0  0  0  0  0  0  0  0
    0.9412    2.8509    0.5627 C   0  0  0  0  0  0  0  0  0  0  0  0
    0.2389    2.6370    1.7480 C   0  0  0  0  0  0  0  0  0  0  0  0
   -1.8090   -2.0629    0.3684 N   0  0  0  0  0  0  0  0  0  0  0  0
   -0.7368   -2.0189   -0.4345 C   0  0  0  0  0  0  0  0  0  0  0  0
   -1.0162   -2.1422   -1.9161 C   0  0  0  0  0  0  0  0  0  0  0  0
    0.4237   -1.8661   -0.0326 O   0  0  0  0  0  0  0  0  0  0  0  0
   -1.4242   -0.5014    1.6789 H   0  0  0  0  0  0  0  0  0  0  0  0
   -0.0005   -2.7974    2.5401 N   0  0  0  0  0  0  0  0  0  0  0  0
    0.8219   -3.3687    3.5759 C   0  0  0  0  0  0  0  0  0  0  0  0
   -3.8096   -2.2965    2.3235 H   0  0  0  0  0  0  0  0  0  0  0  0
   -3.4786   -0.6822    2.9264 H   0  0  0  0  0  0  0  0  0  0  0  0
   -2.8738    1.8484    2.9284 H   0  0  0  0  0  0  0  0  0  0  0  0
   -1.7910   -0.5814    6.7813 H   0  0  0  0  0  0  0  0  0  0  0  0
   -2.6527    1.3533    0.4529 H   0  0  0  0  0  0  0  0  0  0  0  0
   -2.8746    1.0222   -3.1370 H   0  0  0  0  0  0  0  0  0  0  0  0
   -3.4455    2.0415   -1.7728 H   0  0  0  0  0  0  0  0  0  0  0  0
   -2.9379    0.3644   -1.4549 H   0  0  0  0  0  0  0  0  0  0  0  0
    1.5594    3.9431   -3.7739 H   0  0  0  0  0  0  0  0  0  0  0  0
    2.3934    4.3461   -6.0828 H   0  0  0  0  0  0  0  0  0  0  0  0
    3.3293    2.4377   -7.4032 H   0  0  0  0  0  0  0  0  0  0  0  0
    3.4227    0.1746   -6.4350 H   0  0  0  0  0  0  0  0  0  0  0  0
    2.7442   -4.2721   -5.5297 H   0  0  0  0  0  0  0  0  0  0  0  0
    2.9108   -4.9192   -3.8579 H   0  0  0  0  0  0  0  0  0  0  0  0
    4.3012   -4.1199   -4.6761 H   0  0  0  0  0  0  0  0  0  0  0  0
    2.0685   -1.6873   -2.1534 H   0  0  0  0  0  0  0  0  0  0  0  0
    1.2169    0.1816   -0.8831 H   0  0  0  0  0  0  0  0  0  0  0  0
    1.9549    3.2548    0.5668 H   0  0  0  0  0  0  0  0  0  0  0  0
    0.6977    2.8951    2.7042 H   0  0  0  0  0  0  0  0  0  0  0  0
   -2.7337   -1.9574   -0.0873 H   0  0  0  0  0  0  0  0  0  0  0  0
   -2.0325   -2.4975   -2.1320 H   0  0  0  0  0  0  0  0  0  0  0  0
   -0.2736   -2.8057   -2.3791 H   0  0  0  0  0  0  0  0  0  0  0  0
   -0.8868   -1.1427   -2.3608 H   0  0  0  0  0  0  0  0  0  0  0  0
    0.4047   -2.5565    1.6295 H   0  0  0  0  0  0  0  0  0  0  0  0
    0.2259   -4.0476    4.2028 H   0  0  0  0  0  0  0  0  0  0  0  0
    1.2500   -2.6021    4.2449 H   0  0  0  0  0  0  0  0  0  0  0  0
    1.6422   -3.9355    3.1146 H   0  0  0  0  0  0  0  0  0  0  0  0
  2  1  2  0  0  0  0
  3 41  1  6  0  0  0
  3  4  1  0  0  0  0
  3  2  1  0  0  0  0
  4 44  1  0  0  0  0
  4 45  1  0  0  0  0
  5  4  1  0  0  0  0
  6 46  1  0  0  0  0
  6  7  2  0  0  0  0
  7  8  1  0  0  0  0
  7  9  1  0  0  0  0
  8 12  1  0  0  0  0
  9 10  2  0  0  0  0
  9 11  1  0  0  0  0
 11 47  1  0  0  0  0
 12 11  1  0  0  0  0
 12 13  2  0  0  0  0
 14 36  1  0  0  0  0
 14  6  1  0  0  0  0
 15 14  2  0  0  0  0
 16 19  2  0  0  0  0
 16 15  1  0  0  0  0
 17 16  1  0  0  0  0
 18 17  1  0  0  0  0
 18 50  1  0  0  0  0
 18 51  1  0  0  0  0
 19 35  1  0  0  0  0
 20 19  1  0  0  0  0
 21 34  1  0  0  0  0
 21 20  1  0  0  0  0
 22 21  2  0  0  0  0
 23 22  1  0  0  0  0
 23 52  1  0  0  0  0
 24 23  2  0  0  0  0
 25 26  2  0  0  0  0
 25 24  1  0  0  0  0
 26 27  1  0  0  0  0
 27 28  2  0  0  0  0
 27 22  1  0  0  0  0
 28 33  1  0  0  0  0
 29 30  1  0  0  0  0
 29 28  1  0  0  0  0
 31 30  1  0  0  0  0
 31 57  1  0  0  0  0
 32 29  2  0  0  0  0
 33 59  1  0  0  0  0
 33 34  2  0  0  0  0
 34 60  1  0  0  0  0
 35 61  1  0  0  0  0
 35 36  2  0  0  0  0
 36 62  1  0  0  0  0
 37  3  1  0  0  0  0
 38 40  2  0  0  0  0
 38 37  1  0  0  0  0
 39 38  1  0  0  0  0
 42  2  1  0  0  0  0
 42 43  1  0  0  0  0
 43 68  1  0  0  0  0
 43 69  1  0  0  0  0
 48 15  1  0  0  0  0
 49 18  1  0  0  0  0
 53 24  1  0  0  0  0
 54 25  1  0  0  0  0
 55 26  1  0  0  0  0
 56 31  1  0  0  0  0
 58 31  1  0  0  0  0
 63 37  1  0  0  0  0
 64 39  1  0  0  0  0
 65 39  1  0  0  0  0
 66 39  1  0  0  0  0
 67 42  1  0  0  0  0
 70 43  1  0  0  0  0
M  END
