74
-1 1
O         1.338097   -4.568739    0.576271
C         1.193746   -3.572633   -0.073682
O         2.144091   -3.129411   -0.937629
C         1.584644   -2.107180   -1.782571
H         1.067983   -2.629115   -2.596454
C         2.634968   -1.199707   -2.336381
C         3.086049   -1.183770   -3.600963
C         2.661722   -2.159267   -4.681622
C         1.436317   -1.705972   -5.521179
C         0.216340   -1.723310   -4.652492
C        -0.279023   -0.672103   -3.986685
C        -1.168380   -0.866485   -2.782163
C        -0.397629   -0.418708   -1.525919
H         0.210067    0.459157   -1.784342
C         0.550237   -1.422830   -0.870693
H         1.131629   -0.837181   -0.138807
O        -1.287514    0.003760   -0.494862
C        -1.707394    1.273112   -0.519927
C        -2.406482    1.683976    0.718940
C        -2.408781    3.164729    0.995850
O        -3.591789    3.807033    0.528285
C        -3.096291    0.796754    1.457288
C        -4.012288    1.210966    2.582778
O        -5.121744    1.948718    2.126447
O        -1.547545    2.014119   -1.465615
C         0.144034    0.752102   -4.273943
C         4.065162   -0.130774   -4.048102
C         0.043070   -2.618844   -0.109670
C        -1.107802   -2.861532    0.519739
S        -1.396293   -1.199469    3.574685
C         0.343776   -0.851955    3.129830
C         0.584894    0.477846    2.390456
H        -0.127630    0.530361    1.557819
N         1.918336    0.514562    1.820105
C         2.214973    1.282738    0.739153
C         3.692341    1.569653    0.553708
O         1.377508    1.692863   -0.047534
C         0.406273    1.744735    3.252894
N        -0.766044    1.821236    3.914363
C        -1.030357    2.894350    4.834143
O         1.270664    2.611295    3.302972
H         3.015508   -0.447354   -1.636105
H         2.441946   -3.143794   -4.240485
H         3.516190   -2.313052   -5.361716
H         1.331130   -2.395522   -6.374753
H         1.622295   -0.704251   -5.939106
H        -0.149060   -2.722114   -4.382322
H        -1.500891   -1.911830   -2.683593
H        -2.062050   -0.228702   -2.859265
H        -1.512561    3.626674    0.552724
H        -2.370658    3.336280    2.080408
H        -3.638691    3.629408   -0.417830
H        -3.054465   -0.260758    1.194884
H        -3.421426    1.776190    3.329818
H        -4.389480    0.317298    3.097113
H        -4.788700    2.678509    1.580024
H         1.161155    0.951364   -3.899541
H        -0.523629    1.466206   -3.771806
H         0.139819    0.961496   -5.354300
H         4.288217    0.589567   -3.248878
H         3.662914    0.429771   -4.909390
H         5.011834   -0.588150   -4.381226
H        -1.229922   -3.796053    1.071640
H        -1.921176   -2.139178    0.533609
H         0.710281   -1.644944    2.458050
H         0.984590   -0.879266    4.030819
H         2.667761    0.386571    2.489540
H         3.988408    2.348811    1.272803
H         3.860306    1.940275   -0.464591
H         4.307179    0.675609    0.735466
H        -1.308639    0.934229    3.961226
H        -0.524028    2.755936    5.806437
H        -2.112759    2.963131    5.016777
H        -0.676336    3.844849    4.409468
