-1 1
 OpenBabel05232413483D

 74 74  0  0  1  0  0  0  0  0999 V2000
    1.3381   -4.5687    0.5763 O   0  0  0  0  0  0  0  0  0  0  0  0
    1.1937   -3.5726   -0.0737 C   0  0  0  0  0  0  0  0  0  0  0  0
    2.1441   -3.1294   -0.9376 O   0  0  0  0  0  0  0  0  0  0  0  0
    1.5846   -2.1072   -1.7826 C   0  0  2  0  0  0  0  0  0  0  0  0
    1.0680   -2.6291   -2.5965 H   0  0  0  0  0  0  0  0  0  0  0  0
    2.6350   -1.1997   -2.3364 C   0  0  0  0  0  0  0  0  0  0  0  0
    3.0860   -1.1838   -3.6010 C   0  0  0  0  0  0  0  0  0  0  0  0
    2.6617   -2.1593   -4.6816 C   0  0  0  0  0  0  0  0  0  0  0  0
    1.4363   -1.7060   -5.5212 C   0  0  0  0  0  0  0  0  0  0  0  0
    0.2163   -1.7233   -4.6525 C   0  0  0  0  0  3  0  0  0  0  0  0
   -0.2790   -0.6721   -3.9867 C   0  0  1  0  0  3  0  0  0  0  0  0
   -1.1684   -0.8665   -2.7822 C   0  0  0  0  0  0  0  0  0  0  0  0
   -0.3976   -0.4187   -1.5259 C   0  0  2  0  0  0  0  0  0  0  0  0
    0.2101    0.4592   -1.7843 H   0  0  0  0  0  0  0  0  0  0  0  0
    0.5502   -1.4228   -0.8707 C   0  0  1  0  0  0  0  0  0  0  0  0
    1.1316   -0.8372   -0.1388 H   0  0  0  0  0  0  0  0  0  0  0  0
   -1.2875    0.0038   -0.4949 O   0  0  0  0  0  0  0  0  0  0  0  0
   -1.7074    1.2731   -0.5199 C   0  0  0  0  0  0  0  0  0  0  0  0
   -2.4065    1.6840    0.7189 C   0  0  0  0  0  0  0  0  0  0  0  0
   -2.4088    3.1647    0.9959 C   0  0  0  0  0  0  0  0  0  0  0  0
   -3.5918    3.8070    0.5283 O   0  0  0  0  0  0  0  0  0  0  0  0
   -3.0963    0.7968    1.4573 C   0  0  0  0  0  0  0  0  0  0  0  0
   -4.0123    1.2110    2.5828 C   0  0  0  0  0  0  0  0  0  0  0  0
   -5.1217    1.9487    2.1264 O   0  0  0  0  0  0  0  0  0  0  0  0
   -1.5475    2.0141   -1.4656 O   0  0  0  0  0  0  0  0  0  0  0  0
    0.1440    0.7521   -4.2739 C   0  0  0  0  0  0  0  0  0  0  0  0
    4.0652   -0.1308   -4.0481 C   0  0  0  0  0  0  0  0  0  0  0  0
    0.0431   -2.6188   -0.1097 C   0  0  0  0  0  0  0  0  0  0  0  0
   -1.1078   -2.8615    0.5197 C   0  0  0  0  0  0  0  0  0  0  0  0
   -1.3963   -1.1995    3.5747 S   0  0  0  0  0  1  0  0  0  0  0  0
    0.3438   -0.8520    3.1298 C   0  0  0  0  0  0  0  0  0  0  0  0
    0.5849    0.4778    2.3905 C   0  0  2  0  0  0  0  0  0  0  0  0
   -0.1276    0.5304    1.5578 H   0  0  0  0  0  0  0  0  0  0  0  0
    1.9183    0.5146    1.8201 N   0  0  0  0  0  0  0  0  0  0  0  0
    2.2150    1.2827    0.7392 C   0  0  0  0  0  0  0  0  0  0  0  0
    3.6923    1.5697    0.5537 C   0  0  0  0  0  0  0  0  0  0  0  0
    1.3775    1.6929   -0.0475 O   0  0  0  0  0  0  0  0  0  0  0  0
    0.4063    1.7447    3.2529 C   0  0  0  0  0  0  0  0  0  0  0  0
   -0.7660    1.8212    3.9144 N   0  0  0  0  0  0  0  0  0  0  0  0
   -1.0304    2.8944    4.8341 C   0  0  0  0  0  0  0  0  0  0  0  0
    1.2707    2.6113    3.3030 O   0  0  0  0  0  0  0  0  0  0  0  0
    3.0155   -0.4474   -1.6361 H   0  0  0  0  0  0  0  0  0  0  0  0
    2.4419   -3.1438   -4.2405 H   0  0  0  0  0  0  0  0  0  0  0  0
    3.5162   -2.3131   -5.3617 H   0  0  0  0  0  0  0  0  0  0  0  0
    1.3311   -2.3955   -6.3748 H   0  0  0  0  0  0  0  0  0  0  0  0
    1.6223   -0.7043   -5.9391 H   0  0  0  0  0  0  0  0  0  0  0  0
   -0.1491   -2.7221   -4.3823 H   0  0  0  0  0  0  0  0  0  0  0  0
   -1.5009   -1.9118   -2.6836 H   0  0  0  0  0  0  0  0  0  0  0  0
   -2.0621   -0.2287   -2.8593 H   0  0  0  0  0  0  0  0  0  0  0  0
   -1.5126    3.6267    0.5527 H   0  0  0  0  0  0  0  0  0  0  0  0
   -2.3707    3.3363    2.0804 H   0  0  0  0  0  0  0  0  0  0  0  0
   -3.6387    3.6294   -0.4178 H   0  0  0  0  0  0  0  0  0  0  0  0
   -3.0545   -0.2608    1.1949 H   0  0  0  0  0  0  0  0  0  0  0  0
   -3.4214    1.7762    3.3298 H   0  0  0  0  0  0  0  0  0  0  0  0
   -4.3895    0.3173    3.0971 H   0  0  0  0  0  0  0  0  0  0  0  0
   -4.7887    2.6785    1.5800 H   0  0  0  0  0  0  0  0  0  0  0  0
    1.1612    0.9514   -3.8995 H   0  0  0  0  0  0  0  0  0  0  0  0
   -0.5236    1.4662   -3.7718 H   0  0  0  0  0  0  0  0  0  0  0  0
    0.1398    0.9615   -5.3543 H   0  0  0  0  0  0  0  0  0  0  0  0
    4.2882    0.5896   -3.2489 H   0  0  0  0  0  0  0  0  0  0  0  0
    3.6629    0.4298   -4.9094 H   0  0  0  0  0  0  0  0  0  0  0  0
    5.0118   -0.5881   -4.3812 H   0  0  0  0  0  0  0  0  0  0  0  0
   -1.2299   -3.7961    1.0716 H   0  0  0  0  0  0  0  0  0  0  0  0
   -1.9212   -2.1392    0.5336 H   0  0  0  0  0  0  0  0  0  0  0  0
    0.7103   -1.6449    2.4581 H   0  0  0  0  0  0  0  0  0  0  0  0
    0.9846   -0.8793    4.0308 H   0  0  0  0  0  0  0  0  0  0  0  0
    2.6678    0.3866    2.4895 H   0  0  0  0  0  0  0  0  0  0  0  0
    3.9884    2.3488    1.2728 H   0  0  0  0  0  0  0  0  0  0  0  0
    3.8603    1.9403   -0.4646 H   0  0  0  0  0  0  0  0  0  0  0  0
    4.3072    0.6756    0.7355 H   0  0  0  0  0  0  0  0  0  0  0  0
   -1.3086    0.9342    3.9612 H   0  0  0  0  0  0  0  0  0  0  0  0
   -0.5240    2.7559    5.8064 H   0  0  0  0  0  0  0  0  0  0  0  0
   -2.1128    2.9631    5.0168 H   0  0  0  0  0  0  0  0  0  0  0  0
   -0.6763    3.8448    4.4095 H   0  0  0  0  0  0  0  0  0  0  0  0
  2  1  2  0  0  0  0
  3  2  1  0  0  0  0
  4  5  1  6  0  0  0
  4  3  1  0  0  0  0
  4 15  1  0  0  0  0
  6  4  1  0  0  0  0
  6 42  1  0  0  0  0
  7  6  2  0  0  0  0
  8 43  1  0  0  0  0
  8  7  1  0  0  0  0
  9  8  1  0  0  0  0
  9 10  1  0  0  0  0
 10 47  1  0  0  0  0
 10 11  1  0  0  0  0
 11 26  1  1  0  0  0
 11 12  1  0  0  0  0
 12 48  1  0  0  0  0
 12 13  1  0  0  0  0
 13 14  1  6  0  0  0
 13 15  1  0  0  0  0
 13 17  1  0  0  0  0
 15 16  1  1  0  0  0
 15 28  1  0  0  0  0
 18 17  1  0  0  0  0
 18 19  1  0  0  0  0
 19 20  1  0  0  0  0
 19 22  2  0  0  0  0
 20 51  1  0  0  0  0
 21 20  1  0  0  0  0
 22 23  1  0  0  0  0
 23 55  1  0  0  0  0
 23 54  1  0  0  0  0
 24 23  1  0  0  0  0
 25 18  2  0  0  0  0
 26 57  1  0  0  0  0
 26 58  1  0  0  0  0
 27  7  1  0  0  0  0
 27 60  1  0  0  0  0
 28  2  1  0  0  0  0
 28 29  2  0  0  0  0
 29 64  1  0  0  0  0
 29 63  1  0  0  0  0
 31 30  1  0  0  0  0
 31 66  1  0  0  0  0
 32 33  1  6  0  0  0
 32 31  1  0  0  0  0
 32 38  1  0  0  0  0
 34 32  1  0  0  0  0
 34 67  1  0  0  0  0
 35 34  1  0  0  0  0
 36 70  1  0  0  0  0
 36 35  1  0  0  0  0
 36 68  1  0  0  0  0
 37 35  2  0  0  0  0
 38 41  2  0  0  0  0
 38 39  1  0  0  0  0
 39 71  1  0  0  0  0
 39 40  1  0  0  0  0
 40 73  1  0  0  0  0
 40 72  1  0  0  0  0
 44  8  1  0  0  0  0
 45  9  1  0  0  0  0
 46  9  1  0  0  0  0
 49 12  1  0  0  0  0
 50 20  1  0  0  0  0
 52 21  1  0  0  0  0
 53 22  1  0  0  0  0
 56 24  1  0  0  0  0
 59 26  1  0  0  0  0
 61 27  1  0  0  0  0
 62 27  1  0  0  0  0
 65 31  1  0  0  0  0
 69 36  1  0  0  0  0
 74 40  1  0  0  0  0
M  END
