-1 1
 OpenBabel05232414493D

 74 75  0  0  1  0  0  0  0  0999 V2000
   -5.8597   -4.5745    0.0914 O   0  0  0  0  0  0  0  0  0  0  0  0
   -6.0286   -3.5809   -0.5838 C   0  0  0  0  0  0  0  0  0  0  0  0
   -5.0396   -3.1926   -1.4953 O   0  0  0  0  0  0  0  0  0  0  0  0
   -5.6301   -2.2496   -2.3798 C   0  0  2  0  0  0  0  0  0  0  0  0
   -6.2211   -2.8203   -3.1075 H   0  0  0  0  0  0  0  0  0  0  0  0
   -4.6142   -1.4170   -3.0979 C   0  0  0  0  0  0  0  0  0  0  0  0
   -4.2570   -1.5347   -4.3875 C   0  0  0  0  0  0  0  0  0  0  0  0
   -4.7565   -2.6214   -5.3219 C   0  0  0  0  0  0  0  0  0  0  0  0
   -6.0348   -2.2636   -6.1281 C   0  0  0  0  0  0  0  0  0  0  0  0
   -7.1958   -2.1876   -5.1849 C   0  0  0  0  0  3  0  0  0  0  0  0
   -7.6656   -1.0699   -4.6170 C   0  0  1  0  0  3  0  0  0  0  0  0
   -8.4534   -1.1303   -3.3292 C   0  0  0  0  0  0  0  0  0  0  0  0
   -7.5862   -0.5440   -2.1998 C   0  0  2  0  0  0  0  0  0  0  0  0
   -7.0025    0.2904   -2.6150 H   0  0  0  0  0  0  0  0  0  0  0  0
   -6.6094   -1.4725   -1.4795 C   0  0  1  0  0  0  0  0  0  0  0  0
   -5.9923   -0.7838   -0.8656 H   0  0  0  0  0  0  0  0  0  0  0  0
   -8.4052    0.0329   -1.1674 O   0  0  0  0  0  0  0  0  0  0  0  0
   -8.8229    1.2797   -1.3313 C   0  0  0  0  0  0  0  0  0  0  0  0
   -9.4490    1.8713   -0.1193 C   0  0  0  0  0  0  0  0  0  0  0  0
   -9.4199    3.3780   -0.0802 C   0  0  0  0  0  0  0  0  0  0  0  0
  -10.5910    3.9416   -0.6603 O   0  0  0  0  0  0  0  0  0  0  0  0
  -10.1360    1.1256    0.7573 C   0  0  0  0  0  0  0  0  0  0  0  0
  -10.9984    1.7408    1.8337 C   0  0  0  0  0  0  0  0  0  0  0  0
  -12.1086    2.4249    1.3086 O   0  0  0  0  0  0  0  0  0  0  0  0
   -8.7489    1.8997   -2.3715 O   0  0  0  0  0  0  0  0  0  0  0  0
   -7.2907    0.3119   -5.1088 C   0  0  0  0  0  0  0  0  0  0  0  0
   -3.3044   -0.5518   -5.0175 C   0  0  0  0  0  0  0  0  0  0  0  0
   -7.1029   -2.6325   -0.6457 C   0  0  2  0  0  3  0  0  0  0  0  0
   -8.2767   -2.7711    0.1263 C   0  0  0  0  0  0  0  0  0  0  0  0
   -8.1595   -2.0970    2.1853 S   0  0  0  0  0  0  0  0  0  0  0  0
   -6.5746   -1.2392    2.0725 C   0  0  0  0  0  0  0  0  0  0  0  0
   -6.6711    0.2555    1.7196 C   0  0  2  0  0  0  0  0  0  0  0  0
   -7.4103    0.3614    0.9157 H   0  0  0  0  0  0  0  0  0  0  0  0
   -5.4182    0.7475    1.1966 N   0  0  0  0  0  0  0  0  0  0  0  0
   -5.3670    1.7588    0.2926 C   0  0  0  0  0  0  0  0  0  0  0  0
   -3.9882    2.3514    0.0791 C   0  0  0  0  0  0  0  0  0  0  0  0
   -6.3419    2.1714   -0.3128 O   0  0  0  0  0  0  0  0  0  0  0  0
   -7.1082    1.1489    2.8956 C   0  0  0  0  0  0  0  0  0  0  0  0
   -8.2793    0.7978    3.4754 N   0  0  0  0  0  0  0  0  0  0  0  0
   -8.7702    1.4750    4.6460 C   0  0  0  0  0  0  0  0  0  0  0  0
   -6.4422    2.1039    3.2642 O   0  0  0  0  0  0  0  0  0  0  0  0
   -4.1625   -0.6108   -2.5057 H   0  0  0  0  0  0  0  0  0  0  0  0
   -4.9453   -3.5457   -4.7547 H   0  0  0  0  0  0  0  0  0  0  0  0
   -3.9489   -2.8587   -6.0354 H   0  0  0  0  0  0  0  0  0  0  0  0
   -6.1890   -3.0437   -6.8920 H   0  0  0  0  0  0  0  0  0  0  0  0
   -5.8838   -1.3139   -6.6653 H   0  0  0  0  0  0  0  0  0  0  0  0
   -7.5165   -3.1490   -4.7659 H   0  0  0  0  0  0  0  0  0  0  0  0
   -8.7454   -2.1618   -3.0791 H   0  0  0  0  0  0  0  0  0  0  0  0
   -9.3654   -0.5182   -3.4063 H   0  0  0  0  0  0  0  0  0  0  0  0
   -8.5103    3.7375   -0.5834 H   0  0  0  0  0  0  0  0  0  0  0  0
   -9.3888    3.7293    0.9604 H   0  0  0  0  0  0  0  0  0  0  0  0
  -10.6095    3.6292   -1.5729 H   0  0  0  0  0  0  0  0  0  0  0  0
  -10.1212    0.0360    0.6529 H   0  0  0  0  0  0  0  0  0  0  0  0
  -10.3694    2.4023    2.4631 H   0  0  0  0  0  0  0  0  0  0  0  0
  -11.3835    0.9520    2.4969 H   0  0  0  0  0  0  0  0  0  0  0  0
  -11.7903    3.0184    0.6089 H   0  0  0  0  0  0  0  0  0  0  0  0
   -6.2409    0.5503   -4.8714 H   0  0  0  0  0  0  0  0  0  0  0  0
   -7.9120    1.0802   -4.6276 H   0  0  0  0  0  0  0  0  0  0  0  0
   -7.4090    0.3943   -6.2001 H   0  0  0  0  0  0  0  0  0  0  0  0
   -3.0158    0.2471   -4.3197 H   0  0  0  0  0  0  0  0  0  0  0  0
   -3.7626   -0.0793   -5.9040 H   0  0  0  0  0  0  0  0  0  0  0  0
   -2.3871   -1.0557   -5.3671 H   0  0  0  0  0  0  0  0  0  0  0  0
   -8.5251   -3.8047    0.3824 H   0  0  0  0  0  0  0  0  0  0  0  0
   -9.1390   -2.1711   -0.1726 H   0  0  0  0  0  0  0  0  0  0  0  0
   -6.0157   -1.7411    1.2640 H   0  0  0  0  0  0  0  0  0  0  0  0
   -6.0098   -1.3887    3.0068 H   0  0  0  0  0  0  0  0  0  0  0  0
   -4.5999    0.6027    1.7741 H   0  0  0  0  0  0  0  0  0  0  0  0
   -3.8126    3.1159    0.8515 H   0  0  0  0  0  0  0  0  0  0  0  0
   -3.9577    2.8319   -0.9058 H   0  0  0  0  0  0  0  0  0  0  0  0
   -3.1945    1.5938    0.1507 H   0  0  0  0  0  0  0  0  0  0  0  0
   -8.6952   -0.0896    3.1742 H   0  0  0  0  0  0  0  0  0  0  0  0
   -8.2552    1.1522    5.5680 H   0  0  0  0  0  0  0  0  0  0  0  0
   -9.8450    1.2779    4.7604 H   0  0  0  0  0  0  0  0  0  0  0  0
   -8.6141    2.5581    4.5406 H   0  0  0  0  0  0  0  0  0  0  0  0
  2  1  2  0  0  0  0
  3  2  1  0  0  0  0
  4  5  1  6  0  0  0
  4  3  1  0  0  0  0
  4 15  1  0  0  0  0
  6 42  1  0  0  0  0
  6  4  1  0  0  0  0
  7  6  2  0  0  0  0
  8 43  1  0  0  0  0
  8  7  1  0  0  0  0
  9  8  1  0  0  0  0
  9 10  1  0  0  0  0
 10 47  1  0  0  0  0
 10 11  1  0  0  0  0
 11 26  1  1  0  0  0
 11 12  1  0  0  0  0
 12 48  1  0  0  0  0
 12 13  1  0  0  0  0
 13 14  1  6  0  0  0
 13 15  1  0  0  0  0
 13 17  1  0  0  0  0
 15 16  1  1  0  0  0
 15 28  1  0  0  0  0
 18 17  1  0  0  0  0
 18 19  1  0  0  0  0
 19 20  1  0  0  0  0
 19 22  2  0  0  0  0
 20 51  1  0  0  0  0
 21 20  1  0  0  0  0
 22 23  1  0  0  0  0
 23 54  1  0  0  0  0
 23 55  1  0  0  0  0
 24 23  1  0  0  0  0
 25 18  2  0  0  0  0
 26 57  1  0  0  0  0
 26 58  1  0  0  0  0
 27  7  1  0  0  0  0
 27 60  1  0  0  0  0
 28  2  1  0  0  0  0
 28 29  1  1  0  0  0
 29 63  1  0  0  0  0
 29 30  1  0  0  0  0
 31 30  1  0  0  0  0
 31 66  1  0  0  0  0
 32 33  1  6  0  0  0
 32 31  1  0  0  0  0
 32 38  1  0  0  0  0
 34 32  1  0  0  0  0
 34 67  1  0  0  0  0
 35 34  1  0  0  0  0
 36 70  1  0  0  0  0
 36 35  1  0  0  0  0
 36 68  1  0  0  0  0
 37 35  2  0  0  0  0
 38 41  2  0  0  0  0
 38 39  1  0  0  0  0
 39 40  1  0  0  0  0
 40 73  1  0  0  0  0
 40 72  1  0  0  0  0
 44  8  1  0  0  0  0
 45  9  1  0  0  0  0
 46  9  1  0  0  0  0
 49 12  1  0  0  0  0
 50 20  1  0  0  0  0
 52 21  1  0  0  0  0
 53 22  1  0  0  0  0
 56 24  1  0  0  0  0
 59 26  1  0  0  0  0
 61 27  1  0  0  0  0
 62 27  1  0  0  0  0
 64 29  1  0  0  0  0
 65 31  1  0  0  0  0
 69 36  1  0  0  0  0
 71 39  1  0  0  0  0
 74 40  1  0  0  0  0
M  END
