74
-1 1
O        -5.859695   -4.574473    0.091403
C        -6.028622   -3.580899   -0.583798
O        -5.039551   -3.192558   -1.495271
C        -5.630127   -2.249597   -2.379761
H        -6.221055   -2.820319   -3.107549
C        -4.614181   -1.416955   -3.097902
C        -4.257030   -1.534684   -4.387453
C        -4.756450   -2.621414   -5.321895
C        -6.034829   -2.263603   -6.128054
C        -7.195767   -2.187607   -5.184917
C        -7.665554   -1.069913   -4.617024
C        -8.453364   -1.130275   -3.329235
C        -7.586188   -0.544039   -2.199844
H        -7.002471    0.290365   -2.615046
C        -6.609427   -1.472517   -1.479523
H        -5.992306   -0.783769   -0.865605
O        -8.405164    0.032918   -1.167418
C        -8.822877    1.279723   -1.331335
C        -9.448996    1.871277   -0.119300
C        -9.419936    3.377962   -0.080230
O       -10.591034    3.941557   -0.660296
C       -10.136009    1.125605    0.757270
C       -10.998357    1.740828    1.833686
O       -12.108575    2.424932    1.308612
O        -8.748942    1.899729   -2.371498
C        -7.290689    0.311944   -5.108788
C        -3.304393   -0.551800   -5.017550
C        -7.102869   -2.632540   -0.645707
C        -8.276715   -2.771083    0.126251
S        -8.159452   -2.097021    2.185293
C        -6.574612   -1.239154    2.072517
C        -6.671054    0.255453    1.719584
H        -7.410345    0.361370    0.915675
N        -5.418169    0.747455    1.196647
C        -5.367029    1.758795    0.292630
C        -3.988186    2.351383    0.079090
O        -6.341907    2.171410   -0.312841
C        -7.108216    1.148936    2.895611
N        -8.279293    0.797820    3.475388
C        -8.770245    1.475012    4.645985
O        -6.442223    2.103895    3.264216
H        -4.162504   -0.610806   -2.505696
H        -4.945321   -3.545680   -4.754742
H        -3.948942   -2.858654   -6.035443
H        -6.189027   -3.043709   -6.892036
H        -5.883829   -1.313929   -6.665332
H        -7.516505   -3.148969   -4.765896
H        -8.745435   -2.161838   -3.079127
H        -9.365439   -0.518224   -3.406284
H        -8.510270    3.737481   -0.583408
H        -9.388798    3.729277    0.960391
H       -10.609509    3.629172   -1.572861
H       -10.121169    0.036027    0.652932
H       -10.369405    2.402263    2.463141
H       -11.383538    0.951986    2.496872
H       -11.790308    3.018417    0.608915
H        -6.240940    0.550322   -4.871444
H        -7.912038    1.080193   -4.627555
H        -7.409047    0.394344   -6.200109
H        -3.015843    0.247054   -4.319725
H        -3.762620   -0.079310   -5.904018
H        -2.387139   -1.055702   -5.367083
H        -8.525050   -3.804661    0.382372
H        -9.138971   -2.171061   -0.172594
H        -6.015715   -1.741106    1.264037
H        -6.009763   -1.388656    3.006812
H        -4.599893    0.602726    1.774088
H        -3.812624    3.115897    0.851489
H        -3.957672    2.831941   -0.905843
H        -3.194482    1.593824    0.150745
H        -8.695168   -0.089647    3.174239
H        -8.255154    1.152150    5.567952
H        -9.845003    1.277943    4.760407
H        -8.614055    2.558124    4.540649
