60
-1 1
O        -3.191793    6.044007    4.803459
C        -2.955801    4.988006    5.357724
O        -3.911200    4.437277    6.205564
C        -3.369969    3.324679    6.900937
H        -4.142085    2.553778    6.892787
C        -2.074402    2.889076    6.151833
H        -1.273188    2.729351    6.895717
C        -2.180895    1.608280    5.297706
C        -2.255293    0.269872    6.063501
C        -3.529362    0.197100    6.862829
C        -4.804173    0.050594    6.068739
C        -3.524871    0.508505    8.165396
C        -4.727043    0.981043    8.935369
C        -4.404394    2.075058    9.962584
C        -3.526429    3.284430    9.635063
O        -2.225657    2.987855    9.147637
C        -3.052218    3.784526    8.322634
H        -2.755011    4.843950    8.318558
C        -3.532443    4.290627   10.771918
C        -1.827395    4.112882    5.309660
C        -0.647617    4.438944    4.631803
S         0.869937    5.445958    5.903191
C        -0.384413    6.521076    6.666283
C         0.174384    7.636898    7.561989
H         0.948872    7.199631    8.218618
N        -0.865634    8.232536    8.373197
C        -1.477487    7.609968    9.399367
C        -2.582186    8.402592   10.075100
O        -1.206942    6.472177    9.755130
C         0.804347    8.809264    6.784792
N         1.685725    8.463528    5.828926
C         2.310304    9.435903    4.972381
O         0.506743    9.970001    7.048985
H        -1.292207    1.582012    4.645274
H        -3.043273    1.707625    4.615201
H        -1.384621    0.193892    6.734839
H        -2.187948   -0.562123    5.339513
H        -4.646939   -0.600039    5.194256
H        -5.152194    1.025028    5.679615
H        -5.621431   -0.377650    6.666330
H        -2.557130    0.639263    8.657165
H        -5.212193    0.154534    9.487865
H        -5.491090    1.354872    8.234192
H        -3.893593    1.601457   10.821090
H        -5.356019    2.459481   10.365947
H        -3.331025    3.785802   11.731257
H        -4.516357    4.781680   10.846155
H        -2.757995    5.053786   10.607666
H         0.025393    3.630162    4.330429
H        -0.731812    5.242434    3.895026
H        -1.017239    5.884058    7.297709
H        -1.030058    6.955321    5.887379
H        -1.011928    9.221191    8.189591
H        -3.548530    7.990682    9.747402
H        -2.559561    9.475531    9.838425
H        -2.507085    8.258853   11.161022
H         1.740569    7.461945    5.591142
H         1.885023    9.415397    3.954783
H         3.393504    9.251514    4.897054
H         2.143825   10.434041    5.397349
