-1 1
 OpenBabel05192410563D

 60 62  0  0  1  0  0  0  0  0999 V2000
    0.3272    0.7701   -3.6831 O   0  0  0  0  0  0  0  0  0  0  0  0
    0.1771   -0.0516   -2.7852 C   0  0  0  0  0  0  0  0  0  0  0  0
   -1.1289   -0.3215   -2.3301 O   0  0  0  0  0  0  0  0  0  0  0  0
   -1.0446   -1.0787   -1.1396 C   0  0  1  0  0  0  0  0  0  0  0  0
   -1.8812   -1.7821   -1.1574 H   0  0  0  0  0  0  0  0  0  0  0  0
    0.3461   -1.7787   -1.1417 C   0  0  1  0  0  0  0  0  0  0  0  0
    0.7286   -1.7941   -0.1046 H   0  0  0  0  0  0  0  0  0  0  0  0
    0.3551   -3.2433   -1.6280 C   0  0  0  0  0  0  0  0  0  0  0  0
   -0.0926   -4.2806   -0.5758 C   0  0  0  0  0  0  0  0  0  0  0  0
   -1.5211   -4.0298   -0.1697 C   0  0  2  0  0  3  0  0  0  0  0  0
   -2.5701   -4.4636   -1.1610 C   0  0  0  0  0  0  0  0  0  0  0  0
   -1.7938   -3.2510    0.8859 C   0  0  0  0  0  3  0  0  0  0  0  0
   -3.1000   -2.5458    1.1245 C   0  0  0  0  0  0  0  0  0  0  0  0
   -2.9565   -1.1705    1.7841 C   0  0  0  0  0  0  0  0  0  0  0  0
   -2.0240   -0.0867    1.2428 C   0  0  1  0  0  0  0  0  0  0  0  0
   -0.6298   -0.3947    1.3074 O   0  0  0  0  0  0  0  0  0  0  0  0
   -1.1763   -0.0869    0.0263 C   0  0  1  0  0  0  0  0  0  0  0  0
   -0.9012    0.9165   -0.3254 H   0  0  0  0  0  0  0  0  0  0  0  0
   -2.3614    1.2724    1.8268 C   0  0  0  0  0  0  0  0  0  0  0  0
    1.0841   -0.8309   -2.0545 C   0  0  1  0  0  3  0  0  0  0  0  0
    2.5199   -0.7311   -2.2548 C   0  0  0  0  0  0  0  0  0  0  0  0
    3.4289    0.6994   -1.2727 S   0  0  0  0  0  0  0  0  0  0  0  0
    2.4787    0.6345    0.2670 C   0  0  0  0  0  0  0  0  0  0  0  0
    1.9853    1.9481    0.8952 C   0  0  2  0  0  0  0  0  0  0  0  0
    2.8234    2.6392    1.0800 H   0  0  0  0  0  0  0  0  0  0  0  0
    1.4274    1.6120    2.1844 N   0  0  0  0  0  0  0  0  0  0  0  0
    1.5568    2.4161    3.2695 C   0  0  0  0  0  0  0  0  0  0  0  0
    0.5830    2.0999    4.3914 C   0  0  0  0  0  0  0  0  0  0  0  0
    2.3679    3.3199    3.3558 O   0  0  0  0  0  0  0  0  0  0  0  0
    0.9073    2.7464    0.1153 C   0  0  0  0  0  0  0  0  0  0  0  0
    0.9938    2.7585   -1.2241 N   0  0  0  0  0  0  0  0  0  0  0  0
    0.0164    3.4191   -2.0580 C   0  0  0  0  0  0  0  0  0  0  0  0
    0.0251    3.3335    0.7331 O   0  0  0  0  0  0  0  0  0  0  0  0
    1.3870   -3.4828   -1.9347 H   0  0  0  0  0  0  0  0  0  0  0  0
   -0.2534   -3.3244   -2.5456 H   0  0  0  0  0  0  0  0  0  0  0  0
    0.5670   -4.1942    0.3036 H   0  0  0  0  0  0  0  0  0  0  0  0
    0.0350   -5.2998   -0.9813 H   0  0  0  0  0  0  0  0  0  0  0  0
   -2.3479   -5.4734   -1.5411 H   0  0  0  0  0  0  0  0  0  0  0  0
   -2.5879   -3.7925   -2.0387 H   0  0  0  0  0  0  0  0  0  0  0  0
   -3.5810   -4.4803   -0.7314 H   0  0  0  0  0  0  0  0  0  0  0  0
   -0.9610   -2.9497    1.5298 H   0  0  0  0  0  0  0  0  0  0  0  0
   -3.7678   -3.1420    1.7742 H   0  0  0  0  0  0  0  0  0  0  0  0
   -3.6406   -2.4296    0.1711 H   0  0  0  0  0  0  0  0  0  0  0  0
   -2.6327   -1.3109    2.8316 H   0  0  0  0  0  0  0  0  0  0  0  0
   -3.9617   -0.7231    1.8477 H   0  0  0  0  0  0  0  0  0  0  0  0
   -2.4324    1.2052    2.9253 H   0  0  0  0  0  0  0  0  0  0  0  0
   -3.3343    1.6204    1.4460 H   0  0  0  0  0  0  0  0  0  0  0  0
   -1.5984    2.0206    1.5649 H   0  0  0  0  0  0  0  0  0  0  0  0
    3.0728   -1.6362   -1.9649 H   0  0  0  0  0  0  0  0  0  0  0  0
    2.7887   -0.4507   -3.2831 H   0  0  0  0  0  0  0  0  0  0  0  0
    3.0557    0.1083    1.0396 H   0  0  0  0  0  0  0  0  0  0  0  0
    1.5939    0.0306    0.0217 H   0  0  0  0  0  0  0  0  0  0  0  0
    0.6512    0.9516    2.1455 H   0  0  0  0  0  0  0  0  0  0  0  0
    0.3248    1.0317    4.4353 H   0  0  0  0  0  0  0  0  0  0  0  0
   -0.3412    2.6696    4.2089 H   0  0  0  0  0  0  0  0  0  0  0  0
    1.0132    2.4247    5.3468 H   0  0  0  0  0  0  0  0  0  0  0  0
    1.7089    2.1831   -1.6732 H   0  0  0  0  0  0  0  0  0  0  0  0
   -0.1717    2.7843   -2.9353 H   0  0  0  0  0  0  0  0  0  0  0  0
    0.3666    4.4155   -2.3793 H   0  0  0  0  0  0  0  0  0  0  0  0
   -0.9091    3.5542   -1.4827 H   0  0  0  0  0  0  0  0  0  0  0  0
  1  2  2  0  0  0  0
  2  3  1  0  0  0  0
  2 20  1  0  0  0  0
  3  4  1  0  0  0  0
  4  5  1  1  0  0  0
  4 17  1  0  0  0  0
  6  4  1  0  0  0  0
  6  7  1  1  0  0  0
  8  6  1  0  0  0  0
  8  9  1  0  0  0  0
  9 10  1  0  0  0  0
  9 36  1  0  0  0  0
 10 11  1  6  0  0  0
 10 12  1  0  0  0  0
 11 40  1  0  0  0  0
 12 13  1  0  0  0  0
 12 41  1  0  0  0  0
 13 42  1  0  0  0  0
 13 14  1  0  0  0  0
 14 45  1  0  0  0  0
 14 44  1  0  0  0  0
 15 16  1  0  0  0  0
 15 14  1  0  0  0  0
 15 19  1  1  0  0  0
 17 18  1  6  0  0  0
 17 15  1  0  0  0  0
 17 16  1  0  0  0  0
 19 46  1  0  0  0  0
 20 21  1  6  0  0  0
 20  6  1  0  0  0  0
 21 49  1  0  0  0  0
 21 22  1  0  0  0  0
 22 23  1  0  0  0  0
 23 24  1  0  0  0  0
 23 51  1  0  0  0  0
 24 25  1  1  0  0  0
 24 26  1  0  0  0  0
 26 27  1  0  0  0  0
 27 29  2  0  0  0  0
 27 28  1  0  0  0  0
 28 54  1  0  0  0  0
 28 56  1  0  0  0  0
 30 33  2  0  0  0  0
 30 24  1  0  0  0  0
 31 30  1  0  0  0  0
 32 60  1  0  0  0  0
 32 31  1  0  0  0  0
 34  8  1  0  0  0  0
 35  8  1  0  0  0  0
 37  9  1  0  0  0  0
 38 11  1  0  0  0  0
 39 11  1  0  0  0  0
 43 13  1  0  0  0  0
 47 19  1  0  0  0  0
 48 19  1  0  0  0  0
 50 21  1  0  0  0  0
 52 23  1  0  0  0  0
 53 26  1  0  0  0  0
 55 28  1  0  0  0  0
 57 31  1  0  0  0  0
 58 32  1  0  0  0  0
 59 32  1  0  0  0  0
M  END
