-1 1
 OpenBabel05192410563D

 59 61  0  0  1  0  0  0  0  0999 V2000
    5.8134    2.7926   -0.6768 C   0  0  0  0  0  0  0  0  0  0  0  0
    4.5621    3.1384    0.0894 C   0  0  0  0  0  0  0  0  0  0  0  0
    3.2011    3.6802   -1.1095 S   0  0  0  0  0  0  0  0  0  0  0  0
    2.1576    2.1776   -1.2175 C   0  0  0  0  0  0  0  0  0  0  0  0
    0.6595    2.4845   -1.3413 C   0  0  2  0  0  0  0  0  0  0  0  0
    0.1339    1.5513   -1.5928 H   0  0  0  0  0  0  0  0  0  0  0  0
    0.4334    3.4216   -2.4247 N   0  0  0  0  0  0  0  0  0  0  0  0
   -0.7596    3.5383   -3.0633 C   0  0  0  0  0  0  0  0  0  0  0  0
   -0.8248    4.6385   -4.1065 C   0  0  0  0  0  0  0  0  0  0  0  0
   -1.7189    2.8315   -2.8158 O   0  0  0  0  0  0  0  0  0  0  0  0
   -0.0132    2.9549   -0.0353 C   0  0  0  0  0  0  0  0  0  0  0  0
    0.4513    4.0881    0.5069 N   0  0  0  0  0  0  0  0  0  0  0  0
   -0.0664    4.6472    1.7356 C   0  0  0  0  0  0  0  0  0  0  0  0
   -0.9408    2.3072    0.4543 O   0  0  0  0  0  0  0  0  0  0  0  0
    4.3860    3.1055    1.3939 C   0  0  0  0  0  3  0  0  0  0  0  0
    3.2718    3.4498    2.1962 C   0  0  0  0  0  0  0  0  0  0  0  0
    2.4553    2.3828    2.6727 N   0  0  0  0  0  0  0  0  0  0  0  0
    2.4266    1.0732    2.1968 C   0  0  0  0  0  0  0  0  0  0  0  0
    3.6168    0.2950    2.1234 C   0  0  0  0  0  0  0  0  0  0  0  0
    3.5784   -1.0018    1.6756 C   0  0  0  0  0  0  0  0  0  0  0  0
    1.2329    0.5026    1.7857 C   0  0  0  0  0  0  0  0  0  0  0  0
    1.1948   -0.8031    1.2496 C   0  0  0  0  0  0  0  0  0  0  0  0
    2.3675   -1.5946    1.2326 C   0  0  0  0  0  0  0  0  0  0  0  0
    2.3601   -2.8933    0.8061 N   0  0  0  0  0  0  0  0  0  0  0  0
    1.2114   -3.3443    0.3854 C   0  0  0  0  0  0  0  0  0  0  0  0
    0.0607   -2.6568    0.2305 N   0  0  0  0  0  0  0  0  0  0  0  0
    0.0451   -1.3897    0.5969 C   0  0  0  0  0  0  0  0  0  0  0  0
   -1.0320   -0.5992    0.3060 N   0  0  0  0  0  0  0  0  0  0  0  0
   -2.1687   -0.9283   -0.4457 C   0  0  0  0  0  0  0  0  0  0  0  0
   -2.7095   -2.2220   -0.5025 C   0  0  0  0  0  0  0  0  0  0  0  0
   -3.8569   -2.4350   -1.2596 C   0  0  0  0  0  0  0  0  0  0  0  0
   -4.5827   -4.1972   -1.3311 Br  0  0  0  0  0  0  0  0  0  0  0  0
   -4.4909   -1.4179   -1.9661 C   0  0  0  0  0  0  0  0  0  0  0  0
   -3.9380   -0.1386   -1.8997 C   0  0  0  0  0  0  0  0  0  0  0  0
   -2.7946    0.1126   -1.1528 C   0  0  0  0  0  0  0  0  0  0  0  0
    2.9684    4.5842    2.5799 O   0  0  0  0  0  0  0  0  0  0  0  0
    5.6503    1.9386   -1.3571 H   0  0  0  0  0  0  0  0  0  0  0  0
    6.6080    2.5276    0.0352 H   0  0  0  0  0  0  0  0  0  0  0  0
    6.1624    3.6352   -1.2975 H   0  0  0  0  0  0  0  0  0  0  0  0
    2.3318    1.5735   -0.3178 H   0  0  0  0  0  0  0  0  0  0  0  0
    2.4595    1.5809   -2.0907 H   0  0  0  0  0  0  0  0  0  0  0  0
    1.1805    4.0767   -2.6286 H   0  0  0  0  0  0  0  0  0  0  0  0
    0.1635    4.9580   -4.4650 H   0  0  0  0  0  0  0  0  0  0  0  0
   -1.3387    5.5074   -3.6684 H   0  0  0  0  0  0  0  0  0  0  0  0
   -1.4284    4.2832   -4.9512 H   0  0  0  0  0  0  0  0  0  0  0  0
    1.3477    4.4371    0.1566 H   0  0  0  0  0  0  0  0  0  0  0  0
    0.7834    4.9239    2.3777 H   0  0  0  0  0  0  0  0  0  0  0  0
   -0.6978    3.8974    2.2307 H   0  0  0  0  0  0  0  0  0  0  0  0
   -0.6859    5.5371    1.5364 H   0  0  0  0  0  0  0  0  0  0  0  0
    1.5797    2.7403    3.0364 H   0  0  0  0  0  0  0  0  0  0  0  0
    4.5534    0.7598    2.4334 H   0  0  0  0  0  0  0  0  0  0  0  0
    4.4797   -1.6168    1.6467 H   0  0  0  0  0  0  0  0  0  0  0  0
    0.3230    1.0998    1.8384 H   0  0  0  0  0  0  0  0  0  0  0  0
    1.1650   -4.4000    0.0892 H   0  0  0  0  0  0  0  0  0  0  0  0
   -0.9194    0.4126    0.4308 H   0  0  0  0  0  0  0  0  0  0  0  0
   -2.2171   -3.0382    0.0189 H   0  0  0  0  0  0  0  0  0  0  0  0
   -5.3845   -1.6203   -2.5576 H   0  0  0  0  0  0  0  0  0  0  0  0
   -4.3946    0.6832   -2.4552 H   0  0  0  0  0  0  0  0  0  0  0  0
   -2.3675    1.1178   -1.1341 H   0  0  0  0  0  0  0  0  0  0  0  0
  1 38  1  0  0  0  0
  1  2  1  0  0  0  0
  2 15  2  0  0  0  0
  3  2  1  0  0  0  0
  4  3  1  0  0  0  0
  4 40  1  0  0  0  0
  5  6  1  6  0  0  0
  5  4  1  0  0  0  0
  5 11  1  0  0  0  0
  7  5  1  0  0  0  0
  8 10  2  0  0  0  0
  8  7  1  0  0  0  0
  9 44  1  0  0  0  0
  9  8  1  0  0  0  0
 11 14  2  0  0  0  0
 11 12  1  0  0  0  0
 12 13  1  0  0  0  0
 13 48  1  0  0  0  0
 13 47  1  0  0  0  0
 15 16  1  0  0  0  0
 16 36  2  0  0  0  0
 16 17  1  0  0  0  0
 17 50  1  0  0  0  0
 18 17  1  0  0  0  0
 19 18  1  0  0  0  0
 19 51  1  0  0  0  0
 20 19  2  0  0  0  0
 21 53  1  0  0  0  0
 21 18  2  0  0  0  0
 22 21  1  0  0  0  0
 23 22  2  0  0  0  0
 23 20  1  0  0  0  0
 24 23  1  0  0  0  0
 25 24  2  0  0  0  0
 26 25  1  0  0  0  0
 26 27  2  0  0  0  0
 27 22  1  0  0  0  0
 28 55  1  0  0  0  0
 28 27  1  0  0  0  0
 29 28  1  0  0  0  0
 30 29  1  0  0  0  0
 30 56  1  0  0  0  0
 31 30  2  0  0  0  0
 32 31  1  0  0  0  0
 33 34  2  0  0  0  0
 33 31  1  0  0  0  0
 34 35  1  0  0  0  0
 35 59  1  0  0  0  0
 35 29  2  0  0  0  0
 37  1  1  0  0  0  0
 39  1  1  0  0  0  0
 41  4  1  0  0  0  0
 42  7  1  0  0  0  0
 43  9  1  0  0  0  0
 45  9  1  0  0  0  0
 46 12  1  0  0  0  0
 49 13  1  0  0  0  0
 52 20  1  0  0  0  0
 54 25  1  0  0  0  0
 57 33  1  0  0  0  0
 58 34  1  0  0  0  0
M  END
