59
-1 1
C         5.744729    6.920046    0.792577
C         4.380455    6.940039    1.371958
S         3.202583    8.195050   -0.211220
C         3.429652    7.246287   -1.761949
C         4.211264    7.996078   -2.862321
H         4.506109    7.293296   -3.654897
N         5.393137    8.579554   -2.277667
C         6.455841    9.010723   -2.999700
C         7.526047    9.719137   -2.185383
O         6.552144    8.866085   -4.204398
C         3.297482    9.010218   -3.568862
N         3.140716   10.191188   -2.910625
C         2.175364   11.169539   -3.338233
O         2.739474    8.737857   -4.615330
C         3.710711    6.569119    2.365531
C         2.598365    6.480270    3.234009
N         1.701748    5.401289    3.040512
C         1.564738    4.507861    1.992946
C         1.802034    4.905432    0.643453
C         1.633990    4.014394   -0.384264
C         1.133345    3.212650    2.240992
C         0.928804    2.292785    1.186097
C         1.195329    2.685632   -0.148616
N         1.028215    1.833340   -1.201652
C         0.613960    0.633846   -0.916182
N         0.328418    0.135014    0.309080
C         0.476932    0.932130    1.342022
N         0.199850    0.477978    2.611645
C        -0.239199   -0.759988    3.072773
C        -0.507309   -1.858747    2.240246
C        -0.943101   -3.047301    2.818043
Br        -1.302400   -4.525585    1.677572
C        -1.126108   -3.197898    4.189266
C        -0.856002   -2.099164    5.004555
C        -0.419910   -0.898791    4.461462
O         2.390897    7.202337    4.201198
H         5.756429    6.592672   -0.256899
H         6.374712    6.235356    1.381103
H         6.193931    7.924943    0.831219
H         2.449606    6.958552   -2.171334
H         3.967076    6.311508   -1.530937
H         5.305180    8.794741   -1.284548
H         7.528602    9.419122   -1.127880
H         7.350298   10.804601   -2.239000
H         8.505701    9.512312   -2.634236
H         3.428536   10.191708   -1.934434
H         1.234044   11.099858   -2.766356
H         1.948885   10.983276   -4.395831
H         2.576275   12.189150   -3.229495
H         1.138155    5.244928    3.867723
H         2.091702    5.939265    0.438589
H         1.808249    4.314121   -1.418940
H         0.972338    2.929809    3.285030
H         0.474173   -0.066143   -1.748322
H         0.341727    1.161441    3.340441
H        -0.367940   -1.754407    1.166911
H        -1.468812   -4.143791    4.609069
H        -0.988617   -2.183206    6.085315
H        -0.213156   -0.050413    5.119416
