61
-1 1
O         1.355979    4.140303   -1.120155
C         0.746952    3.108912   -0.792755
C        -0.356110    3.278841    0.265322
C         0.189267    2.962710    1.655940
N        -0.840143    2.795151    2.677697
C        -0.331948    2.272033    3.931873
C         0.416939    3.314762    4.775681
C        -0.463859    4.545801    5.005650
C        -1.018413    5.074360    3.679959
C        -1.700335    3.942221    2.898543
C         1.057644    1.824990   -1.317769
C         0.543856    0.494700   -1.048148
S         1.502861   -0.394650    0.515171
C         0.865214   -2.104805    0.510876
C         1.093195   -2.917269   -0.782694
H         0.692502   -2.331284   -1.628696
N         0.407277   -4.187566   -0.728890
C        -0.926143   -4.323355   -0.924567
C        -1.419213   -5.759287   -1.007091
O        -1.689824   -3.382281   -1.037932
C         2.566098   -3.251809   -1.083578
N         3.394841   -2.197859   -1.187184
C         4.806136   -2.367926   -1.419183
O         2.927911   -4.413288   -1.241332
C        -0.932394    0.223757   -0.867412
C        -1.728563   -0.149005   -1.959558
Cl        -1.019832   -0.333485   -3.557216
C        -3.091842   -0.407118   -1.843493
C        -3.708522   -0.293821   -0.603233
C        -2.947434    0.065166    0.506569
C        -1.585387    0.307851    0.370140
H        -1.232921    2.648310    0.066064
H        -0.666054    4.332630    0.198850
H         0.943862    3.737650    1.911219
H         0.740015    2.010141    1.609427
H         0.316613    1.408297    3.715256
H        -1.188770    1.891424    4.521351
H         1.340159    3.613611    4.251060
H         0.728018    2.872051    5.736712
H         0.093700    5.332584    5.540485
H        -1.310819    4.262680    5.659170
H        -0.196975    5.491516    3.072718
H        -1.731407    5.897166    3.855831
H        -2.071386    4.307005    1.930275
H        -2.586042    3.601171    3.468549
H         1.920944    1.849083   -1.991423
H         0.901125   -0.166460   -1.844590
H        -0.222060   -2.071996    0.673257
H         1.320622   -2.636687    1.361427
H         1.035072   -4.984432   -0.803164
H        -0.683684   -6.495221   -0.653568
H        -1.673290   -5.982930   -2.053963
H        -2.341028   -5.845828   -0.416914
H         3.043441   -1.302116   -0.823766
H         5.360736   -2.587363   -0.490246
H         5.216168   -1.450025   -1.861690
H         4.965755   -3.206125   -2.110694
H        -3.654645   -0.710168   -2.726986
H        -4.777009   -0.499672   -0.506686
H        -3.410121    0.161514    1.491222
H        -1.004828    0.583333    1.250635
