61
-1 1
O         1.288380    7.554494   -3.081113
C         0.684975    6.523334   -2.748179
C        -0.417504    6.688497   -1.690675
C         0.132460    6.367457   -0.302444
N        -0.893693    6.194366    0.720799
C        -0.387796    5.638196    1.961818
C         0.379646    6.652732    2.822891
C        -0.482793    7.890913    3.082381
C        -1.035545    8.454796    1.770504
C        -1.736243    7.349031    0.968113
C         1.009629    5.236879   -3.266988
C         0.501372    3.912799   -3.004272
S         1.469211    3.002496   -1.400352
C         0.825158    1.294868   -1.403569
C         1.047568    0.482010   -2.698159
H         0.644337    1.068491   -3.542603
N         0.361142   -0.788132   -2.642355
C        -0.972456   -0.925044   -2.833974
C        -1.464265   -2.361670   -2.914746
O        -1.737952    0.014865   -2.945708
C         2.518993    0.145812   -3.004619
N         3.348502    1.198893   -3.109216
C         4.759101    1.026408   -3.342787
O         2.878872   -1.016046   -3.165357
C        -0.969141    3.624103   -2.819113
C        -1.759712    3.232811   -3.909058
Cl        -1.047595    3.046432   -5.505160
C        -3.119568    2.957510   -3.792030
C        -3.738328    3.071256   -2.553065
C        -2.982694    3.447846   -1.445390
C        -1.624015    3.707808   -1.582590
H        -1.291882    6.054979   -1.891055
H        -0.731118    7.741406   -1.752965
H         0.887029    7.142021   -0.045860
H         0.684243    5.415882   -0.354953
H         0.246871    4.769650    1.724534
H        -1.247830    5.258482    2.547129
H         1.304609    6.949044    2.299819
H         0.688961    6.186117    3.773075
H         0.087864    8.658704    3.630816
H        -1.330808    7.606005    3.733723
H        -0.210752    8.873685    1.169042
H        -1.736427    9.283404    1.966674
H        -2.104990    7.739449    0.008863
H        -2.625294    7.009440    1.533692
H         1.882199    5.266746   -3.928257
H         0.878134    3.241498   -3.782180
H        -0.262094    1.331304   -1.241174
H         1.277565    0.757348   -0.554814
H         0.988836   -1.584925   -2.718489
H        -0.727351   -3.096659   -2.562105
H        -1.719984   -2.586311   -3.961019
H        -2.384904   -2.448787   -2.322804
H         2.999038    2.093109   -2.738119
H         5.313411    0.798057   -2.415754
H         5.171763    1.946576   -3.778157
H         4.916617    0.193216   -4.040888
H        -3.677604    2.640440   -4.673600
H        -4.803871    2.851217   -2.455495
H        -3.446943    3.543755   -0.461446
H        -1.046715    3.994193   -0.703785
