-1 1
 OpenBabel05232414493D

 69 70  0  0  1  0  0  0  0  0999 V2000
   -2.3110   -0.2135   -3.1716 C   0  0  0  0  0  0  0  0  0  0  0  0
   -1.5082    0.0925   -4.3283 N   0  0  0  0  0  0  0  0  0  0  0  0
   -0.5138   -0.8528   -4.7802 C   0  0  0  0  0  0  0  0  0  0  0  0
    0.9511   -0.6728   -4.4005 C   0  0  0  0  0  3  0  0  0  0  0  0
    0.7561   -0.5037   -2.0101 S   0  0  0  0  0  1  0  0  0  0  0  0
    2.1197   -1.6166   -1.6094 C   0  0  0  0  0  0  0  0  0  0  0  0
    1.7404   -2.9178   -0.8675 C   0  0  2  0  0  0  0  0  0  0  0  0
    1.1113   -2.6446   -0.0031 H   0  0  0  0  0  0  0  0  0  0  0  0
    2.9132   -3.6185   -0.3991 N   0  0  0  0  0  0  0  0  0  0  0  0
    3.6304   -3.2436    0.6829 C   0  0  0  0  0  0  0  0  0  0  0  0
    4.8045   -4.1494    1.0201 C   0  0  0  0  0  0  0  0  0  0  0  0
    3.3917   -2.2445    1.3401 O   0  0  0  0  0  0  0  0  0  0  0  0
    0.9730   -3.9277   -1.7372 C   0  0  0  0  0  0  0  0  0  0  0  0
   -0.1672   -3.4679   -2.2864 N   0  0  0  0  0  0  0  0  0  0  0  0
   -0.9135   -4.2712   -3.2189 C   0  0  0  0  0  0  0  0  0  0  0  0
    1.3797   -5.0736   -1.8885 O   0  0  0  0  0  0  0  0  0  0  0  0
    1.8479   -1.6814   -4.7368 C   0  0  0  0  0  3  0  0  0  0  0  0
    3.1800   -1.6085   -5.2761 C   0  0  0  0  0  0  0  0  0  0  0  0
    3.8693   -0.3724   -5.4756 N   0  0  0  0  0  0  0  0  0  0  0  0
    3.8713    0.8777   -4.8912 C   0  0  0  0  0  0  0  0  0  0  0  0
    3.4271    1.1006   -3.5568 C   0  0  0  0  0  0  0  0  0  0  0  0
    3.4623    2.3504   -2.9978 C   0  0  0  0  0  0  0  0  0  0  0  0
    4.3761    1.9604   -5.6046 C   0  0  0  0  0  0  0  0  0  0  0  0
    4.4532    3.2489   -5.0297 C   0  0  0  0  0  0  0  0  0  0  0  0
    3.9786    3.4620   -3.7113 C   0  0  0  0  0  0  0  0  0  0  0  0
    4.0123    4.6911   -3.1184 N   0  0  0  0  0  0  0  0  0  0  0  0
    4.5017    5.6643   -3.8286 C   0  0  0  0  0  0  0  0  0  0  0  0
    4.9857    5.5945   -5.0911 N   0  0  0  0  0  0  0  0  0  0  0  0
    4.9695    4.4250   -5.6871 C   0  0  0  0  0  0  0  0  0  0  0  0
    5.4538    4.2950   -6.9697 N   0  0  0  0  0  0  0  0  0  0  0  0
    5.9972    5.2273   -7.8482 C   0  0  0  0  0  0  0  0  0  0  0  0
    6.1608    6.5892   -7.5459 C   0  0  0  0  0  0  0  0  0  0  0  0
    6.7171    7.4273   -8.5072 C   0  0  0  0  0  0  0  0  0  0  0  0
    6.9323    9.2684   -8.0825 Br  0  0  0  0  0  0  0  0  0  0  0  0
    7.1210    6.9766   -9.7603 C   0  0  0  0  0  0  0  0  0  0  0  0
    6.9530    5.6222  -10.0475 C   0  0  0  0  0  0  0  0  0  0  0  0
    6.4013    4.7582   -9.1120 C   0  0  0  0  0  0  0  0  0  0  0  0
    3.7697   -2.5845   -5.7309 O   0  0  0  0  0  0  0  0  0  0  0  0
   -1.1569    1.4806   -4.4609 C   0  0  0  0  0  0  0  0  0  0  0  0
   -1.8472    0.0537   -2.2018 H   0  0  0  0  0  0  0  0  0  0  0  0
   -2.5264   -1.2929   -3.1429 H   0  0  0  0  0  0  0  0  0  0  0  0
   -3.2809    0.3131   -3.2437 H   0  0  0  0  0  0  0  0  0  0  0  0
   -0.5017   -0.8197   -5.8898 H   0  0  0  0  0  0  0  0  0  0  0  0
   -0.8419   -1.8698   -4.5204 H   0  0  0  0  0  0  0  0  0  0  0  0
    1.2883    0.3609   -4.5142 H   0  0  0  0  0  0  0  0  0  0  0  0
    2.8440   -1.0940   -0.9694 H   0  0  0  0  0  0  0  0  0  0  0  0
    2.6226   -1.8957   -2.5603 H   0  0  0  0  0  0  0  0  0  0  0  0
    3.0515   -4.5224   -0.8432 H   0  0  0  0  0  0  0  0  0  0  0  0
    4.7884   -5.1082    0.4836 H   0  0  0  0  0  0  0  0  0  0  0  0
    4.8072   -4.3306    2.1033 H   0  0  0  0  0  0  0  0  0  0  0  0
    5.7360   -3.6200    0.7705 H   0  0  0  0  0  0  0  0  0  0  0  0
   -0.2912   -2.4446   -2.2584 H   0  0  0  0  0  0  0  0  0  0  0  0
   -0.9611   -5.3089   -2.8606 H   0  0  0  0  0  0  0  0  0  0  0  0
   -0.4520   -4.2862   -4.2223 H   0  0  0  0  0  0  0  0  0  0  0  0
   -1.9348   -3.8748   -3.3097 H   0  0  0  0  0  0  0  0  0  0  0  0
    1.4840   -2.7142   -4.7464 H   0  0  0  0  0  0  0  0  0  0  0  0
    4.5986   -0.5327   -6.1609 H   0  0  0  0  0  0  0  0  0  0  0  0
    3.0434    0.2668   -2.9739 H   0  0  0  0  0  0  0  0  0  0  0  0
    3.1023    2.5100   -1.9803 H   0  0  0  0  0  0  0  0  0  0  0  0
    4.6963    1.7738   -6.6335 H   0  0  0  0  0  0  0  0  0  0  0  0
    4.5359    6.6600   -3.3711 H   0  0  0  0  0  0  0  0  0  0  0  0
    5.4104    3.3570   -7.3395 H   0  0  0  0  0  0  0  0  0  0  0  0
    5.8497    6.9538   -6.5698 H   0  0  0  0  0  0  0  0  0  0  0  0
    7.5535    7.6609  -10.4904 H   0  0  0  0  0  0  0  0  0  0  0  0
    7.2589    5.2349  -11.0218 H   0  0  0  0  0  0  0  0  0  0  0  0
    6.2779    3.7002   -9.3588 H   0  0  0  0  0  0  0  0  0  0  0  0
   -0.7027    1.6633   -5.4491 H   0  0  0  0  0  0  0  0  0  0  0  0
   -2.0631    2.1068   -4.3924 H   0  0  0  0  0  0  0  0  0  0  0  0
   -0.4420    1.8407   -3.6899 H   0  0  0  0  0  0  0  0  0  0  0  0
  1 41  1  0  0  0  0
  1 40  1  0  0  0  0
  2  1  1  0  0  0  0
  3 44  1  0  0  0  0
  3  4  1  0  0  0  0
  3  2  1  0  0  0  0
  5  6  1  0  0  0  0
  6 46  1  0  0  0  0
  6  7  1  0  0  0  0
  7  9  1  0  0  0  0
  7  8  1  1  0  0  0
  9 10  1  0  0  0  0
 10 11  1  0  0  0  0
 10 12  2  0  0  0  0
 11 50  1  0  0  0  0
 13  7  1  0  0  0  0
 14 52  1  0  0  0  0
 14 13  1  0  0  0  0
 15 53  1  0  0  0  0
 15 14  1  0  0  0  0
 16 13  2  0  0  0  0
 17  4  1  0  0  0  0
 18 17  1  0  0  0  0
 19 18  1  0  0  0  0
 19 20  1  0  0  0  0
 20 21  1  0  0  0  0
 21 22  2  0  0  0  0
 21 58  1  0  0  0  0
 22 59  1  0  0  0  0
 23 24  1  0  0  0  0
 23 20  2  0  0  0  0
 24 25  2  0  0  0  0
 25 26  1  0  0  0  0
 25 22  1  0  0  0  0
 27 61  1  0  0  0  0
 27 26  2  0  0  0  0
 28 27  1  0  0  0  0
 29 28  2  0  0  0  0
 29 24  1  0  0  0  0
 30 29  1  0  0  0  0
 31 32  1  0  0  0  0
 31 30  1  0  0  0  0
 32 63  1  0  0  0  0
 33 34  1  0  0  0  0
 33 32  2  0  0  0  0
 35 33  1  0  0  0  0
 36 35  2  0  0  0  0
 36 37  1  0  0  0  0
 37 31  2  0  0  0  0
 38 18  2  0  0  0  0
 39 68  1  0  0  0  0
 39  2  1  0  0  0  0
 39 69  1  0  0  0  0
 42  1  1  0  0  0  0
 43  3  1  0  0  0  0
 45  4  1  0  0  0  0
 47  6  1  0  0  0  0
 48  9  1  0  0  0  0
 49 11  1  0  0  0  0
 51 11  1  0  0  0  0
 54 15  1  0  0  0  0
 55 15  1  0  0  0  0
 56 17  1  0  0  0  0
 57 19  1  0  0  0  0
 60 23  1  0  0  0  0
 62 30  1  0  0  0  0
 64 35  1  0  0  0  0
 65 36  1  0  0  0  0
 66 37  1  0  0  0  0
 67 39  1  0  0  0  0
M  END
