69
-1 1
C        -2.311002   -0.213505   -3.171620
N        -1.508217    0.092547   -4.328345
C        -0.513801   -0.852850   -4.780155
C         0.951052   -0.672804   -4.400536
S         0.756086   -0.503731   -2.010147
C         2.119734   -1.616623   -1.609389
C         1.740443   -2.917790   -0.867473
H         1.111318   -2.644578   -0.003105
N         2.913242   -3.618454   -0.399073
C         3.630394   -3.243563    0.682873
C         4.804494   -4.149393    1.020079
O         3.391689   -2.244493    1.340125
C         0.972984   -3.927679   -1.737211
N        -0.167185   -3.467905   -2.286442
C        -0.913543   -4.271226   -3.218883
O         1.379688   -5.073648   -1.888474
C         1.847913   -1.681376   -4.736836
C         3.179963   -1.608549   -5.276064
N         3.869295   -0.372424   -5.475556
C         3.871342    0.877740   -4.891209
C         3.427149    1.100561   -3.556820
C         3.462285    2.350377   -2.997752
C         4.376113    1.960354   -5.604595
C         4.453160    3.248922   -5.029738
C         3.978591    3.462002   -3.711338
N         4.012263    4.691120   -3.118362
C         4.501701    5.664276   -3.828569
N         4.985677    5.594521   -5.091148
C         4.969519    4.425011   -5.687057
N         5.453789    4.294961   -6.969674
C         5.997212    5.227331   -7.848182
C         6.160820    6.589186   -7.545887
C         6.717149    7.427326   -8.507208
Br         6.932331    9.268408   -8.082522
C         7.121030    6.976561   -9.760256
C         6.952953    5.622186  -10.047529
C         6.401294    4.758196   -9.112048
O         3.769697   -2.584542   -5.730868
C        -1.156944    1.480585   -4.460873
H        -1.847171    0.053712   -2.201770
H        -2.526442   -1.292866   -3.142873
H        -3.280876    0.313124   -3.243725
H        -0.501710   -0.819683   -5.889768
H        -0.841884   -1.869765   -4.520398
H         1.288337    0.360926   -4.514232
H         2.844046   -1.093976   -0.969421
H         2.622605   -1.895715   -2.560278
H         3.051505   -4.522388   -0.843201
H         4.788365   -5.108247    0.483631
H         4.807209   -4.330603    2.103305
H         5.735970   -3.620045    0.770479
H        -0.291178   -2.444647   -2.258410
H        -0.961076   -5.308896   -2.860613
H        -0.452045   -4.286168   -4.222340
H        -1.934783   -3.874820   -3.309687
H         1.483964   -2.714214   -4.746419
H         4.598576   -0.532728   -6.160946
H         3.043408    0.266814   -2.973855
H         3.102339    2.510018   -1.980336
H         4.696252    1.773777   -6.633502
H         4.535856    6.660034   -3.371052
H         5.410375    3.356983   -7.339452
H         5.849659    6.953757   -6.569758
H         7.553459    7.660898  -10.490382
H         7.258924    5.234916  -11.021761
H         6.277941    3.700232   -9.358820
H        -0.702683    1.663272   -5.449090
H        -2.063069    2.106819   -4.392424
H        -0.442000    1.840665   -3.689865
