-1 1
 OpenBabel05232413483D

 69 70  0  0  1  0  0  0  0  0999 V2000
   -2.5255   -0.9766    0.4912 C   0  0  0  0  0  0  0  0  0  0  0  0
   -2.5399   -1.5767   -0.8299 N   0  0  0  0  0  0  0  0  0  0  0  0
   -1.9131   -2.8896   -0.8826 C   0  0  0  0  0  0  0  0  0  0  0  0
   -0.4676   -2.8866   -0.4517 C   0  0  0  0  0  0  0  0  0  0  0  0
   -2.7083   -1.6251    4.3510 S   0  0  0  0  0  1  0  0  0  0  0  0
   -1.7050   -2.9779    3.6441 C   0  0  0  0  0  0  0  0  0  0  0  0
   -2.4281   -4.3327    3.4580 C   0  0  2  0  0  0  0  0  0  0  0  0
   -2.9410   -4.5652    4.4081 H   0  0  0  0  0  0  0  0  0  0  0  0
   -1.5238   -5.4038    3.0904 N   0  0  0  0  0  0  0  0  0  0  0  0
   -0.4919   -5.8785    3.8302 C   0  0  0  0  0  0  0  0  0  0  0  0
    0.3307   -6.9440    3.1238 C   0  0  0  0  0  0  0  0  0  0  0  0
   -0.2025   -5.4682    4.9408 O   0  0  0  0  0  0  0  0  0  0  0  0
   -3.4663   -4.2883    2.3248 C   0  0  0  0  0  0  0  0  0  0  0  0
   -4.3964   -3.3318    2.4274 N   0  0  0  0  0  0  0  0  0  0  0  0
   -5.3354   -3.0962    1.3602 C   0  0  0  0  0  0  0  0  0  0  0  0
   -3.4097   -5.0786    1.3772 O   0  0  0  0  0  0  0  0  0  0  0  0
    0.0278   -3.6392    0.5332 C   0  0  0  0  0  0  0  0  0  0  0  0
    1.4454   -3.6232    0.9909 C   0  0  0  0  0  0  0  0  0  0  0  0
    2.0484   -2.3928    1.1760 N   0  0  0  0  0  0  0  0  0  0  0  0
    1.3849   -1.1531    1.4210 C   0  0  0  0  0  0  0  0  0  0  0  0
    0.7441   -0.9134    2.6597 C   0  0  0  0  0  0  0  0  0  0  0  0
    0.1030    0.2788    2.9030 C   0  0  0  0  0  0  0  0  0  0  0  0
    1.3683   -0.1830    0.4425 C   0  0  0  0  0  0  0  0  0  0  0  0
    0.7004    1.0432    0.6588 C   0  0  0  0  0  0  0  0  0  0  0  0
    0.0860    1.2924    1.9129 C   0  0  0  0  0  0  0  0  0  0  0  0
   -0.5360    2.4795    2.1780 N   0  0  0  0  0  0  0  0  0  0  0  0
   -0.5567    3.3521    1.2160 C   0  0  0  0  0  0  0  0  0  0  0  0
   -0.0629    3.2114   -0.0385 N   0  0  0  0  0  0  0  0  0  0  0  0
    0.5387    2.0825   -0.3287 C   0  0  0  0  0  0  0  0  0  0  0  0
    1.0099    1.8527   -1.5987 N   0  0  0  0  0  0  0  0  0  0  0  0
    0.9671    2.6346   -2.7527 C   0  0  0  0  0  0  0  0  0  0  0  0
    0.4903    3.9539   -2.7888 C   0  0  0  0  0  0  0  0  0  0  0  0
    0.5091    4.6397   -3.9998 C   0  0  0  0  0  0  0  0  0  0  0  0
   -0.1376    6.4264   -4.0346 Br  0  0  0  0  0  0  0  0  0  0  0  0
    0.9794    4.0722   -5.1801 C   0  0  0  0  0  0  0  0  0  0  0  0
    1.4479    2.7597   -5.1297 C   0  0  0  0  0  0  0  0  0  0  0  0
    1.4438    2.0478   -3.9384 C   0  0  0  0  0  0  0  0  0  0  0  0
    2.0726   -4.6478    1.1856 O   0  0  0  0  0  0  0  0  0  0  0  0
   -2.0972   -0.6626   -1.8512 C   0  0  0  0  0  0  0  0  0  0  0  0
   -1.5178   -0.6506    0.8131 H   0  0  0  0  0  0  0  0  0  0  0  0
   -2.8895   -1.6778    1.2526 H   0  0  0  0  0  0  0  0  0  0  0  0
   -3.1840   -0.0950    0.5116 H   0  0  0  0  0  0  0  0  0  0  0  0
   -1.9890   -3.2593   -1.9206 H   0  0  0  0  0  0  0  0  0  0  0  0
   -2.4815   -3.5923   -0.2516 H   0  0  0  0  0  0  0  0  0  0  0  0
    0.1919   -2.1777   -0.9641 H   0  0  0  0  0  0  0  0  0  0  0  0
   -0.8549   -3.1909    4.3079 H   0  0  0  0  0  0  0  0  0  0  0  0
   -1.2963   -2.6838    2.6605 H   0  0  0  0  0  0  0  0  0  0  0  0
   -1.7941   -5.8632    2.2232 H   0  0  0  0  0  0  0  0  0  0  0  0
   -0.2953   -7.6357    2.5402 H   0  0  0  0  0  0  0  0  0  0  0  0
    0.9045   -7.5032    3.8728 H   0  0  0  0  0  0  0  0  0  0  0  0
    1.0302   -6.4457    2.4328 H   0  0  0  0  0  0  0  0  0  0  0  0
   -4.1937   -2.5906    3.1375 H   0  0  0  0  0  0  0  0  0  0  0  0
   -5.8280   -4.0356    1.0687 H   0  0  0  0  0  0  0  0  0  0  0  0
   -4.8497   -2.6800    0.4588 H   0  0  0  0  0  0  0  0  0  0  0  0
   -6.0965   -2.3839    1.7065 H   0  0  0  0  0  0  0  0  0  0  0  0
   -0.6020   -4.3698    1.0479 H   0  0  0  0  0  0  0  0  0  0  0  0
    2.9861   -2.4887    1.5556 H   0  0  0  0  0  0  0  0  0  0  0  0
    0.7380   -1.6979    3.4173 H   0  0  0  0  0  0  0  0  0  0  0  0
   -0.4368    0.4418    3.8367 H   0  0  0  0  0  0  0  0  0  0  0  0
    1.8752   -0.4150   -0.4972 H   0  0  0  0  0  0  0  0  0  0  0  0
   -1.0361    4.3169    1.4192 H   0  0  0  0  0  0  0  0  0  0  0  0
    1.3859    0.9275   -1.7454 H   0  0  0  0  0  0  0  0  0  0  0  0
    0.1105    4.4056   -1.8756 H   0  0  0  0  0  0  0  0  0  0  0  0
    0.9784    4.6369   -6.1126 H   0  0  0  0  0  0  0  0  0  0  0  0
    1.8210    2.2841   -6.0391 H   0  0  0  0  0  0  0  0  0  0  0  0
    1.8118    1.0184   -3.9210 H   0  0  0  0  0  0  0  0  0  0  0  0
   -2.1783   -1.1277   -2.8469 H   0  0  0  0  0  0  0  0  0  0  0  0
   -2.7310    0.2383   -1.8470 H   0  0  0  0  0  0  0  0  0  0  0  0
   -1.0463   -0.3084   -1.7260 H   0  0  0  0  0  0  0  0  0  0  0  0
  1 42  1  0  0  0  0
  1 40  1  0  0  0  0
  1 41  1  0  0  0  0
  2  1  1  0  0  0  0
  3  2  1  0  0  0  0
  3  4  1  0  0  0  0
  3 44  1  0  0  0  0
  4 17  2  0  0  0  0
  6 46  1  0  0  0  0
  6  5  1  0  0  0  0
  7  6  1  0  0  0  0
  7  8  1  1  0  0  0
  9  7  1  0  0  0  0
  9 10  1  0  0  0  0
 10 12  2  0  0  0  0
 11 10  1  0  0  0  0
 11 50  1  0  0  0  0
 13 14  1  0  0  0  0
 13  7  1  0  0  0  0
 14 52  1  0  0  0  0
 15 55  1  0  0  0  0
 15 14  1  0  0  0  0
 16 13  2  0  0  0  0
 17 18  1  0  0  0  0
 17 56  1  0  0  0  0
 18 19  1  0  0  0  0
 18 38  2  0  0  0  0
 19 20  1  0  0  0  0
 19 57  1  0  0  0  0
 20 21  1  0  0  0  0
 21 22  2  0  0  0  0
 21 58  1  0  0  0  0
 22 59  1  0  0  0  0
 23 24  1  0  0  0  0
 23 20  2  0  0  0  0
 24 25  2  0  0  0  0
 25 26  1  0  0  0  0
 25 22  1  0  0  0  0
 27 61  1  0  0  0  0
 27 26  2  0  0  0  0
 28 27  1  0  0  0  0
 29 28  2  0  0  0  0
 29 24  1  0  0  0  0
 30 29  1  0  0  0  0
 31 30  1  0  0  0  0
 32 31  1  0  0  0  0
 32 63  1  0  0  0  0
 33 32  2  0  0  0  0
 34 33  1  0  0  0  0
 35 36  2  0  0  0  0
 35 33  1  0  0  0  0
 36 37  1  0  0  0  0
 37 66  1  0  0  0  0
 37 31  2  0  0  0  0
 39 68  1  0  0  0  0
 39 69  1  0  0  0  0
 39  2  1  0  0  0  0
 43  3  1  0  0  0  0
 45  4  1  0  0  0  0
 47  6  1  0  0  0  0
 48  9  1  0  0  0  0
 49 11  1  0  0  0  0
 51 11  1  0  0  0  0
 53 15  1  0  0  0  0
 54 15  1  0  0  0  0
 60 23  1  0  0  0  0
 62 30  1  0  0  0  0
 64 35  1  0  0  0  0
 65 36  1  0  0  0  0
 67 39  1  0  0  0  0
M  END
