-1 1
 OpenBabel05192410563D

 75 78  0  0  1  0  0  0  0  0999 V2000
    0.8658   -3.4023    2.2639 O   0  0  0  0  0  0  0  0  0  0  0  0
    0.8299   -2.5521    1.3708 C   0  0  0  0  0  0  0  0  0  0  0  0
    1.8551   -1.5213    1.4643 N   0  0  0  0  0  0  0  0  0  0  0  0
    1.6947   -0.1612    1.4809 C   0  0  0  0  0  0  0  0  0  0  0  0
    0.4622    0.4599    1.3624 C   0  0  0  0  0  0  0  0  0  0  0  0
    2.8762    0.6654    1.6487 C   0  0  0  0  0  0  0  0  0  0  0  0
    4.1142    0.0086    1.7165 N   0  0  0  0  0  0  0  0  0  0  0  0
    4.5356   -0.7664    0.5416 C   0  0  0  0  0  0  0  0  0  0  0  0
    5.3631    0.0978   -0.4116 C   0  0  0  0  0  0  0  0  0  0  0  0
    6.5181    0.7217    0.2232 N   0  0  0  0  0  0  0  0  0  0  0  0
    6.0998    1.4816    1.3908 C   0  0  0  0  0  0  0  0  0  0  0  0
    5.2406    0.6589    2.3649 C   0  0  0  0  0  0  0  0  0  0  0  0
    7.6274   -0.1731    0.4561 C   0  0  0  0  0  0  0  0  0  0  0  0
    2.7252    2.0299    1.8065 C   0  0  0  0  0  0  0  0  0  0  0  0
    1.4602    2.6609    1.7266 C   0  0  0  0  0  0  0  0  0  0  0  0
    0.3267    1.8605    1.4598 C   0  0  0  0  0  0  0  0  0  0  0  0
   -0.9121    2.5750    1.3185 C   0  0  2  0  0  3  0  0  0  0  0  0
   -2.0362    1.8477    1.0022 N   0  0  0  0  0  0  0  0  0  0  0  0
   -3.3589    2.2294    0.8161 C   0  0  0  0  0  0  0  0  0  0  0  0
   -3.8205    3.5498    0.9477 C   0  0  0  0  0  0  0  0  0  0  0  0
   -5.1712    3.8098    0.7392 C   0  0  0  0  0  0  0  0  0  0  0  0
   -5.7829    5.6042    0.9206 Br  0  0  0  0  0  0  0  0  0  0  0  0
   -6.0898    2.8202    0.4042 C   0  0  0  0  0  0  0  0  0  0  0  0
   -5.6165    1.5136    0.2764 C   0  0  0  0  0  0  0  0  0  0  0  0
   -4.2764    1.2164    0.4779 C   0  0  0  0  0  0  0  0  0  0  0  0
   -0.9763    3.8808    1.4746 N   0  0  0  0  0  0  0  0  0  0  0  0
    0.1773    4.5295    1.7519 C   0  0  0  0  0  0  0  0  0  0  0  0
    1.3689    4.0160    1.8747 N   0  0  0  0  0  2  0  0  0  0  0  0
   -0.0286   -2.4970    0.2530 C   0  0  0  0  0  3  0  0  0  0  0  0
    0.2291   -1.7455   -0.9691 C   0  0  0  0  0  0  0  0  0  0  0  0
    1.7685   -2.3418   -2.0413 S   0  0  0  0  0  0  0  0  0  0  0  0
    1.5537   -4.1278   -1.8621 C   0  0  0  0  0  0  0  0  0  0  0  0
    0.5731   -4.7767   -2.8628 C   0  0  2  0  0  0  0  0  0  0  0  0
   -0.3272   -4.1432   -2.9090 H   0  0  0  0  0  0  0  0  0  0  0  0
    0.1642   -6.0896   -2.4328 N   0  0  0  0  0  0  0  0  0  0  0  0
   -0.9955   -6.3013   -1.7555 C   0  0  0  0  0  0  0  0  0  0  0  0
   -1.2825   -7.7532   -1.4185 C   0  0  0  0  0  0  0  0  0  0  0  0
   -1.7374   -5.4037   -1.4049 O   0  0  0  0  0  0  0  0  0  0  0  0
    1.1803   -4.9236   -4.2644 C   0  0  0  0  0  0  0  0  0  0  0  0
    1.4495   -3.7572   -4.8911 N   0  0  0  0  0  0  0  0  0  0  0  0
    2.1338   -3.7005   -6.1568 C   0  0  0  0  0  0  0  0  0  0  0  0
    1.4039   -6.0249   -4.7485 O   0  0  0  0  0  0  0  0  0  0  0  0
    2.6357   -1.8400    2.0312 H   0  0  0  0  0  0  0  0  0  0  0  0
   -0.3935   -0.2102    1.2468 H   0  0  0  0  0  0  0  0  0  0  0  0
    3.6595   -1.1772    0.0224 H   0  0  0  0  0  0  0  0  0  0  0  0
    5.1310   -1.6293    0.8904 H   0  0  0  0  0  0  0  0  0  0  0  0
    4.7150    0.8980   -0.8110 H   0  0  0  0  0  0  0  0  0  0  0  0
    5.6988   -0.5040   -1.2711 H   0  0  0  0  0  0  0  0  0  0  0  0
    5.5235    2.3540    1.0396 H   0  0  0  0  0  0  0  0  0  0  0  0
    6.9906    1.8717    1.9103 H   0  0  0  0  0  0  0  0  0  0  0  0
    4.8763    1.2829    3.1937 H   0  0  0  0  0  0  0  0  0  0  0  0
    5.8664   -0.1335    2.8151 H   0  0  0  0  0  0  0  0  0  0  0  0
    7.9302   -0.6387   -0.4951 H   0  0  0  0  0  0  0  0  0  0  0  0
    7.4348   -0.9973    1.1769 H   0  0  0  0  0  0  0  0  0  0  0  0
    8.4905    0.3978    0.8353 H   0  0  0  0  0  0  0  0  0  0  0  0
    3.5815    2.6861    1.9578 H   0  0  0  0  0  0  0  0  0  0  0  0
   -1.8629    0.8619    0.8558 H   0  0  0  0  0  0  0  0  0  0  0  0
   -3.1114    4.3333    1.2049 H   0  0  0  0  0  0  0  0  0  0  0  0
   -7.1417    3.0598    0.2474 H   0  0  0  0  0  0  0  0  0  0  0  0
   -6.3096    0.7113    0.0145 H   0  0  0  0  0  0  0  0  0  0  0  0
   -3.9252    0.1862    0.3747 H   0  0  0  0  0  0  0  0  0  0  0  0
    0.0811    5.6149    1.8780 H   0  0  0  0  0  0  0  0  0  0  0  0
   -0.7538   -3.3124    0.1968 H   0  0  0  0  0  0  0  0  0  0  0  0
    0.5156   -0.6882   -0.8599 H   0  0  0  0  0  0  0  0  0  0  0  0
   -0.6147   -1.8030   -1.6694 H   0  0  0  0  0  0  0  0  0  0  0  0
    1.1541   -4.2769   -0.8441 H   0  0  0  0  0  0  0  0  0  0  0  0
    2.5393   -4.6142   -1.9188 H   0  0  0  0  0  0  0  0  0  0  0  0
    0.6354   -6.8560   -2.9018 H   0  0  0  0  0  0  0  0  0  0  0  0
   -0.7415   -8.4635   -2.0597 H   0  0  0  0  0  0  0  0  0  0  0  0
   -2.3632   -7.9266   -1.4977 H   0  0  0  0  0  0  0  0  0  0  0  0
   -0.9893   -7.9300   -0.3728 H   0  0  0  0  0  0  0  0  0  0  0  0
    1.3810   -2.9129   -4.3175 H   0  0  0  0  0  0  0  0  0  0  0  0
    2.1455   -4.7102   -6.5864 H   0  0  0  0  0  0  0  0  0  0  0  0
    3.1754   -3.3559   -6.0439 H   0  0  0  0  0  0  0  0  0  0  0  0
    1.6171   -3.0207   -6.8519 H   0  0  0  0  0  0  0  0  0  0  0  0
  2  3  1  0  0  0  0
  2  1  2  0  0  0  0
  3  4  1  0  0  0  0
  3 43  1  0  0  0  0
  4  6  1  0  0  0  0
  5 16  1  0  0  0  0
  5  4  2  0  0  0  0
  6  7  1  0  0  0  0
  6 14  2  0  0  0  0
  7 12  1  0  0  0  0
  8 46  1  0  0  0  0
  8  7  1  0  0  0  0
  9 10  1  0  0  0  0
  9  8  1  0  0  0  0
 10 13  1  0  0  0  0
 10 11  1  0  0  0  0
 11 50  1  0  0  0  0
 11 12  1  0  0  0  0
 12 52  1  0  0  0  0
 12 51  1  0  0  0  0
 13 55  1  0  0  0  0
 13 54  1  0  0  0  0
 14 56  1  0  0  0  0
 15 14  1  0  0  0  0
 15 28  1  0  0  0  0
 16 15  2  0  0  0  0
 17 18  1  6  0  0  0
 17 16  1  0  0  0  0
 17 26  1  0  0  0  0
 19 20  1  0  0  0  0
 19 18  1  0  0  0  0
 20 58  1  0  0  0  0
 21 22  1  0  0  0  0
 21 20  2  0  0  0  0
 23 21  1  0  0  0  0
 24 23  2  0  0  0  0
 24 25  1  0  0  0  0
 25 19  2  0  0  0  0
 26 27  2  0  0  0  0
 27 28  1  0  0  0  0
 27 62  1  0  0  0  0
 29  2  1  0  0  0  0
 30 64  1  0  0  0  0
 30 29  1  0  0  0  0
 31 32  1  0  0  0  0
 31 30  1  0  0  0  0
 32 66  1  0  0  0  0
 33 34  1  6  0  0  0
 33 35  1  0  0  0  0
 33 32  1  0  0  0  0
 35 36  1  0  0  0  0
 36 37  1  0  0  0  0
 36 38  2  0  0  0  0
 37 71  1  0  0  0  0
 39 33  1  0  0  0  0
 40 72  1  0  0  0  0
 40 39  1  0  0  0  0
 41 74  1  0  0  0  0
 41 40  1  0  0  0  0
 42 39  2  0  0  0  0
 44  5  1  0  0  0  0
 45  8  1  0  0  0  0
 47  9  1  0  0  0  0
 48  9  1  0  0  0  0
 49 11  1  0  0  0  0
 53 13  1  0  0  0  0
 57 18  1  0  0  0  0
 59 23  1  0  0  0  0
 60 24  1  0  0  0  0
 61 25  1  0  0  0  0
 63 29  1  0  0  0  0
 65 30  1  0  0  0  0
 67 32  1  0  0  0  0
 68 35  1  0  0  0  0
 69 37  1  0  0  0  0
 70 37  1  0  0  0  0
 73 41  1  0  0  0  0
 75 41  1  0  0  0  0
M  END
