75
-1 1
O         3.182848   -1.830513    0.227722
C         2.353670   -1.077530   -0.232991
N         1.049984   -1.575904   -0.534658
C        -0.122589   -1.185071    0.063924
C        -0.204378   -0.114235    0.941720
C        -1.329808   -1.921734   -0.233396
N        -1.229129   -3.016940   -1.108562
C        -2.381591   -3.310725   -1.941677
C        -1.936887   -4.216337   -3.087072
N        -1.291458   -5.443487   -2.643641
C        -0.214788   -5.156031   -1.704365
C        -0.639677   -4.237324   -0.557560
C        -2.206924   -6.471987   -2.204592
C        -2.531335   -1.508708    0.297209
C        -2.626794   -0.390928    1.159967
C        -1.440115    0.305342    1.482801
C        -1.617407    1.429894    2.361082
N        -0.513659    2.185449    2.688750
C        -0.399471    3.290102    3.514882
C         0.880979    3.862267    3.635847
F         1.880689    3.302090    2.944091
C         1.138077    4.960381    4.427902
C         0.094356    5.541820    5.150541
Cl         0.431641    6.925765    6.147714
C        -1.185568    4.996310    5.050605
Cl        -2.518859    5.686324    5.931710
C        -1.434559    3.885679    4.243711
N        -2.797109    1.747510    2.846161
C        -3.852437    0.987661    2.474645
N        -3.841506   -0.035960    1.669989
C         2.637759    0.321006   -0.570892
C         1.866044    1.068120   -1.384905
S         1.936386    0.706178   -4.376909
C         0.926276   -0.818966   -4.347394
C         1.720371   -2.106617   -4.665881
H         2.292103   -1.909788   -5.587047
N         0.880796   -3.266818   -4.877657
C         0.316469   -3.585245   -6.069552
C        -0.364366   -4.945958   -6.108693
O         0.342901   -2.856625   -7.044566
C         2.687150   -2.477152   -3.536226
N         3.739619   -1.658422   -3.419516
C         4.779539   -1.832778   -2.438648
O         2.482576   -3.461177   -2.817043
H         1.056790   -2.440624   -1.068628
H         0.715207    0.424438    1.165630
H        -2.775364   -2.368496   -2.349587
H        -3.198851   -3.790504   -1.359068
H        -1.221061   -3.644511   -3.695796
H        -2.794691   -4.470318   -3.729091
H         0.617848   -4.665416   -2.233587
H         0.174370   -6.103482   -1.301199
H         0.236268   -3.986641    0.058585
H        -1.369685   -4.740692    0.113416
H        -2.924919   -6.694822   -3.009391
H        -2.795049   -6.223246   -1.294803
H        -1.649188   -7.397389   -1.991871
H        -3.454358   -2.044780    0.077617
H         0.349866    1.918879    2.235204
H         2.150464    5.359766    4.480102
H        -2.434137    3.465000    4.162761
H        -4.816258    1.284721    2.904330
H         3.607351    0.679825   -0.215949
H         2.144957    2.084997   -1.660284
H         0.898762    0.720388   -1.747547
H         0.429444   -0.961387   -3.368861
H         0.136697   -0.753910   -5.110498
H         0.967665   -3.975856   -4.156423
H        -0.439007   -5.435365   -5.126198
H         0.195359   -5.593739   -6.799879
H        -1.371674   -4.814741   -6.528382
H         3.608639   -0.739480   -3.880656
H         5.751575   -2.013807   -2.927762
H         4.531308   -2.685880   -1.796272
H         4.869447   -0.941215   -1.801654
