-1 1
 OpenBabel05192410563D

 75 78  0  0  1  0  0  0  0  0999 V2000
    3.0753   -1.7826    0.3283 O   0  0  0  0  0  0  0  0  0  0  0  0
    2.3255   -1.0322   -0.3159 C   0  0  0  0  0  0  0  0  0  0  0  0
    0.9762   -1.5732   -0.5852 N   0  0  0  0  0  0  0  0  0  0  0  0
   -0.1539   -1.2379    0.0896 C   0  0  0  0  0  0  0  0  0  0  0  0
   -0.2331   -0.1149    0.9081 C   0  0  0  0  0  0  0  0  0  0  0  0
   -1.3547   -2.0222   -0.1140 C   0  0  0  0  0  0  0  0  0  0  0  0
   -1.2728   -3.1017   -1.0138 N   0  0  0  0  0  0  0  0  0  0  0  0
   -2.4219   -3.3922   -1.8459 C   0  0  0  0  0  0  0  0  0  0  0  0
   -1.9389   -4.1652   -3.0728 C   0  0  0  0  0  0  0  0  0  0  0  0
   -1.2092   -5.3825   -2.7483 N   0  0  0  0  0  0  0  0  0  0  0  0
   -0.1380   -5.1116   -1.7946 C   0  0  0  0  0  0  0  0  0  0  0  0
   -0.5993   -4.3172   -0.5703 C   0  0  0  0  0  0  0  0  0  0  0  0
   -2.0529   -6.5005   -2.3895 C   0  0  0  0  0  0  0  0  0  0  0  0
   -2.5355   -1.6459    0.4825 C   0  0  0  0  0  0  0  0  0  0  0  0
   -2.6213   -0.5013    1.3138 C   0  0  0  0  0  0  0  0  0  0  0  0
   -1.4458    0.2605    1.5225 C   0  0  0  0  0  0  0  0  0  0  0  0
   -1.6173    1.4081    2.3716 C   0  0  1  0  0  3  0  0  0  0  0  0
   -0.5194    2.2079    2.6116 N   0  0  0  0  0  0  0  0  0  0  0  0
   -0.4042    3.3595    3.3659 C   0  0  0  0  0  0  0  0  0  0  0  0
    0.8639    3.9716    3.4074 C   0  0  0  0  0  0  0  0  0  0  0  0
    1.8550    3.3976    2.7180 F   0  0  0  0  0  0  0  0  0  0  0  0
    1.1158    5.1231    4.1218 C   0  0  0  0  0  0  0  0  0  0  0  0
    0.0808    5.7235    4.8416 C   0  0  0  0  0  0  0  0  0  0  0  0
    0.4131    7.1773    5.7386 Cl  0  0  0  0  0  0  0  0  0  0  0  0
   -1.1858    5.1405    4.8190 C   0  0  0  0  0  0  0  0  0  0  0  0
   -2.5095    5.8518    5.7006 Cl  0  0  0  0  0  0  0  0  0  0  0  0
   -1.4303    3.9748    4.0929 C   0  0  0  0  0  0  0  0  0  0  0  0
   -2.7776    1.7054    2.9129 N   0  0  0  0  0  0  0  0  0  0  0  0
   -3.8225    0.8906    2.6394 C   0  0  0  0  0  0  0  0  0  0  0  0
   -3.8151   -0.1715    1.8857 N   0  0  0  0  0  2  0  0  0  0  0  0
    2.5763    0.2206   -0.8599 C   0  0  0  0  0  3  0  0  0  0  0  0
    1.6760    0.9568   -1.7668 C   0  0  0  0  0  0  0  0  0  0  0  0
    1.8201    0.6587   -3.6427 S   0  0  0  0  0  0  0  0  0  0  0  0
    0.9413   -0.9254   -3.8693 C   0  0  0  0  0  0  0  0  0  0  0  0
    1.7878   -2.0620   -4.4813 C   0  0  2  0  0  0  0  0  0  0  0  0
    2.3038   -1.6629   -5.3714 H   0  0  0  0  0  0  0  0  0  0  0  0
    0.9515   -3.1702   -4.8760 N   0  0  0  0  0  0  0  0  0  0  0  0
    0.1961   -3.1916   -6.0008 C   0  0  0  0  0  0  0  0  0  0  0  0
   -0.4964   -4.5181   -6.2651 C   0  0  0  0  0  0  0  0  0  0  0  0
    0.0812   -2.2348   -6.7474 O   0  0  0  0  0  0  0  0  0  0  0  0
    2.8390   -2.6555   -3.5216 C   0  0  0  0  0  0  0  0  0  0  0  0
    3.8456   -1.8421   -3.1813 N   0  0  0  0  0  0  0  0  0  0  0  0
    4.8570   -2.2345   -2.2200 C   0  0  0  0  0  0  0  0  0  0  0  0
    2.7439   -3.8227   -3.1470 O   0  0  0  0  0  0  0  0  0  0  0  0
    1.0077   -2.5075   -0.9699 H   0  0  0  0  0  0  0  0  0  0  0  0
    0.6837    0.4708    1.0068 H   0  0  0  0  0  0  0  0  0  0  0  0
   -2.8812   -2.4452   -2.1650 H   0  0  0  0  0  0  0  0  0  0  0  0
   -3.2005   -3.9694   -1.2988 H   0  0  0  0  0  0  0  0  0  0  0  0
   -1.2622   -3.4999   -3.6314 H   0  0  0  0  0  0  0  0  0  0  0  0
   -2.7860   -4.4166   -3.7308 H   0  0  0  0  0  0  0  0  0  0  0  0
    0.6578   -4.5392   -2.2970 H   0  0  0  0  0  0  0  0  0  0  0  0
    0.3124   -6.0653   -1.4802 H   0  0  0  0  0  0  0  0  0  0  0  0
    0.2679   -4.0607    0.0564 H   0  0  0  0  0  0  0  0  0  0  0  0
   -1.2810   -4.9230    0.0663 H   0  0  0  0  0  0  0  0  0  0  0  0
   -2.7730   -6.6948   -3.1999 H   0  0  0  0  0  0  0  0  0  0  0  0
   -2.6353   -6.3691   -1.4524 H   0  0  0  0  0  0  0  0  0  0  0  0
   -1.4363   -7.4048   -2.2687 H   0  0  0  0  0  0  0  0  0  0  0  0
   -3.4498   -2.2204    0.3286 H   0  0  0  0  0  0  0  0  0  0  0  0
    0.3380    1.9152    2.1604 H   0  0  0  0  0  0  0  0  0  0  0  0
    2.1185    5.5494    4.1146 H   0  0  0  0  0  0  0  0  0  0  0  0
   -2.4187    3.5212    4.0753 H   0  0  0  0  0  0  0  0  0  0  0  0
   -4.7712    1.1724    3.1113 H   0  0  0  0  0  0  0  0  0  0  0  0
    3.5791    0.6230   -0.6884 H   0  0  0  0  0  0  0  0  0  0  0  0
    1.8544    2.0425   -1.7329 H   0  0  0  0  0  0  0  0  0  0  0  0
    0.6066    0.8001   -1.5631 H   0  0  0  0  0  0  0  0  0  0  0  0
    0.5394   -1.2413   -2.8964 H   0  0  0  0  0  0  0  0  0  0  0  0
    0.1054   -0.7488   -4.5590 H   0  0  0  0  0  0  0  0  0  0  0  0
    1.1341   -4.0238   -4.3524 H   0  0  0  0  0  0  0  0  0  0  0  0
   -0.5658   -5.1493   -5.3664 H   0  0  0  0  0  0  0  0  0  0  0  0
    0.0608   -5.0590   -7.0453 H   0  0  0  0  0  0  0  0  0  0  0  0
   -1.5018   -4.3129   -6.6559 H   0  0  0  0  0  0  0  0  0  0  0  0
    3.6900   -0.8464   -3.3449 H   0  0  0  0  0  0  0  0  0  0  0  0
    5.7602   -1.6320   -2.3908 H   0  0  0  0  0  0  0  0  0  0  0  0
    5.0985   -3.2943   -2.3762 H   0  0  0  0  0  0  0  0  0  0  0  0
    4.5021   -2.0987   -1.1835 H   0  0  0  0  0  0  0  0  0  0  0  0
  2  1  2  0  0  0  0
  3  2  1  0  0  0  0
  3  4  1  0  0  0  0
  4  5  1  0  0  0  0
  5 46  1  0  0  0  0
  5 16  2  0  0  0  0
  6  4  2  0  0  0  0
  6 14  1  0  0  0  0
  7 12  1  0  0  0  0
  7  6  1  0  0  0  0
  8 48  1  0  0  0  0
  8  7  1  0  0  0  0
  9 10  1  0  0  0  0
  9  8  1  0  0  0  0
 10 13  1  0  0  0  0
 10 11  1  0  0  0  0
 11 52  1  0  0  0  0
 11 12  1  0  0  0  0
 12 53  1  0  0  0  0
 12 54  1  0  0  0  0
 13 57  1  0  0  0  0
 13 56  1  0  0  0  0
 14 15  2  0  0  0  0
 15 16  1  0  0  0  0
 15 30  1  0  0  0  0
 16 17  1  0  0  0  0
 17 18  1  6  0  0  0
 17 28  1  0  0  0  0
 18 19  1  0  0  0  0
 19 20  2  0  0  0  0
 19 27  1  0  0  0  0
 20 22  1  0  0  0  0
 21 20  1  0  0  0  0
 22 23  2  0  0  0  0
 23 24  1  0  0  0  0
 25 23  1  0  0  0  0
 25 26  1  0  0  0  0
 27 25  2  0  0  0  0
 29 28  2  0  0  0  0
 29 62  1  0  0  0  0
 30 29  1  0  0  0  0
 31 63  1  0  0  0  0
 31  2  1  0  0  0  0
 32 64  1  0  0  0  0
 32 65  1  0  0  0  0
 32 31  1  0  0  0  0
 33 32  1  0  0  0  0
 34 33  1  0  0  0  0
 34 66  1  0  0  0  0
 35 36  1  6  0  0  0
 35 34  1  0  0  0  0
 35 41  1  0  0  0  0
 37 35  1  0  0  0  0
 37 68  1  0  0  0  0
 38 37  1  0  0  0  0
 39 38  1  0  0  0  0
 39 69  1  0  0  0  0
 40 38  2  0  0  0  0
 41 42  1  0  0  0  0
 41 44  2  0  0  0  0
 42 43  1  0  0  0  0
 43 75  1  0  0  0  0
 45  3  1  0  0  0  0
 47  8  1  0  0  0  0
 49  9  1  0  0  0  0
 50  9  1  0  0  0  0
 51 11  1  0  0  0  0
 55 13  1  0  0  0  0
 58 14  1  0  0  0  0
 59 18  1  0  0  0  0
 60 22  1  0  0  0  0
 61 27  1  0  0  0  0
 67 34  1  0  0  0  0
 70 39  1  0  0  0  0
 71 39  1  0  0  0  0
 72 42  1  0  0  0  0
 73 43  1  0  0  0  0
 74 43  1  0  0  0  0
M  END
