75
-1 1
O         5.099605  -14.055608   -2.659894
C         4.291692  -13.274589   -3.127376
N         2.964849  -13.756660   -3.389149
C         1.807747  -13.370482   -2.765591
C         1.727776  -12.280392   -1.911936
C         0.605720  -14.128609   -3.031906
N         0.708619  -15.216454   -3.916053
C        -0.428944  -15.503228   -4.770254
C         0.052415  -16.352741   -5.944702
N         0.723733  -17.579811   -5.541095
C         1.786781  -17.300373   -4.584066
C         1.326036  -16.439077   -3.405664
C        -0.168982  -18.645644   -5.146493
C        -0.590886  -13.730480   -2.481535
C        -0.684969  -12.602032   -1.631131
C         0.496436  -11.878514   -1.347308
C         0.317743  -10.744778   -0.481041
N         1.416394   -9.969370   -0.183126
C         1.526375   -8.845568    0.616875
C         2.800771   -8.254561    0.709899
F         3.799619   -8.817817    0.020227
C         3.052463   -7.135066    1.473320
C         2.009452   -6.549597    2.193753
Cl         2.340002   -5.137902    3.154104
C         0.735704   -7.113327    2.121153
Cl        -0.596776   -6.419489    3.000963
C         0.492072   -8.245905    1.343698
N        -0.857359  -10.437731    0.021907
C        -1.907117  -11.220616   -0.315539
N        -1.894451  -12.258962   -1.101149
C         4.592608  -11.909883   -3.508584
C         3.786037  -11.141146   -4.292493
S         3.897860  -11.530429   -6.984326
C         2.921698  -13.076180   -7.027334
C         3.711135  -14.319258   -7.494294
H         4.234891  -14.037349   -8.423265
N         2.860881  -15.460483   -7.757820
C         2.171381  -15.643929   -8.911200
C         1.510921  -17.009070   -9.038752
O         2.080453  -14.801587   -9.786022
C         4.750766  -14.801314   -6.469405
N         5.742636  -13.939049   -6.215916
C         6.846337  -14.260452   -5.343855
O         4.667425  -15.922122   -5.961109
H         2.950717  -14.648789   -3.867794
H         2.644655  -11.718732   -1.733525
H        -0.839354  -14.555045   -5.146661
H        -1.241745  -16.022135   -4.215415
H         0.766410  -15.743283   -6.518835
H        -0.789678  -16.602414   -6.609036
H         2.609491  -16.774618   -5.096420
H         2.199856  -18.251728   -4.215492
H         2.186761  -16.189030   -2.767725
H         0.605102  -16.990532   -2.763575
H        -0.875548  -18.856353   -5.964639
H        -0.769717  -18.444552   -4.233178
H         0.409955  -19.564238   -4.962881
H        -1.509654  -14.282629   -2.679958
H         2.279435  -10.240835   -0.635077
H         4.060239   -6.722073    1.504559
H        -0.502554   -8.681737    1.285014
H        -2.867283  -10.931404    0.127557
H         5.601892  -11.581076   -3.249669
H         4.059434  -10.115600   -4.537637
H         2.755663  -11.423287   -4.506470
H         2.485266  -13.295257   -6.036511
H         2.090968  -12.959309   -7.737991
H         3.054390  -16.255724   -7.153733
H         1.445289  -17.551002   -8.083464
H         2.086234  -17.610835   -9.758961
H         0.504521  -16.868838   -9.456008
H         5.560470  -12.963069   -6.507708
H         7.727357  -13.678757   -5.651505
H         7.074039  -15.331736   -5.433937
H         6.624575  -14.054499   -4.285504
