-1 1
 OpenBabel05232414493D

 59 60  0  0  1  0  0  0  0  0999 V2000
   -0.6342    0.5779   -4.2746 O   0  0  0  0  0  0  0  0  0  0  0  0
    0.2683    0.0203   -4.8882 C   0  0  0  0  0  0  0  0  0  0  0  0
    1.7643    0.3183   -4.6177 C   0  0  2  0  0  0  0  0  0  0  0  0
    1.9507    1.5319   -3.6655 C   0  0  0  0  0  0  0  0  0  0  0  0
    2.6586    3.0417   -4.3979 S   0  0  0  0  0  1  0  0  0  0  0  0
    1.0548    3.8704   -6.1698 C   0  0  0  0  0  3  0  0  0  0  0  0
    0.6695    2.9410   -7.1183 C   0  0  2  0  0  3  0  0  0  0  0  0
   -0.8985    2.1148   -7.2715 S   0  0  0  0  0  0  0  0  0  0  0  0
    1.5892    2.4788   -8.1305 C   0  0  0  0  0  0  0  0  0  0  0  0
    2.7490    2.8187   -8.3133 O   0  0  0  0  0  0  0  0  0  0  0  0
    0.9688    1.4956   -8.9198 N   0  0  0  0  0  0  0  0  0  0  0  0
   -0.3295    1.1461   -8.6458 C   0  0  0  0  0  0  0  0  0  0  0  0
   -0.9871    0.3226   -9.2398 O   0  0  0  0  0  0  0  0  0  0  0  0
    0.1138    4.5443   -5.2510 C   0  0  0  0  0  0  0  0  0  0  0  0
    0.1754    5.9342   -5.1074 C   0  0  0  0  0  0  0  0  0  0  0  0
   -0.7457    6.5979   -4.2994 C   0  0  0  0  0  0  0  0  0  0  0  0
   -1.7189    5.8765   -3.6292 C   0  0  0  0  0  0  0  0  0  0  0  0
   -2.6116    6.5359   -2.8028 O   0  0  0  0  0  0  0  0  0  0  0  0
   -3.9084    6.5828   -3.1270 C   0  0  0  0  0  0  0  0  0  0  0  0
   -4.8036    7.0715   -2.1579 C   0  0  0  0  0  0  0  0  0  0  0  0
   -4.1457    7.5764   -0.4632 Br  0  0  0  0  0  0  0  0  0  0  0  0
   -6.1589    7.1786   -2.4307 C   0  0  0  0  0  0  0  0  0  0  0  0
   -6.6526    6.7959   -3.6858 C   0  0  0  0  0  0  0  0  0  0  0  0
   -8.0565    6.9092   -3.9676 C   0  0  0  0  0  0  0  0  0  0  0  0
   -9.1884    7.0039   -4.1937 N   0  0  0  0  0  0  0  0  0  0  0  0
   -5.7657    6.3072   -4.6555 C   0  0  0  0  0  0  0  0  0  0  0  0
   -4.4117    6.2039   -4.3791 C   0  0  0  0  0  0  0  0  0  0  0  0
   -1.7826    4.4757   -3.7342 C   0  0  0  0  0  0  0  0  0  0  0  0
   -2.7610    3.8742   -3.0342 O   0  0  0  0  0  0  0  0  0  0  0  0
   -2.9369    2.4829   -3.1929 C   0  0  0  0  0  0  0  0  0  0  0  0
   -0.8666    3.8200   -4.5540 C   0  0  0  0  0  0  0  0  0  0  0  0
    2.5527    0.4910   -5.8206 N   0  0  0  0  0  0  0  0  0  0  0  0
    3.0521   -0.5057   -6.5736 C   0  0  0  0  0  0  0  0  0  0  0  0
    4.1064   -0.0957   -7.5776 C   0  0  0  0  0  0  0  0  0  0  0  0
    2.6954   -1.6795   -6.4558 O   0  0  0  0  0  0  0  0  0  0  0  0
    2.1290   -0.5951   -4.1122 H   0  0  0  0  0  0  0  0  0  0  0  0
    0.0556   -0.9454   -5.8013 N   0  0  0  0  0  0  0  0  0  0  0  0
   -1.2626   -1.3574   -6.2123 C   0  0  0  0  0  0  0  0  0  0  0  0
    0.9729    1.7499   -3.2161 H   0  0  0  0  0  0  0  0  0  0  0  0
    2.6229    1.2329   -2.8483 H   0  0  0  0  0  0  0  0  0  0  0  0
    1.9441    4.4362   -6.4497 H   0  0  0  0  0  0  0  0  0  0  0  0
    1.4746    1.0380   -9.6687 H   0  0  0  0  0  0  0  0  0  0  0  0
    0.9467    6.4997   -5.6330 H   0  0  0  0  0  0  0  0  0  0  0  0
   -0.7218    7.6824   -4.1793 H   0  0  0  0  0  0  0  0  0  0  0  0
   -6.8377    7.5580   -1.6662 H   0  0  0  0  0  0  0  0  0  0  0  0
   -6.1430    6.0063   -5.6339 H   0  0  0  0  0  0  0  0  0  0  0  0
   -3.7213    5.8228   -5.1326 H   0  0  0  0  0  0  0  0  0  0  0  0
   -3.1553    2.2265   -4.2429 H   0  0  0  0  0  0  0  0  0  0  0  0
   -3.7914    2.2091   -2.5624 H   0  0  0  0  0  0  0  0  0  0  0  0
   -2.0450    1.9153   -2.8898 H   0  0  0  0  0  0  0  0  0  0  0  0
   -0.8675    2.7285   -4.6046 H   0  0  0  0  0  0  0  0  0  0  0  0
    2.9176    1.4522   -5.9109 H   0  0  0  0  0  0  0  0  0  0  0  0
    4.1050   -0.8186   -8.4031 H   0  0  0  0  0  0  0  0  0  0  0  0
    5.0917   -0.1344   -7.0877 H   0  0  0  0  0  0  0  0  0  0  0  0
    3.9476    0.9262   -7.9524 H   0  0  0  0  0  0  0  0  0  0  0  0
    0.8821   -1.4234   -6.1720 H   0  0  0  0  0  0  0  0  0  0  0  0
   -1.4691   -2.3995   -5.9150 H   0  0  0  0  0  0  0  0  0  0  0  0
   -1.3768   -1.2653   -7.3031 H   0  0  0  0  0  0  0  0  0  0  0  0
   -1.9941   -0.7021   -5.7240 H   0  0  0  0  0  0  0  0  0  0  0  0
  2  3  1  0  0  0  0
  2  1  2  0  0  0  0
  3 36  1  1  0  0  0
  3  4  1  0  0  0  0
  4 39  1  0  0  0  0
  4 40  1  0  0  0  0
  5  4  1  0  0  0  0
  6 14  1  0  0  0  0
  7  6  1  1  0  0  0
  8  7  1  0  0  0  0
  9  7  1  0  0  0  0
 10  9  2  0  0  0  0
 11 12  1  0  0  0  0
 11  9  1  0  0  0  0
 12  8  1  0  0  0  0
 13 12  2  0  0  0  0
 14 15  2  0  0  0  0
 14 31  1  0  0  0  0
 15 16  1  0  0  0  0
 16 44  1  0  0  0  0
 16 17  2  0  0  0  0
 17 18  1  0  0  0  0
 19 18  1  0  0  0  0
 19 20  1  0  0  0  0
 20 21  1  0  0  0  0
 22 20  2  0  0  0  0
 22 45  1  0  0  0  0
 23 22  1  0  0  0  0
 24 23  1  0  0  0  0
 25 24  3  0  0  0  0
 26 27  1  0  0  0  0
 26 23  2  0  0  0  0
 27 19  2  0  0  0  0
 28 17  1  0  0  0  0
 28 29  1  0  0  0  0
 30 29  1  0  0  0  0
 30 50  1  0  0  0  0
 30 49  1  0  0  0  0
 31 28  2  0  0  0  0
 32  3  1  0  0  0  0
 33 35  2  0  0  0  0
 33 32  1  0  0  0  0
 34 54  1  0  0  0  0
 34 33  1  0  0  0  0
 37  2  1  0  0  0  0
 38 57  1  0  0  0  0
 38 37  1  0  0  0  0
 38 59  1  0  0  0  0
 41  6  1  0  0  0  0
 42 11  1  0  0  0  0
 43 15  1  0  0  0  0
 46 26  1  0  0  0  0
 47 27  1  0  0  0  0
 48 30  1  0  0  0  0
 51 31  1  0  0  0  0
 52 32  1  0  0  0  0
 53 34  1  0  0  0  0
 55 34  1  0  0  0  0
 56 37  1  0  0  0  0
 58 38  1  0  0  0  0
M  END
