59
-1 1
O        -0.634196    0.577893   -4.274642
C         0.268348    0.020270   -4.888161
C         1.764294    0.318286   -4.617725
C         1.950698    1.531896   -3.665532
S         2.658569    3.041750   -4.397941
C         1.054818    3.870400   -6.169830
C         0.669525    2.941048   -7.118312
S        -0.898509    2.114788   -7.271485
C         1.589188    2.478779   -8.130457
O         2.748956    2.818676   -8.313326
N         0.968811    1.495639   -8.919834
C        -0.329510    1.146076   -8.645785
O        -0.987067    0.322630   -9.239750
C         0.113803    4.544315   -5.250968
C         0.175353    5.934173   -5.107420
C        -0.745672    6.597901   -4.299435
C        -1.718914    5.876483   -3.629152
O        -2.611565    6.535937   -2.802817
C        -3.908418    6.582831   -3.127001
C        -4.803582    7.071540   -2.157867
Br        -4.145701    7.576424   -0.463200
C        -6.158865    7.178557   -2.430700
C        -6.652595    6.795913   -3.685810
C        -8.056452    6.909167   -3.967570
N        -9.188447    7.003881   -4.193672
C        -5.765655    6.307189   -4.655454
C        -4.411696    6.203936   -4.379054
C        -1.782580    4.475663   -3.734200
O        -2.760971    3.874176   -3.034231
C        -2.936929    2.482895   -3.192899
C        -0.866640    3.819956   -4.553972
N         2.552734    0.491012   -5.820560
C         3.052096   -0.505689   -6.573641
C         4.106352   -0.095708   -7.577600
O         2.695433   -1.679477   -6.455780
H         2.129008   -0.595143   -4.112212
N         0.055594   -0.945386   -5.801328
C        -1.262564   -1.357447   -6.212308
H         0.972891    1.749909   -3.216117
H         2.622906    1.232944   -2.848260
H         1.944092    4.436192   -6.449651
H         1.474646    1.038006   -9.668656
H         0.946734    6.499663   -5.633047
H        -0.721838    7.682403   -4.179327
H        -6.837669    7.557955   -1.666164
H        -6.142960    6.006296   -5.633906
H        -3.721330    5.822786   -5.132554
H        -3.155310    2.226516   -4.242939
H        -3.791364    2.209053   -2.562422
H        -2.044998    1.915331   -2.889765
H        -0.867492    2.728498   -4.604596
H         2.917613    1.452224   -5.910906
H         4.105013   -0.818620   -8.403113
H         5.091708   -0.134382   -7.087678
H         3.947593    0.926164   -7.952366
H         0.882128   -1.423355   -6.171957
H        -1.469057   -2.399452   -5.914995
H        -1.376846   -1.265267   -7.303108
H        -1.994113   -0.702074   -5.724014
