92
-1 1
O         3.065280  -14.982405   10.087305
C         3.991562  -14.498418   10.709546
C         5.240757  -13.952488    9.995462
C         5.172599  -14.186987    8.489878
S         6.338476  -13.116452    7.571397
C         5.117871  -12.128855    6.086360
C         4.016481  -13.156962    5.819303
N         3.423015  -12.970437    4.495536
C         2.385965  -11.964421    4.455071
C         2.971903  -14.211202    3.919492
C         4.735562  -10.772763    6.354496
C         3.786817  -10.407741    7.345693
O         3.053817   -9.414392    7.392550
N         3.797395  -11.320912    8.443305
C         2.926604  -11.267524    9.514480
C         1.539037  -11.582202    9.309901
O         1.192177  -11.814379    8.041561
C         0.087281  -12.645262    7.744507
C         0.416844  -14.107922    7.983848
C         0.700434  -11.710279   10.397023
C         1.157687  -11.498200   11.720154
N         0.270240  -11.703542   12.734293
C         0.692844  -11.537621   13.954742
C         1.999380  -11.095947   14.287817
C         2.355129  -10.877303   15.652918
N         2.689735  -10.699548   16.750277
C         2.931443  -10.836611   13.264433
N         4.172465  -10.352903   13.638899
C         5.066196   -9.514580   12.996801
C         4.947571   -8.824674   11.687259
C         6.072047   -8.837438   10.936172
Cl         6.832536  -10.358170   10.434417
C         7.005203   -7.846472   11.510081
O         7.896937   -7.104097   10.834490
C         7.713436   -7.016795    9.421512
C         6.366699   -6.451715    9.037923
C         6.007456   -5.173921    9.483527
C         4.746181   -4.680294    9.175966
Cl         4.297736   -3.076775    9.738212
C         3.826523   -5.428195    8.441426
C         4.187072   -6.699420    8.003044
C         5.453331   -7.206328    8.298945
C         7.056228   -8.028977   12.871218
C         6.167505   -8.956652   13.599290
C         2.518458  -11.119266   11.930517
C         3.372131  -11.069695   10.800926
N         6.504818  -14.378250   10.570689
C         6.790236  -15.676491   10.870178
C         8.261836  -15.961954   11.108768
O         5.939954  -16.541504   10.946008
H         5.201156  -12.866773   10.173114
N         3.902767  -14.293132   12.052445
C         4.856608  -13.686607   12.945041
H         5.360434  -15.250114    8.279307
H         4.147403  -13.969007    8.172032
H         3.241566  -13.098786    6.609404
H         4.447742  -14.168299    5.845514
H         1.465907  -12.282339    4.999705
H         2.103169  -11.756141    3.409666
H         2.738595  -11.034316    4.918318
H         2.138859  -14.688588    4.490644
H         3.797158  -14.938039    3.864194
H         2.605735  -14.040108    2.893522
H         4.746330  -11.636755    8.643329
H        -0.121375  -12.459603    6.681518
H        -0.806295  -12.326964    8.308223
H         0.741440  -14.290327    9.018670
H         1.241457  -14.421694    7.327600
H        -0.461378  -14.736201    7.770450
H        -0.336929  -12.023126   10.292487
H        -0.014758  -11.729019   14.770132
H         4.340158  -10.410496   14.639362
H         4.593501   -7.793381   11.835421
H         7.855234   -8.006503    8.959398
H         8.527609   -6.361720    9.083054
H         6.701767   -4.577783   10.078844
H         2.836621   -5.021695    8.228990
H         3.489287   -7.351493    7.469542
H         5.705899   -8.217733    7.966582
H         7.859417   -7.541220   13.432005
H         6.404534   -9.175950   14.645571
H         4.436851  -10.926598   10.933517
H         7.281622  -13.762234   10.358806
H         8.351419  -16.852640   11.741970
H         8.784121  -15.115086   11.576422
H         8.743809  -16.171322   10.141349
H         3.037581  -14.644915   12.443296
H         5.324656  -12.799733   12.493112
H         5.658350  -14.378850   13.252397
H         4.325562  -13.349930   13.846485
H         5.146172   -9.970436    5.737151
H         5.858357  -12.196939    5.280550
