92
-1 1
O        -1.323235   -4.049913    0.256248
C        -0.335259   -3.622973    0.821465
C         0.892909   -3.131446    0.032977
C         0.685622   -3.329639   -1.463306
S         1.896008   -2.375342   -2.449029
C         0.857818   -1.494693   -3.775492
C        -0.286162   -2.431642   -4.218786
N        -0.849456   -2.019908   -5.500290
C        -2.030114   -1.195183   -5.388659
C        -1.027224   -3.100773   -6.432377
C         0.427217   -0.082243   -3.544259
C        -0.469372    0.330275   -2.562474
O        -1.278231    1.275266   -2.562306
N        -0.338562   -0.436878   -1.324402
C        -1.234525   -0.421096   -0.294562
C        -2.616573   -0.764452   -0.532786
O        -2.907583   -1.049030   -1.802885
C        -4.076892   -1.770215   -2.131183
C        -3.909113   -3.253403   -1.852306
C        -3.488181   -0.881050    0.527900
C        -3.079153   -0.647282    1.866071
N        -3.996771   -0.821738    2.856088
C        -3.613255   -0.624249    4.086541
C        -2.317433   -0.172003    4.447824
C        -2.005063    0.104071    5.813307
N        -1.704752    0.329635    6.911785
C        -1.354874    0.048034    3.445090
N        -0.121486    0.561755    3.820255
C         0.729960    1.421514    3.147401
C         0.679203    1.900961    1.746409
C         1.849651    1.838456    1.069886
Cl         2.727528    0.279528    0.962600
C         2.689971    2.955416    1.557395
O         3.611555    3.609121    0.831257
C         3.413821    3.592332   -0.582717
C         2.085579    4.183088   -0.990443
C         1.769581    5.490306   -0.599632
C         0.524554    6.011063   -0.926578
Cl         0.129598    7.651586   -0.431402
C        -0.421145    5.262739   -1.626856
C        -0.103056    3.962868   -2.011056
C         1.147138    3.426583   -1.694978
C         2.626347    3.015481    2.927052
C         1.732516    2.154066    3.731843
C        -1.722727   -0.282398    2.112389
C        -0.829258   -0.255482    1.014988
N         2.157993   -3.655040    0.516583
C         2.397360   -4.985197    0.694203
C         3.854730   -5.344818    0.918365
O         1.517185   -5.821618    0.670214
H         0.941201   -2.051874    0.229263
N        -0.310555   -3.459192    2.172212
C         0.696667   -2.838375    2.995349
H         0.742893   -4.400065   -1.704783
H        -0.321888   -2.980595   -1.702585
H        -1.073971   -2.441441   -3.442094
H         0.093300   -3.463331   -4.311085
H        -2.927005   -1.782992   -5.075158
H        -2.263375   -0.733336   -6.362686
H        -1.874382   -0.391939   -4.656169
H        -1.801735   -3.842264   -6.117801
H        -0.082588   -3.647066   -6.579885
H        -1.337910   -2.704996   -7.413849
H         0.636647   -0.507779   -1.050155
H        -4.222149   -1.587032   -3.204657
H        -4.953405   -1.348870   -1.610374
H        -3.642566   -3.442762   -0.802673
H        -3.096501   -3.664201   -2.468798
H        -4.838444   -3.793230   -2.090215
H        -4.517283   -1.208766    0.393364
H        -4.347329   -0.792387    4.883214
H         0.022968    0.575371    4.825846
H         0.230370    2.902627    1.677670
H         3.502787    2.562808   -0.964575
H         4.251651    4.180169   -0.982130
H         2.484233    6.087614   -0.030147
H        -1.397890    5.691986   -1.855295
H        -0.819847    3.307465   -2.516201
H         1.366514    2.396713   -1.995543
H         3.338727    3.654453    3.457529
H         1.892084    2.119140    4.814416
H         0.235413   -0.177782    1.194584
H         2.951808   -3.034017    0.422075
H         3.903371   -6.269701    1.505482
H         4.415887   -4.548557    1.427966
H         4.327301   -5.529871   -0.058494
H        -1.173474   -3.752389    2.613499
H         1.150111   -1.969427    2.496533
H         1.506604   -3.531076    3.278953
H         0.220297   -2.466580    3.913249
H         0.492199    0.567748   -4.421121
H         1.581861   -1.499703   -4.604247
