-1 1
 OpenBabel05232413483D

101104  0  0  1  0  0  0  0  0999 V2000
   -4.8237   -1.3844    0.2528 O   0  0  0  0  0  0  0  0  0  0  0  0
   -3.6436   -1.5759    0.0023 C   0  0  0  0  0  0  0  0  0  0  0  0
   -2.6639   -0.4236   -0.2531 C   0  0  2  0  0  0  0  0  0  0  0  0
   -1.7614   -0.2309    0.9875 C   0  0  0  0  0  0  0  0  0  0  0  0
   -0.4526    1.0170    0.7924 S   0  0  0  0  0  1  0  0  0  0  0  0
    1.6051    3.8144    1.5509 C   0  0  0  0  0  0  0  0  0  0  0  0
    0.2236    4.4042    1.5858 C   0  0  0  0  0  0  0  0  0  0  0  0
   -0.1842    4.8734    0.2760 N   0  0  0  0  0  0  0  0  0  0  0  0
    0.1649    6.2487    0.0152 C   0  0  0  0  0  0  0  0  0  0  0  0
   -0.1181    6.6140   -1.4349 C   0  0  0  0  0  0  0  0  0  0  0  0
   -1.4971    6.3399   -1.7773 N   0  0  0  0  0  0  0  0  0  0  0  0
   -1.8272    4.9481   -1.5150 C   0  0  0  0  0  0  0  0  0  0  0  0
   -1.5662    4.5917   -0.0637 C   0  0  0  0  0  0  0  0  0  0  0  0
   -1.8197    6.7365   -3.1217 C   0  0  0  0  0  0  0  0  0  0  0  0
    2.1938    3.0709    2.4972 C   0  0  0  0  0  0  0  0  0  0  0  0
    1.5785    2.8033    3.8212 C   0  0  0  0  0  0  0  0  0  0  0  0
    0.7750    3.5456    4.3552 O   0  0  0  0  0  0  0  0  0  0  0  0
    2.0355    1.6835    4.4930 N   0  0  0  0  0  0  0  0  0  0  0  0
    2.7030    0.5636    3.9660 C   0  0  0  0  0  0  0  0  0  0  0  0
    3.8007    0.0290    4.6953 C   0  0  0  0  0  0  0  0  0  0  0  0
    4.1491    0.6023    5.8827 O   0  0  0  0  0  0  0  0  0  0  0  0
    4.9375    1.7764    5.7686 C   0  0  0  0  0  0  0  0  0  0  0  0
    5.0762    2.3947    7.1407 C   0  0  0  0  0  0  0  0  0  0  0  0
    4.4802   -1.0665    4.2195 C   0  0  0  0  0  0  0  0  0  0  0  0
    4.1212   -1.6731    2.9917 C   0  0  0  0  0  0  0  0  0  0  0  0
    4.8717   -2.7364    2.5706 N   0  0  0  0  0  0  0  0  0  0  0  0
    4.5545   -3.2563    1.4220 C   0  0  0  0  0  0  0  0  0  0  0  0
    3.4778   -2.8360    0.5886 C   0  0  0  0  0  0  0  0  0  0  0  0
    3.3908   -3.4759   -0.6873 C   0  0  0  0  0  0  0  0  0  0  0  0
    3.4069   -4.0323   -1.7054 N   0  0  0  0  0  0  0  0  0  0  0  0
    2.6337   -1.7877    1.0179 C   0  0  0  0  0  0  0  0  0  0  0  0
    1.5514   -1.3468    0.3472 N   0  0  0  0  0  0  0  0  0  0  0  0
    0.8787   -1.9996   -0.7035 C   0  0  0  0  0  0  0  0  0  0  0  0
    0.4319   -3.3205   -0.5831 C   0  0  0  0  0  0  0  0  0  0  0  0
   -0.3083   -3.9001   -1.6040 C   0  0  0  0  0  0  0  0  0  0  0  0
   -0.8368   -5.5545   -1.4442 Cl  0  0  0  0  0  0  0  0  0  0  0  0
   -0.6664   -3.1749   -2.7536 C   0  0  0  0  0  0  0  0  0  0  0  0
   -1.4317   -3.8067   -3.6669 O   0  0  0  0  0  0  0  0  0  0  0  0
   -1.8691   -3.1141   -4.8119 C   0  0  0  0  0  0  0  0  0  0  0  0
   -2.8809   -2.0212   -4.5345 C   0  0  0  0  0  0  0  0  0  0  0  0
   -3.7163   -2.0776   -3.4157 C   0  0  0  0  0  0  0  0  0  0  0  0
   -4.6466   -1.0669   -3.1751 C   0  0  0  0  0  0  0  0  0  0  0  0
   -4.7583    0.0066   -4.0581 C   0  0  0  0  0  0  0  0  0  0  0  0
   -3.9353    0.0633   -5.1815 C   0  0  0  0  0  0  0  0  0  0  0  0
   -2.9977   -0.9419   -5.4147 C   0  0  0  0  0  0  0  0  0  0  0  0
   -0.2193   -1.8555   -2.8580 C   0  0  0  0  0  0  0  0  0  0  0  0
    0.5455   -1.2776   -1.8488 C   0  0  0  0  0  0  0  0  0  0  0  0
    3.0149   -1.1519    2.2673 C   0  0  0  0  0  0  0  0  0  0  0  0
    2.3057   -0.0455    2.7926 C   0  0  0  0  0  0  0  0  0  0  0  0
   -3.4388    0.7385   -0.6018 N   0  0  0  0  0  0  0  0  0  0  0  0
   -3.2552    1.6188   -1.6206 C   0  0  0  0  0  0  0  0  0  0  0  0
   -2.0171    1.4401   -2.4684 C   0  0  0  0  0  0  0  0  0  0  0  0
   -4.0689    2.5075   -1.8344 O   0  0  0  0  0  0  0  0  0  0  0  0
   -2.0225   -0.7005   -1.1019 H   0  0  0  0  0  0  0  0  0  0  0  0
   -3.0876   -2.8123   -0.0400 N   0  0  0  0  0  0  0  0  0  0  0  0
   -3.8306   -4.0179    0.2252 C   0  0  0  0  0  0  0  0  0  0  0  0
   -2.4122    0.0299    1.8391 H   0  0  0  0  0  0  0  0  0  0  0  0
   -1.3130   -1.2111    1.2290 H   0  0  0  0  0  0  0  0  0  0  0  0
    0.1623    5.1941    2.3625 H   0  0  0  0  0  0  0  0  0  0  0  0
   -0.4626    3.6073    1.9136 H   0  0  0  0  0  0  0  0  0  0  0  0
    1.2379    6.3994    0.2234 H   0  0  0  0  0  0  0  0  0  0  0  0
   -0.3979    6.9479    0.6788 H   0  0  0  0  0  0  0  0  0  0  0  0
    0.5836    6.0425   -2.0888 H   0  0  0  0  0  0  0  0  0  0  0  0
    0.0877    7.6868   -1.5901 H   0  0  0  0  0  0  0  0  0  0  0  0
   -1.2191    4.2712   -2.1577 H   0  0  0  0  0  0  0  0  0  0  0  0
   -2.8831    4.7555   -1.7560 H   0  0  0  0  0  0  0  0  0  0  0  0
   -1.7508    3.5179    0.0904 H   0  0  0  0  0  0  0  0  0  0  0  0
   -2.2740    5.1638    0.5785 H   0  0  0  0  0  0  0  0  0  0  0  0
   -1.6223    7.8120   -3.2626 H   0  0  0  0  0  0  0  0  0  0  0  0
   -2.8870    6.5561   -3.3223 H   0  0  0  0  0  0  0  0  0  0  0  0
   -1.2350    6.1820   -3.8937 H   0  0  0  0  0  0  0  0  0  0  0  0
    1.7361    1.6325    5.4611 H   0  0  0  0  0  0  0  0  0  0  0  0
    4.4604    2.4854    5.0694 H   0  0  0  0  0  0  0  0  0  0  0  0
    5.9268    1.5110    5.3512 H   0  0  0  0  0  0  0  0  0  0  0  0
    4.0901    2.6832    7.5327 H   0  0  0  0  0  0  0  0  0  0  0  0
    5.7080    3.2935    7.0926 H   0  0  0  0  0  0  0  0  0  0  0  0
    5.5323    1.6808    7.8421 H   0  0  0  0  0  0  0  0  0  0  0  0
    5.3220   -1.4782    4.7768 H   0  0  0  0  0  0  0  0  0  0  0  0
    5.1717   -4.0884    1.0604 H   0  0  0  0  0  0  0  0  0  0  0  0
    1.0506   -0.4471    0.6126 H   0  0  0  0  0  0  0  0  0  0  0  0
    0.6674   -3.9046    0.3075 H   0  0  0  0  0  0  0  0  0  0  0  0
   -2.3224   -3.8927   -5.4435 H   0  0  0  0  0  0  0  0  0  0  0  0
   -1.0071   -2.7051   -5.3696 H   0  0  0  0  0  0  0  0  0  0  0  0
   -3.6169   -2.9051   -2.7102 H   0  0  0  0  0  0  0  0  0  0  0  0
   -5.2601   -1.1034   -2.2725 H   0  0  0  0  0  0  0  0  0  0  0  0
   -5.4521    0.8205   -3.8424 H   0  0  0  0  0  0  0  0  0  0  0  0
   -4.0027    0.9124   -5.8652 H   0  0  0  0  0  0  0  0  0  0  0  0
   -2.3360   -0.8762   -6.2839 H   0  0  0  0  0  0  0  0  0  0  0  0
   -0.4848   -1.2528   -3.7253 H   0  0  0  0  0  0  0  0  0  0  0  0
    0.8644   -0.2388   -1.9294 H   0  0  0  0  0  0  0  0  0  0  0  0
    1.4158    0.3518    2.2857 H   0  0  0  0  0  0  0  0  0  0  0  0
   -4.3145    0.8421   -0.0982 H   0  0  0  0  0  0  0  0  0  0  0  0
   -2.0187    0.4495   -2.9480 H   0  0  0  0  0  0  0  0  0  0  0  0
   -1.1209    1.5192   -1.8322 H   0  0  0  0  0  0  0  0  0  0  0  0
   -2.0205    2.2138   -3.2444 H   0  0  0  0  0  0  0  0  0  0  0  0
   -2.1045   -2.8885   -0.2727 H   0  0  0  0  0  0  0  0  0  0  0  0
   -3.3838   -4.5880    1.0545 H   0  0  0  0  0  0  0  0  0  0  0  0
   -3.8670   -4.6707   -0.6615 H   0  0  0  0  0  0  0  0  0  0  0  0
   -4.8524   -3.7264    0.4988 H   0  0  0  0  0  0  0  0  0  0  0  0
    3.1692    2.6211    2.2938 H   0  0  0  0  0  0  0  0  0  0  0  0
    2.1411    3.9561    0.6056 H   0  0  0  0  0  0  0  0  0  0  0  0
  2  1  2  0  0  0  0
  3 54  1  6  0  0  0
  3  2  1  0  0  0  0
  3  4  1  0  0  0  0
  4 58  1  0  0  0  0
  4 57  1  0  0  0  0
  5  4  1  0  0  0  0
  6  7  1  0  0  0  0
  6 15  2  0  0  0  0
  7 60  1  0  0  0  0
  7 59  1  0  0  0  0
  8  7  1  0  0  0  0
  9 61  1  0  0  0  0
  9  8  1  0  0  0  0
  9 62  1  0  0  0  0
 10  9  1  0  0  0  0
 11 12  1  0  0  0  0
 11 10  1  0  0  0  0
 12 13  1  0  0  0  0
 13 67  1  0  0  0  0
 13  8  1  0  0  0  0
 13 68  1  0  0  0  0
 14 11  1  0  0  0  0
 15 16  1  0  0  0  0
 16 17  2  0  0  0  0
 16 18  1  0  0  0  0
 18 72  1  0  0  0  0
 19 18  1  0  0  0  0
 19 20  1  0  0  0  0
 20 21  1  0  0  0  0
 22 21  1  0  0  0  0
 22 23  1  0  0  0  0
 23 75  1  0  0  0  0
 23 77  1  0  0  0  0
 24 20  2  0  0  0  0
 24 78  1  0  0  0  0
 25 24  1  0  0  0  0
 26 25  1  0  0  0  0
 27 26  2  0  0  0  0
 28 31  2  0  0  0  0
 28 27  1  0  0  0  0
 29 28  1  0  0  0  0
 30 29  3  0  0  0  0
 31 48  1  0  0  0  0
 32 80  1  0  0  0  0
 32 31  1  0  0  0  0
 33 34  1  0  0  0  0
 33 32  1  0  0  0  0
 34 81  1  0  0  0  0
 35 36  1  0  0  0  0
 35 34  2  0  0  0  0
 37 35  1  0  0  0  0
 38 37  1  0  0  0  0
 39 40  1  0  0  0  0
 39 38  1  0  0  0  0
 40 41  1  0  0  0  0
 41 42  2  0  0  0  0
 41 84  1  0  0  0  0
 42 85  1  0  0  0  0
 43 86  1  0  0  0  0
 43 42  1  0  0  0  0
 44 43  2  0  0  0  0
 45 44  1  0  0  0  0
 45 40  2  0  0  0  0
 46 37  2  0  0  0  0
 46 47  1  0  0  0  0
 47 33  2  0  0  0  0
 48 49  1  0  0  0  0
 48 25  2  0  0  0  0
 49 19  2  0  0  0  0
 50  3  1  0  0  0  0
 50 92  1  0  0  0  0
 51 50  1  0  0  0  0
 52 94  1  0  0  0  0
 52 51  1  0  0  0  0
 53 51  2  0  0  0  0
 55  2  1  0  0  0  0
 55 56  1  0  0  0  0
 56 99  1  0  0  0  0
 56 97  1  0  0  0  0
 63 10  1  0  0  0  0
 64 10  1  0  0  0  0
 65 12  1  0  0  0  0
 66 12  1  0  0  0  0
 69 14  1  0  0  0  0
 70 14  1  0  0  0  0
 71 14  1  0  0  0  0
 73 22  1  0  0  0  0
 74 22  1  0  0  0  0
 76 23  1  0  0  0  0
 79 27  1  0  0  0  0
 82 39  1  0  0  0  0
 83 39  1  0  0  0  0
 87 44  1  0  0  0  0
 88 45  1  0  0  0  0
 89 46  1  0  0  0  0
 90 47  1  0  0  0  0
 91 49  1  0  0  0  0
 93 52  1  0  0  0  0
 95 52  1  0  0  0  0
 96 55  1  0  0  0  0
 98 56  1  0  0  0  0
100 15  1  0  0  0  0
101  6  1  0  0  0  0
M  END
