101
-1 1
O        -4.644834    2.790821    0.808291
C        -3.578377    2.533562    0.273946
C        -2.773948    3.594966   -0.493849
C        -1.510832    3.973304    0.306942
S        -0.316332    4.972498   -0.625978
C         0.072854    6.630829    0.855324
C        -1.266436    7.332966    0.949968
N        -1.626663    8.074094   -0.241706
C        -0.871224    9.294049   -0.416411
C        -1.186847    9.934896   -1.758868
N        -2.606228   10.193370   -1.888232
C        -3.375349    8.977623   -1.681038
C        -3.045309    8.346386   -0.339802
C        -2.935248   10.847148   -3.126407
C         0.710553    6.104189    1.995090
C         0.043489    5.649092    3.160532
O        -1.084072    5.933768    3.567094
N         0.831361    4.773293    3.986835
C         1.537043    3.670189    3.549193
C         2.347480    2.974242    4.506068
O         2.369825    3.432408    5.791246
C         3.209736    4.558744    6.005351
C         2.973800    5.068752    7.408525
C         3.063115    1.857752    4.156210
C         3.030155    1.348218    2.834201
N         3.749898    0.223173    2.556735
C         3.686163   -0.247668    1.345445
C         2.904949    0.323474    0.298501
C         2.993982   -0.266596   -1.002099
N         3.101881   -0.770018   -2.040615
C         2.135471    1.465449    0.552724
N         1.319542    2.036363   -0.396364
C         0.430305    1.342846   -1.230426
C        -0.041087    0.059186   -0.919425
C        -0.999884   -0.549388   -1.719889
Cl        -1.562401   -2.146176   -1.303331
C        -1.555265    0.101781   -2.830827
O        -2.519124   -0.552561   -3.514770
C        -3.174254    0.083399   -4.582266
C        -4.108173    1.203633   -4.170689
C        -4.579521    1.317354   -2.860317
C        -5.460287    2.341945   -2.511859
C        -5.888706    3.255562   -3.473651
C        -5.428094    3.142303   -4.784607
C        -4.537710    2.126993   -5.128846
C        -1.076100    1.378982   -3.135348
C        -0.088850    1.981824   -2.361890
C         2.227021    2.026317    1.874337
C         1.493048    3.172264    2.255389
N        -3.655124    4.698069   -0.770323
C        -3.890093    5.314477   -1.963031
C        -2.947275    5.004092   -3.101073
O        -4.819092    6.099709   -2.084032
H        -2.454977    3.135021   -1.440500
N        -2.999981    1.310115    0.310896
C        -3.566092    0.189028    1.018334
H        -1.805121    4.514032    1.222218
H        -1.034011    3.039883    0.648096
H        -1.233345    7.988829    1.847229
H        -2.059117    6.605435    1.173720
H         0.206520    9.077111   -0.369387
H        -1.094154   10.028581    0.394056
H        -0.820019    9.261757   -2.568988
H        -0.639031   10.888424   -1.848049
H        -3.185144    8.230519   -2.482092
H        -4.449923    9.215788   -1.717248
H        -3.606145    7.407063   -0.246701
H        -3.385842    9.029672    0.473674
H        -2.382178   11.796346   -3.216590
H        -4.011839   11.077644   -3.159264
H        -2.696938   10.230410   -4.024846
H         0.485220    4.703806    4.938690
H         2.983316    5.342115    5.261735
H         4.263825    4.254382    5.866673
H         1.932189    5.401068    7.527515
H         3.636042    5.920683    7.621132
H         3.170359    4.277341    8.146676
H         3.670730    1.343226    4.901207
H         4.276726   -1.142521    1.115689
H         1.112539    3.045380   -0.329008
H         0.324670   -0.474720   -0.042112
H        -3.752383   -0.718229   -5.066202
H        -2.443956    0.448002   -5.327842
H        -4.239975    0.610483   -2.100510
H        -5.788803    2.442063   -1.475212
H        -6.541741    4.081954   -3.189636
H        -5.743258    3.867552   -5.537997
H        -4.163563    2.057735   -6.154967
H        -1.486823    1.932077   -3.979964
H         0.249681    2.988686   -2.606382
H         0.870351    3.689643    1.528132
H        -4.378537    4.841690   -0.069909
H        -2.987278    3.935106   -3.362128
H        -1.916325    5.250549   -2.804523
H        -3.258901    5.594440   -3.969955
H        -2.119765    1.175605   -0.172914
H        -2.861841   -0.203064    1.768003
H        -3.828920   -0.628510    0.328264
H        -4.474073    0.536603    1.526525
H         1.760448    5.826111    1.884027
H         0.752226    7.098848    0.136161
