-1 1
 OpenBabel05232414493D

 96 99  0  0  1  0  0  0  0  0999 V2000
    1.9398   12.0385   -4.2060 O   0  0  0  0  0  0  0  0  0  0  0  0
    1.1070   11.7038   -5.0287 C   0  0  0  0  0  0  0  0  0  0  0  0
    0.6442   10.2436   -5.1571 C   0  0  2  0  0  0  0  0  0  0  0  0
    1.6202    9.2269   -4.5224 C   0  0  0  0  0  0  0  0  0  0  0  0
    2.8088    8.4184   -5.6349 S   0  0  0  0  0  1  0  0  0  0  0  0
    2.1099    6.2286   -6.0919 C   0  0  0  0  0  3  0  0  0  0  0  0
    0.8305    6.1374   -5.2877 C   0  0  0  0  0  0  0  0  0  0  0  0
    0.9106    5.9523   -3.8415 N   0  0  0  0  0  0  0  0  0  0  0  0
    1.6726    4.8620   -3.3049 C   0  0  0  0  0  0  0  0  0  0  0  0
    2.1220    6.2694   -3.1052 C   0  0  2  0  0  0  0  0  0  0  0  0
    1.9005    6.9503   -1.7916 C   0  0  0  0  0  0  0  0  0  0  0  0
    2.8044    7.9205   -1.6028 O   0  0  0  0  0  0  0  0  0  0  0  0
    2.6699    8.6875   -0.4244 C   0  0  0  0  0  0  0  0  0  0  0  0
    1.0413    6.6851   -0.9908 O   0  0  0  0  0  0  0  0  0  0  0  0
    2.0653    5.9983   -7.4701 C   0  0  0  0  0  3  0  0  0  0  0  0
    3.2638    5.6157   -8.1461 C   0  0  0  0  0  0  0  0  0  0  0  0
    4.3406    5.3489   -7.6205 O   0  0  0  0  0  0  0  0  0  0  0  0
    3.2282    5.4990   -9.5797 N   0  0  0  0  0  0  0  0  0  0  0  0
    2.4509    6.3283  -10.4132 C   0  0  0  0  0  0  0  0  0  0  0  0
    1.0641    6.0743  -10.6737 C   0  0  0  0  0  0  0  0  0  0  0  0
    0.3684    5.0820  -10.0820 O   0  0  0  0  0  0  0  0  0  0  0  0
    0.8445    3.7395  -10.1287 C   0  0  0  0  0  0  0  0  0  0  0  0
    0.3891    3.0299   -8.8734 C   0  0  0  0  0  0  0  0  0  0  0  0
    0.3663    6.9171  -11.5153 C   0  0  0  0  0  0  0  0  0  0  0  0
    0.9615    8.0429  -12.1248 C   0  0  0  0  0  0  0  0  0  0  0  0
    0.1912    8.7869  -12.9759 N   0  0  0  0  0  0  0  0  0  0  0  0
    0.7498    9.8159  -13.5415 C   0  0  0  0  0  0  0  0  0  0  0  0
    2.0801   10.2489  -13.2889 C   0  0  0  0  0  0  0  0  0  0  0  0
    2.5762   11.4361  -13.9078 C   0  0  0  0  0  0  0  0  0  0  0  0
    3.0113   12.3921  -14.4014 N   0  0  0  0  0  0  0  0  0  0  0  0
    2.8929    9.5348  -12.3913 C   0  0  0  0  0  0  0  0  0  0  0  0
    4.1497    9.9851  -12.1066 N   0  0  0  0  0  0  0  0  0  0  0  0
    4.8341    9.7825  -10.8725 C   0  0  0  0  0  0  0  0  0  0  0  0
    6.1387    9.2917  -10.8897 C   0  0  0  0  0  0  0  0  0  0  0  0
    6.7754    9.0065   -9.6847 C   0  0  0  0  0  0  0  0  0  0  0  0
    8.3992    8.3604   -9.7171 Cl  0  0  0  0  0  0  0  0  0  0  0  0
    6.1202    9.1748   -8.4557 C   0  0  0  0  0  0  0  0  0  0  0  0
    6.7038    8.7969   -7.2944 O   0  0  0  0  0  0  0  0  0  0  0  0
    7.5588    9.7357   -6.6576 C   0  0  0  0  0  0  0  0  0  0  0  0
    6.8654   11.0182   -6.2651 C   0  0  0  0  0  0  0  0  0  0  0  0
    7.3812   12.2530   -6.6648 C   0  0  0  0  0  0  0  0  0  0  0  0
    6.7343   13.4386   -6.3138 C   0  0  0  0  0  0  0  0  0  0  0  0
    5.5542   13.3912   -5.5746 C   0  0  0  0  0  0  0  0  0  0  0  0
    5.0237   12.1610   -5.1802 C   0  0  0  0  0  0  0  0  0  0  0  0
    5.6822   10.9814   -5.5174 C   0  0  0  0  0  0  0  0  0  0  0  0
    4.8191    9.6864   -8.4623 C   0  0  0  0  0  0  0  0  0  0  0  0
    4.1912   10.0149   -9.6554 C   0  0  0  0  0  0  0  0  0  0  0  0
    2.3274    8.3298  -11.8399 C   0  0  0  0  0  0  0  0  0  0  0  0
    3.0366    7.4229  -11.0163 C   0  0  0  0  0  0  0  0  0  0  0  0
    0.2095    9.8916   -6.4997 N   0  0  0  0  0  0  0  0  0  0  0  0
    0.9966   10.0774   -7.6150 C   0  0  0  0  0  0  0  0  0  0  0  0
    0.7247    9.1328   -8.7569 C   0  0  0  0  0  0  0  0  0  0  0  0
    1.8145   10.9759   -7.7023 O   0  0  0  0  0  0  0  0  0  0  0  0
   -0.2718   10.2321   -4.5383 H   0  0  0  0  0  0  0  0  0  0  0  0
    0.4071   12.6006   -5.7734 N   0  0  0  0  0  0  0  0  0  0  0  0
    0.8808   13.9552   -5.9133 C   0  0  0  0  0  0  0  0  0  0  0  0
    2.1571    9.7484   -3.7183 H   0  0  0  0  0  0  0  0  0  0  0  0
    1.0056    8.4522   -4.0385 H   0  0  0  0  0  0  0  0  0  0  0  0
    0.2526    5.2771   -5.6637 H   0  0  0  0  0  0  0  0  0  0  0  0
    0.2029    7.0223   -5.4810 H   0  0  0  0  0  0  0  0  0  0  0  0
    2.2846    4.2571   -3.9865 H   0  0  0  0  0  0  0  0  0  0  0  0
    1.2093    4.3227   -2.4715 H   0  0  0  0  0  0  0  0  0  0  0  0
    2.9916    6.6290   -3.6634 H   0  0  0  0  0  0  0  0  0  0  0  0
    3.4769    9.4285   -0.4458 H   0  0  0  0  0  0  0  0  0  0  0  0
    2.7545    8.0543    0.4718 H   0  0  0  0  0  0  0  0  0  0  0  0
    1.6947    9.1962   -0.3986 H   0  0  0  0  0  0  0  0  0  0  0  0
    4.1934    5.4224   -9.8858 H   0  0  0  0  0  0  0  0  0  0  0  0
    1.9402    3.7273  -10.1983 H   0  0  0  0  0  0  0  0  0  0  0  0
    0.4245    3.2640  -11.0341 H   0  0  0  0  0  0  0  0  0  0  0  0
    0.8479    3.5064   -7.9944 H   0  0  0  0  0  0  0  0  0  0  0  0
    0.6904    1.9721   -8.9046 H   0  0  0  0  0  0  0  0  0  0  0  0
   -0.7056    3.0794   -8.7724 H   0  0  0  0  0  0  0  0  0  0  0  0
   -0.6819    6.7077  -11.7277 H   0  0  0  0  0  0  0  0  0  0  0  0
    0.1418   10.4029  -14.2406 H   0  0  0  0  0  0  0  0  0  0  0  0
    4.4488   10.7930  -12.6445 H   0  0  0  0  0  0  0  0  0  0  0  0
    6.6400    9.0904  -11.8370 H   0  0  0  0  0  0  0  0  0  0  0  0
    8.4281    9.9573   -7.3025 H   0  0  0  0  0  0  0  0  0  0  0  0
    7.9264    9.2052   -5.7679 H   0  0  0  0  0  0  0  0  0  0  0  0
    8.2939   12.2871   -7.2673 H   0  0  0  0  0  0  0  0  0  0  0  0
    7.1457   14.3990   -6.6351 H   0  0  0  0  0  0  0  0  0  0  0  0
    5.0325   14.3155   -5.3134 H   0  0  0  0  0  0  0  0  0  0  0  0
    4.0804   12.1168   -4.6315 H   0  0  0  0  0  0  0  0  0  0  0  0
    5.2414   10.0198   -5.2344 H   0  0  0  0  0  0  0  0  0  0  0  0
    4.2826    9.7991   -7.5176 H   0  0  0  0  0  0  0  0  0  0  0  0
    3.1787   10.4202   -9.6142 H   0  0  0  0  0  0  0  0  0  0  0  0
    4.0877    7.5879  -10.7957 H   0  0  0  0  0  0  0  0  0  0  0  0
   -0.3450    9.0447   -6.5273 H   0  0  0  0  0  0  0  0  0  0  0  0
    0.7788    9.6748   -9.7097 H   0  0  0  0  0  0  0  0  0  0  0  0
   -0.2416    8.6145   -8.6852 H   0  0  0  0  0  0  0  0  0  0  0  0
    1.5209    8.3725   -8.7353 H   0  0  0  0  0  0  0  0  0  0  0  0
   -0.0927   12.2051   -6.5592 H   0  0  0  0  0  0  0  0  0  0  0  0
    1.6734   14.0307   -6.6776 H   0  0  0  0  0  0  0  0  0  0  0  0
    1.2975   14.2840   -4.9531 H   0  0  0  0  0  0  0  0  0  0  0  0
    0.0497   14.6198   -6.1901 H   0  0  0  0  0  0  0  0  0  0  0  0
    1.1450    6.1649   -8.0310 H   0  0  0  0  0  0  0  0  0  0  0  0
    3.0147    5.8356   -5.6188 H   0  0  0  0  0  0  0  0  0  0  0  0
  2  1  2  0  0  0  0
  3  2  1  0  0  0  0
  3 54  1  1  0  0  0
  3  4  1  0  0  0  0
  4 58  1  0  0  0  0
  4 57  1  0  0  0  0
  5  4  1  0  0  0  0
  6 96  1  0  0  0  0
  6  7  1  0  0  0  0
  7  8  1  0  0  0  0
  8  9  1  0  0  0  0
  8 10  1  0  0  0  0
  9 10  1  0  0  0  0
  9 62  1  0  0  0  0
 10 63  1  6  0  0  0
 10 11  1  0  0  0  0
 11 12  1  0  0  0  0
 11 14  2  0  0  0  0
 12 13  1  0  0  0  0
 13 66  1  0  0  0  0
 13 65  1  0  0  0  0
 15  6  1  0  0  0  0
 16 17  2  0  0  0  0
 16 15  1  0  0  0  0
 18 16  1  0  0  0  0
 19 18  1  0  0  0  0
 20 19  1  0  0  0  0
 20 21  1  0  0  0  0
 22 21  1  0  0  0  0
 22 23  1  0  0  0  0
 23 72  1  0  0  0  0
 23 70  1  0  0  0  0
 24 20  2  0  0  0  0
 25 48  1  0  0  0  0
 25 24  1  0  0  0  0
 26 25  2  0  0  0  0
 27 28  2  0  0  0  0
 27 26  1  0  0  0  0
 28 31  1  0  0  0  0
 29 28  1  0  0  0  0
 30 29  3  0  0  0  0
 31 32  1  0  0  0  0
 31 48  2  0  0  0  0
 32 33  1  0  0  0  0
 33 47  1  0  0  0  0
 34 33  2  0  0  0  0
 34 35  1  0  0  0  0
 35 37  2  0  0  0  0
 36 35  1  0  0  0  0
 37 38  1  0  0  0  0
 38 39  1  0  0  0  0
 39 40  1  0  0  0  0
 39 78  1  0  0  0  0
 40 45  1  0  0  0  0
 41 42  1  0  0  0  0
 41 40  2  0  0  0  0
 42 43  2  0  0  0  0
 43 81  1  0  0  0  0
 43 44  1  0  0  0  0
 44 82  1  0  0  0  0
 45 83  1  0  0  0  0
 45 44  2  0  0  0  0
 46 37  1  0  0  0  0
 46 84  1  0  0  0  0
 47 85  1  0  0  0  0
 47 46  2  0  0  0  0
 48 49  1  0  0  0  0
 49 86  1  0  0  0  0
 49 19  2  0  0  0  0
 50  3  1  0  0  0  0
 51 50  1  0  0  0  0
 52 90  1  0  0  0  0
 52 89  1  0  0  0  0
 52 51  1  0  0  0  0
 53 51  2  0  0  0  0
 55  2  1  0  0  0  0
 56 55  1  0  0  0  0
 56 93  1  0  0  0  0
 59  7  1  0  0  0  0
 60  7  1  0  0  0  0
 61  9  1  0  0  0  0
 64 13  1  0  0  0  0
 67 18  1  0  0  0  0
 68 22  1  0  0  0  0
 69 22  1  0  0  0  0
 71 23  1  0  0  0  0
 73 24  1  0  0  0  0
 74 27  1  0  0  0  0
 75 32  1  0  0  0  0
 76 34  1  0  0  0  0
 77 39  1  0  0  0  0
 79 41  1  0  0  0  0
 80 42  1  0  0  0  0
 87 50  1  0  0  0  0
 88 52  1  0  0  0  0
 91 55  1  0  0  0  0
 92 56  1  0  0  0  0
 94 56  1  0  0  0  0
 95 15  1  0  0  0  0
M  END
