-1 1
 OpenBabel05192410563D

 96100  0  0  1  0  0  0  0  0999 V2000
   -1.6777    3.0049    3.8342 O   0  0  0  0  0  0  0  0  0  0  0  0
   -2.3452    2.4994    2.9503 C   0  0  0  0  0  0  0  0  0  0  0  0
   -2.1982    1.0163    2.5588 C   0  0  2  0  0  0  0  0  0  0  0  0
   -0.8599    0.4309    3.0782 C   0  0  0  0  0  0  0  0  0  0  0  0
    0.1001   -0.6075    1.9508 S   0  0  0  0  0  0  0  0  0  0  0  0
   -0.8031   -2.2754    1.7223 C   0  0  1  0  0  0  0  0  0  0  0  0
   -1.9793   -2.4580    2.6857 C   0  0  0  0  0  0  0  0  0  0  0  0
   -1.7168   -2.7610    4.0947 N   0  0  0  0  0  0  0  0  0  0  0  0
   -0.9363   -3.9202    4.4275 C   0  0  0  0  0  0  0  0  0  0  0  0
   -0.3968   -2.5580    4.6774 C   0  0  2  0  0  0  0  0  0  0  0  0
   -0.4189   -1.9814    6.0574 C   0  0  0  0  0  0  0  0  0  0  0  0
    0.2975   -0.8486    6.1112 O   0  0  0  0  0  0  0  0  0  0  0  0
    0.3041   -0.1635    7.3475 C   0  0  0  0  0  0  0  0  0  0  0  0
   -1.0037   -2.4333    7.0073 O   0  0  0  0  0  0  0  0  0  0  0  0
   -1.1001   -2.5284    0.2958 C   0  0  0  0  0  3  0  0  0  0  0  0
   -0.1563   -3.2699   -0.4164 C   0  0  0  0  0  0  0  0  0  0  0  0
    0.8384   -3.8633    0.0345 O   0  0  0  0  0  0  0  0  0  0  0  0
   -0.2863   -3.3920   -1.8701 N   0  0  0  0  0  0  0  0  0  0  0  0
   -0.8263   -2.3938   -2.6882 C   0  0  0  0  0  0  0  0  0  0  0  0
   -2.2438   -2.2529   -2.8966 C   0  0  0  0  0  0  0  0  0  0  0  0
   -3.1718   -2.9611   -2.2249 O   0  0  0  0  0  0  0  0  0  0  0  0
   -3.0924   -4.3836   -2.1402 C   0  0  0  0  0  0  0  0  0  0  0  0
   -3.7689   -4.8155   -0.8593 C   0  0  0  0  0  0  0  0  0  0  0  0
   -2.7143   -1.3045   -3.7835 C   0  0  0  0  0  0  0  0  0  0  0  0
   -1.8563   -0.4230   -4.4760 C   0  0  0  0  0  0  0  0  0  0  0  0
   -2.4076    0.4430   -5.3796 N   0  0  0  0  0  0  0  0  0  0  0  0
   -1.6029    1.2383   -6.0209 C   0  0  0  0  0  0  0  0  0  0  0  0
   -0.1995    1.3141   -5.7901 C   0  0  0  0  0  0  0  0  0  0  0  0
    0.5921    2.2855   -6.4765 C   0  0  0  0  0  0  0  0  0  0  0  0
    1.2612    3.0593   -7.0242 N   0  0  0  0  0  0  0  0  0  0  0  0
    0.3935    0.4694   -4.8425 C   0  0  0  0  0  0  0  0  0  0  0  0
    1.7348    0.5659   -4.5531 N   0  0  0  0  0  0  0  0  0  0  0  0
    2.2465    0.5238   -3.2245 C   0  0  0  0  0  0  0  0  0  0  0  0
    3.4793   -0.0794   -2.9816 C   0  0  0  0  0  0  0  0  0  0  0  0
    3.9642   -0.1411   -1.6773 C   0  0  0  0  0  0  0  0  0  0  0  0
    5.5170   -0.8814   -1.3821 Cl  0  0  0  0  0  0  0  0  0  0  0  0
    3.2198    0.3474   -0.5944 C   0  0  0  0  0  0  0  0  0  0  0  0
    3.6731    0.1847    0.6716 O   0  0  0  0  0  0  0  0  0  0  0  0
    4.3325    1.2933    1.2701 C   0  0  0  0  0  0  0  0  0  0  0  0
    3.4293    2.4835    1.4823 C   0  0  0  0  0  0  0  0  0  0  0  0
    3.6184    3.6619    0.7588 C   0  0  0  0  0  0  0  0  0  0  0  0
    2.7338    4.7316    0.9036 C   0  0  0  0  0  0  0  0  0  0  0  0
    1.6476    4.6215    1.7673 C   0  0  0  0  0  0  0  0  0  0  0  0
    1.4483    3.4479    2.4970 C   0  0  0  0  0  0  0  0  0  0  0  0
    2.3392    2.3880    2.3568 C   0  0  0  0  0  0  0  0  0  0  0  0
    1.9885    0.9558   -0.8584 C   0  0  0  0  0  0  0  0  0  0  0  0
    1.5238    1.0684   -2.1604 C   0  0  0  0  0  0  0  0  0  0  0  0
   -0.4591   -0.4994   -4.2173 C   0  0  0  0  0  0  0  0  0  0  0  0
    0.0108   -1.5174   -3.3544 C   0  0  0  0  0  0  0  0  0  0  0  0
   -2.4781    0.8121    1.1524 N   0  0  0  0  0  0  0  0  0  0  0  0
   -1.6962    1.4077    0.1895 C   0  0  0  0  0  0  0  0  0  0  0  0
   -1.8311    0.8076   -1.1832 C   0  0  0  0  0  0  0  0  0  0  0  0
   -0.9841    2.3623    0.4389 O   0  0  0  0  0  0  0  0  0  0  0  0
   -3.0195    0.5149    3.0968 H   0  0  0  0  0  0  0  0  0  0  0  0
   -3.3457    3.1520    2.3057 N   0  0  0  0  0  0  0  0  0  0  0  0
   -3.5249    4.5749    2.4301 C   0  0  0  0  0  0  0  0  0  0  0  0
   -0.1850    1.2610    3.3151 H   0  0  0  0  0  0  0  0  0  0  0  0
   -1.0385   -0.0832    4.0301 H   0  0  0  0  0  0  0  0  0  0  0  0
   -2.5679   -3.3045    2.3012 H   0  0  0  0  0  0  0  0  0  0  0  0
   -2.6552   -1.5881    2.6593 H   0  0  0  0  0  0  0  0  0  0  0  0
   -0.4571   -4.4816    3.6152 H   0  0  0  0  0  0  0  0  0  0  0  0
   -1.3012   -4.5121    5.2731 H   0  0  0  0  0  0  0  0  0  0  0  0
    0.4057   -2.1878    4.0308 H   0  0  0  0  0  0  0  0  0  0  0  0
    0.9144    0.7344    7.1984 H   0  0  0  0  0  0  0  0  0  0  0  0
    0.7345   -0.7905    8.1427 H   0  0  0  0  0  0  0  0  0  0  0  0
   -0.7167    0.1201    7.6432 H   0  0  0  0  0  0  0  0  0  0  0  0
    0.6353   -3.6851   -2.1792 H   0  0  0  0  0  0  0  0  0  0  0  0
   -2.0426   -4.7040   -2.1503 H   0  0  0  0  0  0  0  0  0  0  0  0
   -3.6044   -4.8006   -3.0273 H   0  0  0  0  0  0  0  0  0  0  0  0
   -3.2091   -4.4070   -0.0049 H   0  0  0  0  0  0  0  0  0  0  0  0
   -3.7789   -5.9135   -0.7880 H   0  0  0  0  0  0  0  0  0  0  0  0
   -4.8072   -4.4516   -0.8201 H   0  0  0  0  0  0  0  0  0  0  0  0
   -3.7869   -1.2358   -3.9650 H   0  0  0  0  0  0  0  0  0  0  0  0
   -2.0417    1.9156   -6.7635 H   0  0  0  0  0  0  0  0  0  0  0  0
    2.2614    1.1619   -5.1847 H   0  0  0  0  0  0  0  0  0  0  0  0
    4.0489   -0.5211   -3.8000 H   0  0  0  0  0  0  0  0  0  0  0  0
    5.2071    1.5815    0.6594 H   0  0  0  0  0  0  0  0  0  0  0  0
    4.6997    0.9060    2.2304 H   0  0  0  0  0  0  0  0  0  0  0  0
    4.4556    3.7358    0.0588 H   0  0  0  0  0  0  0  0  0  0  0  0
    2.8853    5.6452    0.3236 H   0  0  0  0  0  0  0  0  0  0  0  0
    0.9373    5.4455    1.8655 H   0  0  0  0  0  0  0  0  0  0  0  0
    0.5786    3.3593    3.1523 H   0  0  0  0  0  0  0  0  0  0  0  0
    2.1723    1.4528    2.8994 H   0  0  0  0  0  0  0  0  0  0  0  0
    1.3887    1.3400   -0.0325 H   0  0  0  0  0  0  0  0  0  0  0  0
    0.5708    1.5627   -2.3456 H   0  0  0  0  0  0  0  0  0  0  0  0
    1.0784   -1.6172   -3.1633 H   0  0  0  0  0  0  0  0  0  0  0  0
   -2.8290   -0.1076    0.9084 H   0  0  0  0  0  0  0  0  0  0  0  0
   -1.6664    1.5795   -1.9451 H   0  0  0  0  0  0  0  0  0  0  0  0
   -2.8082    0.3336   -1.3465 H   0  0  0  0  0  0  0  0  0  0  0  0
   -1.0626    0.0243   -1.2806 H   0  0  0  0  0  0  0  0  0  0  0  0
   -3.7251    2.6788    1.4953 H   0  0  0  0  0  0  0  0  0  0  0  0
   -3.0024    5.1253    1.6292 H   0  0  0  0  0  0  0  0  0  0  0  0
   -3.1043    4.8902    3.3932 H   0  0  0  0  0  0  0  0  0  0  0  0
   -4.5934    4.8358    2.4025 H   0  0  0  0  0  0  0  0  0  0  0  0
   -1.9275   -2.0230   -0.2063 H   0  0  0  0  0  0  0  0  0  0  0  0
   -0.0096   -2.9930    1.9812 H   0  0  0  0  0  0  0  0  0  0  0  0
  2  1  2  0  0  0  0
  3  2  1  0  0  0  0
  3  4  1  0  0  0  0
  3 54  1  1  0  0  0
  4 57  1  0  0  0  0
  4 58  1  0  0  0  0
  5  4  1  0  0  0  0
  6  5  1  0  0  0  0
  6 96  1  1  0  0  0
  6  7  1  0  0  0  0
  7  8  1  0  0  0  0
  8  9  1  0  0  0  0
  8 10  1  0  0  0  0
  9 10  1  0  0  0  0
  9 62  1  0  0  0  0
 10 63  1  6  0  0  0
 10 11  1  0  0  0  0
 11 12  1  0  0  0  0
 11 14  2  0  0  0  0
 12 13  1  0  0  0  0
 13 66  1  0  0  0  0
 13 65  1  0  0  0  0
 15  6  1  0  0  0  0
 16 17  2  0  0  0  0
 16 15  1  0  0  0  0
 18 16  1  0  0  0  0
 19 18  1  0  0  0  0
 20 19  1  0  0  0  0
 20 21  1  0  0  0  0
 21 22  1  0  0  0  0
 22 23  1  0  0  0  0
 23 72  1  0  0  0  0
 23 71  1  0  0  0  0
 23 70  1  0  0  0  0
 24 20  2  0  0  0  0
 25 48  1  0  0  0  0
 25 24  1  0  0  0  0
 26 25  2  0  0  0  0
 27 28  2  0  0  0  0
 27 26  1  0  0  0  0
 28 31  1  0  0  0  0
 29 28  1  0  0  0  0
 30 29  3  0  0  0  0
 31 32  1  0  0  0  0
 31 48  2  0  0  0  0
 32 33  1  0  0  0  0
 33 34  2  0  0  0  0
 33 47  1  0  0  0  0
 34 35  1  0  0  0  0
 35 36  1  0  0  0  0
 35 37  2  0  0  0  0
 37 38  1  0  0  0  0
 38 39  1  0  0  0  0
 39 40  1  0  0  0  0
 39 78  1  0  0  0  0
 40 45  1  0  0  0  0
 41 42  1  0  0  0  0
 41 40  2  0  0  0  0
 42 43  2  0  0  0  0
 43 81  1  0  0  0  0
 43 44  1  0  0  0  0
 44 82  1  0  0  0  0
 45 44  2  0  0  0  0
 45 83  1  0  0  0  0
 46 37  1  0  0  0  0
 46 84  1  0  0  0  0
 47 46  2  0  0  0  0
 48 49  1  0  0  0  0
 49 86  1  0  0  0  0
 49 19  2  0  0  0  0
 50  3  1  0  0  0  0
 51 53  2  0  0  0  0
 51 50  1  0  0  0  0
 52 51  1  0  0  0  0
 55 56  1  0  0  0  0
 55  2  1  0  0  0  0
 56 93  1  0  0  0  0
 59  7  1  0  0  0  0
 60  7  1  0  0  0  0
 61  9  1  0  0  0  0
 64 13  1  0  0  0  0
 67 18  1  0  0  0  0
 68 22  1  0  0  0  0
 69 22  1  0  0  0  0
 73 24  1  0  0  0  0
 74 27  1  0  0  0  0
 75 32  1  0  0  0  0
 76 34  1  0  0  0  0
 77 39  1  0  0  0  0
 79 41  1  0  0  0  0
 80 42  1  0  0  0  0
 85 47  1  0  0  0  0
 87 50  1  0  0  0  0
 88 52  1  0  0  0  0
 89 52  1  0  0  0  0
 90 52  1  0  0  0  0
 91 55  1  0  0  0  0
 92 56  1  0  0  0  0
 94 56  1  0  0  0  0
 95 15  1  0  0  0  0
M  END
