-1 1
 OpenBabel05232413483D

 96 99  0  0  1  0  0  0  0  0999 V2000
   -0.7897    4.0731    2.5854 O   0  0  0  0  0  0  0  0  0  0  0  0
   -1.1412    3.2668    1.7312 C   0  0  0  0  0  0  0  0  0  0  0  0
   -2.0062    2.0920    2.2233 C   0  0  2  0  0  0  0  0  0  0  0  0
   -1.1719    1.1666    3.1375 C   0  0  0  0  0  0  0  0  0  0  0  0
    0.0263    0.1137    2.2772 S   0  0  0  0  0  1  0  0  0  0  0  0
   -1.1310   -3.0037    1.5559 C   0  0  0  0  0  0  0  0  0  0  0  0
   -2.3850   -2.5806    2.2649 C   0  0  0  0  0  0  0  0  0  0  0  0
   -2.4840   -2.8469    3.6947 N   0  0  0  0  0  0  0  0  0  0  0  0
   -1.6108   -3.7938    4.3303 C   0  0  0  0  0  0  0  0  0  0  0  0
   -1.4335   -2.3278    4.5562 C   0  0  2  0  0  0  0  0  0  0  0  0
   -1.9203   -1.7312    5.8389 C   0  0  0  0  0  0  0  0  0  0  0  0
   -1.2655   -0.5978    6.1186 O   0  0  0  0  0  0  0  0  0  0  0  0
   -1.6503    0.0821    7.2941 C   0  0  0  0  0  0  0  0  0  0  0  0
   -2.7776   -2.1877    6.5520 O   0  0  0  0  0  0  0  0  0  0  0  0
   -1.1224   -3.5164    0.3214 C   0  0  0  0  0  0  0  0  0  0  0  0
    0.1669   -3.7954   -0.3654 C   0  0  0  0  0  0  0  0  0  0  0  0
    1.1507   -4.2341    0.1912 O   0  0  0  0  0  0  0  0  0  0  0  0
    0.2156   -3.5138   -1.7318 N   0  0  0  0  0  0  0  0  0  0  0  0
   -0.6567   -2.6138   -2.3954 C   0  0  0  0  0  0  0  0  0  0  0  0
   -1.9783   -3.0163   -2.7470 C   0  0  0  0  0  0  0  0  0  0  0  0
   -2.4379   -4.2588   -2.4500 O   0  0  0  0  0  0  0  0  0  0  0  0
   -1.8469   -5.3561   -3.1301 C   0  0  0  0  0  0  0  0  0  0  0  0
   -2.2077   -6.6208   -2.3851 C   0  0  0  0  0  0  0  0  0  0  0  0
   -2.8354   -2.1083   -3.3192 C   0  0  0  0  0  0  0  0  0  0  0  0
   -2.4400   -0.7769   -3.5851 C   0  0  0  0  0  0  0  0  0  0  0  0
   -3.3858    0.0445   -4.1276 N   0  0  0  0  0  0  0  0  0  0  0  0
   -3.0245    1.2649   -4.3976 C   0  0  0  0  0  0  0  0  0  0  0  0
   -1.7299    1.7869   -4.1612 C   0  0  0  0  0  0  0  0  0  0  0  0
   -1.4483    3.1503   -4.4770 C   0  0  0  0  0  0  0  0  0  0  0  0
   -1.1802    4.2507   -4.7307 N   0  0  0  0  0  0  0  0  0  0  0  0
   -0.7335    0.9873   -3.5706 C   0  0  0  0  0  0  0  0  0  0  0  0
    0.4970    1.5368   -3.3815 N   0  0  0  0  0  0  0  0  0  0  0  0
    1.5269    1.2357   -2.4501 C   0  0  0  0  0  0  0  0  0  0  0  0
    2.8489    1.3352   -2.8895 C   0  0  0  0  0  0  0  0  0  0  0  0
    3.8913    1.1470   -1.9855 C   0  0  0  0  0  0  0  0  0  0  0  0
    5.5408    1.2724   -2.5581 Cl  0  0  0  0  0  0  0  0  0  0  0  0
    3.6409    0.8331   -0.6435 C   0  0  0  0  0  0  0  0  0  0  0  0
    4.6442    0.6085    0.2437 O   0  0  0  0  0  0  0  0  0  0  0  0
    5.2614    1.7502    0.8363 C   0  0  0  0  0  0  0  0  0  0  0  0
    4.2830    2.7165    1.4582 C   0  0  0  0  0  0  0  0  0  0  0  0
    4.2896    4.0653    1.0929 C   0  0  0  0  0  0  0  0  0  0  0  0
    3.3539    4.9501    1.6316 C   0  0  0  0  0  0  0  0  0  0  0  0
    2.3781    4.4835    2.5099 C   0  0  0  0  0  0  0  0  0  0  0  0
    2.3583    3.1358    2.8701 C   0  0  0  0  0  0  0  0  0  0  0  0
    3.3192    2.2653    2.3674 C   0  0  0  0  0  0  0  0  0  0  0  0
    2.3107    0.7119   -0.2363 C   0  0  0  0  0  0  0  0  0  0  0  0
    1.2594    0.9274   -1.1149 C   0  0  0  0  0  0  0  0  0  0  0  0
   -1.1070   -0.3763   -3.2813 C   0  0  0  0  0  0  0  0  0  0  0  0
   -0.2438   -1.3336   -2.6958 C   0  0  0  0  0  0  0  0  0  0  0  0
   -2.8371    1.2823    1.3139 N   0  0  0  0  0  0  0  0  0  0  0  0
   -2.6817    0.7969    0.0626 C   0  0  0  0  0  0  0  0  0  0  0  0
   -3.5498   -0.3927   -0.2865 C   0  0  0  0  0  0  0  0  0  0  0  0
   -1.9445    1.2578   -0.8068 O   0  0  0  0  0  0  0  0  0  0  0  0
   -2.7358    2.6098    2.8687 H   0  0  0  0  0  0  0  0  0  0  0  0
   -0.8178    3.3562    0.4346 N   0  0  0  0  0  0  0  0  0  0  0  0
    0.0882    4.3521   -0.0737 C   0  0  0  0  0  0  0  0  0  0  0  0
   -0.6867    1.8243    3.8756 H   0  0  0  0  0  0  0  0  0  0  0  0
   -1.8901    0.5484    3.7113 H   0  0  0  0  0  0  0  0  0  0  0  0
   -3.2614   -3.0360    1.7745 H   0  0  0  0  0  0  0  0  0  0  0  0
   -2.4529   -1.4878    2.1383 H   0  0  0  0  0  0  0  0  0  0  0  0
   -0.8373   -4.2935    3.7351 H   0  0  0  0  0  0  0  0  0  0  0  0
   -2.0689   -4.3972    5.1207 H   0  0  0  0  0  0  0  0  0  0  0  0
   -0.5971   -1.7960    4.0778 H   0  0  0  0  0  0  0  0  0  0  0  0
   -1.0300    0.9843    7.3440 H   0  0  0  0  0  0  0  0  0  0  0  0
   -1.4859   -0.5435    8.1847 H   0  0  0  0  0  0  0  0  0  0  0  0
   -2.7150    0.3575    7.2588 H   0  0  0  0  0  0  0  0  0  0  0  0
    1.1708   -3.5482   -2.0744 H   0  0  0  0  0  0  0  0  0  0  0  0
   -0.7533   -5.2330   -3.1709 H   0  0  0  0  0  0  0  0  0  0  0  0
   -2.2293   -5.3802   -4.1674 H   0  0  0  0  0  0  0  0  0  0  0  0
   -1.7888   -6.5969   -1.3687 H   0  0  0  0  0  0  0  0  0  0  0  0
   -1.8058   -7.5003   -2.9090 H   0  0  0  0  0  0  0  0  0  0  0  0
   -3.2996   -6.7270   -2.3079 H   0  0  0  0  0  0  0  0  0  0  0  0
   -3.8545   -2.4043   -3.5666 H   0  0  0  0  0  0  0  0  0  0  0  0
   -3.7787    1.9325   -4.8311 H   0  0  0  0  0  0  0  0  0  0  0  0
    0.5964    2.4602   -3.7924 H   0  0  0  0  0  0  0  0  0  0  0  0
    3.0684    1.5599   -3.9342 H   0  0  0  0  0  0  0  0  0  0  0  0
    5.8831    2.2737    0.0891 H   0  0  0  0  0  0  0  0  0  0  0  0
    5.9342    1.3258    1.5956 H   0  0  0  0  0  0  0  0  0  0  0  0
    5.0256    4.4237    0.3668 H   0  0  0  0  0  0  0  0  0  0  0  0
    3.3651    6.0011    1.3316 H   0  0  0  0  0  0  0  0  0  0  0  0
    1.5907    5.1421    2.8798 H   0  0  0  0  0  0  0  0  0  0  0  0
    1.5645    2.7498    3.5110 H   0  0  0  0  0  0  0  0  0  0  0  0
    3.2753    1.2094    2.6448 H   0  0  0  0  0  0  0  0  0  0  0  0
    2.0645    0.4777    0.8024 H   0  0  0  0  0  0  0  0  0  0  0  0
    0.2369    0.8495   -0.7378 H   0  0  0  0  0  0  0  0  0  0  0  0
    0.7719   -1.0626   -2.4190 H   0  0  0  0  0  0  0  0  0  0  0  0
   -3.4793    0.7241    1.8634 H   0  0  0  0  0  0  0  0  0  0  0  0
   -4.0384   -0.2054   -1.2522 H   0  0  0  0  0  0  0  0  0  0  0  0
   -4.3036   -0.6417    0.4728 H   0  0  0  0  0  0  0  0  0  0  0  0
   -2.8776   -1.2545   -0.4150 H   0  0  0  0  0  0  0  0  0  0  0  0
   -1.1277    2.5980   -0.1821 H   0  0  0  0  0  0  0  0  0  0  0  0
    1.1261    3.9785   -0.1055 H   0  0  0  0  0  0  0  0  0  0  0  0
    0.0670    5.2339    0.5804 H   0  0  0  0  0  0  0  0  0  0  0  0
   -0.2134    4.6466   -1.0905 H   0  0  0  0  0  0  0  0  0  0  0  0
   -2.0514   -3.6929   -0.2278 H   0  0  0  0  0  0  0  0  0  0  0  0
   -0.1753   -2.7910    2.0444 H   0  0  0  0  0  0  0  0  0  0  0  0
  2  3  1  0  0  0  0
  2  1  2  0  0  0  0
  3 54  1  1  0  0  0
  3  4  1  0  0  0  0
  4 58  1  0  0  0  0
  4 57  1  0  0  0  0
  5  4  1  0  0  0  0
  6 96  1  0  0  0  0
  6  7  1  0  0  0  0
  7  8  1  0  0  0  0
  8  9  1  0  0  0  0
  8 10  1  0  0  0  0
  9 10  1  0  0  0  0
  9 62  1  0  0  0  0
 10 63  1  6  0  0  0
 10 11  1  0  0  0  0
 11 12  1  0  0  0  0
 11 14  2  0  0  0  0
 12 13  1  0  0  0  0
 13 64  1  0  0  0  0
 13 65  1  0  0  0  0
 15  6  2  0  0  0  0
 16 17  2  0  0  0  0
 16 15  1  0  0  0  0
 18 16  1  0  0  0  0
 19 18  1  0  0  0  0
 20 21  1  0  0  0  0
 20 19  2  0  0  0  0
 22 21  1  0  0  0  0
 22 23  1  0  0  0  0
 23 72  1  0  0  0  0
 23 70  1  0  0  0  0
 24 20  1  0  0  0  0
 25 24  2  0  0  0  0
 25 48  1  0  0  0  0
 26 25  1  0  0  0  0
 27 28  1  0  0  0  0
 27 26  2  0  0  0  0
 28 31  2  0  0  0  0
 29 28  1  0  0  0  0
 30 29  3  0  0  0  0
 31 32  1  0  0  0  0
 31 48  1  0  0  0  0
 32 33  1  0  0  0  0
 33 47  1  0  0  0  0
 34 33  2  0  0  0  0
 34 35  1  0  0  0  0
 35 37  2  0  0  0  0
 36 35  1  0  0  0  0
 37 46  1  0  0  0  0
 37 38  1  0  0  0  0
 38 39  1  0  0  0  0
 39 40  1  0  0  0  0
 39 78  1  0  0  0  0
 40 45  1  0  0  0  0
 41 40  2  0  0  0  0
 41 42  1  0  0  0  0
 42 43  2  0  0  0  0
 43 44  1  0  0  0  0
 43 81  1  0  0  0  0
 44 82  1  0  0  0  0
 45 83  1  0  0  0  0
 45 44  2  0  0  0  0
 46 84  1  0  0  0  0
 47 85  1  0  0  0  0
 47 46  2  0  0  0  0
 48 49  2  0  0  0  0
 49 86  1  0  0  0  0
 49 19  1  0  0  0  0
 50 87  1  0  0  0  0
 50  3  1  0  0  0  0
 51 50  1  0  0  0  0
 52 51  1  0  0  0  0
 52 89  1  0  0  0  0
 53 51  2  0  0  0  0
 55  2  1  0  0  0  0
 56 55  1  0  0  0  0
 56 93  1  0  0  0  0
 59  7  1  0  0  0  0
 60  7  1  0  0  0  0
 61  9  1  0  0  0  0
 66 13  1  0  0  0  0
 67 18  1  0  0  0  0
 68 22  1  0  0  0  0
 69 22  1  0  0  0  0
 71 23  1  0  0  0  0
 73 24  1  0  0  0  0
 74 27  1  0  0  0  0
 75 32  1  0  0  0  0
 76 34  1  0  0  0  0
 77 39  1  0  0  0  0
 79 41  1  0  0  0  0
 80 42  1  0  0  0  0
 88 52  1  0  0  0  0
 90 52  1  0  0  0  0
 91 55  1  0  0  0  0
 92 56  1  0  0  0  0
 94 56  1  0  0  0  0
 95 15  1  0  0  0  0
M  END
