-1 1
 OpenBabel05192410563D

 89 92  0  0  1  0  0  0  0  0999 V2000
   -0.0436   -0.4872    7.5393 O   0  0  0  0  0  0  0  0  0  0  0  0
   -0.6390   -1.2639    6.8007 C   0  0  0  0  0  0  0  0  0  0  0  0
   -0.0397   -2.6640    6.5579 C   0  0  2  0  0  0  0  0  0  0  0  0
    1.2135   -2.5647    5.6653 C   0  0  0  0  0  0  0  0  0  0  0  0
    0.9645   -2.5335    3.8703 S   0  0  0  0  0  0  0  0  0  0  0  0
    0.3098   -0.8096    3.5589 C   0  0  1  0  0  0  0  0  0  0  0  0
    1.3774    0.1029    2.9339 C   0  0  0  0  0  0  0  0  0  0  0  0
    1.6241   -0.0111    1.4963 N   0  0  0  0  0  0  0  0  0  0  0  0
    2.6275    0.9590    1.1087 C   0  0  0  0  0  0  0  0  0  0  0  0
    1.9881   -1.3456    1.0574 C   0  0  0  0  0  0  0  0  0  0  0  0
   -0.9428   -0.8011    2.7499 C   0  0  0  0  0  3  0  0  0  0  0  0
   -2.0316   -1.6288    2.9283 C   0  0  0  0  0  0  0  0  0  0  0  0
   -2.2712   -2.4228    3.8882 O   0  0  0  0  0  0  0  0  0  0  0  0
   -3.0795   -1.6196    1.9513 N   0  0  0  0  0  0  0  0  0  0  0  0
   -3.0675   -1.3692    0.6102 C   0  0  0  0  0  0  0  0  0  0  0  0
   -4.3093   -1.5598   -0.1026 C   0  0  0  0  0  0  0  0  0  0  0  0
   -5.3298   -1.9889    0.6726 O   0  0  0  0  0  0  0  0  0  0  0  0
   -6.5652   -2.2638    0.0776 C   0  0  0  0  0  0  0  0  0  0  0  0
   -4.4003   -1.3350   -1.4542 C   0  0  0  0  0  0  0  0  0  0  0  0
   -3.2811   -0.8799   -2.2015 C   0  0  0  0  0  0  0  0  0  0  0  0
   -3.4443   -0.6630   -3.5391 N   0  0  0  0  0  0  0  0  0  0  0  0
   -2.4096   -0.2349   -4.1998 C   0  0  0  0  0  0  0  0  0  0  0  0
   -1.1303    0.0523   -3.6311 C   0  0  0  0  0  0  0  0  0  0  0  0
   -0.1544    0.5623   -4.5460 C   0  0  0  0  0  0  0  0  0  0  0  0
    0.5513    0.9618   -5.3769 N   0  0  0  0  0  0  0  0  0  0  0  0
   -0.9376   -0.1528   -2.2504 C   0  0  0  0  0  0  0  0  0  0  0  0
    0.2134    0.1246   -1.5765 N   0  0  0  0  0  0  0  0  0  0  0  0
    1.3761    0.6625   -2.1796 C   0  0  0  0  0  0  0  0  0  0  0  0
    2.3226   -0.1873   -2.7518 C   0  0  0  0  0  0  0  0  0  0  0  0
    3.4161    0.3449   -3.4130 C   0  0  0  0  0  0  0  0  0  0  0  0
    4.5630   -0.7407   -4.1757 Cl  0  0  0  0  0  0  0  0  0  0  0  0
    3.6166    1.7354   -3.5356 C   0  0  0  0  0  0  0  0  0  0  0  0
    4.6798    2.2267   -4.2535 N   0  0  0  0  0  0  0  0  0  0  0  0
    4.8211    3.6061   -4.6294 C   0  0  0  0  0  0  0  0  0  0  0  0
    3.8398    4.1283   -5.6690 C   0  0  0  0  0  0  0  0  0  0  0  0
    4.0010    5.4249   -6.1735 C   0  0  0  0  0  0  0  0  0  0  0  0
    3.2005    5.9850   -7.0737 N   0  0  0  0  0  0  0  0  0  0  0  0
    2.1707    5.2629   -7.5177 C   0  0  0  0  0  0  0  0  0  0  0  0
    1.9101    3.9654   -7.0866 C   0  0  0  0  0  0  0  0  0  0  0  0
    2.7625    3.3844   -6.1499 C   0  0  0  0  0  0  0  0  0  0  0  0
    2.6783    2.5691   -2.8998 C   0  0  0  0  0  0  0  0  0  0  0  0
    1.5798    2.0407   -2.2387 C   0  0  0  0  0  0  0  0  0  0  0  0
   -2.0597   -0.6787   -1.5179 C   0  0  0  0  0  0  0  0  0  0  0  0
   -1.9712   -0.9632   -0.1352 C   0  0  0  0  0  0  0  0  0  0  0  0
   -0.9584   -3.6726    6.0950 N   0  0  0  0  0  0  0  0  0  0  0  0
   -1.7475   -4.4464    6.8939 C   0  0  0  0  0  0  0  0  0  0  0  0
   -1.4889   -4.3788    8.3938 C   0  0  0  0  0  0  0  0  0  0  0  0
   -2.6126   -5.1750    6.4458 O   0  0  0  0  0  0  0  0  0  0  0  0
    0.3415   -2.9434    7.5500 H   0  0  0  0  0  0  0  0  0  0  0  0
   -1.7842   -0.9929    6.1532 N   0  0  0  0  0  0  0  0  0  0  0  0
   -2.3451    0.3332    6.1500 C   0  0  0  0  0  0  0  0  0  0  0  0
    1.8079   -1.6982    5.9916 H   0  0  0  0  0  0  0  0  0  0  0  0
    1.8266   -3.4645    5.8231 H   0  0  0  0  0  0  0  0  0  0  0  0
    2.3263   -0.0344    3.4988 H   0  0  0  0  0  0  0  0  0  0  0  0
    1.0502    1.1426    3.1107 H   0  0  0  0  0  0  0  0  0  0  0  0
    2.2775    1.9797    1.3296 H   0  0  0  0  0  0  0  0  0  0  0  0
    2.8313    0.8952    0.0305 H   0  0  0  0  0  0  0  0  0  0  0  0
    3.5930    0.8108    1.6443 H   0  0  0  0  0  0  0  0  0  0  0  0
    1.1624   -2.0457    1.2465 H   0  0  0  0  0  0  0  0  0  0  0  0
    2.8953   -1.7371    1.5634 H   0  0  0  0  0  0  0  0  0  0  0  0
    2.1761   -1.3296   -0.0276 H   0  0  0  0  0  0  0  0  0  0  0  0
   -3.9016   -2.1011    2.2955 H   0  0  0  0  0  0  0  0  0  0  0  0
   -7.0008   -1.3629   -0.3891 H   0  0  0  0  0  0  0  0  0  0  0  0
   -7.2307   -2.6114    0.8773 H   0  0  0  0  0  0  0  0  0  0  0  0
   -6.4794   -3.0527   -0.6900 H   0  0  0  0  0  0  0  0  0  0  0  0
   -5.3261   -1.4864   -2.0074 H   0  0  0  0  0  0  0  0  0  0  0  0
   -2.5306   -0.0687   -5.2772 H   0  0  0  0  0  0  0  0  0  0  0  0
    0.2053    0.0933   -0.5569 H   0  0  0  0  0  0  0  0  0  0  0  0
    2.1780   -1.2673   -2.7106 H   0  0  0  0  0  0  0  0  0  0  0  0
    5.1662    1.5453   -4.8212 H   0  0  0  0  0  0  0  0  0  0  0  0
    5.8463    3.7412   -5.0073 H   0  0  0  0  0  0  0  0  0  0  0  0
    4.7608    4.2406   -3.7279 H   0  0  0  0  0  0  0  0  0  0  0  0
    4.8387    6.0419   -5.8207 H   0  0  0  0  0  0  0  0  0  0  0  0
    1.5183    5.7451   -8.2542 H   0  0  0  0  0  0  0  0  0  0  0  0
    1.0505    3.4061   -7.4596 H   0  0  0  0  0  0  0  0  0  0  0  0
    2.5481    2.3729   -5.7983 H   0  0  0  0  0  0  0  0  0  0  0  0
    2.7851    3.6516   -2.9703 H   0  0  0  0  0  0  0  0  0  0  0  0
    0.8422    2.7054   -1.7861 H   0  0  0  0  0  0  0  0  0  0  0  0
   -1.0208   -0.8992    0.3850 H   0  0  0  0  0  0  0  0  0  0  0  0
   -1.2812   -3.5757    5.1215 H   0  0  0  0  0  0  0  0  0  0  0  0
   -0.4601   -4.6809    8.6431 H   0  0  0  0  0  0  0  0  0  0  0  0
   -2.1934   -5.0622    8.8816 H   0  0  0  0  0  0  0  0  0  0  0  0
   -1.6406   -3.3592    8.7801 H   0  0  0  0  0  0  0  0  0  0  0  0
   -2.0691   -1.6248    5.3748 H   0  0  0  0  0  0  0  0  0  0  0  0
   -2.1238    0.8486    5.1988 H   0  0  0  0  0  0  0  0  0  0  0  0
   -1.9098    0.9085    6.9777 H   0  0  0  0  0  0  0  0  0  0  0  0
   -3.4388    0.2920    6.2691 H   0  0  0  0  0  0  0  0  0  0  0  0
    0.1825   -0.4142    4.5809 H   0  0  0  0  0  0  0  0  0  0  0  0
   -0.9692   -0.0520    1.9647 H   0  0  0  0  0  0  0  0  0  0  0  0
  2  1  2  0  0  0  0
  3  2  1  0  0  0  0
  3 49  1  1  0  0  0
  4 53  1  0  0  0  0
  4 52  1  0  0  0  0
  4  3  1  0  0  0  0
  5  4  1  0  0  0  0
  6  5  1  0  0  0  0
  6 88  1  1  0  0  0
  7 55  1  0  0  0  0
  7 54  1  0  0  0  0
  7  6  1  0  0  0  0
  8  7  1  0  0  0  0
  9 56  1  0  0  0  0
  9  8  1  0  0  0  0
  9 58  1  0  0  0  0
 10 59  1  0  0  0  0
 10  8  1  0  0  0  0
 10 60  1  0  0  0  0
 11 12  1  0  0  0  0
 11  6  1  0  0  0  0
 12 13  2  0  0  0  0
 14 62  1  0  0  0  0
 14 12  1  0  0  0  0
 15 14  1  0  0  0  0
 16 15  1  0  0  0  0
 16 17  1  0  0  0  0
 18 17  1  0  0  0  0
 18 64  1  0  0  0  0
 19 16  2  0  0  0  0
 20 43  1  0  0  0  0
 20 19  1  0  0  0  0
 21 20  2  0  0  0  0
 22 23  2  0  0  0  0
 22 21  1  0  0  0  0
 23 26  1  0  0  0  0
 24 23  1  0  0  0  0
 25 24  3  0  0  0  0
 26 27  1  0  0  0  0
 26 43  2  0  0  0  0
 27 68  1  0  0  0  0
 28 27  1  0  0  0  0
 29 69  1  0  0  0  0
 29 28  2  0  0  0  0
 30 29  1  0  0  0  0
 31 30  1  0  0  0  0
 32 30  2  0  0  0  0
 32 41  1  0  0  0  0
 33 32  1  0  0  0  0
 34 33  1  0  0  0  0
 34 72  1  0  0  0  0
 35 34  1  0  0  0  0
 36 73  1  0  0  0  0
 36 35  2  0  0  0  0
 37 36  1  0  0  0  0
 38 39  1  0  0  0  0
 38 37  2  0  0  0  0
 39 40  2  0  0  0  0
 40 76  1  0  0  0  0
 40 35  1  0  0  0  0
 41 42  2  0  0  0  0
 42 28  1  0  0  0  0
 42 78  1  0  0  0  0
 43 44  1  0  0  0  0
 44 79  1  0  0  0  0
 44 15  2  0  0  0  0
 45  3  1  0  0  0  0
 45 46  1  0  0  0  0
 46 47  1  0  0  0  0
 47 81  1  0  0  0  0
 47 83  1  0  0  0  0
 47 82  1  0  0  0  0
 48 46  2  0  0  0  0
 50  2  1  0  0  0  0
 51 50  1  0  0  0  0
 51 87  1  0  0  0  0
 51 86  1  0  0  0  0
 57  9  1  0  0  0  0
 61 10  1  0  0  0  0
 63 18  1  0  0  0  0
 65 18  1  0  0  0  0
 66 19  1  0  0  0  0
 67 22  1  0  0  0  0
 70 33  1  0  0  0  0
 71 34  1  0  0  0  0
 74 38  1  0  0  0  0
 75 39  1  0  0  0  0
 77 41  1  0  0  0  0
 80 45  1  0  0  0  0
 84 50  1  0  0  0  0
 85 51  1  0  0  0  0
 89 11  1  0  0  0  0
M  END
