89
-1 1
O         2.200900   14.575970   -5.977183
C         1.834935   13.800379   -5.099609
C         2.512372   13.793857   -3.715083
C         3.350618   12.532192   -3.440955
S         2.401785   10.994174   -3.215059
C         2.765279   10.151391   -5.256331
C         4.077166    9.390167   -5.131865
N         4.054445    7.999309   -4.761721
C         5.320131    7.366448   -5.008720
C         3.560256    7.738106   -3.431413
C         1.606156    9.688127   -5.918891
C         0.954644    8.417075   -5.900211
O         1.128968    7.448443   -5.172111
N        -0.130585    8.268921   -6.838715
C        -0.533942    9.021133   -7.910759
C        -1.888635    8.862386   -8.376656
O        -2.589878    7.908341   -7.726690
C        -3.920645    7.678237   -8.093362
C        -2.383638    9.639836   -9.396958
C        -1.589723   10.648534  -10.005279
N        -2.169163   11.438879  -10.955373
C        -1.445370   12.401281  -11.446720
C        -0.099454   12.697961  -11.069613
C         0.467218   13.869589  -11.666972
N         0.816507   14.836383  -12.205402
C         0.537497   11.871906  -10.126197
N         1.808844   12.040175   -9.669197
C         2.684871   13.096882  -10.032427
C         3.391224   13.022380  -11.232352
C         4.159044   14.097795  -11.644267
Cl         4.978876   14.015609  -13.194661
C         4.262905   15.279432  -10.883318
N         4.980411   16.354305  -11.356821
C         4.867427   17.679992  -10.812131
C         3.546688   18.397318  -11.052031
C         3.416209   19.739256  -10.672925
N         2.311448   20.460233  -10.829816
C         1.254772   19.858470  -11.377527
C         1.266817   18.529556  -11.791147
C         2.434561   17.786472  -11.631360
C         3.602022   15.292307   -9.641623
C         2.824118   14.223646   -9.219713
C        -0.247905   10.792571   -9.583200
C         0.263051    9.926282   -8.588346
N         1.567576   13.984354   -2.635611
C         0.878612   15.123756   -2.338705
C         1.314103   16.383303   -3.066069
O        -0.012886   15.133555   -1.510407
H         3.205609   14.647616   -3.757256
N         0.800376   12.953006   -5.250668
C         0.041649   12.907980   -6.476158
H         4.064930   12.401356   -4.272005
H         3.949592   12.723801   -2.537544
H         4.755710    9.980675   -4.469277
H         4.519433    9.443005   -6.144054
H         5.613344    7.485874   -6.064623
H         5.249265    6.287116   -4.800467
H         6.153093    7.773496   -4.382547
H         2.539247    8.121145   -3.328829
H         4.200596    8.189640   -2.639144
H         3.514521    6.649991   -3.270455
H        -0.731468    7.492134   -6.591018
H        -4.542054    8.579176   -7.949700
H        -4.293743    6.877813   -7.442755
H        -4.002371    7.356410   -9.146309
H        -3.407685    9.545292   -9.755506
H        -1.910078   13.047243  -12.201469
H         2.076304   11.479217   -8.870329
H         3.299936   12.139878  -11.866350
H         5.236317   16.292435  -12.333908
H         5.683210   18.283270  -11.240164
H         5.069772   17.650881   -9.728002
H         4.270165   20.256402  -10.214650
H         0.350813   20.467285  -11.490927
H         0.380712   18.063594  -12.225456
H         2.440254   16.739932  -11.943247
H         3.660897   16.174136   -9.003511
H         2.316430   14.283720   -8.251923
H         1.303739    9.965690   -8.276827
H         1.215812   13.134274   -2.197428
H         2.338506   16.657755   -2.768811
H         0.629910   17.191273   -2.783552
H         1.317740   16.255949   -4.158374
H         0.718313   12.199158   -4.564258
H         0.664417   12.625859   -7.338729
H        -0.399933   13.892008   -6.695388
H        -0.761007   12.167001   -6.378227
H         3.018235   11.161287   -5.601606
H         1.002534   10.485805   -6.347870
