89
-1 1
O         1.975307   -4.445283    4.726313
C         2.095065   -4.252863    3.522385
C         1.828171   -2.865721    2.908834
C         1.097317   -2.896881    1.552551
S         2.140739   -3.347558    0.113685
C        -1.131312   -3.820153   -0.920649
C        -0.903920   -5.137358   -0.258159
N        -1.639369   -5.350395    0.968935
C        -0.969885   -6.251892    1.878741
C        -3.016263   -5.717760    0.744921
C        -1.799834   -2.777769   -0.413453
C        -1.842217   -1.508219   -1.171139
O        -1.278945   -1.340715   -2.238057
N        -2.585809   -0.511635   -0.561685
C        -2.803666    0.782213   -1.027459
C        -3.737666    1.585741   -0.293611
O        -4.223690    0.992738    0.820125
C        -5.097782    1.714647    1.647945
C        -4.093150    2.835960   -0.741552
C        -3.499133    3.382969   -1.910370
N        -3.957925    4.584604   -2.363872
C        -3.418945    5.062134   -3.450195
C        -2.332707    4.454907   -4.140935
C        -1.733001    5.114896   -5.258866
N        -1.228721    5.630563   -6.167113
C        -1.798395    3.250165   -3.666224
N        -0.674104    2.673581   -4.222274
C         0.421598    2.346755   -3.343246
C         1.028226    3.368945   -2.615414
C         1.990035    3.067259   -1.661827
Cl         2.695635    4.383069   -0.738092
C         2.367005    1.741097   -1.368764
N         3.246248    1.441869   -0.350389
C         2.930375    0.366356    0.591549
C         1.746756    0.719017    1.468540
C         1.944549    1.217916    2.761202
N         0.961691    1.572796    3.588897
C        -0.288007    1.459469    3.145914
C        -0.609705    0.987398    1.874862
C         0.424633    0.605784    1.025106
C         1.784178    0.734814   -2.166551
C         0.840448    1.030859   -3.138733
C        -2.475077    2.645868   -2.557212
C        -2.184257    1.328477   -2.126518
N         3.062617   -2.118642    2.771967
C         3.677920   -1.322873    3.676932
C         3.058281   -1.241916    5.057143
O         4.667332   -0.662730    3.378137
H         1.178791   -2.361103    3.639543
N         2.488701   -5.201514    2.643539
C         2.860906   -6.528591    3.049648
H         0.234615   -3.576059    1.653376
H         0.673088   -1.895734    1.391960
H         0.184474   -5.147526   -0.053449
H        -1.077271   -5.951819   -1.000523
H         0.052758   -5.899030    2.076656
H        -0.908681   -7.294770    1.489893
H        -1.506646   -6.284663    2.839650
H        -3.504154   -4.987599    0.082227
H        -3.567986   -5.732924    1.698239
H        -3.122990   -6.723985    0.275478
H        -3.069150   -0.744985    0.296370
H        -5.324528    1.069319    2.504823
H        -6.035325    1.963179    1.122659
H        -4.628629    2.645887    2.006959
H        -4.840888    3.446073   -0.237321
H        -3.807427    6.013721   -3.831761
H        -0.376461    3.128114   -5.081386
H         0.721217    4.406336   -2.761501
H         3.581982    2.272586    0.124595
H         3.815318    0.194186    1.221858
H         2.741665   -0.578591    0.057034
H         2.966802    1.296909    3.149700
H        -1.082415    1.754879    3.841632
H        -1.652257    0.903599    1.565160
H         0.207922    0.208135    0.030043
H         2.052194   -0.308109   -1.984304
H         0.380642    0.216828   -3.700955
H        -1.495204    0.705224   -2.679534
H         3.479901   -2.196266    1.840041
H         2.734506   -2.225273    5.425552
H         2.178436   -0.578351    5.017785
H         3.796093   -0.793826    5.733215
H         2.574331   -4.907811    1.655131
H         2.764805   -6.594196    4.141516
H         3.902228   -6.756294    2.768535
H         2.208328   -7.290974    2.590715
H        -2.260986   -2.841609    0.576838
H        -0.649012   -3.682883   -1.893235
