89
-1 1
O         2.395803   -4.609825    4.867193
C         2.199704   -4.379664    3.683602
C         1.812675   -2.961684    3.216616
C         0.703577   -2.890694    2.163458
S         1.264545   -3.285766    0.473833
C        -0.455368   -3.501323   -0.409079
C        -0.915140   -4.946435   -0.201235
N        -1.514160   -5.225656    1.101620
C        -0.977163   -6.388363    1.762918
C        -2.957917   -5.226298    1.079658
C        -1.432719   -2.461360   -0.100962
C        -1.476753   -1.304957   -0.884998
O        -0.721654   -1.016683   -1.836550
N        -2.502689   -0.378926   -0.513383
C        -2.805841    0.838037   -1.063864
C        -3.905926    1.561092   -0.478682
O        -4.457740    0.952331    0.599058
C        -5.528007    1.573870    1.252336
C        -4.344467    2.747712   -1.012611
C        -3.693328    3.327828   -2.133341
N        -4.232729    4.461878   -2.665634
C        -3.651335    4.973173   -3.713041
C        -2.457237    4.456732   -4.288810
C        -1.838553    5.136248   -5.383636
N        -1.317860    5.671203   -6.272135
C        -1.853440    3.317213   -3.738347
N        -0.663375    2.829860   -4.239765
C         0.416100    2.510921   -3.349341
C         0.917816    3.493005   -2.496460
C         1.893468    3.167547   -1.563614
Cl         2.466810    4.422370   -0.475434
C         2.398679    1.860418   -1.431332
N         3.322176    1.519859   -0.452860
C         3.046593    0.368033    0.406744
C         1.891429    0.607984    1.354093
C         2.127348    0.947218    2.690511
N         1.170307    1.160501    3.591905
C        -0.093063    1.074754    3.174274
C        -0.448592    0.774191    1.861415
C         0.561348    0.524456    0.934162
C         1.908565    0.906513   -2.340156
C         0.940750    1.221219   -3.280225
C        -2.538132    2.680127   -2.650647
C        -2.138582    1.427865   -2.123200
N         3.000701   -2.244994    2.790551
C         3.874982   -1.533703    3.555336
C         3.545709   -1.393121    5.024086
O         4.849590   -0.996362    3.051281
H         1.419840   -2.479753    4.121853
N         2.363925   -5.301589    2.704657
C         2.822190   -6.640262    2.969409
H        -0.108007   -3.585347    2.423773
H         0.287546   -1.874215    2.146654
H        -0.057745   -5.620993   -0.352411
H        -1.639742   -5.176637   -1.009297
H         0.109695   -6.285494    1.887692
H        -1.181283   -7.342313    1.221699
H        -1.412293   -6.481877    2.770997
H        -3.323679   -4.320671    0.577649
H        -3.356770   -5.235883    2.107133
H        -3.380244   -6.108910    0.543387
H        -3.129068   -0.681203    0.219834
H        -5.797502    0.932104    2.100286
H        -6.402878    1.680296    0.587600
H        -5.246451    2.572290    1.629126
H        -5.204448    3.284860   -0.615255
H        -4.097021    5.871569   -4.156415
H        -0.360650    3.302034   -5.086991
H         0.518884    4.508201   -2.532296
H         3.598642    2.326402    0.097170
H         3.956419    0.137963    0.981721
H         2.829900   -0.513920   -0.213417
H         3.161364    1.017882    3.048276
H        -0.868689    1.250298    3.928889
H        -1.495633    0.702873    1.564637
H         0.316267    0.239746   -0.093780
H         2.257141   -0.123526   -2.268512
H         0.536523    0.437111   -3.920685
H        -1.320399    0.858115   -2.546020
H         3.234143   -2.282338    1.801671
H         3.291329   -2.358868    5.482854
H         2.683104   -0.713830    5.130463
H         4.411976   -0.944906    5.523589
H         2.145780   -5.014490    1.746724
H         3.015962   -6.726006    4.046139
H         3.751485   -6.860262    2.420146
H         2.065665   -7.391033    2.686356
H        -2.045898   -2.545365    0.798690
H        -0.119745   -3.380654   -1.449711
