-1 1
 OpenBabel05232413483D

 89 91  0  0  1  0  0  0  0  0999 V2000
    1.9753   -4.4453    4.7263 O   0  0  0  0  0  0  0  0  0  0  0  0
    2.0951   -4.2529    3.5224 C   0  0  0  0  0  0  0  0  0  0  0  0
    1.8282   -2.8657    2.9088 C   0  0  2  0  0  0  0  0  0  0  0  0
    1.0973   -2.8969    1.5526 C   0  0  0  0  0  0  0  0  0  0  0  0
    2.1407   -3.3476    0.1137 S   0  0  0  0  0  1  0  0  0  0  0  0
   -1.1313   -3.8202   -0.9206 C   0  0  0  0  0  0  0  0  0  0  0  0
   -0.9039   -5.1374   -0.2582 C   0  0  0  0  0  0  0  0  0  0  0  0
   -1.6394   -5.3504    0.9689 N   0  0  0  0  0  0  0  0  0  0  0  0
   -0.9699   -6.2519    1.8787 C   0  0  0  0  0  0  0  0  0  0  0  0
   -3.0163   -5.7178    0.7449 C   0  0  0  0  0  0  0  0  0  0  0  0
   -1.7998   -2.7778   -0.4135 C   0  0  0  0  0  0  0  0  0  0  0  0
   -1.8422   -1.5082   -1.1711 C   0  0  0  0  0  0  0  0  0  0  0  0
   -1.2789   -1.3407   -2.2381 O   0  0  0  0  0  0  0  0  0  0  0  0
   -2.5858   -0.5116   -0.5617 N   0  0  0  0  0  0  0  0  0  0  0  0
   -2.8037    0.7822   -1.0275 C   0  0  0  0  0  0  0  0  0  0  0  0
   -3.7377    1.5857   -0.2936 C   0  0  0  0  0  0  0  0  0  0  0  0
   -4.2237    0.9927    0.8201 O   0  0  0  0  0  0  0  0  0  0  0  0
   -5.0978    1.7146    1.6479 C   0  0  0  0  0  0  0  0  0  0  0  0
   -4.0931    2.8360   -0.7416 C   0  0  0  0  0  0  0  0  0  0  0  0
   -3.4991    3.3830   -1.9104 C   0  0  0  0  0  0  0  0  0  0  0  0
   -3.9579    4.5846   -2.3639 N   0  0  0  0  0  0  0  0  0  0  0  0
   -3.4189    5.0621   -3.4502 C   0  0  0  0  0  0  0  0  0  0  0  0
   -2.3327    4.4549   -4.1409 C   0  0  0  0  0  0  0  0  0  0  0  0
   -1.7330    5.1149   -5.2589 C   0  0  0  0  0  0  0  0  0  0  0  0
   -1.2287    5.6306   -6.1671 N   0  0  0  0  0  0  0  0  0  0  0  0
   -1.7984    3.2502   -3.6662 C   0  0  0  0  0  0  0  0  0  0  0  0
   -0.6741    2.6736   -4.2223 N   0  0  0  0  0  0  0  0  0  0  0  0
    0.4216    2.3468   -3.3432 C   0  0  0  0  0  0  0  0  0  0  0  0
    1.0282    3.3689   -2.6154 C   0  0  0  0  0  0  0  0  0  0  0  0
    1.9900    3.0673   -1.6618 C   0  0  0  0  0  0  0  0  0  0  0  0
    2.6956    4.3831   -0.7381 Cl  0  0  0  0  0  0  0  0  0  0  0  0
    2.3670    1.7411   -1.3688 C   0  0  0  0  0  0  0  0  0  0  0  0
    3.2462    1.4419   -0.3504 N   0  0  0  0  0  0  0  0  0  0  0  0
    2.9304    0.3664    0.5915 C   0  0  0  0  0  0  0  0  0  0  0  0
    1.7468    0.7190    1.4685 C   0  0  0  0  0  0  0  0  0  0  0  0
    1.9445    1.2179    2.7612 C   0  0  0  0  0  0  0  0  0  0  0  0
    0.9617    1.5728    3.5889 N   0  0  0  0  0  0  0  0  0  0  0  0
   -0.2880    1.4595    3.1459 C   0  0  0  0  0  0  0  0  0  0  0  0
   -0.6097    0.9874    1.8749 C   0  0  0  0  0  0  0  0  0  0  0  0
    0.4246    0.6058    1.0251 C   0  0  0  0  0  0  0  0  0  0  0  0
    1.7842    0.7348   -2.1666 C   0  0  0  0  0  0  0  0  0  0  0  0
    0.8404    1.0309   -3.1387 C   0  0  0  0  0  0  0  0  0  0  0  0
   -2.4751    2.6459   -2.5572 C   0  0  0  0  0  0  0  0  0  0  0  0
   -2.1843    1.3285   -2.1265 C   0  0  0  0  0  0  0  0  0  0  0  0
    3.0626   -2.1186    2.7720 N   0  0  0  0  0  0  0  0  0  0  0  0
    3.6779   -1.3229    3.6769 C   0  0  0  0  0  0  0  0  0  0  0  0
    3.0583   -1.2419    5.0571 C   0  0  0  0  0  0  0  0  0  0  0  0
    4.6673   -0.6627    3.3781 O   0  0  0  0  0  0  0  0  0  0  0  0
    1.1788   -2.3611    3.6395 H   0  0  0  0  0  0  0  0  0  0  0  0
    2.4887   -5.2015    2.6435 N   0  0  0  0  0  0  0  0  0  0  0  0
    2.8609   -6.5286    3.0496 C   0  0  0  0  0  0  0  0  0  0  0  0
    0.2346   -3.5761    1.6534 H   0  0  0  0  0  0  0  0  0  0  0  0
    0.6731   -1.8957    1.3920 H   0  0  0  0  0  0  0  0  0  0  0  0
    0.1845   -5.1475   -0.0534 H   0  0  0  0  0  0  0  0  0  0  0  0
   -1.0773   -5.9518   -1.0005 H   0  0  0  0  0  0  0  0  0  0  0  0
    0.0528   -5.8990    2.0767 H   0  0  0  0  0  0  0  0  0  0  0  0
   -0.9087   -7.2948    1.4899 H   0  0  0  0  0  0  0  0  0  0  0  0
   -1.5066   -6.2847    2.8396 H   0  0  0  0  0  0  0  0  0  0  0  0
   -3.5042   -4.9876    0.0822 H   0  0  0  0  0  0  0  0  0  0  0  0
   -3.5680   -5.7329    1.6982 H   0  0  0  0  0  0  0  0  0  0  0  0
   -3.1230   -6.7240    0.2755 H   0  0  0  0  0  0  0  0  0  0  0  0
   -3.0692   -0.7450    0.2964 H   0  0  0  0  0  0  0  0  0  0  0  0
   -5.3245    1.0693    2.5048 H   0  0  0  0  0  0  0  0  0  0  0  0
   -6.0353    1.9632    1.1227 H   0  0  0  0  0  0  0  0  0  0  0  0
   -4.6286    2.6459    2.0070 H   0  0  0  0  0  0  0  0  0  0  0  0
   -4.8409    3.4461   -0.2373 H   0  0  0  0  0  0  0  0  0  0  0  0
   -3.8074    6.0137   -3.8318 H   0  0  0  0  0  0  0  0  0  0  0  0
   -0.3765    3.1281   -5.0814 H   0  0  0  0  0  0  0  0  0  0  0  0
    0.7212    4.4063   -2.7615 H   0  0  0  0  0  0  0  0  0  0  0  0
    3.5820    2.2726    0.1246 H   0  0  0  0  0  0  0  0  0  0  0  0
    3.8153    0.1942    1.2219 H   0  0  0  0  0  0  0  0  0  0  0  0
    2.7417   -0.5786    0.0570 H   0  0  0  0  0  0  0  0  0  0  0  0
    2.9668    1.2969    3.1497 H   0  0  0  0  0  0  0  0  0  0  0  0
   -1.0824    1.7549    3.8416 H   0  0  0  0  0  0  0  0  0  0  0  0
   -1.6523    0.9036    1.5652 H   0  0  0  0  0  0  0  0  0  0  0  0
    0.2079    0.2081    0.0300 H   0  0  0  0  0  0  0  0  0  0  0  0
    2.0522   -0.3081   -1.9843 H   0  0  0  0  0  0  0  0  0  0  0  0
    0.3806    0.2168   -3.7010 H   0  0  0  0  0  0  0  0  0  0  0  0
   -1.4952    0.7052   -2.6795 H   0  0  0  0  0  0  0  0  0  0  0  0
    3.4799   -2.1963    1.8400 H   0  0  0  0  0  0  0  0  0  0  0  0
    2.7345   -2.2253    5.4256 H   0  0  0  0  0  0  0  0  0  0  0  0
    2.1784   -0.5784    5.0178 H   0  0  0  0  0  0  0  0  0  0  0  0
    3.7961   -0.7938    5.7332 H   0  0  0  0  0  0  0  0  0  0  0  0
    2.5743   -4.9078    1.6551 H   0  0  0  0  0  0  0  0  0  0  0  0
    2.7648   -6.5942    4.1415 H   0  0  0  0  0  0  0  0  0  0  0  0
    3.9022   -6.7563    2.7685 H   0  0  0  0  0  0  0  0  0  0  0  0
    2.2083   -7.2910    2.5907 H   0  0  0  0  0  0  0  0  0  0  0  0
   -2.2610   -2.8416    0.5768 H   0  0  0  0  0  0  0  0  0  0  0  0
   -0.6490   -3.6829   -1.8932 H   0  0  0  0  0  0  0  0  0  0  0  0
  2  1  2  0  0  0  0
  3  2  1  0  0  0  0
  3 49  1  1  0  0  0
  4 52  1  0  0  0  0
  4  3  1  0  0  0  0
  5  4  1  0  0  0  0
  6 11  2  0  0  0  0
  6  7  1  0  0  0  0
  7 54  1  0  0  0  0
  7  8  1  0  0  0  0
  8  9  1  0  0  0  0
  9 56  1  0  0  0  0
  9 58  1  0  0  0  0
 10  8  1  0  0  0  0
 10 60  1  0  0  0  0
 11 88  1  0  0  0  0
 12 14  1  0  0  0  0
 12 11  1  0  0  0  0
 13 12  2  0  0  0  0
 14 62  1  0  0  0  0
 15 14  1  0  0  0  0
 15 16  1  0  0  0  0
 16 17  1  0  0  0  0
 17 18  1  0  0  0  0
 18 65  1  0  0  0  0
 18 63  1  0  0  0  0
 19 16  2  0  0  0  0
 19 66  1  0  0  0  0
 20 19  1  0  0  0  0
 21 20  1  0  0  0  0
 22 21  2  0  0  0  0
 23 26  2  0  0  0  0
 23 22  1  0  0  0  0
 24 23  1  0  0  0  0
 25 24  3  0  0  0  0
 26 43  1  0  0  0  0
 27 26  1  0  0  0  0
 27 28  1  0  0  0  0
 28 42  2  0  0  0  0
 28 29  1  0  0  0  0
 29 30  2  0  0  0  0
 30 32  1  0  0  0  0
 30 31  1  0  0  0  0
 32 33  1  0  0  0  0
 33 70  1  0  0  0  0
 33 34  1  0  0  0  0
 34 71  1  0  0  0  0
 34 35  1  0  0  0  0
 35 36  1  0  0  0  0
 36 73  1  0  0  0  0
 36 37  2  0  0  0  0
 38 37  1  0  0  0  0
 38 74  1  0  0  0  0
 39 38  2  0  0  0  0
 40 35  2  0  0  0  0
 40 39  1  0  0  0  0
 41 77  1  0  0  0  0
 41 32  2  0  0  0  0
 42 41  1  0  0  0  0
 43 44  1  0  0  0  0
 43 20  2  0  0  0  0
 44 15  2  0  0  0  0
 45  3  1  0  0  0  0
 45 46  1  0  0  0  0
 46 47  1  0  0  0  0
 47 81  1  0  0  0  0
 47 83  1  0  0  0  0
 48 46  2  0  0  0  0
 50 51  1  0  0  0  0
 50  2  1  0  0  0  0
 51 85  1  0  0  0  0
 53  4  1  0  0  0  0
 55  7  1  0  0  0  0
 57  9  1  0  0  0  0
 59 10  1  0  0  0  0
 61 10  1  0  0  0  0
 64 18  1  0  0  0  0
 67 22  1  0  0  0  0
 68 27  1  0  0  0  0
 69 29  1  0  0  0  0
 72 34  1  0  0  0  0
 75 39  1  0  0  0  0
 76 40  1  0  0  0  0
 78 42  1  0  0  0  0
 79 44  1  0  0  0  0
 80 45  1  0  0  0  0
 82 47  1  0  0  0  0
 84 50  1  0  0  0  0
 86 51  1  0  0  0  0
 87 51  1  0  0  0  0
 89  6  1  0  0  0  0
M  END
