-1 1
 OpenBabel05192410563D

 89 92  0  0  1  0  0  0  0  0999 V2000
    3.4171   -0.0799   -6.4100 O   0  0  0  0  0  0  0  0  0  0  0  0
    2.3544   -0.6759   -6.4138 C   0  0  0  0  0  0  0  0  0  0  0  0
    1.9030   -1.4671   -5.1671 C   0  0  2  0  0  0  0  0  0  0  0  0
    0.7433   -2.4724   -5.3079 C   0  0  0  0  0  0  0  0  0  0  0  0
   -0.8828   -1.9162   -5.8693 S   0  0  0  0  0  0  0  0  0  0  0  0
   -2.0356   -2.4469   -4.3125 C   0  0  1  0  0  0  0  0  0  0  0  0
   -2.6166   -3.8222   -4.6256 C   0  0  0  0  0  0  0  0  0  0  0  0
   -1.6584   -4.9186   -4.5072 N   0  0  0  0  0  0  0  0  0  0  0  0
   -1.9789   -5.8816   -3.4847 C   0  0  0  0  0  0  0  0  0  0  0  0
   -1.2824   -5.5186   -5.7617 C   0  0  0  0  0  0  0  0  0  0  0  0
   -1.3456   -2.3698   -3.0438 C   0  0  0  0  0  3  0  0  0  0  0  0
   -0.9890   -1.1133   -2.5510 C   0  0  0  0  0  0  0  0  0  0  0  0
   -1.2648   -0.0179   -3.0560 O   0  0  0  0  0  0  0  0  0  0  0  0
   -0.1305   -1.0195   -1.3656 N   0  0  0  0  0  0  0  0  0  0  0  0
   -0.3436   -1.6284   -0.1378 C   0  0  0  0  0  0  0  0  0  0  0  0
   -0.1849   -3.0446    0.0999 C   0  0  0  0  0  0  0  0  0  0  0  0
    0.1991   -3.9285   -0.8465 O   0  0  0  0  0  0  0  0  0  0  0  0
    1.3779   -3.6682   -1.5998 C   0  0  0  0  0  0  0  0  0  0  0  0
    1.5485   -4.8025   -2.5845 C   0  0  0  0  0  0  0  0  0  0  0  0
   -0.4247   -3.5678    1.3533 C   0  0  0  0  0  0  0  0  0  0  0  0
   -0.7844   -2.7653    2.4570 C   0  0  0  0  0  0  0  0  0  0  0  0
   -0.9593   -3.3607    3.6724 N   0  0  0  0  0  0  0  0  0  0  0  0
   -1.2712   -2.6007    4.6804 C   0  0  0  0  0  0  0  0  0  0  0  0
   -1.4571   -1.1875    4.6007 C   0  0  0  0  0  0  0  0  0  0  0  0
   -1.9392   -0.5075    5.7630 C   0  0  0  0  0  0  0  0  0  0  0  0
   -2.3390    0.0041    6.7232 N   0  0  0  0  0  0  0  0  0  0  0  0
   -1.2560   -0.5452    3.3757 C   0  0  0  0  0  0  0  0  0  0  0  0
   -1.4389    0.8097    3.1886 N   0  0  0  0  0  0  0  0  0  0  0  0
   -1.0433    1.8676    4.0160 C   0  0  0  0  0  0  0  0  0  0  0  0
   -0.0399    1.7245    4.9797 C   0  0  0  0  0  0  0  0  0  0  0  0
    0.3464    2.8207    5.7426 C   0  0  0  0  0  0  0  0  0  0  0  0
    1.5824    2.6105    6.9565 Cl  0  0  0  0  0  0  0  0  0  0  0  0
   -0.2244    4.0834    5.5538 C   0  0  0  0  0  0  0  0  0  0  0  0
    0.1513    5.1659    6.2903 O   0  0  0  0  0  0  0  0  0  0  0  0
    1.3124    5.8493    5.8285 C   0  0  0  0  0  0  0  0  0  0  0  0
    1.2138    6.2836    4.4093 C   0  0  0  0  0  0  0  0  0  0  0  0
    0.3480    7.2841    4.1174 O   0  0  0  0  0  0  0  0  0  0  0  0
    0.3504    7.4472    2.7801 C   0  0  0  0  0  0  0  0  0  0  0  0
    1.2071    6.5687    2.1907 C   0  0  0  0  0  0  0  0  0  0  0  0
    1.7704    5.8033    3.2607 C   0  0  0  0  0  0  0  0  0  0  0  0
   -1.2155    4.2143    4.5809 C   0  0  0  0  0  0  0  0  0  0  0  0
   -1.6326    3.1254    3.8297 C   0  0  0  0  0  0  0  0  0  0  0  0
   -0.8952   -1.3617    2.2550 C   0  0  0  0  0  0  0  0  0  0  0  0
   -0.6589   -0.8414    0.9630 C   0  0  0  0  0  0  0  0  0  0  0  0
    1.8574   -0.6190   -3.9919 N   0  0  0  0  0  0  0  0  0  0  0  0
    1.4130    0.6608   -3.7905 C   0  0  0  0  0  0  0  0  0  0  0  0
    0.7301    1.3638   -4.9354 C   0  0  0  0  0  0  0  0  0  0  0  0
    1.6098    1.1992   -2.7127 O   0  0  0  0  0  0  0  0  0  0  0  0
    2.7885   -2.1064   -5.0033 H   0  0  0  0  0  0  0  0  0  0  0  0
    1.5474   -0.7325   -7.5009 N   0  0  0  0  0  0  0  0  0  0  0  0
    1.8472    0.0291   -8.6853 C   0  0  0  0  0  0  0  0  0  0  0  0
    1.0833   -3.3093   -5.9388 H   0  0  0  0  0  0  0  0  0  0  0  0
    0.5473   -2.8674   -4.2967 H   0  0  0  0  0  0  0  0  0  0  0  0
   -3.0705   -3.8221   -5.6328 H   0  0  0  0  0  0  0  0  0  0  0  0
   -3.4448   -3.9871   -3.9130 H   0  0  0  0  0  0  0  0  0  0  0  0
   -1.1475   -6.5955   -3.3646 H   0  0  0  0  0  0  0  0  0  0  0  0
   -2.8993   -6.4733   -3.7047 H   0  0  0  0  0  0  0  0  0  0  0  0
   -2.1164   -5.3760   -2.5176 H   0  0  0  0  0  0  0  0  0  0  0  0
   -0.9880   -4.7335   -6.4732 H   0  0  0  0  0  0  0  0  0  0  0  0
   -2.1003   -6.1190   -6.2274 H   0  0  0  0  0  0  0  0  0  0  0  0
   -0.4193   -6.1900   -5.6171 H   0  0  0  0  0  0  0  0  0  0  0  0
    0.0971   -0.0303   -1.2837 H   0  0  0  0  0  0  0  0  0  0  0  0
    2.2355   -3.6045   -0.9043 H   0  0  0  0  0  0  0  0  0  0  0  0
    1.2821   -2.7043   -2.1201 H   0  0  0  0  0  0  0  0  0  0  0  0
    1.6287   -5.7675   -2.0618 H   0  0  0  0  0  0  0  0  0  0  0  0
    2.4610   -4.6483   -3.1802 H   0  0  0  0  0  0  0  0  0  0  0  0
    0.6870   -4.8367   -3.2698 H   0  0  0  0  0  0  0  0  0  0  0  0
   -0.2898   -4.6382    1.5090 H   0  0  0  0  0  0  0  0  0  0  0  0
   -1.4207   -3.0826    5.6540 H   0  0  0  0  0  0  0  0  0  0  0  0
   -1.6867    1.0802    2.2458 H   0  0  0  0  0  0  0  0  0  0  0  0
    0.4511    0.7644    5.1379 H   0  0  0  0  0  0  0  0  0  0  0  0
    2.2059    5.2121    5.9374 H   0  0  0  0  0  0  0  0  0  0  0  0
    1.4177    6.7149    6.4962 H   0  0  0  0  0  0  0  0  0  0  0  0
   -0.3004    8.2244    2.3893 H   0  0  0  0  0  0  0  0  0  0  0  0
    1.4076    6.4694    1.1269 H   0  0  0  0  0  0  0  0  0  0  0  0
    2.4816    4.9837    3.1891 H   0  0  0  0  0  0  0  0  0  0  0  0
   -1.6549    5.2018    4.4308 H   0  0  0  0  0  0  0  0  0  0  0  0
   -2.4201    3.2460    3.0829 H   0  0  0  0  0  0  0  0  0  0  0  0
   -0.7322    0.2320    0.7767 H   0  0  0  0  0  0  0  0  0  0  0  0
    2.2720   -0.9975   -3.1492 H   0  0  0  0  0  0  0  0  0  0  0  0
    1.4859    1.7141   -5.6559 H   0  0  0  0  0  0  0  0  0  0  0  0
    0.1970    2.2236   -4.5166 H   0  0  0  0  0  0  0  0  0  0  0  0
    0.0127    0.6969   -5.4317 H   0  0  0  0  0  0  0  0  0  0  0  0
    0.5958   -1.0707   -7.3723 H   0  0  0  0  0  0  0  0  0  0  0  0
    1.4098   -0.4599   -9.5673 H   0  0  0  0  0  0  0  0  0  0  0  0
    2.9367    0.0905   -8.8038 H   0  0  0  0  0  0  0  0  0  0  0  0
    1.4566    1.0604   -8.6248 H   0  0  0  0  0  0  0  0  0  0  0  0
   -2.7930   -1.6614   -4.4464 H   0  0  0  0  0  0  0  0  0  0  0  0
   -0.9903   -3.2834   -2.5803 H   0  0  0  0  0  0  0  0  0  0  0  0
  2  1  2  0  0  0  0
  2  3  1  0  0  0  0
  3 49  1  1  0  0  0
  3 45  1  0  0  0  0
  4  3  1  0  0  0  0
  4 53  1  0  0  0  0
  5  4  1  0  0  0  0
  5  6  1  0  0  0  0
  6 88  1  1  0  0  0
  6 11  1  0  0  0  0
  7  8  1  0  0  0  0
  7  6  1  0  0  0  0
  7 55  1  0  0  0  0
  8  9  1  0  0  0  0
  9 56  1  0  0  0  0
  9 58  1  0  0  0  0
 10 61  1  0  0  0  0
 10  8  1  0  0  0  0
 11 89  1  0  0  0  0
 11 12  1  0  0  0  0
 12 14  1  0  0  0  0
 13 12  2  0  0  0  0
 14 62  1  0  0  0  0
 14 15  1  0  0  0  0
 15 16  2  0  0  0  0
 15 44  1  0  0  0  0
 16 20  1  0  0  0  0
 17 16  1  0  0  0  0
 18 63  1  0  0  0  0
 18 17  1  0  0  0  0
 19 65  1  0  0  0  0
 19 18  1  0  0  0  0
 20 68  1  0  0  0  0
 20 21  2  0  0  0  0
 21 22  1  0  0  0  0
 22 23  2  0  0  0  0
 23 69  1  0  0  0  0
 24 23  1  0  0  0  0
 24 25  1  0  0  0  0
 25 26  3  0  0  0  0
 27 24  2  0  0  0  0
 28 27  1  0  0  0  0
 28 29  1  0  0  0  0
 29 30  1  0  0  0  0
 30 71  1  0  0  0  0
 30 31  2  0  0  0  0
 31 32  1  0  0  0  0
 33 31  1  0  0  0  0
 33 34  1  0  0  0  0
 35 72  1  0  0  0  0
 35 34  1  0  0  0  0
 35 73  1  0  0  0  0
 36 35  1  0  0  0  0
 37 36  1  0  0  0  0
 38 37  1  0  0  0  0
 39 38  2  0  0  0  0
 39 40  1  0  0  0  0
 40 36  2  0  0  0  0
 41 33  2  0  0  0  0
 42 29  2  0  0  0  0
 42 41  1  0  0  0  0
 43 21  1  0  0  0  0
 43 27  1  0  0  0  0
 44 43  2  0  0  0  0
 45 46  1  0  0  0  0
 45 80  1  0  0  0  0
 46 48  2  0  0  0  0
 47 82  1  0  0  0  0
 47 46  1  0  0  0  0
 50 84  1  0  0  0  0
 50  2  1  0  0  0  0
 51 87  1  0  0  0  0
 51 50  1  0  0  0  0
 52  4  1  0  0  0  0
 54  7  1  0  0  0  0
 57  9  1  0  0  0  0
 59 10  1  0  0  0  0
 60 10  1  0  0  0  0
 64 18  1  0  0  0  0
 66 19  1  0  0  0  0
 67 19  1  0  0  0  0
 70 28  1  0  0  0  0
 74 38  1  0  0  0  0
 75 39  1  0  0  0  0
 76 40  1  0  0  0  0
 77 41  1  0  0  0  0
 78 42  1  0  0  0  0
 79 44  1  0  0  0  0
 81 47  1  0  0  0  0
 83 47  1  0  0  0  0
 85 51  1  0  0  0  0
 86 51  1  0  0  0  0
M  END
