89
-1 1
O         3.840888    0.242933   -5.314369
C         2.886789   -0.371831   -5.770386
C         2.029232   -1.266972   -4.847924
C         0.988324   -2.209892   -5.495385
S        -0.278084   -1.543430   -6.635491
C        -2.415237   -2.737362   -4.215469
C        -2.569400   -4.002954   -4.990429
N        -2.235205   -5.222632   -4.284751
C        -3.252778   -5.639279   -3.349390
C        -1.840277   -6.289942   -5.171606
C        -1.886324   -2.615641   -2.990487
C        -1.539618   -1.256489   -2.524071
O        -1.926227   -0.247850   -3.072864
N        -0.604404   -1.121928   -1.477240
C        -0.537654   -1.763080   -0.233355
C        -0.237147   -3.154943   -0.027693
O        -0.016527   -4.031967   -1.029191
C         1.030335   -3.764506   -1.962627
C         1.086314   -4.921199   -2.931215
C        -0.183476   -3.661843    1.255167
C        -0.372851   -2.859350    2.399259
N        -0.258342   -3.440047    3.630241
C        -0.418106   -2.678139    4.670585
C        -0.714429   -1.281659    4.621470
C        -0.997602   -0.620867    5.858054
N        -1.231765   -0.132669    6.882839
C        -0.812055   -0.651172    3.376978
N        -1.113417    0.678163    3.213263
C        -0.722813    1.773273    4.003155
C         0.468830    1.766772    4.733153
C         0.837731    2.892566    5.460395
Cl         2.312220    2.853174    6.390058
C         0.058170    4.054479    5.453233
O         0.412318    5.166508    6.152025
C         1.345901    6.029552    5.507034
C         0.915800    6.447688    4.146344
O        -0.142338    7.288723    4.053310
C        -0.413927    7.457510    2.744532
C         0.452384    6.740032    1.977890
C         1.322155    6.074726    2.899142
C        -1.121232    4.050187    4.708282
C        -1.519269    2.923923    4.002392
C        -0.629102   -1.474598    2.213399
C        -0.695447   -0.972690    0.894963
N         1.561636   -0.516189   -3.688006
C         1.021753    0.724332   -3.559826
C         0.727354    1.505882   -4.809639
O         0.796112    1.173042   -2.435891
H         2.799706   -1.935508   -4.424218
N         2.538186   -0.365300   -7.069302
C         3.228505    0.474026   -8.009297
H         1.572165   -2.988193   -6.018813
H         0.480495   -2.718720   -4.658939
H        -1.885813   -3.869863   -5.849349
H        -3.592854   -4.042746   -5.433222
H        -2.882469   -6.470394   -2.728831
H        -4.187083   -5.977506   -3.855386
H        -3.516606   -4.810318   -2.678058
H        -1.007424   -5.961501   -5.810916
H        -2.666088   -6.635351   -5.835927
H        -1.498726   -7.158393   -4.585713
H        -0.265491   -0.150623   -1.475614
H         1.977085   -3.647390   -1.404295
H         0.825187   -2.826825   -2.498199
H         1.321625   -5.860234   -2.408195
H         1.857300   -4.732693   -3.692221
H         0.113046   -5.025605   -3.436126
H         0.049463   -4.717771    1.391299
H        -0.337016   -3.145974    5.658949
H        -1.506940    0.925619    2.315149
H         1.117940    0.890953    4.737351
H         2.332055    5.542741    5.427740
H         1.437252    6.896990    6.174263
H        -1.244436    8.116392    2.506873
H         0.467741    6.683336    0.892399
H         2.134648    5.389391    2.669190
H        -1.722055    4.960870    4.701326
H        -2.453976    2.932633    3.438213
H        -0.876261    0.087871    0.709883
H         1.760159   -0.926820   -2.784671
H         1.668171    1.919581   -5.204931
H         0.051944    2.325740   -4.541214
H         0.264790    0.857801   -5.571881
H         1.586054   -0.720480   -7.294741
H         3.053960    0.105401   -9.030081
H         4.307095    0.465386   -7.797573
H         2.890312    1.525252   -7.957203
H        -2.651410   -1.821497   -4.765225
H        -1.570795   -3.487296   -2.418229
