97
-1 1
O         9.658956   -1.360178    3.990593
C         8.788544   -1.859377    4.680882
C         7.328241   -1.927347    4.197529
C         6.775957   -0.498302    4.115340
S         5.212614   -0.287827    3.208919
C         3.782464   -0.866603    4.330261
C         3.941337   -0.320918    5.756894
N         4.620835   -1.268658    6.652742
C         3.735294   -2.333803    7.086540
C         5.242896   -0.609742    7.780052
C         2.521271   -0.507668    3.648400
C         1.938470    0.746567    3.823696
O         2.354783    1.712653    4.478528
N         0.679691    0.987837    3.112091
C        -0.134831    0.068355    2.515808
C        -0.605594   -1.074616    3.272903
O        -0.262599   -1.105048    4.562825
C         0.111025   -2.318476    5.182790
C        -0.943974   -2.787477    6.167158
C        -1.413904   -2.017541    2.682629
C        -1.864690   -1.882880    1.344967
N        -2.704469   -2.831204    0.849018
C        -3.122299   -2.699633   -0.378432
C        -2.742175   -1.634642   -1.242893
C        -3.163458   -1.695579   -2.608674
N        -3.519415   -1.781518   -3.708885
C        -1.905154   -0.626441   -0.747199
N        -1.453515    0.430111   -1.520086
C        -2.152448    1.153775   -2.486581
C        -3.546436    1.282086   -2.439175
C        -4.210098    1.994425   -3.428526
Cl        -5.947720    2.122314   -3.366359
C        -3.512808    2.622382   -4.466945
O        -4.159920    3.325863   -5.439669
C        -4.634321    2.544138   -6.510714
C        -5.346484    3.411077   -7.509450
C        -5.466614    4.766782   -7.331616
C        -6.142454    5.537330   -8.310513
N        -6.672675    5.046030   -9.399822
C        -5.915552    2.831521   -8.686334
C        -6.570075    3.703632   -9.603030
C        -7.144609    3.160165  -10.783912
C        -7.074462    1.813792  -11.043120
C        -6.426188    0.945953  -10.131905
C        -5.860499    1.441396   -8.981539
C        -2.122158    2.528987   -4.478594
C        -1.445305    1.800404   -3.509078
C        -1.454857   -0.738671    0.602411
C        -0.603516    0.214019    1.218741
N         6.483032   -2.753470    5.027168
C         6.284067   -4.095084    4.902819
C         7.102314   -4.813101    3.845103
O         5.495907   -4.696125    5.614054
H         7.377513   -2.315021    3.168708
N         9.005524   -2.362527    5.922888
C        10.293469   -2.341547    6.561315
H         6.689758   -0.073848    5.129709
H         7.512864    0.112846    3.575893
H         2.942850   -0.059299    6.155667
H         4.500040    0.624351    5.736147
H         3.303092   -2.842404    6.214403
H         2.904895   -1.950316    7.718570
H         4.298162   -3.095879    7.645031
H         5.977572    0.131046    7.428330
H         5.771459   -1.348545    8.404079
H         4.510637   -0.079583    8.426601
H         0.675072    1.918675    2.711814
H         1.064311   -2.110105    5.691553
H         0.313770   -3.085192    4.416548
H        -1.154725   -1.997690    6.902962
H        -0.589001   -3.678550    6.707008
H        -1.886961   -3.042591    5.660524
H        -1.788392   -2.870375    3.249390
H        -3.792111   -3.472135   -0.773819
H        -0.534503    0.779656   -1.282852
H        -4.119001    0.818505   -1.635554
H        -5.322359    1.761397   -6.141538
H        -3.788251    2.026777   -7.002737
H        -5.046738    5.240915   -6.444779
H        -6.236147    6.620038   -8.162173
H        -7.638088    3.856020  -11.464517
H        -7.519977    1.406345  -11.953416
H        -6.377013   -0.124189  -10.343876
H        -5.367722    0.755939   -8.289147
H        -1.578950    3.030438   -5.281781
H        -0.357849    1.711011   -3.552059
H        -0.266982    1.094568    0.667681
H         5.826387   -2.252011    5.661889
H         8.176419   -4.596184    3.944622
H         6.790103   -4.495519    2.838562
H         6.929294   -5.889849    3.952141
H         8.198555   -2.748585    6.397750
H        10.284830   -1.726119    7.475861
H        11.008396   -1.904970    5.851498
H        10.630732   -3.356288    6.827530
H         2.133480   -1.201636    2.899296
H         3.892299   -1.960082    4.351895
