-1 1
 OpenBabel05232414493D

 97100  0  0  1  0  0  0  0  0999 V2000
    8.2800    3.3996   -7.7086 O   0  0  0  0  0  0  0  0  0  0  0  0
    7.3279    2.7340   -7.3400 C   0  0  0  0  0  0  0  0  0  0  0  0
    6.0426    2.6398   -8.1744 C   0  0  2  0  0  0  0  0  0  0  0  0
    5.5129    4.0545   -8.4755 C   0  0  0  0  0  0  0  0  0  0  0  0
    4.0020    4.0879   -9.4792 S   0  0  0  0  0  1  0  0  0  0  0  0
    2.1757    3.6729   -8.0366 C   0  0  0  0  0  3  0  0  0  0  0  0
    2.6101    4.3522   -6.7533 C   0  0  0  0  0  0  0  0  0  0  0  0
    3.3146    3.4440   -5.8419 N   0  0  0  0  0  0  0  0  0  0  0  0
    2.4251    2.4548   -5.2629 C   0  0  0  0  0  0  0  0  0  0  0  0
    4.0452    4.1662   -4.8240 C   0  0  0  0  0  0  0  0  0  0  0  0
    1.0035    4.0530   -8.6977 C   0  0  0  0  0  3  0  0  0  0  0  0
    0.3955    5.3313   -8.5412 C   0  0  0  0  0  0  0  0  0  0  0  0
    0.8307    6.2978   -7.9195 O   0  0  0  0  0  0  0  0  0  0  0  0
   -0.8580    5.5382   -9.2120 N   0  0  0  0  0  0  0  0  0  0  0  0
   -1.6530    4.6142   -9.8561 C   0  0  0  0  0  0  0  0  0  0  0  0
   -2.0758    3.4183   -9.1630 C   0  0  0  0  0  0  0  0  0  0  0  0
   -1.6921    3.3181   -7.8901 O   0  0  0  0  0  0  0  0  0  0  0  0
   -1.3636    2.0622   -7.3244 C   0  0  0  0  0  0  0  0  0  0  0  0
   -2.4540    1.5640   -6.3947 C   0  0  0  0  0  0  0  0  0  0  0  0
   -2.8687    2.4915   -9.8027 C   0  0  0  0  0  0  0  0  0  0  0  0
   -3.3368    2.6990  -11.1231 C   0  0  0  0  0  0  0  0  0  0  0  0
   -4.1650    1.7627  -11.6654 N   0  0  0  0  0  0  0  0  0  0  0  0
   -4.5958    1.9597  -12.8777 C   0  0  0  0  0  0  0  0  0  0  0  0
   -4.2449    3.0785  -13.6876 C   0  0  0  0  0  0  0  0  0  0  0  0
   -4.6843    3.0755  -15.0491 C   0  0  0  0  0  0  0  0  0  0  0  0
   -5.0577    3.0279  -16.1458 N   0  0  0  0  0  0  0  0  0  0  0  0
   -3.4168    4.0709  -13.1464 C   0  0  0  0  0  0  0  0  0  0  0  0
   -2.9864    5.1747  -13.8542 N   0  0  0  0  0  0  0  0  0  0  0  0
   -3.6678    5.8773  -14.8541 C   0  0  0  0  0  0  0  0  0  0  0  0
   -5.0578    6.0336  -14.8055 C   0  0  0  0  0  0  0  0  0  0  0  0
   -5.7131    6.7118  -15.8238 C   0  0  0  0  0  0  0  0  0  0  0  0
   -7.4473    6.8709  -15.7661 Cl  0  0  0  0  0  0  0  0  0  0  0  0
   -5.0058    7.2794  -16.8904 C   0  0  0  0  0  0  0  0  0  0  0  0
   -5.6431    7.9456  -17.8934 O   0  0  0  0  0  0  0  0  0  0  0  0
   -6.1328    7.1198  -18.9253 C   0  0  0  0  0  0  0  0  0  0  0  0
   -6.8436    7.9470  -19.9579 C   0  0  0  0  0  0  0  0  0  0  0  0
   -6.9511    9.3104  -19.8418 C   0  0  0  0  0  0  0  0  0  0  0  0
   -7.6271   10.0409  -20.8510 C   0  0  0  0  0  0  0  0  0  0  0  0
   -8.1687    9.5043  -21.9129 N   0  0  0  0  0  0  0  0  0  0  0  0
   -7.4251    7.3186  -21.1031 C   0  0  0  0  0  0  0  0  0  0  0  0
   -8.0787    8.1532  -22.0548 C   0  0  0  0  0  0  0  0  0  0  0  0
   -8.6657    7.5608  -23.2056 C   0  0  0  0  0  0  0  0  0  0  0  0
   -8.6082    6.2033  -23.4027 C   0  0  0  0  0  0  0  0  0  0  0  0
   -7.9608    5.3729  -22.4567 C   0  0  0  0  0  0  0  0  0  0  0  0
   -7.3832    5.9159  -21.3341 C   0  0  0  0  0  0  0  0  0  0  0  0
   -3.6168    7.1636  -16.9006 C   0  0  0  0  0  0  0  0  0  0  0  0
   -2.9499    6.4654  -15.9017 C   0  0  0  0  0  0  0  0  0  0  0  0
   -2.9579    3.8884  -11.8049 C   0  0  0  0  0  0  0  0  0  0  0  0
   -2.1254    4.8239  -11.1373 C   0  0  0  0  0  0  0  0  0  0  0  0
    5.0342    1.8147   -7.5418 N   0  0  0  0  0  0  0  0  0  0  0  0
    4.3767    0.7658   -8.1163 C   0  0  0  0  0  0  0  0  0  0  0  0
    4.9669    0.1649   -9.3747 C   0  0  0  0  0  0  0  0  0  0  0  0
    3.3494    0.3190   -7.6274 O   0  0  0  0  0  0  0  0  0  0  0  0
    6.3456    2.1946   -9.1322 H   0  0  0  0  0  0  0  0  0  0  0  0
    7.3068    2.0387   -6.1723 N   0  0  0  0  0  0  0  0  0  0  0  0
    8.4113    2.0210   -5.2545 C   0  0  0  0  0  0  0  0  0  0  0  0
    5.3380    4.5758   -7.5168 H   0  0  0  0  0  0  0  0  0  0  0  0
    6.3148    4.6096   -8.9822 H   0  0  0  0  0  0  0  0  0  0  0  0
    1.7245    4.7928   -6.2522 H   0  0  0  0  0  0  0  0  0  0  0  0
    3.2616    5.2053   -6.9867 H   0  0  0  0  0  0  0  0  0  0  0  0
    1.9969    1.8239   -6.0535 H   0  0  0  0  0  0  0  0  0  0  0  0
    1.6037    2.9231   -4.6769 H   0  0  0  0  0  0  0  0  0  0  0  0
    2.9921    1.7867   -4.5962 H   0  0  0  0  0  0  0  0  0  0  0  0
    4.7659    4.8533   -5.2925 H   0  0  0  0  0  0  0  0  0  0  0  0
    4.6097    3.4616   -4.1924 H   0  0  0  0  0  0  0  0  0  0  0  0
    3.3831    4.7660   -4.1616 H   0  0  0  0  0  0  0  0  0  0  0  0
   -0.9946    6.5135   -9.4473 H   0  0  0  0  0  0  0  0  0  0  0  0
   -0.4218    2.2251   -6.7794 H   0  0  0  0  0  0  0  0  0  0  0  0
   -1.1517    1.3349   -8.1254 H   0  0  0  0  0  0  0  0  0  0  0  0
   -2.6655    2.3148   -5.6195 H   0  0  0  0  0  0  0  0  0  0  0  0
   -2.1309    0.6360   -5.8995 H   0  0  0  0  0  0  0  0  0  0  0  0
   -3.3896    1.3587   -6.9362 H   0  0  0  0  0  0  0  0  0  0  0  0
   -3.2128    1.5927   -9.2912 H   0  0  0  0  0  0  0  0  0  0  0  0
   -5.2563    1.1997  -13.3114 H   0  0  0  0  0  0  0  0  0  0  0  0
   -2.0803    5.5390  -13.5911 H   0  0  0  0  0  0  0  0  0  0  0  0
   -5.6333    5.6116  -13.9810 H   0  0  0  0  0  0  0  0  0  0  0  0
   -6.8251    6.3618  -18.5153 H   0  0  0  0  0  0  0  0  0  0  0  0
   -5.2946    6.5724  -19.3975 H   0  0  0  0  0  0  0  0  0  0  0  0
   -6.5217    9.8217  -18.9806 H   0  0  0  0  0  0  0  0  0  0  0  0
   -7.7107   11.1300  -20.7523 H   0  0  0  0  0  0  0  0  0  0  0  0
   -9.1580    8.2286  -23.9145 H   0  0  0  0  0  0  0  0  0  0  0  0
   -9.0631    5.7581  -24.2904 H   0  0  0  0  0  0  0  0  0  0  0  0
   -7.9215    4.2938  -22.6196 H   0  0  0  0  0  0  0  0  0  0  0  0
   -6.8911    5.2590  -20.6140 H   0  0  0  0  0  0  0  0  0  0  0  0
   -3.0682    7.6191  -17.7270 H   0  0  0  0  0  0  0  0  0  0  0  0
   -1.8648    6.3514  -15.9434 H   0  0  0  0  0  0  0  0  0  0  0  0
   -1.8129    5.7447  -11.6337 H   0  0  0  0  0  0  0  0  0  0  0  0
    4.4404    2.3381   -6.8682 H   0  0  0  0  0  0  0  0  0  0  0  0
    6.0442   -0.0347   -9.2775 H   0  0  0  0  0  0  0  0  0  0  0  0
    4.8190    0.8704  -10.2070 H   0  0  0  0  0  0  0  0  0  0  0  0
    4.4324   -0.7677   -9.5891 H   0  0  0  0  0  0  0  0  0  0  0  0
    6.4730    1.4890   -6.0017 H   0  0  0  0  0  0  0  0  0  0  0  0
    8.1154    2.3830   -4.2562 H   0  0  0  0  0  0  0  0  0  0  0  0
    9.1863    2.6873   -5.6565 H   0  0  0  0  0  0  0  0  0  0  0  0
    8.8392    1.0103   -5.1441 H   0  0  0  0  0  0  0  0  0  0  0  0
    0.6053    3.3712   -9.4529 H   0  0  0  0  0  0  0  0  0  0  0  0
    2.3980    2.6055   -8.0758 H   0  0  0  0  0  0  0  0  0  0  0  0
  1  2  2  0  0  0  0
  2 55  1  0  0  0  0
  3 54  1  6  0  0  0
  3 50  1  0  0  0  0
  3  2  1  0  0  0  0
  4  3  1  0  0  0  0
  4 57  1  0  0  0  0
  5  4  1  0  0  0  0
  6  7  1  0  0  0  0
  7 59  1  0  0  0  0
  7  8  1  0  0  0  0
  8  9  1  0  0  0  0
  8 10  1  0  0  0  0
  9 62  1  0  0  0  0
  9 63  1  0  0  0  0
 10 65  1  0  0  0  0
 10 66  1  0  0  0  0
 11 12  1  0  0  0  0
 11  6  1  0  0  0  0
 12 13  2  0  0  0  0
 14 12  1  0  0  0  0
 15 14  1  0  0  0  0
 15 16  1  0  0  0  0
 16 17  1  0  0  0  0
 17 18  1  0  0  0  0
 18 68  1  0  0  0  0
 18 19  1  0  0  0  0
 19 71  1  0  0  0  0
 19 70  1  0  0  0  0
 20 73  1  0  0  0  0
 20 16  2  0  0  0  0
 21 20  1  0  0  0  0
 22 21  1  0  0  0  0
 23 22  2  0  0  0  0
 24 27  2  0  0  0  0
 24 23  1  0  0  0  0
 25 24  1  0  0  0  0
 26 25  3  0  0  0  0
 27 48  1  0  0  0  0
 28 75  1  0  0  0  0
 28 27  1  0  0  0  0
 29 30  1  0  0  0  0
 29 28  1  0  0  0  0
 30 76  1  0  0  0  0
 31 32  1  0  0  0  0
 31 30  2  0  0  0  0
 33 31  1  0  0  0  0
 34 33  1  0  0  0  0
 35 77  1  0  0  0  0
 35 34  1  0  0  0  0
 36 37  1  0  0  0  0
 36 35  1  0  0  0  0
 37 79  1  0  0  0  0
 38 80  1  0  0  0  0
 38 37  2  0  0  0  0
 39 38  1  0  0  0  0
 40 36  2  0  0  0  0
 41 39  2  0  0  0  0
 41 40  1  0  0  0  0
 42 41  1  0  0  0  0
 43 42  2  0  0  0  0
 43 44  1  0  0  0  0
 44 45  2  0  0  0  0
 45 40  1  0  0  0  0
 45 84  1  0  0  0  0
 46 33  2  0  0  0  0
 46 47  1  0  0  0  0
 47 29  2  0  0  0  0
 48 49  1  0  0  0  0
 48 21  2  0  0  0  0
 49 15  2  0  0  0  0
 50 88  1  0  0  0  0
 51 53  2  0  0  0  0
 51 50  1  0  0  0  0
 52 89  1  0  0  0  0
 52 51  1  0  0  0  0
 55 92  1  0  0  0  0
 55 56  1  0  0  0  0
 56 95  1  0  0  0  0
 56 93  1  0  0  0  0
 58  4  1  0  0  0  0
 60  7  1  0  0  0  0
 61  9  1  0  0  0  0
 64 10  1  0  0  0  0
 67 14  1  0  0  0  0
 69 18  1  0  0  0  0
 72 19  1  0  0  0  0
 74 23  1  0  0  0  0
 78 35  1  0  0  0  0
 81 42  1  0  0  0  0
 82 43  1  0  0  0  0
 83 44  1  0  0  0  0
 85 46  1  0  0  0  0
 86 47  1  0  0  0  0
 87 49  1  0  0  0  0
 90 52  1  0  0  0  0
 91 52  1  0  0  0  0
 94 56  1  0  0  0  0
 96 11  1  0  0  0  0
 97  6  1  0  0  0  0
M  END
