-1 1
 OpenBabel05192410563D

 97101  0  0  1  0  0  0  0  0999 V2000
    9.6590   -1.3602    3.9906 O   0  0  0  0  0  0  0  0  0  0  0  0
    8.7885   -1.8594    4.6809 C   0  0  0  0  0  0  0  0  0  0  0  0
    7.3282   -1.9273    4.1975 C   0  0  2  0  0  0  0  0  0  0  0  0
    6.7760   -0.4983    4.1153 C   0  0  0  0  0  0  0  0  0  0  0  0
    5.2126   -0.2878    3.2089 S   0  0  0  0  0  0  0  0  0  0  0  0
    3.7825   -0.8666    4.3303 C   0  0  1  0  0  0  0  0  0  0  0  0
    3.9413   -0.3209    5.7569 C   0  0  0  0  0  0  0  0  0  0  0  0
    4.6208   -1.2687    6.6527 N   0  0  0  0  0  0  0  0  0  0  0  0
    3.7353   -2.3338    7.0865 C   0  0  0  0  0  0  0  0  0  0  0  0
    5.2429   -0.6097    7.7801 C   0  0  0  0  0  0  0  0  0  0  0  0
    2.5213   -0.5077    3.6484 C   0  0  0  0  0  3  0  0  0  0  0  0
    1.9385    0.7466    3.8237 C   0  0  0  0  0  0  0  0  0  0  0  0
    2.3548    1.7127    4.4785 O   0  0  0  0  0  0  0  0  0  0  0  0
    0.6797    0.9878    3.1121 N   0  0  0  0  0  0  0  0  0  0  0  0
   -0.1348    0.0684    2.5158 C   0  0  0  0  0  0  0  0  0  0  0  0
   -0.6056   -1.0746    3.2729 C   0  0  0  0  0  0  0  0  0  0  0  0
   -0.2626   -1.1050    4.5628 O   0  0  0  0  0  0  0  0  0  0  0  0
    0.1110   -2.3185    5.1828 C   0  0  0  0  0  0  0  0  0  0  0  0
   -0.9440   -2.7875    6.1672 C   0  0  0  0  0  0  0  0  0  0  0  0
   -1.4139   -2.0175    2.6826 C   0  0  0  0  0  0  0  0  0  0  0  0
   -1.8647   -1.8829    1.3450 C   0  0  0  0  0  0  0  0  0  0  0  0
   -2.7045   -2.8312    0.8490 N   0  0  0  0  0  0  0  0  0  0  0  0
   -3.1223   -2.6996   -0.3784 C   0  0  0  0  0  0  0  0  0  0  0  0
   -2.7422   -1.6346   -1.2429 C   0  0  0  0  0  0  0  0  0  0  0  0
   -3.1635   -1.6956   -2.6087 C   0  0  0  0  0  0  0  0  0  0  0  0
   -3.5194   -1.7815   -3.7089 N   0  0  0  0  0  0  0  0  0  0  0  0
   -1.9052   -0.6264   -0.7472 C   0  0  0  0  0  0  0  0  0  0  0  0
   -1.4535    0.4301   -1.5201 N   0  0  0  0  0  0  0  0  0  0  0  0
   -2.1524    1.1538   -2.4866 C   0  0  0  0  0  0  0  0  0  0  0  0
   -3.5464    1.2821   -2.4392 C   0  0  0  0  0  0  0  0  0  0  0  0
   -4.2101    1.9944   -3.4285 C   0  0  0  0  0  0  0  0  0  0  0  0
   -5.9477    2.1223   -3.3664 Cl  0  0  0  0  0  0  0  0  0  0  0  0
   -3.5128    2.6224   -4.4669 C   0  0  0  0  0  0  0  0  0  0  0  0
   -4.1599    3.3259   -5.4397 O   0  0  0  0  0  0  0  0  0  0  0  0
   -4.6343    2.5441   -6.5107 C   0  0  0  0  0  0  0  0  0  0  0  0
   -5.3465    3.4111   -7.5095 C   0  0  0  0  0  0  0  0  0  0  0  0
   -5.4666    4.7668   -7.3316 C   0  0  0  0  0  0  0  0  0  0  0  0
   -6.1425    5.5373   -8.3105 C   0  0  0  0  0  0  0  0  0  0  0  0
   -6.6727    5.0460   -9.3998 N   0  0  0  0  0  0  0  0  0  0  0  0
   -5.9156    2.8315   -8.6863 C   0  0  0  0  0  0  0  0  0  0  0  0
   -6.5701    3.7036   -9.6030 C   0  0  0  0  0  0  0  0  0  0  0  0
   -7.1446    3.1602  -10.7839 C   0  0  0  0  0  0  0  0  0  0  0  0
   -7.0745    1.8138  -11.0431 C   0  0  0  0  0  0  0  0  0  0  0  0
   -6.4262    0.9460  -10.1319 C   0  0  0  0  0  0  0  0  0  0  0  0
   -5.8605    1.4414   -8.9815 C   0  0  0  0  0  0  0  0  0  0  0  0
   -2.1222    2.5290   -4.4786 C   0  0  0  0  0  0  0  0  0  0  0  0
   -1.4453    1.8004   -3.5091 C   0  0  0  0  0  0  0  0  0  0  0  0
   -1.4549   -0.7387    0.6024 C   0  0  0  0  0  0  0  0  0  0  0  0
   -0.6035    0.2140    1.2187 C   0  0  0  0  0  0  0  0  0  0  0  0
    6.4830   -2.7535    5.0272 N   0  0  0  0  0  0  0  0  0  0  0  0
    6.2841   -4.0951    4.9028 C   0  0  0  0  0  0  0  0  0  0  0  0
    7.1023   -4.8131    3.8451 C   0  0  0  0  0  0  0  0  0  0  0  0
    5.4959   -4.6961    5.6141 O   0  0  0  0  0  0  0  0  0  0  0  0
    7.3775   -2.3150    3.1687 H   0  0  0  0  0  0  0  0  0  0  0  0
    9.0055   -2.3625    5.9229 N   0  0  0  0  0  0  0  0  0  0  0  0
   10.2935   -2.3415    6.5613 C   0  0  0  0  0  0  0  0  0  0  0  0
    6.6898   -0.0738    5.1297 H   0  0  0  0  0  0  0  0  0  0  0  0
    7.5129    0.1128    3.5759 H   0  0  0  0  0  0  0  0  0  0  0  0
    2.9428   -0.0593    6.1557 H   0  0  0  0  0  0  0  0  0  0  0  0
    4.5000    0.6244    5.7361 H   0  0  0  0  0  0  0  0  0  0  0  0
    3.3031   -2.8424    6.2144 H   0  0  0  0  0  0  0  0  0  0  0  0
    2.9049   -1.9503    7.7186 H   0  0  0  0  0  0  0  0  0  0  0  0
    4.2982   -3.0959    7.6450 H   0  0  0  0  0  0  0  0  0  0  0  0
    5.9776    0.1310    7.4283 H   0  0  0  0  0  0  0  0  0  0  0  0
    5.7715   -1.3485    8.4041 H   0  0  0  0  0  0  0  0  0  0  0  0
    4.5106   -0.0796    8.4266 H   0  0  0  0  0  0  0  0  0  0  0  0
    0.6751    1.9187    2.7118 H   0  0  0  0  0  0  0  0  0  0  0  0
    1.0643   -2.1101    5.6916 H   0  0  0  0  0  0  0  0  0  0  0  0
    0.3138   -3.0852    4.4165 H   0  0  0  0  0  0  0  0  0  0  0  0
   -1.1547   -1.9977    6.9030 H   0  0  0  0  0  0  0  0  0  0  0  0
   -0.5890   -3.6785    6.7070 H   0  0  0  0  0  0  0  0  0  0  0  0
   -1.8870   -3.0426    5.6605 H   0  0  0  0  0  0  0  0  0  0  0  0
   -1.7884   -2.8704    3.2494 H   0  0  0  0  0  0  0  0  0  0  0  0
   -3.7921   -3.4721   -0.7738 H   0  0  0  0  0  0  0  0  0  0  0  0
   -0.5345    0.7797   -1.2829 H   0  0  0  0  0  0  0  0  0  0  0  0
   -4.1190    0.8185   -1.6356 H   0  0  0  0  0  0  0  0  0  0  0  0
   -5.3224    1.7614   -6.1415 H   0  0  0  0  0  0  0  0  0  0  0  0
   -3.7883    2.0268   -7.0027 H   0  0  0  0  0  0  0  0  0  0  0  0
   -5.0467    5.2409   -6.4448 H   0  0  0  0  0  0  0  0  0  0  0  0
   -6.2361    6.6200   -8.1622 H   0  0  0  0  0  0  0  0  0  0  0  0
   -7.6381    3.8560  -11.4645 H   0  0  0  0  0  0  0  0  0  0  0  0
   -7.5200    1.4063  -11.9534 H   0  0  0  0  0  0  0  0  0  0  0  0
   -6.3770   -0.1242  -10.3439 H   0  0  0  0  0  0  0  0  0  0  0  0
   -5.3677    0.7559   -8.2891 H   0  0  0  0  0  0  0  0  0  0  0  0
   -1.5790    3.0304   -5.2818 H   0  0  0  0  0  0  0  0  0  0  0  0
   -0.3578    1.7110   -3.5521 H   0  0  0  0  0  0  0  0  0  0  0  0
   -0.2670    1.0946    0.6677 H   0  0  0  0  0  0  0  0  0  0  0  0
    5.8264   -2.2520    5.6619 H   0  0  0  0  0  0  0  0  0  0  0  0
    8.1764   -4.5962    3.9446 H   0  0  0  0  0  0  0  0  0  0  0  0
    6.7901   -4.4955    2.8386 H   0  0  0  0  0  0  0  0  0  0  0  0
    6.9293   -5.8898    3.9521 H   0  0  0  0  0  0  0  0  0  0  0  0
    8.1986   -2.7486    6.3978 H   0  0  0  0  0  0  0  0  0  0  0  0
   10.2848   -1.7261    7.4759 H   0  0  0  0  0  0  0  0  0  0  0  0
   11.0084   -1.9050    5.8515 H   0  0  0  0  0  0  0  0  0  0  0  0
   10.6307   -3.3563    6.8275 H   0  0  0  0  0  0  0  0  0  0  0  0
    2.1335   -1.2016    2.8993 H   0  0  0  0  0  0  0  0  0  0  0  0
    3.8923   -1.9601    4.3519 H   0  0  0  0  0  0  0  0  0  0  0  0
  1  2  2  0  0  0  0
  2 55  1  0  0  0  0
  3 54  1  6  0  0  0
  3  2  1  0  0  0  0
  3 50  1  0  0  0  0
  4  3  1  0  0  0  0
  4 57  1  0  0  0  0
  5  4  1  0  0  0  0
  5  6  1  0  0  0  0
  6 97  1  1  0  0  0
  6  7  1  0  0  0  0
  7 59  1  0  0  0  0
  7  8  1  0  0  0  0
  8  9  1  0  0  0  0
  8 10  1  0  0  0  0
  9 63  1  0  0  0  0
  9 62  1  0  0  0  0
 10 65  1  0  0  0  0
 10 66  1  0  0  0  0
 11 12  1  0  0  0  0
 11  6  1  0  0  0  0
 12 13  2  0  0  0  0
 14 12  1  0  0  0  0
 15 14  1  0  0  0  0
 15 16  1  0  0  0  0
 16 17  1  0  0  0  0
 17 18  1  0  0  0  0
 18 68  1  0  0  0  0
 18 19  1  0  0  0  0
 19 71  1  0  0  0  0
 19 70  1  0  0  0  0
 20 73  1  0  0  0  0
 20 16  2  0  0  0  0
 21 20  1  0  0  0  0
 22 21  1  0  0  0  0
 23 22  2  0  0  0  0
 24 27  2  0  0  0  0
 24 23  1  0  0  0  0
 25 24  1  0  0  0  0
 26 25  3  0  0  0  0
 27 48  1  0  0  0  0
 28 75  1  0  0  0  0
 28 27  1  0  0  0  0
 29 30  1  0  0  0  0
 29 28  1  0  0  0  0
 30 76  1  0  0  0  0
 31 32  1  0  0  0  0
 31 30  2  0  0  0  0
 33 31  1  0  0  0  0
 34 33  1  0  0  0  0
 35 77  1  0  0  0  0
 35 34  1  0  0  0  0
 36 37  1  0  0  0  0
 36 35  1  0  0  0  0
 37 79  1  0  0  0  0
 38 80  1  0  0  0  0
 38 37  2  0  0  0  0
 39 38  1  0  0  0  0
 40 36  2  0  0  0  0
 41 39  2  0  0  0  0
 41 40  1  0  0  0  0
 42 41  1  0  0  0  0
 43 42  2  0  0  0  0
 43 44  1  0  0  0  0
 44 45  2  0  0  0  0
 45 40  1  0  0  0  0
 45 84  1  0  0  0  0
 46 33  2  0  0  0  0
 46 47  1  0  0  0  0
 47 29  2  0  0  0  0
 48 49  1  0  0  0  0
 48 21  2  0  0  0  0
 49 15  2  0  0  0  0
 50 88  1  0  0  0  0
 51 50  1  0  0  0  0
 51 53  2  0  0  0  0
 52 89  1  0  0  0  0
 52 91  1  0  0  0  0
 52 51  1  0  0  0  0
 55 92  1  0  0  0  0
 55 56  1  0  0  0  0
 56 95  1  0  0  0  0
 56 93  1  0  0  0  0
 58  4  1  0  0  0  0
 60  7  1  0  0  0  0
 61  9  1  0  0  0  0
 64 10  1  0  0  0  0
 67 14  1  0  0  0  0
 69 18  1  0  0  0  0
 72 19  1  0  0  0  0
 74 23  1  0  0  0  0
 78 35  1  0  0  0  0
 81 42  1  0  0  0  0
 82 43  1  0  0  0  0
 83 44  1  0  0  0  0
 85 46  1  0  0  0  0
 86 47  1  0  0  0  0
 87 49  1  0  0  0  0
 90 52  1  0  0  0  0
 94 56  1  0  0  0  0
 96 11  1  0  0  0  0
M  END
