85
-1 1
O         1.730323    0.358942   -1.952773
C         0.703285   -0.130156   -1.509430
C        -0.640389    0.613794   -1.589869
C        -1.633128   -0.148546   -2.500396
S        -2.572448   -1.425660   -1.605258
C        -2.263160   -3.036454   -2.678205
C        -2.901304   -4.229471   -2.139602
C        -2.217792   -5.037806   -1.092701
N        -2.250808   -4.369809    0.251197
C        -1.124906   -4.091287    0.969524
C        -0.857134   -2.829635    1.482347
C        -0.158740   -5.134680    1.242877
O        -0.496156   -6.350235    0.784570
C         0.392970   -7.427794    0.940665
C        -0.228988   -8.640243    0.283294
C         0.987521   -4.863405    1.952047
C         1.266336   -3.560709    2.447587
C         0.320640   -2.529073    2.211763
C         0.666056   -1.199896    2.619015
N        -0.178271   -0.153766    2.330785
C         0.204449    1.135929    1.897643
C         1.401923    1.352307    1.204535
C         1.725351    2.618356    0.747165
Cl         3.219146    2.866535   -0.096444
C         0.854544    3.709564    0.927757
O         1.244933    4.894783    0.438251
C         0.307784    5.950451    0.354518
C         0.911937    7.051411   -0.474199
C         1.325487    8.252937    0.103319
C         1.895070    9.256883   -0.681040
C         2.060741    9.057559   -2.049875
C         1.652483    7.855337   -2.631530
C         1.078905    6.855620   -1.850735
C        -0.342479    3.480047    1.610316
C        -0.656051    2.212104    2.100872
C         1.872024   -1.035722    3.313948
C         2.263071    0.208857    3.901822
N         2.608721    1.188005    4.416926
C         2.715475   -2.162790    3.516230
N         2.445639   -3.367938    3.098562
C        -4.219872   -4.592255   -2.504313
O        -4.805167   -3.751430   -3.433475
O        -4.884210   -5.553930   -2.114702
N        -0.354545    1.955999   -2.032366
C        -1.110658    3.058333   -1.812617
C        -2.461428    2.847857   -1.157124
O        -0.725178    4.178962   -2.116597
H        -1.060923    0.642319   -0.571041
N         0.639375   -1.344555   -0.935624
C         1.796646   -2.193868   -0.795518
H        -2.327818    0.571025   -2.954723
H        -1.093806   -0.630165   -3.332887
H        -1.153728   -5.197226   -1.340003
H        -2.700479   -6.021372   -1.014671
H        -2.911245   -3.600177    0.229235
H        -1.575019   -2.048564    1.225728
H         0.578662   -7.612759    2.015341
H         1.366867   -7.182654    0.477015
H        -1.195455   -8.876234    0.750478
H         0.434958   -9.511155    0.384117
H        -0.404884   -8.450196   -0.784826
H         1.726137   -5.631877    2.174595
H        -1.120471   -0.419081    2.076016
H         2.088805    0.530141    1.004821
H         0.057776    6.319178    1.366129
H        -0.608116    5.579713   -0.136136
H         1.204968    8.404724    1.179689
H         2.215438   10.193888   -0.219258
H         2.509453    9.840302   -2.666539
H         1.780010    7.696701   -3.704922
H         0.741737    5.912770   -2.289844
H        -1.041664    4.299250    1.776390
H        -1.586657    2.059820    2.651822
H         3.655882   -2.011181    4.058631
H        -5.671757   -4.152923   -3.567679
H         0.599022    2.101542   -2.363426
H        -2.979931    3.812741   -1.126667
H        -2.328838    2.474753   -0.131054
H        -3.079067    2.115844   -1.695749
H        -0.277844   -1.696283   -0.661920
H         2.360345   -2.244979   -1.738617
H         1.461734   -3.199783   -0.511613
H         2.479158   -1.824790   -0.011538
H        -2.650817   -2.739445   -3.659373
H        -1.161905   -3.093233   -2.699920
