-1 1
 OpenBabel05232413483D

 85 87  0  0  1  0  0  0  0  0999 V2000
    0.5503    0.6647   -2.5427 O   0  0  0  0  0  0  0  0  0  0  0  0
   -0.2564    0.2797   -1.7076 C   0  0  0  0  0  0  0  0  0  0  0  0
   -1.4058    1.1740   -1.2198 C   0  0  2  0  0  0  0  0  0  0  0  0
   -2.7792    0.4707   -1.2902 C   0  0  0  0  0  0  0  0  0  0  0  0
   -3.1337   -0.5460    0.1903 S   0  0  0  0  0  1  0  0  0  0  0  0
   -2.2429   -3.1500   -2.2883 C   0  0  0  0  0  0  0  0  0  0  0  0
   -2.0167   -4.4091   -1.8916 C   0  0  0  0  0  0  0  0  0  0  0  0
   -2.7804   -5.0500   -0.7402 C   0  0  0  0  0  0  0  0  0  0  0  0
   -2.6300   -4.3705    0.5398 N   0  0  0  0  0  0  0  0  0  0  0  0
   -1.3619   -4.2003    1.0963 C   0  0  0  0  0  0  0  0  0  0  0  0
   -0.9511   -2.9498    1.5066 C   0  0  0  0  0  0  0  0  0  0  0  0
   -0.4622   -5.3011    1.2967 C   0  0  0  0  0  0  0  0  0  0  0  0
   -0.9207   -6.5108    0.9282 O   0  0  0  0  0  0  0  0  0  0  0  0
   -0.0227   -7.5901    0.8149 C   0  0  0  0  0  0  0  0  0  0  0  0
   -0.7611   -8.7439    0.1736 C   0  0  0  0  0  0  0  0  0  0  0  0
    0.7831   -5.0842    1.8508 C   0  0  0  0  0  0  0  0  0  0  0  0
    1.2029   -3.7942    2.2646 C   0  0  0  0  0  0  0  0  0  0  0  0
    0.3130   -2.7059    2.0881 C   0  0  0  0  0  0  0  0  0  0  0  0
    0.7648   -1.3790    2.4120 C   0  0  0  0  0  0  0  0  0  0  0  0
   -0.0288   -0.3000    2.1569 N   0  0  0  0  0  0  0  0  0  0  0  0
    0.4360    0.9730    1.7424 C   0  0  0  0  0  0  0  0  0  0  0  0
    1.5153    1.0954    0.8598 C   0  0  0  0  0  0  0  0  0  0  0  0
    1.8539    2.3311    0.3381 C   0  0  0  0  0  0  0  0  0  0  0  0
    3.1924    2.4608   -0.7602 Cl  0  0  0  0  0  0  0  0  0  0  0  0
    1.1128    3.4860    0.6544 C   0  0  0  0  0  0  0  0  0  0  0  0
    1.4922    4.6337    0.0717 O   0  0  0  0  0  0  0  0  0  0  0  0
    0.6874    5.7872    0.2220 C   0  0  0  0  0  0  0  0  0  0  0  0
    1.2408    6.8641   -0.6711 C   0  0  0  0  0  0  0  0  0  0  0  0
    2.1431    7.8115   -0.1817 C   0  0  0  0  0  0  0  0  0  0  0  0
    2.6749    8.7850   -1.0265 C   0  0  0  0  0  0  0  0  0  0  0  0
    2.3082    8.8118   -2.3713 C   0  0  0  0  0  0  0  0  0  0  0  0
    1.4101    7.8651   -2.8658 C   0  0  0  0  0  0  0  0  0  0  0  0
    0.8765    6.8928   -2.0221 C   0  0  0  0  0  0  0  0  0  0  0  0
    0.0456    3.3540    1.5470 C   0  0  0  0  0  0  0  0  0  0  0  0
   -0.2817    2.1121    2.0924 C   0  0  0  0  0  0  0  0  0  0  0  0
    2.0417   -1.2863    2.9923 C   0  0  0  0  0  0  0  0  0  0  0  0
    2.5826   -0.0661    3.5069 C   0  0  0  0  0  0  0  0  0  0  0  0
    3.0643    0.8833    3.9664 N   0  0  0  0  0  0  0  0  0  0  0  0
    2.8227   -2.4668    3.1516 C   0  0  0  0  0  0  0  0  0  0  0  0
    2.4527   -3.6648    2.7987 N   0  0  0  0  0  0  0  0  0  0  0  0
   -0.9566   -5.2284   -2.5381 C   0  0  0  0  0  0  0  0  0  0  0  0
   -0.2888   -4.5895   -3.5129 O   0  0  0  0  0  0  0  0  0  0  0  0
   -0.6859   -6.3711   -2.2464 O   0  0  0  0  0  0  0  0  0  0  0  0
   -1.3125    2.4152   -1.9588 N   0  0  0  0  0  0  0  0  0  0  0  0
   -1.7982    3.6181   -1.5760 C   0  0  0  0  0  0  0  0  0  0  0  0
   -2.8117    3.6422   -0.4467 C   0  0  0  0  0  0  0  0  0  0  0  0
   -1.4722    4.6589   -2.1360 O   0  0  0  0  0  0  0  0  0  0  0  0
   -1.2112    1.3707   -0.1555 H   0  0  0  0  0  0  0  0  0  0  0  0
   -0.2018   -0.9339   -1.1256 N   0  0  0  0  0  0  0  0  0  0  0  0
    0.8408   -1.8808   -1.4305 C   0  0  0  0  0  0  0  0  0  0  0  0
   -3.5520    1.2457   -1.3864 H   0  0  0  0  0  0  0  0  0  0  0  0
   -2.8369   -0.1319   -2.2138 H   0  0  0  0  0  0  0  0  0  0  0  0
   -2.4739   -6.0958   -0.6402 H   0  0  0  0  0  0  0  0  0  0  0  0
   -3.8544   -5.0410   -0.9783 H   0  0  0  0  0  0  0  0  0  0  0  0
   -3.1189   -3.4754    0.5302 H   0  0  0  0  0  0  0  0  0  0  0  0
   -1.6395   -2.1273    1.2998 H   0  0  0  0  0  0  0  0  0  0  0  0
    0.3609   -7.8692    1.8140 H   0  0  0  0  0  0  0  0  0  0  0  0
    0.8397   -7.2881    0.1946 H   0  0  0  0  0  0  0  0  0  0  0  0
   -1.6370   -9.0247    0.7766 H   0  0  0  0  0  0  0  0  0  0  0  0
   -0.0990   -9.6183    0.0899 H   0  0  0  0  0  0  0  0  0  0  0  0
   -1.0948   -8.4512   -0.8312 H   0  0  0  0  0  0  0  0  0  0  0  0
    1.4883   -5.8977    2.0138 H   0  0  0  0  0  0  0  0  0  0  0  0
   -0.9808   -0.4817    1.8218 H   0  0  0  0  0  0  0  0  0  0  0  0
    2.0795    0.2160    0.5490 H   0  0  0  0  0  0  0  0  0  0  0  0
    0.6945    6.1158    1.2774 H   0  0  0  0  0  0  0  0  0  0  0  0
   -0.3485    5.5581   -0.0776 H   0  0  0  0  0  0  0  0  0  0  0  0
    2.4355    7.7835    0.8718 H   0  0  0  0  0  0  0  0  0  0  0  0
    3.3799    9.5220   -0.6343 H   0  0  0  0  0  0  0  0  0  0  0  0
    2.7240    9.5729   -3.0364 H   0  0  0  0  0  0  0  0  0  0  0  0
    1.1211    7.8833   -3.9193 H   0  0  0  0  0  0  0  0  0  0  0  0
    0.1665    6.1473   -2.3929 H   0  0  0  0  0  0  0  0  0  0  0  0
   -0.5497    4.2247    1.8202 H   0  0  0  0  0  0  0  0  0  0  0  0
   -1.1305    2.0190    2.7714 H   0  0  0  0  0  0  0  0  0  0  0  0
    3.8161   -2.3588    3.6037 H   0  0  0  0  0  0  0  0  0  0  0  0
    0.3804   -5.2093   -3.8330 H   0  0  0  0  0  0  0  0  0  0  0  0
   -0.5680    2.4291   -2.6557 H   0  0  0  0  0  0  0  0  0  0  0  0
   -2.7652    4.6270    0.0349 H   0  0  0  0  0  0  0  0  0  0  0  0
   -2.6738    2.8469    0.2978 H   0  0  0  0  0  0  0  0  0  0  0  0
   -3.8199    3.5251   -0.8733 H   0  0  0  0  0  0  0  0  0  0  0  0
   -0.9905   -1.1918   -0.5215 H   0  0  0  0  0  0  0  0  0  0  0  0
    0.7313   -2.3178   -2.4365 H   0  0  0  0  0  0  0  0  0  0  0  0
    0.8064   -2.6934   -0.6924 H   0  0  0  0  0  0  0  0  0  0  0  0
    1.8256   -1.3911   -1.3838 H   0  0  0  0  0  0  0  0  0  0  0  0
   -1.6650   -2.6949   -3.0944 H   0  0  0  0  0  0  0  0  0  0  0  0
   -2.9829   -2.5233   -1.7750 H   0  0  0  0  0  0  0  0  0  0  0  0
  1  2  2  0  0  0  0
  2  3  1  0  0  0  0
  2 49  1  0  0  0  0
  3 48  1  1  0  0  0
  4  3  1  0  0  0  0
  4  5  1  0  0  0  0
  6  7  2  0  0  0  0
  6 85  1  0  0  0  0
  7  8  1  0  0  0  0
  8 53  1  0  0  0  0
  8  9  1  0  0  0  0
  9 10  1  0  0  0  0
 10 12  2  0  0  0  0
 10 11  1  0  0  0  0
 11 18  2  0  0  0  0
 12 16  1  0  0  0  0
 13 12  1  0  0  0  0
 14 13  1  0  0  0  0
 14 57  1  0  0  0  0
 15 59  1  0  0  0  0
 15 14  1  0  0  0  0
 16 62  1  0  0  0  0
 16 17  2  0  0  0  0
 17 40  1  0  0  0  0
 18 17  1  0  0  0  0
 18 19  1  0  0  0  0
 19 36  2  0  0  0  0
 20 19  1  0  0  0  0
 21 35  1  0  0  0  0
 21 20  1  0  0  0  0
 22 21  2  0  0  0  0
 23 25  2  0  0  0  0
 23 22  1  0  0  0  0
 24 23  1  0  0  0  0
 25 34  1  0  0  0  0
 26 27  1  0  0  0  0
 26 25  1  0  0  0  0
 27 65  1  0  0  0  0
 28 29  1  0  0  0  0
 28 27  1  0  0  0  0
 29 67  1  0  0  0  0
 30 68  1  0  0  0  0
 30 29  2  0  0  0  0
 31 30  1  0  0  0  0
 32 31  2  0  0  0  0
 32 33  1  0  0  0  0
 33 28  2  0  0  0  0
 34 72  1  0  0  0  0
 34 35  2  0  0  0  0
 35 73  1  0  0  0  0
 36 39  1  0  0  0  0
 36 37  1  0  0  0  0
 37 38  3  0  0  0  0
 39 74  1  0  0  0  0
 40 39  2  0  0  0  0
 41 43  2  0  0  0  0
 41  7  1  0  0  0  0
 42 41  1  0  0  0  0
 44 45  1  0  0  0  0
 44  3  1  0  0  0  0
 45 46  1  0  0  0  0
 46 77  1  0  0  0  0
 46 78  1  0  0  0  0
 47 45  2  0  0  0  0
 49 80  1  0  0  0  0
 50 83  1  0  0  0  0
 50 49  1  0  0  0  0
 50 82  1  0  0  0  0
 51  4  1  0  0  0  0
 52  4  1  0  0  0  0
 54  8  1  0  0  0  0
 55  9  1  0  0  0  0
 56 11  1  0  0  0  0
 58 14  1  0  0  0  0
 60 15  1  0  0  0  0
 61 15  1  0  0  0  0
 63 20  1  0  0  0  0
 64 22  1  0  0  0  0
 66 27  1  0  0  0  0
 69 31  1  0  0  0  0
 70 32  1  0  0  0  0
 71 33  1  0  0  0  0
 75 42  1  0  0  0  0
 76 44  1  0  0  0  0
 79 46  1  0  0  0  0
 81 50  1  0  0  0  0
 84  6  1  0  0  0  0
M  END
