95
-1 1
O         6.898727  -11.889242    3.679104
C         6.855603  -10.665821    3.563543
C         5.673458   -9.981426    2.852793
C         5.074512   -8.845151    3.717468
S         5.893841   -7.255492    3.484970
C         5.781777   -6.615366    5.754691
C         4.464541   -5.858265    5.798646
N         4.611330   -4.419371    5.645929
C         3.413977   -3.720156    6.033521
C         5.066844   -4.005607    4.337908
C         5.944721   -7.724052    6.585079
C         7.262029   -8.204583    6.861772
O         8.307801   -7.740426    6.403441
N         7.401452   -9.277738    7.777893
C         6.397737   -9.801384    8.601393
C         5.455261  -10.752527    8.069868
O         5.600194  -11.043467    6.782374
C         4.813728  -12.056657    6.165817
C         3.440250  -11.562870    5.751378
C         4.522125  -11.327309    8.915072
C         4.465961  -11.000779   10.288813
N         3.534705  -11.641216   11.057497
C         3.477333  -11.328407   12.316877
C         4.298159  -10.353621   12.960942
C         3.982525  -10.062049   14.323813
N         3.650739   -9.887261   15.421229
C         5.277491   -9.689596   12.202944
N         6.104584   -8.714178   12.688697
C         6.461380   -8.468350   14.031555
C         6.430732   -7.168304   14.522198
C         6.777840   -6.944458   15.860047
C         6.813694   -5.758555   16.685308
C         7.154018   -6.147227   17.939097
N         7.381881   -7.529345   17.967063
S         7.067143   -8.398883   19.394287
O         7.624755   -7.602538   20.475371
C         5.290876   -8.337552   19.499279
C         4.706481   -7.606065   20.533121
C         3.317046   -7.524196   20.591090
C         2.537160   -8.147221   19.616217
C         3.137925   -8.865080   18.582060
C         4.524024   -8.975708   18.522496
O         7.506975   -9.760607   19.150710
C         7.135640   -8.033617   16.678710
C         7.220168   -9.336066   16.180080
C         6.887231   -9.534456   14.851476
C         5.374486  -10.045998   10.817110
C         6.335079   -9.482122    9.937460
N         4.724321  -11.024898    2.537881
C         3.760690  -11.012403    1.578987
C         3.615997   -9.732145    0.776265
O         3.066754  -11.990330    1.355073
H         6.066227   -9.532376    1.924141
N         7.798858   -9.850148    4.048172
C         8.883972  -10.369411    4.845743
H         4.000182   -8.770005    3.488463
H         5.162760   -9.115598    4.788799
H         4.018344   -6.027490    6.792682
H         3.751760   -6.279505    5.055655
H         2.535388   -3.954105    5.385393
H         3.577053   -2.631157    5.986089
H         3.138291   -3.974903    7.069396
H         6.012968   -4.498721    4.079957
H         5.236425   -2.916327    4.335619
H         4.342626   -4.249068    3.529004
H         8.347480   -9.319983    8.137868
H         4.748794  -12.929737    6.838226
H         5.403824  -12.349466    5.287959
H         2.827850  -11.256071    6.612043
H         2.910119  -12.363382    5.214367
H         3.533925  -10.711156    5.065342
H         3.803861  -12.066740    8.566210
H         2.725382  -11.840535   12.929621
H         6.502164   -8.089770   12.000289
H         6.108234   -6.345386   13.881108
H         6.616557   -4.737969   16.366125
H         7.275727   -5.570527   18.852858
H         5.337908   -7.114878   21.274988
H         2.843076   -6.962165   21.398276
H         1.448753   -8.066825   19.659505
H         2.548733   -9.337085   17.794381
H         4.977182   -9.536134   17.703680
H         7.533342  -10.163920   16.814109
H         6.940981  -10.538066   14.425510
H         7.082740   -8.772158   10.296875
H         4.960559  -11.937412    2.921920
H         3.571685   -8.832152    1.404910
H         2.709312   -9.812035    0.165679
H         4.486001   -9.613204    0.111009
H         7.627795   -8.838223    4.020096
H         9.415403   -9.518824    5.287271
H         9.569093  -10.982060    4.237664
H         8.491490  -10.995412    5.662122
H         6.677132   -6.005251    5.616761
H         5.075091   -8.222106    7.020210
