-1 1
 OpenBabel05232414493D

111114  0  0  1  0  0  0  0  0999 V2000
    5.0670    4.2300   -1.9954 O   0  0  0  0  0  0  0  0  0  0  0  0
    4.4433    4.2558   -3.0513 C   0  0  0  0  0  0  0  0  0  0  0  0
    5.2487    4.1543   -4.3631 C   0  0  2  0  0  0  0  0  0  0  0  0
    4.6631    4.6301   -5.6968 C   0  0  0  0  0  0  0  0  0  0  0  0
    5.9646    4.8203   -6.9567 S   0  0  0  0  0  1  0  0  0  0  0  0
    6.3893    7.2027   -6.3204 C   0  0  0  0  0  3  0  0  0  0  0  0
    7.8024    7.2238   -6.8628 C   0  0  0  0  0  0  0  0  0  0  0  0
    8.3162    8.5654   -7.1151 N   0  0  0  0  0  0  0  0  0  0  0  0
    7.7631    9.2298   -8.2839 C   0  0  0  0  0  0  0  0  0  0  0  0
    8.7804    9.2943   -9.4129 C   0  0  0  0  0  0  0  0  0  0  0  0
    8.2257   10.0273  -10.4886 O   0  0  0  0  0  0  0  0  0  0  0  0
    9.1276   10.7059  -11.3052 C   0  0  0  0  0  0  0  0  0  0  0  0
    9.4993   12.0800  -10.7681 C   0  0  0  0  0  0  0  0  0  0  0  0
   10.3521   11.9493   -9.6643 O   0  0  0  0  0  0  0  0  0  0  0  0
   10.2407   12.8824   -8.6305 C   0  0  0  0  0  0  0  0  0  0  0  0
   10.5229   12.1870   -7.3159 C   0  0  0  0  0  0  0  0  0  0  0  0
    9.4593   11.3369   -7.0268 O   0  0  0  0  0  0  0  0  0  0  0  0
    9.7262   10.3336   -6.0833 C   0  0  0  0  0  0  0  0  0  0  0  0
    8.5373    9.3950   -5.9543 C   0  0  0  0  0  0  0  0  0  0  0  0
    6.1265    7.4138   -4.9829 C   0  0  0  0  0  3  0  0  0  0  0  0
    4.8025    7.7386   -4.5152 C   0  0  0  0  0  0  0  0  0  0  0  0
    3.8326    8.0124   -5.2220 O   0  0  0  0  0  0  0  0  0  0  0  0
    4.6760    7.6957   -3.1129 N   0  0  0  0  0  0  0  0  0  0  0  0
    3.5059    7.5344   -2.4067 C   0  0  0  0  0  0  0  0  0  0  0  0
    3.6402    7.0693   -1.0509 C   0  0  0  0  0  0  0  0  0  0  0  0
    4.9078    6.9422   -0.6323 O   0  0  0  0  0  0  0  0  0  0  0  0
    5.2024    6.0614    0.4390 C   0  0  0  0  0  0  0  0  0  0  0  0
    6.6831    5.7638    0.3980 C   0  0  0  0  0  0  0  0  0  0  0  0
    2.5293    6.7658   -0.3002 C   0  0  0  0  0  0  0  0  0  0  0  0
    1.2250    6.8890   -0.8470 C   0  0  0  0  0  0  0  0  0  0  0  0
    0.1631    6.5559   -0.0592 N   0  0  0  0  0  0  0  0  0  0  0  0
   -1.0248    6.6277   -0.5865 C   0  0  0  0  0  0  0  0  0  0  0  0
   -1.2957    7.0162   -1.9316 C   0  0  0  0  0  0  0  0  0  0  0  0
   -2.6439    6.8847   -2.3908 C   0  0  0  0  0  0  0  0  0  0  0  0
   -3.7498    6.7501   -2.7128 N   0  0  0  0  0  0  0  0  0  0  0  0
   -0.2260    7.4041   -2.7519 C   0  0  0  0  0  0  0  0  0  0  0  0
   -0.3485    7.7635   -4.0707 N   0  0  0  0  0  0  0  0  0  0  0  0
   -1.4384    8.3652   -4.7159 C   0  0  0  0  0  0  0  0  0  0  0  0
   -2.2375    9.3096   -4.0631 C   0  0  0  0  0  0  0  0  0  0  0  0
   -3.3156    9.8793   -4.7270 C   0  0  0  0  0  0  0  0  0  0  0  0
   -4.3211   11.0323   -3.8918 Cl  0  0  0  0  0  0  0  0  0  0  0  0
   -3.6012    9.5566   -6.0590 C   0  0  0  0  0  0  0  0  0  0  0  0
   -4.6481   10.1231   -6.7184 O   0  0  0  0  0  0  0  0  0  0  0  0
   -5.8843    9.4624   -6.5505 C   0  0  0  0  0  0  0  0  0  0  0  0
   -6.9647   10.1726   -7.3239 C   0  0  0  0  0  0  0  0  0  0  0  0
   -8.2903    9.7411   -7.1996 C   0  0  0  0  0  0  0  0  0  0  0  0
   -9.3084   10.3644   -7.9156 C   0  0  0  0  0  0  0  0  0  0  0  0
   -9.0138   11.4320   -8.7650 C   0  0  0  0  0  0  0  0  0  0  0  0
   -7.6964   11.8670   -8.8895 C   0  0  0  0  0  0  0  0  0  0  0  0
   -6.6749   11.2410   -8.1739 C   0  0  0  0  0  0  0  0  0  0  0  0
   -2.7675    8.6509   -6.7142 C   0  0  0  0  0  0  0  0  0  0  0  0
   -1.7021    8.0520   -6.0539 C   0  0  0  0  0  0  0  0  0  0  0  0
    1.0883    7.3533   -2.1812 C   0  0  0  0  0  0  0  0  0  0  0  0
    2.2398    7.7143   -2.9236 C   0  0  0  0  0  0  0  0  0  0  0  0
    5.8352    2.8291   -4.4870 N   0  0  0  0  0  0  0  0  0  0  0  0
    5.0820    1.7036   -4.5196 C   0  0  0  0  0  0  0  0  0  0  0  0
    5.8034    0.4637   -5.0148 C   0  0  0  0  0  0  0  0  0  0  0  0
    3.9087    1.6708   -4.1844 O   0  0  0  0  0  0  0  0  0  0  0  0
    6.0913    4.8259   -4.1449 H   0  0  0  0  0  0  0  0  0  0  0  0
    3.1069    4.4701   -3.0372 N   0  0  0  0  0  0  0  0  0  0  0  0
    2.1158    4.3236   -4.0770 C   0  0  0  0  0  0  0  0  0  0  0  0
    3.9127    3.9165   -6.0634 H   0  0  0  0  0  0  0  0  0  0  0  0
    4.1639    5.5985   -5.5562 H   0  0  0  0  0  0  0  0  0  0  0  0
    7.8479    6.6592   -7.8046 H   0  0  0  0  0  0  0  0  0  0  0  0
    8.4737    6.7079   -6.1568 H   0  0  0  0  0  0  0  0  0  0  0  0
    7.4673   10.2619   -8.0410 H   0  0  0  0  0  0  0  0  0  0  0  0
    6.8535    8.7173   -8.6408 H   0  0  0  0  0  0  0  0  0  0  0  0
    9.0446    8.2706   -9.7450 H   0  0  0  0  0  0  0  0  0  0  0  0
    9.6894    9.7808   -9.0336 H   0  0  0  0  0  0  0  0  0  0  0  0
    8.6420   10.8441  -12.2863 H   0  0  0  0  0  0  0  0  0  0  0  0
   10.0525   10.1199  -11.4747 H   0  0  0  0  0  0  0  0  0  0  0  0
    8.5649   12.5972  -10.4803 H   0  0  0  0  0  0  0  0  0  0  0  0
    9.9822   12.6759  -11.5707 H   0  0  0  0  0  0  0  0  0  0  0  0
    9.2207   13.3079   -8.5884 H   0  0  0  0  0  0  0  0  0  0  0  0
   10.9515   13.7221   -8.7683 H   0  0  0  0  0  0  0  0  0  0  0  0
   10.6668   12.9431   -6.5153 H   0  0  0  0  0  0  0  0  0  0  0  0
   11.4714   11.6213   -7.4117 H   0  0  0  0  0  0  0  0  0  0  0  0
    9.9426   10.7880   -5.0933 H   0  0  0  0  0  0  0  0  0  0  0  0
   10.6164    9.7491   -6.3916 H   0  0  0  0  0  0  0  0  0  0  0  0
    7.6436    9.9875   -5.6669 H   0  0  0  0  0  0  0  0  0  0  0  0
    8.7478    8.7356   -5.0984 H   0  0  0  0  0  0  0  0  0  0  0  0
    5.4970    7.4059   -2.5946 H   0  0  0  0  0  0  0  0  0  0  0  0
    4.6288    5.1323    0.2965 H   0  0  0  0  0  0  0  0  0  0  0  0
    4.9056    6.5329    1.3940 H   0  0  0  0  0  0  0  0  0  0  0  0
    6.9128    5.2407   -0.5405 H   0  0  0  0  0  0  0  0  0  0  0  0
    6.9595    5.1136    1.2410 H   0  0  0  0  0  0  0  0  0  0  0  0
    7.2744    6.6896    0.4622 H   0  0  0  0  0  0  0  0  0  0  0  0
    2.6083    6.4064    0.7248 H   0  0  0  0  0  0  0  0  0  0  0  0
   -1.8766    6.3462    0.0439 H   0  0  0  0  0  0  0  0  0  0  0  0
    0.4975    7.6791   -4.6221 H   0  0  0  0  0  0  0  0  0  0  0  0
   -2.0279    9.5950   -3.0319 H   0  0  0  0  0  0  0  0  0  0  0  0
   -6.1545    9.4220   -5.4798 H   0  0  0  0  0  0  0  0  0  0  0  0
   -5.7969    8.4170   -6.9036 H   0  0  0  0  0  0  0  0  0  0  0  0
   -8.5270    8.9074   -6.5320 H   0  0  0  0  0  0  0  0  0  0  0  0
  -10.3387   10.0172   -7.8081 H   0  0  0  0  0  0  0  0  0  0  0  0
   -9.8117   11.9239   -9.3260 H   0  0  0  0  0  0  0  0  0  0  0  0
   -7.4571   12.7039   -9.5498 H   0  0  0  0  0  0  0  0  0  0  0  0
   -5.6421   11.5789   -8.2644 H   0  0  0  0  0  0  0  0  0  0  0  0
   -2.9838    8.4135   -7.7573 H   0  0  0  0  0  0  0  0  0  0  0  0
   -1.0735    7.3239   -6.5701 H   0  0  0  0  0  0  0  0  0  0  0  0
    2.1941    8.0833   -3.9451 H   0  0  0  0  0  0  0  0  0  0  0  0
    6.7020    2.8282   -5.0144 H   0  0  0  0  0  0  0  0  0  0  0  0
    6.8767    0.4787   -4.7792 H   0  0  0  0  0  0  0  0  0  0  0  0
    5.6899    0.4050   -6.1083 H   0  0  0  0  0  0  0  0  0  0  0  0
    5.3338   -0.4213   -4.5685 H   0  0  0  0  0  0  0  0  0  0  0  0
    2.7633    4.5997   -2.0921 H   0  0  0  0  0  0  0  0  0  0  0  0
    2.1071    5.1805   -4.7686 H   0  0  0  0  0  0  0  0  0  0  0  0
    1.1297    4.2693   -3.5953 H   0  0  0  0  0  0  0  0  0  0  0  0
    2.2787    3.3923   -4.6352 H   0  0  0  0  0  0  0  0  0  0  0  0
    5.5983    7.5014   -7.0138 H   0  0  0  0  0  0  0  0  0  0  0  0
    6.9007    7.1926   -4.2394 H   0  0  0  0  0  0  0  0  0  0  0  0
  2 60  1  0  0  0  0
  2  1  2  0  0  0  0
  3 59  1  1  0  0  0
  3  2  1  0  0  0  0
  4 63  1  0  0  0  0
  4  3  1  0  0  0  0
  5  4  1  0  0  0  0
  6 20  1  0  0  0  0
  7  6  1  0  0  0  0
  7 65  1  0  0  0  0
  8  7  1  0  0  0  0
  8 19  1  0  0  0  0
  9 66  1  0  0  0  0
  9  8  1  0  0  0  0
 10 69  1  0  0  0  0
 10  9  1  0  0  0  0
 11 10  1  0  0  0  0
 12 13  1  0  0  0  0
 12 11  1  0  0  0  0
 13 72  1  0  0  0  0
 13 14  1  0  0  0  0
 14 15  1  0  0  0  0
 15 74  1  0  0  0  0
 15 16  1  0  0  0  0
 16 17  1  0  0  0  0
 16 76  1  0  0  0  0
 17 18  1  0  0  0  0
 18 19  1  0  0  0  0
 18 78  1  0  0  0  0
 19 80  1  0  0  0  0
 19 81  1  0  0  0  0
 20 21  1  0  0  0  0
 20111  1  0  0  0  0
 21 23  1  0  0  0  0
 22 21  2  0  0  0  0
 23 82  1  0  0  0  0
 23 24  1  0  0  0  0
 24 25  1  0  0  0  0
 25 26  1  0  0  0  0
 25 29  2  0  0  0  0
 26 27  1  0  0  0  0
 27 84  1  0  0  0  0
 28 27  1  0  0  0  0
 28 87  1  0  0  0  0
 28 86  1  0  0  0  0
 29 88  1  0  0  0  0
 30 29  1  0  0  0  0
 30 31  1  0  0  0  0
 32 31  2  0  0  0  0
 32 89  1  0  0  0  0
 33 32  1  0  0  0  0
 34 33  1  0  0  0  0
 35 34  3  0  0  0  0
 36 53  1  0  0  0  0
 36 33  2  0  0  0  0
 37 36  1  0  0  0  0
 38 37  1  0  0  0  0
 38 39  1  0  0  0  0
 39 91  1  0  0  0  0
 40 39  2  0  0  0  0
 40 41  1  0  0  0  0
 42 40  1  0  0  0  0
 43 44  1  0  0  0  0
 43 42  1  0  0  0  0
 44 92  1  0  0  0  0
 45 46  1  0  0  0  0
 45 44  1  0  0  0  0
 46 94  1  0  0  0  0
 47 95  1  0  0  0  0
 47 46  2  0  0  0  0
 48 47  1  0  0  0  0
 49 48  2  0  0  0  0
 49 50  1  0  0  0  0
 50 45  2  0  0  0  0
 51 42  2  0  0  0  0
 51 52  1  0  0  0  0
 52 38  2  0  0  0  0
 53 30  2  0  0  0  0
 54 24  2  0  0  0  0
 54 53  1  0  0  0  0
 55  3  1  0  0  0  0
 56 55  1  0  0  0  0
 56 58  2  0  0  0  0
 57103  1  0  0  0  0
 57105  1  0  0  0  0
 57 56  1  0  0  0  0
 60106  1  0  0  0  0
 61108  1  0  0  0  0
 61 60  1  0  0  0  0
 62  4  1  0  0  0  0
 64  7  1  0  0  0  0
 67  9  1  0  0  0  0
 68 10  1  0  0  0  0
 70 12  1  0  0  0  0
 71 12  1  0  0  0  0
 73 13  1  0  0  0  0
 75 15  1  0  0  0  0
 77 16  1  0  0  0  0
 79 18  1  0  0  0  0
 83 27  1  0  0  0  0
 85 28  1  0  0  0  0
 90 37  1  0  0  0  0
 93 44  1  0  0  0  0
 96 48  1  0  0  0  0
 97 49  1  0  0  0  0
 98 50  1  0  0  0  0
 99 51  1  0  0  0  0
100 52  1  0  0  0  0
101 54  1  0  0  0  0
102 55  1  0  0  0  0
104 57  1  0  0  0  0
107 61  1  0  0  0  0
109 61  1  0  0  0  0
110  6  1  0  0  0  0
M  END
