-1 1
 OpenBabel05232413483D

111114  0  0  1  0  0  0  0  0999 V2000
    2.5621   -3.3914    2.7937 O   0  0  0  0  0  0  0  0  0  0  0  0
    1.9872   -3.3133    1.7106 C   0  0  0  0  0  0  0  0  0  0  0  0
    2.8447   -3.1726    0.4400 C   0  0  2  0  0  0  0  0  0  0  0  0
    2.2975   -2.4732   -0.8127 C   0  0  0  0  0  0  0  0  0  0  0  0
    3.6250   -2.2396   -2.0576 S   0  0  0  0  0  1  0  0  0  0  0  0
    4.2215    0.4805   -0.0471 C   0  0  0  0  0  0  0  0  0  0  0  0
    5.6413    0.3622   -0.5215 C   0  0  0  0  0  0  0  0  0  0  0  0
    6.0567    1.4078   -1.4374 N   0  0  0  0  0  0  0  0  0  0  0  0
    5.5571    1.2620   -2.8018 C   0  0  0  0  0  0  0  0  0  0  0  0
    6.6914    0.9445   -3.7632 C   0  0  0  0  0  0  0  0  0  0  0  0
    6.1908    0.9851   -5.0843 O   0  0  0  0  0  0  0  0  0  0  0  0
    7.1234    1.2308   -6.0876 C   0  0  0  0  0  0  0  0  0  0  0  0
    7.3138    2.7161   -6.3549 C   0  0  0  0  0  0  0  0  0  0  0  0
    8.0062    3.3119   -5.2910 O   0  0  0  0  0  0  0  0  0  0  0  0
    7.6382    4.6016   -4.9047 C   0  0  0  0  0  0  0  0  0  0  0  0
    7.8244    4.7345   -3.4085 C   0  0  0  0  0  0  0  0  0  0  0  0
    6.8367    3.9911   -2.7667 O   0  0  0  0  0  0  0  0  0  0  0  0
    7.1000    3.6681   -1.4294 C   0  0  0  0  0  0  0  0  0  0  0  0
    6.0241    2.7425   -0.8859 C   0  0  0  0  0  0  0  0  0  0  0  0
    3.8211    0.3162    1.2190 C   0  0  0  0  0  0  0  0  0  0  0  0
    2.3854    0.3723    1.5755 C   0  0  0  0  0  0  0  0  0  0  0  0
    1.5202    0.8232    0.8438 O   0  0  0  0  0  0  0  0  0  0  0  0
    2.1094   -0.1570    2.8210 N   0  0  0  0  0  0  0  0  0  0  0  0
    0.8651   -0.5337    3.3029 C   0  0  0  0  0  0  0  0  0  0  0  0
    0.8760   -1.3370    4.4918 C   0  0  0  0  0  0  0  0  0  0  0  0
    2.0874   -1.5230    5.0341 O   0  0  0  0  0  0  0  0  0  0  0  0
    2.3463   -2.7203    5.7536 C   0  0  0  0  0  0  0  0  0  0  0  0
    3.8405   -2.9433    5.7586 C   0  0  0  0  0  0  0  0  0  0  0  0
   -0.2947   -1.8668    4.9822 C   0  0  0  0  0  0  0  0  0  0  0  0
   -1.5296   -1.6384    4.3230 C   0  0  0  0  0  0  0  0  0  0  0  0
   -2.6548   -2.1949    4.8576 N   0  0  0  0  0  0  0  0  0  0  0  0
   -3.7736   -2.0178    4.2178 C   0  0  0  0  0  0  0  0  0  0  0  0
   -3.9106   -1.3043    2.9902 C   0  0  0  0  0  0  0  0  0  0  0  0
   -5.1923   -1.3496    2.3559 C   0  0  0  0  0  0  0  0  0  0  0  0
   -6.2513   -1.4305    1.8904 N   0  0  0  0  0  0  0  0  0  0  0  0
   -2.7766   -0.6930    2.4338 C   0  0  0  0  0  0  0  0  0  0  0  0
   -2.7616   -0.0178    1.2432 N   0  0  0  0  0  0  0  0  0  0  0  0
   -3.8381    0.6026    0.5849 C   0  0  0  0  0  0  0  0  0  0  0  0
   -4.7420    1.3993    1.2937 C   0  0  0  0  0  0  0  0  0  0  0  0
   -5.8142    1.9813    0.6315 C   0  0  0  0  0  0  0  0  0  0  0  0
   -6.9559    2.9435    1.5293 Cl  0  0  0  0  0  0  0  0  0  0  0  0
   -5.9872    1.8174   -0.7486 C   0  0  0  0  0  0  0  0  0  0  0  0
   -7.0307    2.3917   -1.4039 O   0  0  0  0  0  0  0  0  0  0  0  0
   -8.2228    1.6330   -1.4023 C   0  0  0  0  0  0  0  0  0  0  0  0
   -9.3070    2.3647   -2.1493 C   0  0  0  0  0  0  0  0  0  0  0  0
  -10.6090    1.8512   -2.1401 C   0  0  0  0  0  0  0  0  0  0  0  0
  -11.6281    2.4920   -2.8391 C   0  0  0  0  0  0  0  0  0  0  0  0
  -11.3585    3.6593   -3.5551 C   0  0  0  0  0  0  0  0  0  0  0  0
  -10.0649    4.1761   -3.5642 C   0  0  0  0  0  0  0  0  0  0  0  0
   -9.0422    3.5326   -2.8661 C   0  0  0  0  0  0  0  0  0  0  0  0
   -5.0474    1.0648   -1.4522 C   0  0  0  0  0  0  0  0  0  0  0  0
   -3.9856    0.4535   -0.7969 C   0  0  0  0  0  0  0  0  0  0  0  0
   -1.5399   -0.8450    3.1471 C   0  0  0  0  0  0  0  0  0  0  0  0
   -0.3333   -0.2651    2.6818 C   0  0  0  0  0  0  0  0  0  0  0  0
    3.4685   -4.4368    0.0772 N   0  0  0  0  0  0  0  0  0  0  0  0
    2.7937   -5.6052   -0.0207 C   0  0  0  0  0  0  0  0  0  0  0  0
    3.5085   -6.6760   -0.8253 C   0  0  0  0  0  0  0  0  0  0  0  0
    1.7001   -5.8104    0.4867 O   0  0  0  0  0  0  0  0  0  0  0  0
    3.6686   -2.5387    0.8051 H   0  0  0  0  0  0  0  0  0  0  0  0
    0.6344   -3.2279    1.6853 N   0  0  0  0  0  0  0  0  0  0  0  0
   -0.2962   -3.3805    0.5922 C   0  0  0  0  0  0  0  0  0  0  0  0
    1.4964   -3.0806   -1.2569 H   0  0  0  0  0  0  0  0  0  0  0  0
    1.8579   -1.5052   -0.5161 H   0  0  0  0  0  0  0  0  0  0  0  0
    5.7061   -0.6104   -1.0370 H   0  0  0  0  0  0  0  0  0  0  0  0
    6.3292    0.3267    0.3420 H   0  0  0  0  0  0  0  0  0  0  0  0
    5.0853    2.1975   -3.1421 H   0  0  0  0  0  0  0  0  0  0  0  0
    4.7935    0.4664   -2.8553 H   0  0  0  0  0  0  0  0  0  0  0  0
    7.1050   -0.0589   -3.5411 H   0  0  0  0  0  0  0  0  0  0  0  0
    7.4880    1.6898   -3.6263 H   0  0  0  0  0  0  0  0  0  0  0  0
    6.7490    0.7628   -7.0142 H   0  0  0  0  0  0  0  0  0  0  0  0
    8.1055    0.7712   -5.8604 H   0  0  0  0  0  0  0  0  0  0  0  0
    6.3124    3.1711   -6.4698 H   0  0  0  0  0  0  0  0  0  0  0  0
    7.8623    2.8595   -7.3092 H   0  0  0  0  0  0  0  0  0  0  0  0
    6.5766    4.8009   -5.1431 H   0  0  0  0  0  0  0  0  0  0  0  0
    8.2497    5.3683   -5.4232 H   0  0  0  0  0  0  0  0  0  0  0  0
    7.7757    5.8055   -3.1181 H   0  0  0  0  0  0  0  0  0  0  0  0
    8.8355    4.3650   -3.1450 H   0  0  0  0  0  0  0  0  0  0  0  0
    7.1365    4.5908   -0.8116 H   0  0  0  0  0  0  0  0  0  0  0  0
    8.0829    3.1625   -1.3440 H   0  0  0  0  0  0  0  0  0  0  0  0
    5.0386    3.2415   -1.0148 H   0  0  0  0  0  0  0  0  0  0  0  0
    6.1910    2.6689    0.2011 H   0  0  0  0  0  0  0  0  0  0  0  0
    2.8734   -0.6051    3.3172 H   0  0  0  0  0  0  0  0  0  0  0  0
    1.8428   -3.5527    5.2383 H   0  0  0  0  0  0  0  0  0  0  0  0
    1.9424   -2.6255    6.7780 H   0  0  0  0  0  0  0  0  0  0  0  0
    4.1791   -3.0907    4.7238 H   0  0  0  0  0  0  0  0  0  0  0  0
    4.0844   -3.8433    6.3419 H   0  0  0  0  0  0  0  0  0  0  0  0
    4.3665   -2.0858    6.2045 H   0  0  0  0  0  0  0  0  0  0  0  0
   -0.3127   -2.4822    5.8807 H   0  0  0  0  0  0  0  0  0  0  0  0
   -4.6759   -2.4735    4.6427 H   0  0  0  0  0  0  0  0  0  0  0  0
   -1.8574    0.0641    0.7939 H   0  0  0  0  0  0  0  0  0  0  0  0
   -4.6216    1.5499    2.3670 H   0  0  0  0  0  0  0  0  0  0  0  0
   -8.5483    1.4347   -0.3653 H   0  0  0  0  0  0  0  0  0  0  0  0
   -8.0362    0.6512   -1.8779 H   0  0  0  0  0  0  0  0  0  0  0  0
  -10.8264    0.9392   -1.5766 H   0  0  0  0  0  0  0  0  0  0  0  0
  -12.6398    2.0800   -2.8225 H   0  0  0  0  0  0  0  0  0  0  0  0
  -12.1574    4.1649   -4.1023 H   0  0  0  0  0  0  0  0  0  0  0  0
   -9.8456    5.0910   -4.1195 H   0  0  0  0  0  0  0  0  0  0  0  0
   -8.0284    3.9344   -2.8666 H   0  0  0  0  0  0  0  0  0  0  0  0
   -5.1794    0.9535   -2.5299 H   0  0  0  0  0  0  0  0  0  0  0  0
   -3.2743   -0.1609   -1.3521 H   0  0  0  0  0  0  0  0  0  0  0  0
   -0.2877    0.3553    1.7910 H   0  0  0  0  0  0  0  0  0  0  0  0
    4.1877   -4.2588   -0.6291 H   0  0  0  0  0  0  0  0  0  0  0  0
    4.5970   -6.6464   -0.6759 H   0  0  0  0  0  0  0  0  0  0  0  0
    3.3082   -6.5046   -1.8944 H   0  0  0  0  0  0  0  0  0  0  0  0
    3.1140   -7.6593   -0.5418 H   0  0  0  0  0  0  0  0  0  0  0  0
    0.2475   -3.2984    2.6196 H   0  0  0  0  0  0  0  0  0  0  0  0
   -0.3623   -2.4741   -0.0293 H   0  0  0  0  0  0  0  0  0  0  0  0
   -1.2900   -3.5695    1.0219 H   0  0  0  0  0  0  0  0  0  0  0  0
   -0.0235   -4.2406   -0.0344 H   0  0  0  0  0  0  0  0  0  0  0  0
    3.4614    0.6883   -0.8081 H   0  0  0  0  0  0  0  0  0  0  0  0
    4.5415    0.0583    2.0039 H   0  0  0  0  0  0  0  0  0  0  0  0
  2  1  2  0  0  0  0
  3 59  1  1  0  0  0
  3  2  1  0  0  0  0
  4 63  1  0  0  0  0
  4  3  1  0  0  0  0
  5  4  1  0  0  0  0
  6 20  2  0  0  0  0
  7  6  1  0  0  0  0
  7 65  1  0  0  0  0
  8 19  1  0  0  0  0
  8  7  1  0  0  0  0
  9  8  1  0  0  0  0
 10 69  1  0  0  0  0
 10 68  1  0  0  0  0
 10  9  1  0  0  0  0
 11 10  1  0  0  0  0
 12 71  1  0  0  0  0
 12 11  1  0  0  0  0
 13 12  1  0  0  0  0
 13 14  1  0  0  0  0
 14 15  1  0  0  0  0
 15 16  1  0  0  0  0
 16 77  1  0  0  0  0
 16 76  1  0  0  0  0
 16 17  1  0  0  0  0
 17 18  1  0  0  0  0
 18 79  1  0  0  0  0
 18 19  1  0  0  0  0
 18 78  1  0  0  0  0
 19 81  1  0  0  0  0
 20 21  1  0  0  0  0
 20111  1  0  0  0  0
 21 23  1  0  0  0  0
 22 21  2  0  0  0  0
 23 24  1  0  0  0  0
 23 82  1  0  0  0  0
 24 25  1  0  0  0  0
 25 29  2  0  0  0  0
 25 26  1  0  0  0  0
 26 27  1  0  0  0  0
 27 28  1  0  0  0  0
 27 84  1  0  0  0  0
 28 87  1  0  0  0  0
 28 86  1  0  0  0  0
 29 88  1  0  0  0  0
 30 31  1  0  0  0  0
 30 29  1  0  0  0  0
 32 89  1  0  0  0  0
 32 31  2  0  0  0  0
 33 32  1  0  0  0  0
 34 33  1  0  0  0  0
 35 34  3  0  0  0  0
 36 33  2  0  0  0  0
 36 53  1  0  0  0  0
 37 36  1  0  0  0  0
 38 37  1  0  0  0  0
 38 39  1  0  0  0  0
 39 91  1  0  0  0  0
 40 39  2  0  0  0  0
 40 41  1  0  0  0  0
 42 40  1  0  0  0  0
 43 44  1  0  0  0  0
 43 42  1  0  0  0  0
 44 92  1  0  0  0  0
 45 46  1  0  0  0  0
 45 44  1  0  0  0  0
 46 94  1  0  0  0  0
 47 95  1  0  0  0  0
 47 46  2  0  0  0  0
 48 47  1  0  0  0  0
 49 48  2  0  0  0  0
 49 50  1  0  0  0  0
 50 45  2  0  0  0  0
 51 52  1  0  0  0  0
 51 42  2  0  0  0  0
 52 38  2  0  0  0  0
 53 30  2  0  0  0  0
 54 53  1  0  0  0  0
 54 24  2  0  0  0  0
 55  3  1  0  0  0  0
 56 55  1  0  0  0  0
 56 58  2  0  0  0  0
 57103  1  0  0  0  0
 57105  1  0  0  0  0
 57 56  1  0  0  0  0
 60  2  1  0  0  0  0
 60106  1  0  0  0  0
 61108  1  0  0  0  0
 61 60  1  0  0  0  0
 62  4  1  0  0  0  0
 64  7  1  0  0  0  0
 66  9  1  0  0  0  0
 67  9  1  0  0  0  0
 70 12  1  0  0  0  0
 72 13  1  0  0  0  0
 73 13  1  0  0  0  0
 74 15  1  0  0  0  0
 75 15  1  0  0  0  0
 80 19  1  0  0  0  0
 83 27  1  0  0  0  0
 85 28  1  0  0  0  0
 90 37  1  0  0  0  0
 93 44  1  0  0  0  0
 96 48  1  0  0  0  0
 97 49  1  0  0  0  0
 98 50  1  0  0  0  0
 99 51  1  0  0  0  0
100 52  1  0  0  0  0
101 54  1  0  0  0  0
102 55  1  0  0  0  0
104 57  1  0  0  0  0
107 61  1  0  0  0  0
109 61  1  0  0  0  0
110  6  1  0  0  0  0
M  END
