-1 1
 OpenBabel05232414493D

111115  0  0  1  0  0  0  0  0999 V2000
    4.2928   -9.1758    7.2179 O   0  0  0  0  0  0  0  0  0  0  0  0
    3.6218   -8.2006    7.5223 C   0  0  0  0  0  0  0  0  0  0  0  0
    3.6422   -6.8810    6.7132 C   0  0  2  0  0  0  0  0  0  0  0  0
    4.5285   -7.0183    5.4583 C   0  0  0  0  0  0  0  0  0  0  0  0
    5.2654   -5.4814    4.7969 S   0  0  0  0  0  0  0  0  0  0  0  0
    3.7463   -3.9206    4.3322 C   0  0  1  0  0  0  0  0  0  0  0  0
    2.4241   -4.6210    4.6050 C   0  0  0  0  0  0  0  0  0  0  0  0
    1.2604   -3.8594    4.2095 N   0  0  0  0  0  0  0  0  0  0  0  0
    1.0941   -3.5577    2.8094 C   0  0  0  0  0  0  0  0  0  0  0  0
    1.7058   -2.2576    2.2621 C   0  0  0  0  0  0  0  0  0  0  0  0
    1.3876   -2.1212    0.8861 O   0  0  0  0  0  0  0  0  0  0  0  0
    0.3555   -1.2610    0.5260 C   0  0  0  0  0  0  0  0  0  0  0  0
   -1.0485   -1.8328    0.6709 C   0  0  0  0  0  0  0  0  0  0  0  0
   -1.4715   -1.7465    2.0037 O   0  0  0  0  0  0  0  0  0  0  0  0
   -2.5156   -2.6016    2.3696 C   0  0  0  0  0  0  0  0  0  0  0  0
   -2.6680   -2.6135    3.8826 C   0  0  0  0  0  0  0  0  0  0  0  0
   -1.5717   -3.1672    4.5443 O   0  0  0  0  0  0  0  0  0  0  0  0
   -0.5430   -2.2469    4.8434 C   0  0  0  0  0  0  0  0  0  0  0  0
    0.7515   -2.9463    5.2067 C   0  0  0  0  0  0  0  0  0  0  0  0
    4.0705   -2.7378    5.0287 C   0  0  0  0  0  3  0  0  0  0  0  0
    4.7817   -1.6778    4.4108 C   0  0  0  0  0  0  0  0  0  0  0  0
    4.9151   -1.4643    3.2038 O   0  0  0  0  0  0  0  0  0  0  0  0
    5.3502   -0.7122    5.3070 N   0  0  0  0  0  0  0  0  0  0  0  0
    6.1826   -0.9943    6.3663 C   0  0  0  0  0  0  0  0  0  0  0  0
    6.7079    0.1166    7.1149 C   0  0  0  0  0  0  0  0  0  0  0  0
    6.3333    1.3277    6.6467 O   0  0  0  0  0  0  0  0  0  0  0  0
    6.8097    2.4881    7.2827 C   0  0  0  0  0  0  0  0  0  0  0  0
    6.2567    3.6887    6.5467 C   0  0  0  0  0  0  0  0  0  0  0  0
    7.5222   -0.0857    8.2032 C   0  0  0  0  0  0  0  0  0  0  0  0
    7.8936   -1.3945    8.6103 C   0  0  0  0  0  0  0  0  0  0  0  0
    8.6939   -1.5184    9.7085 N   0  0  0  0  0  0  0  0  0  0  0  0
    9.0567   -2.7226   10.0435 C   0  0  0  0  0  0  0  0  0  0  0  0
    8.6876   -3.9144    9.3526 C   0  0  0  0  0  0  0  0  0  0  0  0
    9.2994   -5.1238    9.8118 C   0  0  0  0  0  0  0  0  0  0  0  0
    9.8529   -6.0457   10.2464 N   0  0  0  0  0  0  0  0  0  0  0  0
    7.8378   -3.8225    8.2364 C   0  0  0  0  0  0  0  0  0  0  0  0
    7.4119   -4.8798    7.4927 N   0  0  0  0  0  0  0  0  0  0  0  0
    7.3772   -6.2455    7.8527 C   0  0  0  0  0  0  0  0  0  0  0  0
    7.8222   -7.1953    6.9303 C   0  0  0  0  0  0  0  0  0  0  0  0
    7.6747   -8.5468    7.1998 C   0  0  0  0  0  0  0  0  0  0  0  0
    8.1748   -9.7199    6.0160 Cl  0  0  0  0  0  0  0  0  0  0  0  0
    7.0982   -8.9903    8.4005 C   0  0  0  0  0  0  0  0  0  0  0  0
    6.9645  -10.3158    8.5699 O   0  0  0  0  0  0  0  0  0  0  0  0
    6.0716  -10.7928    9.5509 C   0  0  0  0  0  0  0  0  0  0  0  0
    5.6146  -12.1745    9.1667 C   0  0  0  0  0  0  0  0  0  0  0  0
    4.8827  -12.3406    7.9836 C   0  0  0  0  0  0  0  0  0  0  0  0
    4.4388  -13.6061    7.6112 C   0  0  0  0  0  0  0  0  0  0  0  0
    4.7169  -14.7153    8.4135 C   0  0  0  0  0  0  0  0  0  0  0  0
    5.4434  -14.5539    9.5909 C   0  0  0  0  0  0  0  0  0  0  0  0
    5.8934  -13.2858    9.9627 C   0  0  0  0  0  0  0  0  0  0  0  0
    6.6949   -8.0295    9.3320 C   0  0  0  0  0  0  0  0  0  0  0  0
    6.8097   -6.6732    9.0511 C   0  0  0  0  0  0  0  0  0  0  0  0
    7.4204   -2.4957    7.8566 C   0  0  0  0  0  0  0  0  0  0  0  0
    6.5609   -2.2673    6.7546 C   0  0  0  0  0  0  0  0  0  0  0  0
    4.0589   -5.7423    7.5119 N   0  0  0  0  0  0  0  0  0  0  0  0
    3.2509   -5.0560    8.3448 C   0  0  0  0  0  0  0  0  0  0  0  0
    3.7832   -3.7270    8.8274 C   0  0  0  0  0  0  0  0  0  0  0  0
    2.1475   -5.4679    8.7012 O   0  0  0  0  0  0  0  0  0  0  0  0
    2.5944   -6.7107    6.4133 H   0  0  0  0  0  0  0  0  0  0  0  0
    2.7497   -8.1845    8.5526 N   0  0  0  0  0  0  0  0  0  0  0  0
    2.5549   -9.3079    9.4289 C   0  0  0  0  0  0  0  0  0  0  0  0
    5.3672   -7.6862    5.6985 H   0  0  0  0  0  0  0  0  0  0  0  0
    3.9449   -7.5268    4.6787 H   0  0  0  0  0  0  0  0  0  0  0  0
    2.3273   -4.8123    5.6833 H   0  0  0  0  0  0  0  0  0  0  0  0
    2.4088   -5.5986    4.0908 H   0  0  0  0  0  0  0  0  0  0  0  0
    0.0180   -3.5405    2.5797 H   0  0  0  0  0  0  0  0  0  0  0  0
    1.5203   -4.3944    2.2315 H   0  0  0  0  0  0  0  0  0  0  0  0
    2.8026   -2.2428    2.3545 H   0  0  0  0  0  0  0  0  0  0  0  0
    1.3338   -1.3834    2.8260 H   0  0  0  0  0  0  0  0  0  0  0  0
    0.5095   -1.0176   -0.5386 H   0  0  0  0  0  0  0  0  0  0  0  0
    0.4006   -0.3091    1.0930 H   0  0  0  0  0  0  0  0  0  0  0  0
   -1.0316   -2.8874    0.3325 H   0  0  0  0  0  0  0  0  0  0  0  0
   -1.7473   -1.2780    0.0099 H   0  0  0  0  0  0  0  0  0  0  0  0
   -2.3043   -3.6345    2.0271 H   0  0  0  0  0  0  0  0  0  0  0  0
   -3.4744   -2.2851    1.9054 H   0  0  0  0  0  0  0  0  0  0  0  0
   -3.5501   -3.2290    4.1265 H   0  0  0  0  0  0  0  0  0  0  0  0
   -2.8766   -1.5840    4.2364 H   0  0  0  0  0  0  0  0  0  0  0  0
   -0.8397   -1.6204    5.7095 H   0  0  0  0  0  0  0  0  0  0  0  0
   -0.3877   -1.5699    3.9913 H   0  0  0  0  0  0  0  0  0  0  0  0
    0.5966   -3.5179    6.1398 H   0  0  0  0  0  0  0  0  0  0  0  0
    1.4738   -2.1372    5.4535 H   0  0  0  0  0  0  0  0  0  0  0  0
    5.5117    0.1886    4.8707 H   0  0  0  0  0  0  0  0  0  0  0  0
    7.9155    2.4957    7.2746 H   0  0  0  0  0  0  0  0  0  0  0  0
    6.4898    2.4952    8.3411 H   0  0  0  0  0  0  0  0  0  0  0  0
    6.5872    3.6848    5.4981 H   0  0  0  0  0  0  0  0  0  0  0  0
    6.6040    4.6185    7.0199 H   0  0  0  0  0  0  0  0  0  0  0  0
    5.1574    3.6765    6.5613 H   0  0  0  0  0  0  0  0  0  0  0  0
    7.9182    0.7373    8.7962 H   0  0  0  0  0  0  0  0  0  0  0  0
    9.7108   -2.8283   10.9175 H   0  0  0  0  0  0  0  0  0  0  0  0
    6.9872   -4.6930    6.5819 H   0  0  0  0  0  0  0  0  0  0  0  0
    8.2539   -6.8740    5.9821 H   0  0  0  0  0  0  0  0  0  0  0  0
    5.1952  -10.1275    9.5969 H   0  0  0  0  0  0  0  0  0  0  0  0
    6.5584  -10.8001   10.5430 H   0  0  0  0  0  0  0  0  0  0  0  0
    4.6662  -11.4590    7.3731 H   0  0  0  0  0  0  0  0  0  0  0  0
    3.8694  -13.7290    6.6869 H   0  0  0  0  0  0  0  0  0  0  0  0
    4.3668  -15.7074    8.1178 H   0  0  0  0  0  0  0  0  0  0  0  0
    5.6683  -15.4181   10.2206 H   0  0  0  0  0  0  0  0  0  0  0  0
    6.4728  -13.1604   10.8818 H   0  0  0  0  0  0  0  0  0  0  0  0
    6.2596   -8.3375   10.2821 H   0  0  0  0  0  0  0  0  0  0  0  0
    6.4470   -5.9379    9.7714 H   0  0  0  0  0  0  0  0  0  0  0  0
    6.1622   -3.0963    6.1715 H   0  0  0  0  0  0  0  0  0  0  0  0
    4.8581   -5.2500    7.1100 H   0  0  0  0  0  0  0  0  0  0  0  0
    4.8272   -3.5443    8.5417 H   0  0  0  0  0  0  0  0  0  0  0  0
    3.6793   -3.6785    9.9196 H   0  0  0  0  0  0  0  0  0  0  0  0
    3.1600   -2.9293    8.3973 H   0  0  0  0  0  0  0  0  0  0  0  0
    2.2717   -7.2955    8.7360 H   0  0  0  0  0  0  0  0  0  0  0  0
    3.1237   -9.2086   10.3705 H   0  0  0  0  0  0  0  0  0  0  0  0
    2.8852  -10.2258    8.9237 H   0  0  0  0  0  0  0  0  0  0  0  0
    1.4903   -9.4103    9.6859 H   0  0  0  0  0  0  0  0  0  0  0  0
    3.9909   -3.8752    3.2653 H   0  0  0  0  0  0  0  0  0  0  0  0
    3.8712   -2.6773    6.1017 H   0  0  0  0  0  0  0  0  0  0  0  0
  1  2  2  0  0  0  0
  2 60  1  0  0  0  0
  3 59  1  6  0  0  0
  3 55  1  0  0  0  0
  3  2  1  0  0  0  0
  4 62  1  0  0  0  0
  4  3  1  0  0  0  0
  5  4  1  0  0  0  0
  6110  1  6  0  0  0
  6  7  1  0  0  0  0
  6  5  1  0  0  0  0
  6 20  1  0  0  0  0
  7 64  1  0  0  0  0
  8  7  1  0  0  0  0
  8 19  1  0  0  0  0
  9  8  1  0  0  0  0
 10 68  1  0  0  0  0
 10  9  1  0  0  0  0
 10 69  1  0  0  0  0
 11 10  1  0  0  0  0
 12 13  1  0  0  0  0
 12 11  1  0  0  0  0
 12 71  1  0  0  0  0
 13 14  1  0  0  0  0
 14 15  1  0  0  0  0
 15 16  1  0  0  0  0
 16 76  1  0  0  0  0
 16 77  1  0  0  0  0
 16 17  1  0  0  0  0
 17 18  1  0  0  0  0
 18 19  1  0  0  0  0
 18 78  1  0  0  0  0
 19 81  1  0  0  0  0
 19 80  1  0  0  0  0
 20111  1  0  0  0  0
 21 20  1  0  0  0  0
 21 23  1  0  0  0  0
 22 21  2  0  0  0  0
 23 24  1  0  0  0  0
 24 54  2  0  0  0  0
 24 25  1  0  0  0  0
 25 29  2  0  0  0  0
 26 25  1  0  0  0  0
 26 27  1  0  0  0  0
 27 84  1  0  0  0  0
 28 87  1  0  0  0  0
 28 86  1  0  0  0  0
 28 27  1  0  0  0  0
 29 30  1  0  0  0  0
 29 88  1  0  0  0  0
 30 31  1  0  0  0  0
 31 32  2  0  0  0  0
 32 89  1  0  0  0  0
 33 34  1  0  0  0  0
 33 32  1  0  0  0  0
 34 35  3  0  0  0  0
 36 33  2  0  0  0  0
 37 38  1  0  0  0  0
 37 36  1  0  0  0  0
 38 52  1  0  0  0  0
 39 40  1  0  0  0  0
 39 38  2  0  0  0  0
 40 42  2  0  0  0  0
 41 40  1  0  0  0  0
 42 43  1  0  0  0  0
 42 51  1  0  0  0  0
 43 44  1  0  0  0  0
 44 92  1  0  0  0  0
 44 93  1  0  0  0  0
 45 44  1  0  0  0  0
 45 50  1  0  0  0  0
 46 45  2  0  0  0  0
 47 46  1  0  0  0  0
 47 48  2  0  0  0  0
 48 49  1  0  0  0  0
 49 50  2  0  0  0  0
 49 97  1  0  0  0  0
 50 98  1  0  0  0  0
 51 99  1  0  0  0  0
 52 51  2  0  0  0  0
 52100  1  0  0  0  0
 53 36  1  0  0  0  0
 53 30  2  0  0  0  0
 54 53  1  0  0  0  0
 55 56  1  0  0  0  0
 56 58  2  0  0  0  0
 56 57  1  0  0  0  0
 57104  1  0  0  0  0
 60106  1  0  0  0  0
 60 61  1  0  0  0  0
 61109  1  0  0  0  0
 61107  1  0  0  0  0
 63  4  1  0  0  0  0
 65  7  1  0  0  0  0
 66  9  1  0  0  0  0
 67  9  1  0  0  0  0
 70 12  1  0  0  0  0
 72 13  1  0  0  0  0
 73 13  1  0  0  0  0
 74 15  1  0  0  0  0
 75 15  1  0  0  0  0
 79 18  1  0  0  0  0
 82 23  1  0  0  0  0
 83 27  1  0  0  0  0
 85 28  1  0  0  0  0
 90 37  1  0  0  0  0
 91 39  1  0  0  0  0
 94 46  1  0  0  0  0
 95 47  1  0  0  0  0
 96 48  1  0  0  0  0
101 54  1  0  0  0  0
102 55  1  0  0  0  0
103 57  1  0  0  0  0
105 57  1  0  0  0  0
108 61  1  0  0  0  0
M  END
