-1 1
 OpenBabel05192410563D

111115  0  0  1  0  0  0  0  0999 V2000
   -0.5368   -3.7456    1.1144 O   0  0  0  0  0  0  0  0  0  0  0  0
   -1.0897   -2.7081    1.4511 C   0  0  0  0  0  0  0  0  0  0  0  0
   -1.0264   -1.4143    0.5961 C   0  0  2  0  0  0  0  0  0  0  0  0
   -0.4144   -1.7556   -0.7697 C   0  0  0  0  0  0  0  0  0  0  0  0
    0.3635   -0.4430   -1.7552 S   0  0  0  0  0  0  0  0  0  0  0  0
   -0.9680    0.8878   -2.1382 C   0  0  1  0  0  0  0  0  0  0  0  0
   -2.3428    0.2032   -2.2379 C   0  0  0  0  0  0  0  0  0  0  0  0
   -3.4372    1.0446   -2.6444 N   0  0  0  0  0  0  0  0  0  0  0  0
   -3.4574    1.5413   -3.9968 C   0  0  0  0  0  0  0  0  0  0  0  0
   -2.8455    2.9225   -4.2708 C   0  0  0  0  0  0  0  0  0  0  0  0
   -3.0036    3.2513   -5.6443 O   0  0  0  0  0  0  0  0  0  0  0  0
   -4.0249    4.1235   -6.0019 C   0  0  0  0  0  0  0  0  0  0  0  0
   -5.4094    3.4975   -6.1108 C   0  0  0  0  0  0  0  0  0  0  0  0
   -5.9914    3.3803   -4.8416 O   0  0  0  0  0  0  0  0  0  0  0  0
   -7.0300    2.4516   -4.7305 C   0  0  0  0  0  0  0  0  0  0  0  0
   -7.3581    2.2137   -3.2646 C   0  0  0  0  0  0  0  0  0  0  0  0
   -6.3263    1.5950   -2.5589 O   0  0  0  0  0  0  0  0  0  0  0  0
   -5.3775    2.4863   -2.0077 C   0  0  0  0  0  0  0  0  0  0  0  0
   -4.1069    1.7733   -1.5917 C   0  0  0  0  0  0  0  0  0  0  0  0
   -0.8396    2.0689   -1.2695 C   0  0  0  0  0  3  0  0  0  0  0  0
   -0.2342    3.2257   -1.7427 C   0  0  0  0  0  0  0  0  0  0  0  0
    0.0277    3.5600   -2.9124 O   0  0  0  0  0  0  0  0  0  0  0  0
    0.1699    4.1753   -0.6989 N   0  0  0  0  0  0  0  0  0  0  0  0
    1.2870    3.9413    0.0576 C   0  0  0  0  0  0  0  0  0  0  0  0
    1.8497    5.0343    0.8123 C   0  0  0  0  0  0  0  0  0  0  0  0
    1.2324    6.2185    0.6091 O   0  0  0  0  0  0  0  0  0  0  0  0
    1.7068    7.3650    1.2699 C   0  0  0  0  0  0  0  0  0  0  0  0
    0.8552    8.5405    0.8428 C   0  0  0  0  0  0  0  0  0  0  0  0
    2.9156    4.8417    1.6573 C   0  0  0  0  0  0  0  0  0  0  0  0
    3.5141    3.5607    1.8060 C   0  0  0  0  0  0  0  0  0  0  0  0
    4.5360    3.4274    2.6971 N   0  0  0  0  0  0  0  0  0  0  0  0
    5.0645    2.2438    2.8317 C   0  0  0  0  0  0  0  0  0  0  0  0
    4.6532    1.0851    2.1114 C   0  0  0  0  0  0  0  0  0  0  0  0
    5.4071   -0.1146    2.3103 C   0  0  0  0  0  0  0  0  0  0  0  0
    6.0648   -1.0486    2.5086 N   0  0  0  0  0  0  0  0  0  0  0  0
    3.5974    1.1906    1.1942 C   0  0  0  0  0  0  0  0  0  0  0  0
    3.1225    0.1428    0.4487 N   0  0  0  0  0  0  0  0  0  0  0  0
    3.0063   -1.2059    0.8469 C   0  0  0  0  0  0  0  0  0  0  0  0
    3.1101   -2.2065   -0.1233 C   0  0  0  0  0  0  0  0  0  0  0  0
    2.8422   -3.5271    0.2063 C   0  0  0  0  0  0  0  0  0  0  0  0
    2.9020   -4.7493   -1.0313 Cl  0  0  0  0  0  0  0  0  0  0  0  0
    2.4876   -3.8959    1.5134 C   0  0  0  0  0  0  0  0  0  0  0  0
    2.2069   -5.1894    1.7433 O   0  0  0  0  0  0  0  0  0  0  0  0
    1.4876   -5.5302    2.9083 C   0  0  0  0  0  0  0  0  0  0  0  0
    0.8156   -6.8601    2.6959 C   0  0  0  0  0  0  0  0  0  0  0  0
   -0.1811   -6.9681    1.7174 C   0  0  0  0  0  0  0  0  0  0  0  0
   -0.8236   -8.1849    1.5074 C   0  0  0  0  0  0  0  0  0  0  0  0
   -0.4815   -9.3034    2.2712 C   0  0  0  0  0  0  0  0  0  0  0  0
    0.5083   -9.2002    3.2457 C   0  0  0  0  0  0  0  0  0  0  0  0
    1.1565   -7.9813    3.4531 C   0  0  0  0  0  0  0  0  0  0  0  0
    2.4427   -2.8931    2.4856 C   0  0  0  0  0  0  0  0  0  0  0  0
    2.6778   -1.5639    2.1543 C   0  0  0  0  0  0  0  0  0  0  0  0
    3.0029    2.4874    1.0327 C   0  0  0  0  0  0  0  0  0  0  0  0
    1.8982    2.7040    0.1772 C   0  0  0  0  0  0  0  0  0  0  0  0
   -0.3166   -0.3489    1.2823 N   0  0  0  0  0  0  0  0  0  0  0  0
   -0.9069    0.4345    2.2161 C   0  0  0  0  0  0  0  0  0  0  0  0
   -0.1450    1.6668    2.6329 C   0  0  0  0  0  0  0  0  0  0  0  0
   -2.0063    0.1672    2.6964 O   0  0  0  0  0  0  0  0  0  0  0  0
   -2.0691   -1.0763    0.4725 H   0  0  0  0  0  0  0  0  0  0  0  0
   -1.8321   -2.5913    2.5696 N   0  0  0  0  0  0  0  0  0  0  0  0
   -1.9619   -3.6637    3.5208 C   0  0  0  0  0  0  0  0  0  0  0  0
    0.3928   -2.4839   -0.6131 H   0  0  0  0  0  0  0  0  0  0  0  0
   -1.1776   -2.2751   -1.3642 H   0  0  0  0  0  0  0  0  0  0  0  0
   -2.6146   -0.2202   -1.2579 H   0  0  0  0  0  0  0  0  0  0  0  0
   -2.2634   -0.6487   -2.9398 H   0  0  0  0  0  0  0  0  0  0  0  0
   -4.4993    1.5583   -4.3531 H   0  0  0  0  0  0  0  0  0  0  0  0
   -2.9272    0.8120   -4.6312 H   0  0  0  0  0  0  0  0  0  0  0  0
   -1.7698    2.9579   -4.0358 H   0  0  0  0  0  0  0  0  0  0  0  0
   -3.3252    3.6932   -3.6412 H   0  0  0  0  0  0  0  0  0  0  0  0
   -3.7612    4.5235   -6.9956 H   0  0  0  0  0  0  0  0  0  0  0  0
   -4.0904    4.9844   -5.3059 H   0  0  0  0  0  0  0  0  0  0  0  0
   -5.3046    2.5028   -6.5868 H   0  0  0  0  0  0  0  0  0  0  0  0
   -6.0503    4.1207   -6.7698 H   0  0  0  0  0  0  0  0  0  0  0  0
   -6.7332    1.4861   -5.1872 H   0  0  0  0  0  0  0  0  0  0  0  0
   -7.9420    2.8046   -5.2589 H   0  0  0  0  0  0  0  0  0  0  0  0
   -8.2371    1.5485   -3.2217 H   0  0  0  0  0  0  0  0  0  0  0  0
   -7.6495    3.1751   -2.7958 H   0  0  0  0  0  0  0  0  0  0  0  0
   -5.8005    2.9713   -1.1042 H   0  0  0  0  0  0  0  0  0  0  0  0
   -5.1515    3.2844   -2.7290 H   0  0  0  0  0  0  0  0  0  0  0  0
   -4.3544    1.0565   -0.7871 H   0  0  0  0  0  0  0  0  0  0  0  0
   -3.4573    2.5444   -1.1272 H   0  0  0  0  0  0  0  0  0  0  0  0
    0.0909    5.1407   -1.0019 H   0  0  0  0  0  0  0  0  0  0  0  0
    2.7693    7.5350    1.0147 H   0  0  0  0  0  0  0  0  0  0  0  0
    1.6524    7.2183    2.3647 H   0  0  0  0  0  0  0  0  0  0  0  0
    0.9215    8.6897   -0.2444 H   0  0  0  0  0  0  0  0  0  0  0  0
    1.1942    9.4586    1.3442 H   0  0  0  0  0  0  0  0  0  0  0  0
   -0.1988    8.3669    1.1030 H   0  0  0  0  0  0  0  0  0  0  0  0
    3.3419    5.6490    2.2511 H   0  0  0  0  0  0  0  0  0  0  0  0
    5.8923    2.1358    3.5426 H   0  0  0  0  0  0  0  0  0  0  0  0
    2.5605    0.3777   -0.3676 H   0  0  0  0  0  0  0  0  0  0  0  0
    3.3661   -1.9465   -1.1509 H   0  0  0  0  0  0  0  0  0  0  0  0
    0.7165   -4.7645    3.0914 H   0  0  0  0  0  0  0  0  0  0  0  0
    2.1650   -5.5687    3.7809 H   0  0  0  0  0  0  0  0  0  0  0  0
   -0.4424   -6.0793    1.1367 H   0  0  0  0  0  0  0  0  0  0  0  0
   -1.5993   -8.2623    0.7420 H   0  0  0  0  0  0  0  0  0  0  0  0
   -0.9881  -10.2571    2.1039 H   0  0  0  0  0  0  0  0  0  0  0  0
    0.7836  -10.0723    3.8436 H   0  0  0  0  0  0  0  0  0  0  0  0
    1.9406   -7.9029    4.2114 H   0  0  0  0  0  0  0  0  0  0  0  0
    2.1893   -3.1426    3.5155 H   0  0  0  0  0  0  0  0  0  0  0  0
    2.5886   -0.7942    2.9229 H   0  0  0  0  0  0  0  0  0  0  0  0
    1.4510    1.8915   -0.3943 H   0  0  0  0  0  0  0  0  0  0  0  0
    0.5150    0.0001    0.8135 H   0  0  0  0  0  0  0  0  0  0  0  0
    0.9429    1.5274    2.5859 H   0  0  0  0  0  0  0  0  0  0  0  0
   -0.4509    1.9419    3.6490 H   0  0  0  0  0  0  0  0  0  0  0  0
   -0.3987    2.4928    1.9507 H   0  0  0  0  0  0  0  0  0  0  0  0
   -2.1740   -1.6503    2.7914 H   0  0  0  0  0  0  0  0  0  0  0  0
   -1.1990   -3.6106    4.3178 H   0  0  0  0  0  0  0  0  0  0  0  0
   -1.8470   -4.6268    3.0049 H   0  0  0  0  0  0  0  0  0  0  0  0
   -2.9535   -3.6292    3.9939 H   0  0  0  0  0  0  0  0  0  0  0  0
   -0.6521    1.1804   -3.1512 H   0  0  0  0  0  0  0  0  0  0  0  0
   -1.0538    1.9756   -0.2027 H   0  0  0  0  0  0  0  0  0  0  0  0
  1  2  2  0  0  0  0
  2 60  1  0  0  0  0
  3 59  1  6  0  0  0
  3 55  1  0  0  0  0
  3  2  1  0  0  0  0
  4 62  1  0  0  0  0
  4  3  1  0  0  0  0
  5  4  1  0  0  0  0
  6110  1  6  0  0  0
  6  5  1  0  0  0  0
  6 20  1  0  0  0  0
  7  6  1  0  0  0  0
  7 64  1  0  0  0  0
  8  7  1  0  0  0  0
  8 19  1  0  0  0  0
  9  8  1  0  0  0  0
 10 68  1  0  0  0  0
 10  9  1  0  0  0  0
 10 69  1  0  0  0  0
 11 10  1  0  0  0  0
 12 11  1  0  0  0  0
 12 71  1  0  0  0  0
 13 12  1  0  0  0  0
 13 14  1  0  0  0  0
 14 15  1  0  0  0  0
 15 16  1  0  0  0  0
 16 76  1  0  0  0  0
 16 77  1  0  0  0  0
 16 17  1  0  0  0  0
 17 18  1  0  0  0  0
 18 19  1  0  0  0  0
 18 78  1  0  0  0  0
 19 81  1  0  0  0  0
 19 80  1  0  0  0  0
 20111  1  0  0  0  0
 21 20  1  0  0  0  0
 21 23  1  0  0  0  0
 22 21  2  0  0  0  0
 23 24  1  0  0  0  0
 24 54  2  0  0  0  0
 24 25  1  0  0  0  0
 25 29  2  0  0  0  0
 26 25  1  0  0  0  0
 26 27  1  0  0  0  0
 27 84  1  0  0  0  0
 28 87  1  0  0  0  0
 28 27  1  0  0  0  0
 28 86  1  0  0  0  0
 29 30  1  0  0  0  0
 29 88  1  0  0  0  0
 30 31  1  0  0  0  0
 31 32  2  0  0  0  0
 32 89  1  0  0  0  0
 33 34  1  0  0  0  0
 33 32  1  0  0  0  0
 34 35  3  0  0  0  0
 36 33  2  0  0  0  0
 37 38  1  0  0  0  0
 37 36  1  0  0  0  0
 38 52  1  0  0  0  0
 39 40  1  0  0  0  0
 39 38  2  0  0  0  0
 40 42  2  0  0  0  0
 41 40  1  0  0  0  0
 42 43  1  0  0  0  0
 42 51  1  0  0  0  0
 43 44  1  0  0  0  0
 44 92  1  0  0  0  0
 44 93  1  0  0  0  0
 45 44  1  0  0  0  0
 45 50  1  0  0  0  0
 46 45  2  0  0  0  0
 47 46  1  0  0  0  0
 47 48  2  0  0  0  0
 48 49  1  0  0  0  0
 49 50  2  0  0  0  0
 49 97  1  0  0  0  0
 50 98  1  0  0  0  0
 51 99  1  0  0  0  0
 52 51  2  0  0  0  0
 52100  1  0  0  0  0
 53 36  1  0  0  0  0
 53 30  2  0  0  0  0
 54 53  1  0  0  0  0
 55 56  1  0  0  0  0
 56 57  1  0  0  0  0
 56 58  2  0  0  0  0
 57104  1  0  0  0  0
 60106  1  0  0  0  0
 60 61  1  0  0  0  0
 61109  1  0  0  0  0
 61107  1  0  0  0  0
 63  4  1  0  0  0  0
 65  7  1  0  0  0  0
 66  9  1  0  0  0  0
 67  9  1  0  0  0  0
 70 12  1  0  0  0  0
 72 13  1  0  0  0  0
 73 13  1  0  0  0  0
 74 15  1  0  0  0  0
 75 15  1  0  0  0  0
 79 18  1  0  0  0  0
 82 23  1  0  0  0  0
 83 27  1  0  0  0  0
 85 28  1  0  0  0  0
 90 37  1  0  0  0  0
 91 39  1  0  0  0  0
 94 46  1  0  0  0  0
 95 47  1  0  0  0  0
 96 48  1  0  0  0  0
101 54  1  0  0  0  0
102 55  1  0  0  0  0
103 57  1  0  0  0  0
105 57  1  0  0  0  0
108 61  1  0  0  0  0
M  END
