-1 1
 OpenBabel05232413483D

111114  0  0  1  0  0  0  0  0999 V2000
   -0.5213   -3.7861    0.4574 O   0  0  0  0  0  0  0  0  0  0  0  0
   -1.0142   -2.6764    0.6148 C   0  0  0  0  0  0  0  0  0  0  0  0
   -0.5565   -1.4560   -0.2162 C   0  0  2  0  0  0  0  0  0  0  0  0
    0.7318   -1.8005   -1.0025 C   0  0  0  0  0  0  0  0  0  0  0  0
    1.6824   -0.3610   -1.6153 S   0  0  0  0  0  1  0  0  0  0  0  0
   -0.7772    2.5901   -2.8157 C   0  0  0  0  0  0  0  0  0  0  0  0
   -1.5664    1.3164   -2.6589 C   0  0  0  0  0  0  0  0  0  0  0  0
   -3.0035    1.4574   -2.6425 N   0  0  0  0  0  0  0  0  0  0  0  0
   -3.7174    1.4919   -3.8904 C   0  0  0  0  0  0  0  0  0  0  0  0
   -3.7738    2.8292   -4.6460 C   0  0  0  0  0  0  0  0  0  0  0  0
   -4.5182    2.7134   -5.8411 O   0  0  0  0  0  0  0  0  0  0  0  0
   -5.8369    3.1676   -5.8510 C   0  0  0  0  0  0  0  0  0  0  0  0
   -6.8579    2.1999   -5.2729 C   0  0  0  0  0  0  0  0  0  0  0  0
   -6.8516    2.2720   -3.8752 O   0  0  0  0  0  0  0  0  0  0  0  0
   -7.4262    1.1819   -3.2109 C   0  0  0  0  0  0  0  0  0  0  0  0
   -7.0895    1.2485   -1.7307 C   0  0  0  0  0  0  0  0  0  0  0  0
   -5.7227    1.1205   -1.4811 O   0  0  0  0  0  0  0  0  0  0  0  0
   -5.0168    2.3406   -1.4307 C   0  0  0  0  0  0  0  0  0  0  0  0
   -3.5200    2.1154   -1.4616 C   0  0  0  0  0  0  0  0  0  0  0  0
    0.2556    2.9383   -2.0412 C   0  0  0  0  0  0  0  0  0  0  0  0
    1.0223    4.1684   -2.3513 C   0  0  0  0  0  0  0  0  0  0  0  0
    0.7597    4.8920   -3.2960 O   0  0  0  0  0  0  0  0  0  0  0  0
    2.0888    4.5158   -1.5380 N   0  0  0  0  0  0  0  0  0  0  0  0
    2.4700    4.1281   -0.2422 C   0  0  0  0  0  0  0  0  0  0  0  0
    2.6960    5.2076    0.6740 C   0  0  0  0  0  0  0  0  0  0  0  0
    2.4858    6.4387    0.1610 O   0  0  0  0  0  0  0  0  0  0  0  0
    2.6917    7.5703    0.9745 C   0  0  0  0  0  0  0  0  0  0  0  0
    2.3823    8.8014    0.1518 C   0  0  0  0  0  0  0  0  0  0  0  0
    3.1112    4.9577    1.9581 C   0  0  0  0  0  0  0  0  0  0  0  0
    3.3263    3.6317    2.4087 C   0  0  0  0  0  0  0  0  0  0  0  0
    3.7364    3.4888    3.7022 N   0  0  0  0  0  0  0  0  0  0  0  0
    3.9756    2.2748    4.1084 C   0  0  0  0  0  0  0  0  0  0  0  0
    3.8193    1.1007    3.3273 C   0  0  0  0  0  0  0  0  0  0  0  0
    4.2432   -0.1183    3.9468 C   0  0  0  0  0  0  0  0  0  0  0  0
    4.6387   -1.0351    4.5371 N   0  0  0  0  0  0  0  0  0  0  0  0
    3.3423    1.2033    1.9994 C   0  0  0  0  0  0  0  0  0  0  0  0
    3.1115    0.1391    1.2099 N   0  0  0  0  0  0  0  0  0  0  0  0
    2.8999   -1.1918    1.6543 C   0  0  0  0  0  0  0  0  0  0  0  0
    3.6226   -2.2289    1.0661 C   0  0  0  0  0  0  0  0  0  0  0  0
    3.2950   -3.5459    1.3513 C   0  0  0  0  0  0  0  0  0  0  0  0
    4.1672   -4.8385    0.5748 Cl  0  0  0  0  0  0  0  0  0  0  0  0
    2.2426   -3.8626    2.2264 C   0  0  0  0  0  0  0  0  0  0  0  0
    1.9433   -5.1608    2.3958 O   0  0  0  0  0  0  0  0  0  0  0  0
    0.6884   -5.5040    2.9528 C   0  0  0  0  0  0  0  0  0  0  0  0
    0.3077   -6.8783    2.4737 C   0  0  0  0  0  0  0  0  0  0  0  0
   -0.1916   -7.0247    1.1733 C   0  0  0  0  0  0  0  0  0  0  0  0
   -0.5359   -8.2867    0.6960 C   0  0  0  0  0  0  0  0  0  0  0  0
   -0.3866   -9.4115    1.5098 C   0  0  0  0  0  0  0  0  0  0  0  0
    0.1097   -9.2705    2.8044 C   0  0  0  0  0  0  0  0  0  0  0  0
    0.4579   -8.0064    3.2819 C   0  0  0  0  0  0  0  0  0  0  0  0
    1.5687   -2.8104    2.8542 C   0  0  0  0  0  0  0  0  0  0  0  0
    1.8797   -1.4910    2.5543 C   0  0  0  0  0  0  0  0  0  0  0  0
    3.1159    2.5515    1.5128 C   0  0  0  0  0  0  0  0  0  0  0  0
    2.6972    2.8352    0.1807 C   0  0  0  0  0  0  0  0  0  0  0  0
   -0.3124   -0.2492    0.5626 N   0  0  0  0  0  0  0  0  0  0  0  0
   -1.2241    0.5728    1.1081 C   0  0  0  0  0  0  0  0  0  0  0  0
   -0.7210    1.9529    1.4686 C   0  0  0  0  0  0  0  0  0  0  0  0
   -2.4045    0.2699    1.3015 O   0  0  0  0  0  0  0  0  0  0  0  0
   -1.3833   -1.2484   -0.9230 H   0  0  0  0  0  0  0  0  0  0  0  0
   -2.0300   -2.4421    1.4702 N   0  0  0  0  0  0  0  0  0  0  0  0
   -2.6071   -3.4839    2.2764 C   0  0  0  0  0  0  0  0  0  0  0  0
    1.3609   -2.4277   -0.3585 H   0  0  0  0  0  0  0  0  0  0  0  0
    0.4380   -2.4368   -1.8477 H   0  0  0  0  0  0  0  0  0  0  0  0
   -1.2294    0.8112   -1.7407 H   0  0  0  0  0  0  0  0  0  0  0  0
   -1.2820    0.6408   -3.4843 H   0  0  0  0  0  0  0  0  0  0  0  0
   -4.7494    1.1605   -3.7154 H   0  0  0  0  0  0  0  0  0  0  0  0
   -3.2628    0.7498   -4.5674 H   0  0  0  0  0  0  0  0  0  0  0  0
   -2.7596    3.1476   -4.9340 H   0  0  0  0  0  0  0  0  0  0  0  0
   -4.1945    3.6229   -4.0011 H   0  0  0  0  0  0  0  0  0  0  0  0
   -6.0958    3.3413   -6.9082 H   0  0  0  0  0  0  0  0  0  0  0  0
   -5.9359    4.1355   -5.3200 H   0  0  0  0  0  0  0  0  0  0  0  0
   -6.6032    1.1776   -5.6153 H   0  0  0  0  0  0  0  0  0  0  0  0
   -7.8658    2.4451   -5.6685 H   0  0  0  0  0  0  0  0  0  0  0  0
   -7.0305    0.2319   -3.6221 H   0  0  0  0  0  0  0  0  0  0  0  0
   -8.5292    1.1696   -3.3417 H   0  0  0  0  0  0  0  0  0  0  0  0
   -7.6043    0.4124   -1.2285 H   0  0  0  0  0  0  0  0  0  0  0  0
   -7.4922    2.1879   -1.3032 H   0  0  0  0  0  0  0  0  0  0  0  0
   -5.2528    2.8706   -0.4861 H   0  0  0  0  0  0  0  0  0  0  0  0
   -5.3332    2.9934   -2.2597 H   0  0  0  0  0  0  0  0  0  0  0  0
   -3.2439    1.5171   -0.5758 H   0  0  0  0  0  0  0  0  0  0  0  0
   -3.0682    3.1229   -1.3107 H   0  0  0  0  0  0  0  0  0  0  0  0
    2.4096    5.4470   -1.7846 H   0  0  0  0  0  0  0  0  0  0  0  0
    3.7361    7.5884    1.3364 H   0  0  0  0  0  0  0  0  0  0  0  0
    2.0362    7.5156    1.8627 H   0  0  0  0  0  0  0  0  0  0  0  0
    3.0456    8.8597   -0.7230 H   0  0  0  0  0  0  0  0  0  0  0  0
    2.5229    9.7078    0.7581 H   0  0  0  0  0  0  0  0  0  0  0  0
    1.3430    8.7748   -0.2054 H   0  0  0  0  0  0  0  0  0  0  0  0
    3.2915    5.7487    2.6839 H   0  0  0  0  0  0  0  0  0  0  0  0
    4.3315    2.1515    5.1387 H   0  0  0  0  0  0  0  0  0  0  0  0
    2.7962    0.2372    0.2160 H   0  0  0  0  0  0  0  0  0  0  0  0
    4.4108   -2.0033    0.3488 H   0  0  0  0  0  0  0  0  0  0  0  0
   -0.0699   -4.7876    2.6041 H   0  0  0  0  0  0  0  0  0  0  0  0
    0.7439   -5.4700    4.0560 H   0  0  0  0  0  0  0  0  0  0  0  0
   -0.3090   -6.1307    0.5539 H   0  0  0  0  0  0  0  0  0  0  0  0
   -0.9249   -8.3939   -0.3193 H   0  0  0  0  0  0  0  0  0  0  0  0
   -0.6581  -10.4007    1.1327 H   0  0  0  0  0  0  0  0  0  0  0  0
    0.2309  -10.1478    3.4445 H   0  0  0  0  0  0  0  0  0  0  0  0
    0.8547   -7.8947    4.2948 H   0  0  0  0  0  0  0  0  0  0  0  0
    0.7586   -3.0186    3.5521 H   0  0  0  0  0  0  0  0  0  0  0  0
    1.3051   -0.6822    3.0080 H   0  0  0  0  0  0  0  0  0  0  0  0
    2.5554    2.0206   -0.5337 H   0  0  0  0  0  0  0  0  0  0  0  0
    0.5686    0.1781    0.2354 H   0  0  0  0  0  0  0  0  0  0  0  0
    0.3715    2.0025    1.5681 H   0  0  0  0  0  0  0  0  0  0  0  0
   -1.1999    2.2775    2.4009 H   0  0  0  0  0  0  0  0  0  0  0  0
   -1.0236    2.6475    0.6693 H   0  0  0  0  0  0  0  0  0  0  0  0
   -2.4074   -1.4871    1.5009 H   0  0  0  0  0  0  0  0  0  0  0  0
   -2.1469   -3.5443    3.2791 H   0  0  0  0  0  0  0  0  0  0  0  0
   -2.4654   -4.4555    1.7824 H   0  0  0  0  0  0  0  0  0  0  0  0
   -3.6836   -3.3034    2.4087 H   0  0  0  0  0  0  0  0  0  0  0  0
   -1.0360    3.2632   -3.6416 H   0  0  0  0  0  0  0  0  0  0  0  0
    0.5731    2.2756   -1.2359 H   0  0  0  0  0  0  0  0  0  0  0  0
  1  2  2  0  0  0  0
  2 60  1  0  0  0  0
  3 59  1  6  0  0  0
  3 55  1  0  0  0  0
  3  2  1  0  0  0  0
  4 62  1  0  0  0  0
  4  3  1  0  0  0  0
  5  4  1  0  0  0  0
  6  7  1  0  0  0  0
  6 20  2  0  0  0  0
  7  8  1  0  0  0  0
  7 64  1  0  0  0  0
  8 19  1  0  0  0  0
  9 66  1  0  0  0  0
  9  8  1  0  0  0  0
 10 69  1  0  0  0  0
 10  9  1  0  0  0  0
 11 10  1  0  0  0  0
 12 11  1  0  0  0  0
 12 71  1  0  0  0  0
 12 13  1  0  0  0  0
 13 14  1  0  0  0  0
 14 15  1  0  0  0  0
 15 16  1  0  0  0  0
 16 17  1  0  0  0  0
 16 77  1  0  0  0  0
 16 76  1  0  0  0  0
 17 18  1  0  0  0  0
 18 78  1  0  0  0  0
 19 18  1  0  0  0  0
 19 81  1  0  0  0  0
 19 80  1  0  0  0  0
 20111  1  0  0  0  0
 21 20  1  0  0  0  0
 21 23  1  0  0  0  0
 22 21  2  0  0  0  0
 23 24  1  0  0  0  0
 24 54  2  0  0  0  0
 24 25  1  0  0  0  0
 25 29  2  0  0  0  0
 26 25  1  0  0  0  0
 26 27  1  0  0  0  0
 27 83  1  0  0  0  0
 27 84  1  0  0  0  0
 28 86  1  0  0  0  0
 28 27  1  0  0  0  0
 29 30  1  0  0  0  0
 29 88  1  0  0  0  0
 30 31  1  0  0  0  0
 31 32  2  0  0  0  0
 32 89  1  0  0  0  0
 33 34  1  0  0  0  0
 33 32  1  0  0  0  0
 34 35  3  0  0  0  0
 36 33  2  0  0  0  0
 37 38  1  0  0  0  0
 37 36  1  0  0  0  0
 38 52  1  0  0  0  0
 39 40  1  0  0  0  0
 39 38  2  0  0  0  0
 40 42  2  0  0  0  0
 41 40  1  0  0  0  0
 42 43  1  0  0  0  0
 42 51  1  0  0  0  0
 43 44  1  0  0  0  0
 44 93  1  0  0  0  0
 45 44  1  0  0  0  0
 45 50  1  0  0  0  0
 46 45  2  0  0  0  0
 47 46  1  0  0  0  0
 47 48  2  0  0  0  0
 48 49  1  0  0  0  0
 49 50  2  0  0  0  0
 49 97  1  0  0  0  0
 50 98  1  0  0  0  0
 51 99  1  0  0  0  0
 52 51  2  0  0  0  0
 52100  1  0  0  0  0
 53 36  1  0  0  0  0
 53 30  2  0  0  0  0
 54 53  1  0  0  0  0
 55 56  1  0  0  0  0
 56 58  2  0  0  0  0
 56 57  1  0  0  0  0
 57103  1  0  0  0  0
 57104  1  0  0  0  0
 60106  1  0  0  0  0
 60 61  1  0  0  0  0
 61109  1  0  0  0  0
 61107  1  0  0  0  0
 63  4  1  0  0  0  0
 65  7  1  0  0  0  0
 67  9  1  0  0  0  0
 68 10  1  0  0  0  0
 70 12  1  0  0  0  0
 72 13  1  0  0  0  0
 73 13  1  0  0  0  0
 74 15  1  0  0  0  0
 75 15  1  0  0  0  0
 79 18  1  0  0  0  0
 82 23  1  0  0  0  0
 85 28  1  0  0  0  0
 87 28  1  0  0  0  0
 90 37  1  0  0  0  0
 91 39  1  0  0  0  0
 92 44  1  0  0  0  0
 94 46  1  0  0  0  0
 95 47  1  0  0  0  0
 96 48  1  0  0  0  0
101 54  1  0  0  0  0
102 55  1  0  0  0  0
105 57  1  0  0  0  0
108 61  1  0  0  0  0
110  6  1  0  0  0  0
M  END
