111
-1 1
O         4.292760   -9.175810    7.217897
C         3.621777   -8.200614    7.522332
C         3.642195   -6.881021    6.713154
C         4.528465   -7.018336    5.458288
S         5.265417   -5.481375    4.796884
C         3.746264   -3.920591    4.332188
C         2.424135   -4.620969    4.604997
N         1.260416   -3.859386    4.209545
C         1.094081   -3.557694    2.809432
C         1.705812   -2.257587    2.262129
O         1.387557   -2.121227    0.886114
C         0.355504   -1.260968    0.526023
C        -1.048488   -1.832777    0.670883
O        -1.471533   -1.746458    2.003724
C        -2.515582   -2.601630    2.369576
C        -2.667999   -2.613523    3.882593
O        -1.571723   -3.167201    4.544349
C        -0.543037   -2.246907    4.843427
C         0.751504   -2.946296    5.206727
C         4.070504   -2.737838    5.028718
C         4.781742   -1.677847    4.410838
O         4.915084   -1.464262    3.203820
N         5.350233   -0.712191    5.306969
C         6.182598   -0.994287    6.366285
C         6.707929    0.116592    7.114900
O         6.333308    1.327687    6.646699
C         6.809730    2.488071    7.282719
C         6.256653    3.688688    6.546656
C         7.522205   -0.085734    8.203220
C         7.893615   -1.394548    8.610306
N         8.693926   -1.518361    9.708525
C         9.056715   -2.722615   10.043517
C         8.687625   -3.914420    9.352583
C         9.299449   -5.123764    9.811754
N         9.852860   -6.045652   10.246390
C         7.837761   -3.822510    8.236367
N         7.411857   -4.879770    7.492723
C         7.377245   -6.245493    7.852749
C         7.822183   -7.195349    6.930291
C         7.674713   -8.546803    7.199809
Cl         8.174790   -9.719854    6.016009
C         7.098188   -8.990325    8.400549
O         6.964501  -10.315787    8.569919
C         6.071613  -10.792787    9.550880
C         5.614588  -12.174479    9.166657
C         4.882729  -12.340556    7.983617
C         4.438789  -13.606133    7.611177
C         4.716892  -14.715324    8.413492
C         5.443418  -14.553935    9.590899
C         5.893425  -13.285760    9.962745
C         6.694923   -8.029464    9.332018
C         6.809681   -6.673196    9.051067
C         7.420362   -2.495656    7.856573
C         6.560868   -2.267340    6.754589
N         4.058888   -5.742344    7.511925
C         3.250874   -5.056020    8.344755
C         3.783160   -3.727044    8.827376
O         2.147517   -5.467887    8.701152
H         2.594445   -6.710737    6.413341
N         2.749706   -8.184540    8.552586
C         2.554917   -9.307941    9.428924
H         5.367159   -7.686227    5.698524
H         3.944874   -7.526828    4.678695
H         2.327273   -4.812297    5.683309
H         2.408757   -5.598612    4.090765
H         0.018025   -3.540458    2.579735
H         1.520264   -4.394376    2.231494
H         2.802595   -2.242787    2.354527
H         1.333816   -1.383448    2.825977
H         0.509460   -1.017626   -0.538611
H         0.400559   -0.309141    1.092967
H        -1.031561   -2.887372    0.332452
H        -1.747299   -1.278035    0.009882
H        -2.304305   -3.634460    2.027054
H        -3.474434   -2.285087    1.905350
H        -3.550133   -3.229044    4.126456
H        -2.876587   -1.583963    4.236439
H        -0.839749   -1.620374    5.709484
H        -0.387727   -1.569854    3.991303
H         0.596577   -3.517922    6.139779
H         1.473756   -2.137246    5.453450
H         5.511654    0.188551    4.870683
H         7.915508    2.495662    7.274642
H         6.489751    2.495230    8.341123
H         6.587246    3.684837    5.498073
H         6.603978    4.618534    7.019925
H         5.157442    3.676467    6.561256
H         7.918169    0.737317    8.796237
H         9.710769   -2.828295   10.917542
H         6.987226   -4.692977    6.581863
H         8.253910   -6.873993    5.982124
H         5.195205  -10.127520    9.596911
H         6.558439  -10.800131   10.543014
H         4.666188  -11.459037    7.373105
H         3.869407  -13.728978    6.686904
H         4.366772  -15.707359    8.117767
H         5.668303  -15.418102   10.220596
H         6.472801  -13.160417   10.881811
H         6.259612   -8.337485   10.282085
H         6.447010   -5.937911    9.771360
H         6.162200   -3.096299    6.171519
H         4.858080   -5.250024    7.110007
H         4.827212   -3.544328    8.541744
H         3.679300   -3.678537    9.919619
H         3.160016   -2.929345    8.397278
H         2.271663   -7.295478    8.735984
H         3.123712   -9.208615   10.370531
H         2.885232  -10.225755    8.923677
H         1.490305   -9.410299    9.685872
H         3.990911   -3.875211    3.265321
H         3.871224   -2.677279    6.101739
