-1 1
 OpenBabel05232413483D

 96 99  0  0  1  0  0  0  0  0999 V2000
    7.8169   -1.0257   -4.1656 O   0  0  0  0  0  0  0  0  0  0  0  0
    6.7476   -1.0030   -4.7691 C   0  0  0  0  0  0  0  0  0  0  0  0
    5.8674   -2.2646   -4.8351 C   0  0  2  0  0  0  0  0  0  0  0  0
    5.1387   -2.5196   -6.1688 C   0  0  0  0  0  0  0  0  0  0  0  0
    3.7315   -1.4151   -6.5600 S   0  0  0  0  0  1  0  0  0  0  0  0
    1.0073    0.7513   -5.0715 C   0  0  0  0  0  0  0  0  0  0  0  0
   -0.1900    1.0564   -5.9379 C   0  0  0  0  0  0  0  0  0  0  0  0
   -1.4942    0.8309   -5.3790 N   0  0  0  0  0  0  0  0  0  0  0  0
   -1.9969    1.6996   -4.3243 C   0  0  0  0  0  0  0  0  0  0  0  0
   -2.7519    0.7594   -3.3762 C   0  0  0  0  0  0  0  0  0  0  0  0
   -3.1656   -0.3979   -4.2884 C   0  0  0  0  0  0  0  0  0  0  0  0
   -1.9590   -0.5382   -5.2159 C   0  0  0  0  0  0  0  0  0  0  0  0
    0.9364    0.3804   -3.7906 C   0  0  0  0  0  0  0  0  0  0  0  0
    2.1480   -0.0648   -3.0567 C   0  0  0  0  0  0  0  0  0  0  0  0
    3.2784    0.2796   -3.3534 O   0  0  0  0  0  0  0  0  0  0  0  0
    1.9279   -0.9683   -2.0421 N   0  0  0  0  0  0  0  0  0  0  0  0
    0.6452   -1.4596   -1.7018 C   0  0  0  0  0  0  0  0  0  0  0  0
   -0.0669   -2.4325   -2.4845 C   0  0  0  0  0  0  0  0  0  0  0  0
    0.3859   -3.0473   -3.5700 O   0  0  0  0  0  0  0  0  0  0  0  0
    1.7739   -3.1829   -3.9147 C   0  0  0  0  0  0  0  0  0  0  0  0
    1.9037   -4.3841   -4.8184 C   0  0  0  0  0  0  0  0  0  0  0  0
   -1.3796   -2.7307   -2.1389 C   0  0  0  0  0  0  0  0  0  0  0  0
   -2.0351   -2.1280   -1.0546 C   0  0  0  0  0  0  0  0  0  0  0  0
   -3.3399   -2.4707   -0.8164 N   0  0  0  0  0  0  0  0  0  0  0  0
   -3.9356   -1.8920    0.1808 C   0  0  0  0  0  0  0  0  0  0  0  0
   -3.3430   -0.9274    1.0531 C   0  0  0  0  0  0  0  0  0  0  0  0
   -4.1963   -0.3299    2.0331 C   0  0  0  0  0  0  0  0  0  0  0  0
   -4.9473    0.1183    2.7950 N   0  0  0  0  0  0  0  0  0  0  0  0
   -2.0036   -0.5653    0.8486 C   0  0  0  0  0  0  0  0  0  0  0  0
   -1.3376    0.3554    1.6066 N   0  0  0  0  0  0  0  0  0  0  0  0
   -1.6502    0.7488    2.9291 C   0  0  0  0  0  0  0  0  0  0  0  0
   -1.7897    2.1052    3.2336 C   0  0  0  0  0  0  0  0  0  0  0  0
   -2.0893    2.4981    4.5285 C   0  0  0  0  0  0  0  0  0  0  0  0
   -2.2654    4.1898    4.8999 Cl  0  0  0  0  0  0  0  0  0  0  0  0
   -2.2812    1.5511    5.5501 C   0  0  0  0  0  0  0  0  0  0  0  0
   -2.5895    2.0220    6.7699 O   0  0  0  0  0  0  0  0  0  0  0  0
   -2.8943    1.1248    7.8041 C   0  0  0  0  0  0  0  0  0  0  0  0
   -3.2986    1.8914    9.0388 C   0  0  0  0  0  0  0  0  0  0  0  0
   -3.3955    1.2140   10.2589 C   0  0  0  0  0  0  0  0  0  0  0  0
   -3.7970    1.8845   11.4112 C   0  0  0  0  0  0  0  0  0  0  0  0
   -4.1014    3.2450   11.3567 C   0  0  0  0  0  0  0  0  0  0  0  0
   -4.0016    3.9242   10.1443 C   0  0  0  0  0  0  0  0  0  0  0  0
   -3.6038    3.2527    8.9879 C   0  0  0  0  0  0  0  0  0  0  0  0
   -2.1325    0.1978    5.2342 C   0  0  0  0  0  0  0  0  0  0  0  0
   -1.8052   -0.1965    3.9408 C   0  0  0  0  0  0  0  0  0  0  0  0
   -1.3248   -1.1903   -0.2533 C   0  0  0  0  0  0  0  0  0  0  0  0
    0.0117   -0.9032   -0.6085 C   0  0  0  0  0  0  0  0  0  0  0  0
    4.9208   -2.2171   -3.7312 N   0  0  0  0  0  0  0  0  0  0  0  0
    5.1078   -2.6393   -2.4695 C   0  0  0  0  0  0  0  0  0  0  0  0
    6.3971   -3.3686   -2.1570 C   0  0  0  0  0  0  0  0  0  0  0  0
    4.2621   -2.4705   -1.5836 O   0  0  0  0  0  0  0  0  0  0  0  0
    6.5663   -3.0950   -4.6657 H   0  0  0  0  0  0  0  0  0  0  0  0
    6.2176    0.0871   -5.3475 N   0  0  0  0  0  0  0  0  0  0  0  0
    6.8027    1.3936   -5.2311 C   0  0  0  0  0  0  0  0  0  0  0  0
    5.9004   -2.4724   -6.9654 H   0  0  0  0  0  0  0  0  0  0  0  0
    4.7883   -3.5659   -6.1372 H   0  0  0  0  0  0  0  0  0  0  0  0
   -0.0873    0.4532   -6.8577 H   0  0  0  0  0  0  0  0  0  0  0  0
   -0.1108    2.1050   -6.2825 H   0  0  0  0  0  0  0  0  0  0  0  0
   -2.6779    2.4740   -4.7331 H   0  0  0  0  0  0  0  0  0  0  0  0
   -1.1841    2.2374   -3.8044 H   0  0  0  0  0  0  0  0  0  0  0  0
   -3.5990    1.2441   -2.8693 H   0  0  0  0  0  0  0  0  0  0  0  0
   -2.0751    0.3800   -2.5921 H   0  0  0  0  0  0  0  0  0  0  0  0
   -4.0606   -0.1205   -4.8697 H   0  0  0  0  0  0  0  0  0  0  0  0
   -3.3921   -1.3189   -3.7327 H   0  0  0  0  0  0  0  0  0  0  0  0
   -2.2309   -0.9825   -6.1899 H   0  0  0  0  0  0  0  0  0  0  0  0
   -1.1946   -1.2037   -4.7671 H   0  0  0  0  0  0  0  0  0  0  0  0
    2.7819   -1.4675   -1.7271 H   0  0  0  0  0  0  0  0  0  0  0  0
    2.3704   -3.3083   -2.9998 H   0  0  0  0  0  0  0  0  0  0  0  0
    2.1160   -2.2899   -4.4621 H   0  0  0  0  0  0  0  0  0  0  0  0
    1.3192   -4.2401   -5.7378 H   0  0  0  0  0  0  0  0  0  0  0  0
    1.5716   -5.3054   -4.3155 H   0  0  0  0  0  0  0  0  0  0  0  0
    2.9585   -4.4889   -5.1078 H   0  0  0  0  0  0  0  0  0  0  0  0
   -1.9270   -3.4547   -2.7421 H   0  0  0  0  0  0  0  0  0  0  0  0
   -4.9851   -2.1549    0.3619 H   0  0  0  0  0  0  0  0  0  0  0  0
   -0.4569    0.6877    1.2384 H   0  0  0  0  0  0  0  0  0  0  0  0
   -1.6859    2.8562    2.4498 H   0  0  0  0  0  0  0  0  0  0  0  0
   -2.0208    0.4859    8.0319 H   0  0  0  0  0  0  0  0  0  0  0  0
   -3.7207    0.4578    7.4927 H   0  0  0  0  0  0  0  0  0  0  0  0
   -3.1521    0.1485   10.3091 H   0  0  0  0  0  0  0  0  0  0  0  0
   -3.8680    1.3435   12.3575 H   0  0  0  0  0  0  0  0  0  0  0  0
   -4.4133    3.7743   12.2598 H   0  0  0  0  0  0  0  0  0  0  0  0
   -4.2353    4.9900   10.0939 H   0  0  0  0  0  0  0  0  0  0  0  0
   -3.5214    3.7827    8.0381 H   0  0  0  0  0  0  0  0  0  0  0  0
   -2.2675   -0.5646    6.0003 H   0  0  0  0  0  0  0  0  0  0  0  0
   -1.6910   -1.2568    3.7085 H   0  0  0  0  0  0  0  0  0  0  0  0
    0.6112   -0.1768   -0.0562 H   0  0  0  0  0  0  0  0  0  0  0  0
    4.1421   -1.5718   -3.8944 H   0  0  0  0  0  0  0  0  0  0  0  0
    6.4536   -4.3134   -2.7197 H   0  0  0  0  0  0  0  0  0  0  0  0
    6.4141   -3.5868   -1.0833 H   0  0  0  0  0  0  0  0  0  0  0  0
    7.2611   -2.7523   -2.4465 H   0  0  0  0  0  0  0  0  0  0  0  0
    5.2925   -0.0331   -5.7991 H   0  0  0  0  0  0  0  0  0  0  0  0
    7.7560    1.3017   -4.6941 H   0  0  0  0  0  0  0  0  0  0  0  0
    6.1394    2.0712   -4.6687 H   0  0  0  0  0  0  0  0  0  0  0  0
    6.9922    1.8376   -6.2222 H   0  0  0  0  0  0  0  0  0  0  0  0
    1.9969    0.7835   -5.5458 H   0  0  0  0  0  0  0  0  0  0  0  0
   -0.0302    0.2748   -3.2990 H   0  0  0  0  0  0  0  0  0  0  0  0
  2  1  2  0  0  0  0
  3  2  1  0  0  0  0
  3 52  1  1  0  0  0
  3 48  1  0  0  0  0
  4 56  1  0  0  0  0
  4  3  1  0  0  0  0
  5  4  1  0  0  0  0
  6 13  2  0  0  0  0
  7  8  1  0  0  0  0
  7  6  1  0  0  0  0
  8 12  1  0  0  0  0
  8  9  1  0  0  0  0
  9 60  1  0  0  0  0
  9 10  1  0  0  0  0
 10 61  1  0  0  0  0
 10 62  1  0  0  0  0
 11 64  1  0  0  0  0
 11 10  1  0  0  0  0
 12 66  1  0  0  0  0
 12 11  1  0  0  0  0
 13 96  1  0  0  0  0
 13 14  1  0  0  0  0
 14 16  1  0  0  0  0
 15 14  2  0  0  0  0
 16 67  1  0  0  0  0
 16 17  1  0  0  0  0
 17 47  1  0  0  0  0
 18 22  1  0  0  0  0
 18 17  2  0  0  0  0
 19 18  1  0  0  0  0
 20 19  1  0  0  0  0
 20 68  1  0  0  0  0
 21 71  1  0  0  0  0
 21 20  1  0  0  0  0
 22 23  2  0  0  0  0
 23 24  1  0  0  0  0
 23 46  1  0  0  0  0
 24 25  2  0  0  0  0
 25 74  1  0  0  0  0
 25 26  1  0  0  0  0
 26 27  1  0  0  0  0
 27 28  3  0  0  0  0
 29 26  2  0  0  0  0
 29 30  1  0  0  0  0
 30 31  1  0  0  0  0
 31 32  2  0  0  0  0
 31 45  1  0  0  0  0
 32 33  1  0  0  0  0
 33 34  1  0  0  0  0
 33 35  2  0  0  0  0
 35 36  1  0  0  0  0
 36 37  1  0  0  0  0
 37 77  1  0  0  0  0
 37 38  1  0  0  0  0
 38 39  1  0  0  0  0
 39 79  1  0  0  0  0
 39 40  2  0  0  0  0
 40 80  1  0  0  0  0
 41 40  1  0  0  0  0
 41 81  1  0  0  0  0
 42 41  2  0  0  0  0
 43 38  2  0  0  0  0
 43 42  1  0  0  0  0
 44 35  1  0  0  0  0
 44 84  1  0  0  0  0
 45 44  2  0  0  0  0
 46 29  1  0  0  0  0
 47 46  2  0  0  0  0
 47 86  1  0  0  0  0
 48 49  1  0  0  0  0
 49 50  1  0  0  0  0
 49 51  2  0  0  0  0
 50 89  1  0  0  0  0
 53 54  1  0  0  0  0
 53  2  1  0  0  0  0
 54 92  1  0  0  0  0
 54 93  1  0  0  0  0
 55  4  1  0  0  0  0
 57  7  1  0  0  0  0
 58  7  1  0  0  0  0
 59  9  1  0  0  0  0
 63 11  1  0  0  0  0
 65 12  1  0  0  0  0
 69 20  1  0  0  0  0
 70 21  1  0  0  0  0
 72 21  1  0  0  0  0
 73 22  1  0  0  0  0
 75 30  1  0  0  0  0
 76 32  1  0  0  0  0
 78 37  1  0  0  0  0
 82 42  1  0  0  0  0
 83 43  1  0  0  0  0
 85 45  1  0  0  0  0
 87 48  1  0  0  0  0
 88 50  1  0  0  0  0
 90 50  1  0  0  0  0
 91 53  1  0  0  0  0
 94 54  1  0  0  0  0
 95  6  1  0  0  0  0
M  END
