96
-1 1
O         6.904352   -2.025859   -5.299901
C         6.046538   -1.184223   -5.071364
C         4.637520   -1.592960   -4.605804
C         3.483598   -1.194218   -5.546069
S         3.250349    0.538393   -6.015161
C         1.556031    1.048006   -5.148933
C         0.494630    1.292443   -6.240789
N        -0.347141    0.192975   -6.628226
C        -1.595501   -0.063124   -5.924511
C        -1.791988   -1.580342   -6.037317
C        -0.974294   -1.951436   -7.278159
C         0.231807   -1.025061   -7.145787
C         1.135444    0.180478   -4.050615
C         1.812442    0.274788   -2.841906
O         2.807727    1.005518   -2.615965
N         1.444697   -0.562824   -1.731548
C         0.159901   -0.983221   -1.403930
C        -0.544158   -1.994824   -2.147025
O        -0.024369   -2.649809   -3.203060
C         1.304552   -3.162695   -3.152764
C         1.484944   -4.049410   -4.363068
C        -1.833611   -2.339431   -1.792717
C        -2.485777   -1.775542   -0.677576
N        -3.744104   -2.213115   -0.370605
C        -4.320677   -1.698343    0.672968
C        -3.744301   -0.700535    1.517559
C        -4.575377   -0.158590    2.547888
N        -5.301121    0.244936    3.357382
C        -2.448551   -0.245664    1.242139
N        -1.808581    0.725322    1.968633
C        -1.987188    1.035923    3.331370
C        -2.016107    2.375284    3.732613
C        -2.160494    2.697856    5.073081
Cl        -2.190576    4.370345    5.559493
C        -2.307892    1.700006    6.051271
O        -2.463165    2.106713    7.324536
C        -2.693346    1.159483    8.330967
C        -2.908715    1.861179    9.649243
C        -2.989056    1.099423   10.820032
C        -3.208886    1.713009   12.050213
C        -3.347428    3.099565   12.123954
C        -3.264775    3.861650   10.960785
C        -3.047502    3.247885    9.726667
C        -2.276747    0.365395    5.639119
C        -2.101531    0.037715    4.298236
C        -1.784193   -0.816159    0.102978
C        -0.474345   -0.457895   -0.288821
N         4.410729   -1.193522   -3.231703
C         4.707213   -1.936884   -2.131714
C         5.353671   -3.295905   -2.365007
O         4.455671   -1.555453   -0.999891
H         4.667382   -2.690096   -4.651999
N         6.262873    0.148746   -5.139658
C         7.527125    0.717119   -5.521720
H         3.568140   -1.791383   -6.465758
H         2.546995   -1.470993   -5.033786
H         0.995277    1.704990   -7.136545
H        -0.170051    2.089136   -5.864993
H        -2.437145    0.485110   -6.397758
H        -1.557367    0.256378   -4.868480
H        -2.850805   -1.871917   -6.104046
H        -1.357793   -2.077445   -5.155704
H        -1.534841   -1.716625   -8.198534
H        -0.695108   -3.015518   -7.311223
H         0.755322   -0.845447   -8.101795
H         0.974632   -1.478361   -6.458098
H         2.045887   -0.327209   -0.947528
H         1.435467   -3.731303   -2.214980
H         2.032075   -2.340932   -3.148242
H         1.312893   -3.471806   -5.283652
H         0.782790   -4.896172   -4.348583
H         2.512826   -4.440813   -4.392339
H        -2.351726   -3.109714   -2.363804
H        -5.333673   -2.042835    0.914178
H        -1.037786    1.187825    1.505795
H        -1.941672    3.171959    2.991442
H        -1.834467    0.467243    8.414681
H        -3.584341    0.551301    8.083606
H        -2.877133    0.012264   10.768834
H        -3.269169    1.106301   12.956617
H        -3.517549    3.583578   13.088268
H        -3.369965    4.947820   11.010080
H        -2.979767    3.841179    8.813926
H        -2.381182   -0.438471    6.366881
H        -2.068833   -1.011091    3.998374
H         0.098218    0.282184    0.274249
H         3.972180   -0.273306   -3.034539
H         4.620978   -3.998159   -2.795140
H         5.674671   -3.681475   -1.390545
H         6.207227   -3.241720   -3.056190
H         5.449534    0.755910   -5.038523
H         8.246642   -0.103709   -5.636278
H         7.898860    1.414350   -4.753723
H         7.454817    1.259882   -6.478636
H         1.895884    2.019443   -4.762916
H         0.366847   -0.570413   -4.210315
