96
-1 1
O        10.545842  -10.137647    5.491008
C         9.725345   -9.228234    5.454690
C         8.271114   -9.467864    5.901301
C         7.156831   -9.010213    4.938313
S         7.045751   -7.291066    4.393712
C         5.058756   -6.672605    5.411969
C         4.114947   -6.460882    4.232924
N         3.266231   -7.553374    3.844031
C         2.024072   -7.805711    4.559937
C         1.834098   -9.326060    4.473382
C         2.654504   -9.716184    3.240106
C         3.854891   -8.779939    3.350884
C         4.715768   -7.561811    6.441024
C         5.441619   -7.490173    7.660436
O         6.392180   -6.726382    7.872762
N         5.135821   -8.397456    8.710831
C         3.863631   -8.860386    9.061562
C         3.167301   -9.874907    8.320916
O         3.673523  -10.488301    7.233891
C         5.000236  -11.010601    7.259558
C         5.173487  -11.857615    6.020853
C         1.896879  -10.257318    8.705288
C         1.261681   -9.721847    9.843718
N         0.022510  -10.194495   10.177309
C        -0.538675   -9.703720   11.240267
C         0.032277   -8.700029   12.081948
C        -0.788823   -8.198045   13.140603
N        -1.509776   -7.831432   13.971634
C         1.307854   -8.206470   11.778200
N         1.942670   -7.229903   12.496537
C         1.743634   -6.901725   13.854982
C         1.591494   -5.562860   14.226695
C         1.415436   -5.227681   15.560094
Cl         1.226568   -3.556841   16.012735
C         1.360253   -6.215727   16.558358
O         1.165892   -5.799057   17.821771
C         1.012678   -6.741478   18.848119
C         0.724215   -6.032871   20.148556
C         0.727668   -6.767707   21.339046
C         0.441430   -6.149659   22.553286
C         0.152042   -4.785159   22.590957
C         0.151220   -4.049425   21.408025
C         0.434440   -4.668062   20.189888
C         1.516476   -7.550344   16.174918
C         1.722278   -7.886929   14.840668
C         1.956358   -8.750990   10.615404
C         3.246913   -8.357531   10.194547
N         8.074416   -8.967861    7.251346
C         8.258359   -9.669043    8.400980
C         8.805861  -11.081561    8.271183
O         7.981690   -9.207123    9.499141
H         8.195054  -10.563641    5.929737
N        10.022392   -7.959093    5.108999
C        11.341329   -7.547840    4.712583
H         7.187763   -9.668828    4.056428
H         6.204789   -9.208153    5.467648
H         4.700254   -6.124050    3.361179
H         3.457642   -5.614254    4.505903
H         1.176865   -7.269298    4.083582
H         2.065504   -7.468549    5.610799
H         0.776457   -9.623124    4.411323
H         2.269372   -9.808831    5.362307
H         2.091337   -9.504767    2.315656
H         2.940164  -10.778927    3.229218
H         4.373350   -8.614763    2.390583
H         4.606664   -9.207369    4.044379
H         5.802322   -8.272388    9.470154
H         5.130467  -11.610098    8.178321
H         5.731233  -10.192205    7.287875
H         5.012288  -11.246963    5.120292
H         4.461768  -12.696216    6.007493
H         6.196990  -12.259149    5.981071
H         1.380307  -11.029837    8.135970
H        -1.536048  -10.076318   11.503835
H         2.708281   -6.760707   12.031948
H         1.591493   -4.779343   13.468100
H         1.929146   -7.351978   18.952632
H         0.181327   -7.431321   18.607757
H         0.958556   -7.836910   21.316300
H         0.447821   -6.735173   23.475450
H        -0.070105   -4.297347   23.542681
H        -0.071943   -2.980328   21.429136
H         0.437483   -4.094702   19.262013
H         1.485878   -8.344811   16.919586
H         1.849503   -8.933745   14.559283
H         3.818704   -7.609766   10.747903
H         7.698696   -8.017775    7.372794
H         8.028291  -11.751835    7.869339
H         9.075688  -11.426789    9.275874
H         9.671136  -11.131529    7.594947
H         9.231411   -7.314176    5.002134
H        12.022885   -8.395817    4.858484
H        11.691601   -6.697990    5.320416
H        11.371086   -7.249220    3.651430
H         5.555002   -5.757635    5.745032
H         4.010279   -8.372153    6.270918
