96
-1 1
O         7.816943   -1.025692   -4.165577
C         6.747600   -1.003002   -4.769057
C         5.867376   -2.264618   -4.835109
C         5.138683   -2.519607   -6.168758
S         3.731510   -1.415074   -6.559992
C         1.007295    0.751333   -5.071493
C        -0.190027    1.056393   -5.937922
N        -1.494165    0.830878   -5.378977
C        -1.996851    1.699560   -4.324272
C        -2.751853    0.759395   -3.376156
C        -3.165618   -0.397854   -4.288388
C        -1.958987   -0.538227   -5.215886
C         0.936412    0.380411   -3.790553
C         2.147990   -0.064754   -3.056716
O         3.278392    0.279580   -3.353386
N         1.927938   -0.968310   -2.042097
C         0.645219   -1.459596   -1.701766
C        -0.066937   -2.432547   -2.484535
O         0.385884   -3.047318   -3.570042
C         1.773856   -3.182921   -3.914744
C         1.903705   -4.384145   -4.818446
C        -1.379606   -2.730710   -2.138908
C        -2.035086   -2.128021   -1.054638
N        -3.339871   -2.470750   -0.816430
C        -3.935583   -1.891963    0.180779
C        -3.342984   -0.927424    1.053108
C        -4.196348   -0.329913    2.033145
N        -4.947269    0.118308    2.795049
C        -2.003618   -0.565311    0.848598
N        -1.337613    0.355377    1.606591
C        -1.650236    0.748794    2.929071
C        -1.789670    2.105224    3.233554
C        -2.089260    2.498056    4.528489
Cl        -2.265443    4.189767    4.899886
C        -2.281157    1.551116    5.550068
O        -2.589471    2.022038    6.769892
C        -2.894303    1.124758    7.804094
C        -3.298638    1.891385    9.038838
C        -3.395480    1.213994   10.258949
C        -3.796971    1.884526   11.411243
C        -4.101434    3.244984   11.356675
C        -4.001622    3.924182   10.144324
C        -3.603806    3.252683    8.987940
C        -2.132540    0.197814    5.234169
C        -1.805214   -0.196482    3.940760
C        -1.324826   -1.190314   -0.253260
C         0.011749   -0.903225   -0.608511
N         4.920791   -2.217114   -3.731155
C         5.107833   -2.639348   -2.469467
C         6.397106   -3.368607   -2.157003
O         4.262061   -2.470481   -1.583615
H         6.566294   -3.095041   -4.665735
N         6.217645    0.087118   -5.347470
C         6.802711    1.393560   -5.231137
H         5.900381   -2.472446   -6.965395
H         4.788347   -3.565897   -6.137168
H        -0.087333    0.453155   -6.857712
H        -0.110780    2.105003   -6.282547
H        -2.677885    2.473983   -4.733146
H        -1.184100    2.237428   -3.804430
H        -3.599027    1.244145   -2.869341
H        -2.075072    0.379992   -2.592068
H        -4.060574   -0.120474   -4.869708
H        -3.392149   -1.318938   -3.732726
H        -2.230929   -0.982491   -6.189898
H        -1.194646   -1.203662   -4.767082
H         2.781881   -1.467452   -1.727080
H         2.370370   -3.308319   -2.999768
H         2.116022   -2.289874   -4.462130
H         1.319182   -4.240071   -5.737784
H         1.571615   -5.305443   -4.315545
H         2.958548   -4.488919   -5.107823
H        -1.926956   -3.454684   -2.742072
H        -4.985072   -2.154920    0.361850
H        -0.456872    0.687659    1.238442
H        -1.685926    2.856230    2.449783
H        -2.020836    0.485852    8.031882
H        -3.720684    0.457766    7.492720
H        -3.152068    0.148542   10.309103
H        -3.868009    1.343492   12.357513
H        -4.413261    3.774256   12.259820
H        -4.235320    4.990030   10.093882
H        -3.521422    3.782662    8.038149
H        -2.267487   -0.564649    6.000291
H        -1.690979   -1.256837    3.708517
H         0.611169   -0.176781   -0.056208
H         4.142111   -1.571825   -3.894399
H         6.453623   -4.313399   -2.719668
H         6.414131   -3.586793   -1.083283
H         7.261113   -2.752332   -2.446465
H         5.292498   -0.033069   -5.799058
H         7.756004    1.301715   -4.694074
H         6.139408    2.071189   -4.668711
H         6.992218    1.837582   -6.222156
H         1.996864    0.783505   -5.545793
H        -0.030191    0.274759   -3.299043
