-1 1
 OpenBabel05192410563D

 92 95  0  0  1  0  0  0  0  0999 V2000
    3.7564    0.4558    1.1712 O   0  0  0  0  0  0  0  0  0  0  0  0
    3.4150   -0.7024    1.3526 C   0  0  0  0  0  0  0  0  0  0  0  0
    3.1254   -1.2522    2.7618 C   0  0  2  0  0  0  0  0  0  0  0  0
    1.7177   -1.8493    2.8779 C   0  0  0  0  0  0  0  0  0  0  0  0
    0.3942   -0.6279    2.6938 S   0  0  0  0  0  0  0  0  0  0  0  0
   -1.0713   -1.7703    3.3850 C   0  0  1  0  0  0  0  0  0  0  0  0
   -2.2735   -0.8325    3.5883 C   0  0  0  0  0  0  0  0  0  0  0  0
   -3.1549   -0.5346    2.4792 N   0  0  0  0  0  0  0  0  0  0  0  0
   -2.5771    0.1085    1.3291 C   0  0  0  0  0  0  0  0  0  0  0  0
   -4.1971   -1.4753    2.1606 C   0  0  0  0  0  0  0  0  0  0  0  0
   -1.2784   -2.9712    2.5875 C   0  0  0  0  0  3  0  0  0  0  0  0
   -0.4847   -4.1118    2.7414 C   0  0  0  0  0  0  0  0  0  0  0  0
    0.1903   -4.4812    3.7150 O   0  0  0  0  0  0  0  0  0  0  0  0
   -0.4238   -4.9760    1.5659 N   0  0  0  0  0  0  0  0  0  0  0  0
   -0.0130   -4.5566    0.3264 C   0  0  0  0  0  0  0  0  0  0  0  0
    0.3281   -5.5498   -0.6617 C   0  0  0  0  0  0  0  0  0  0  0  0
    0.2490   -6.8251   -0.2152 O   0  0  0  0  0  0  0  0  0  0  0  0
    0.5646   -7.8672   -1.0915 C   0  0  0  0  0  0  0  0  0  0  0  0
    0.6925   -5.1915   -1.9391 C   0  0  0  0  0  0  0  0  0  0  0  0
    0.7618   -3.8278   -2.3357 C   0  0  0  0  0  0  0  0  0  0  0  0
    1.0899   -3.5408   -3.6297 N   0  0  0  0  0  0  0  0  0  0  0  0
    1.1300   -2.2818   -3.9619 C   0  0  0  0  0  0  0  0  0  0  0  0
    0.8830   -1.1863   -3.0807 C   0  0  0  0  0  0  0  0  0  0  0  0
    1.1013    0.1204   -3.6217 C   0  0  0  0  0  0  0  0  0  0  0  0
    1.3200    1.1347   -4.1410 N   0  0  0  0  0  0  0  0  0  0  0  0
    0.5584   -1.4494   -1.7371 C   0  0  0  0  0  0  0  0  0  0  0  0
    0.3666   -0.5065   -0.7797 N   0  0  0  0  0  0  0  0  0  0  0  0
    0.1400    0.8745   -0.9783 C   0  0  0  0  0  0  0  0  0  0  0  0
    1.0124    1.8058   -0.4126 C   0  0  0  0  0  0  0  0  0  0  0  0
    0.7646    3.1589   -0.5859 C   0  0  0  0  0  0  0  0  0  0  0  0
    1.8775    4.3225    0.1116 Cl  0  0  0  0  0  0  0  0  0  0  0  0
   -0.3346    3.6357   -1.3226 C   0  0  0  0  0  0  0  0  0  0  0  0
   -0.5411    4.9958   -1.4874 N   0  0  0  0  0  0  0  0  0  0  0  0
   -1.3796    5.5226   -2.5177 C   0  0  0  0  0  0  0  0  0  0  0  0
   -2.7659    5.5043   -2.1022 N   0  0  0  0  0  0  0  0  0  0  0  0
   -3.7907    6.0186   -2.8612 C   0  0  0  0  0  0  0  0  0  0  0  0
   -5.0791    6.1558   -2.3032 C   0  0  0  0  0  0  0  0  0  0  0  0
   -6.1313    6.6548   -3.0577 C   0  0  0  0  0  0  0  0  0  0  0  0
   -5.9427    7.0334   -4.3898 C   0  0  0  0  0  0  0  0  0  0  0  0
   -4.6739    6.9022   -4.9472 C   0  0  0  0  0  0  0  0  0  0  0  0
   -3.6046    6.4072   -4.2018 C   0  0  0  0  0  0  0  0  0  0  0  0
   -1.2098    2.6785   -1.8593 C   0  0  0  0  0  0  0  0  0  0  0  0
   -0.9787    1.3220   -1.6817 C   0  0  0  0  0  0  0  0  0  0  0  0
    0.4778   -2.8401   -1.3654 C   0  0  0  0  0  0  0  0  0  0  0  0
    0.1025   -3.2292   -0.0614 C   0  0  0  0  0  0  0  0  0  0  0  0
    3.4335   -0.1961    3.6892 N   0  0  0  0  0  0  0  0  0  0  0  0
    3.5739   -0.2476    5.0418 C   0  0  0  0  0  0  0  0  0  0  0  0
    3.3296   -1.5822    5.7198 C   0  0  0  0  0  0  0  0  0  0  0  0
    3.8734    0.7416    5.6860 O   0  0  0  0  0  0  0  0  0  0  0  0
    3.8301   -2.0950    2.9005 H   0  0  0  0  0  0  0  0  0  0  0  0
    3.3105   -1.5898    0.3403 N   0  0  0  0  0  0  0  0  0  0  0  0
    3.6607   -1.2192   -1.0126 C   0  0  0  0  0  0  0  0  0  0  0  0
    1.5960   -2.6462    2.1280 H   0  0  0  0  0  0  0  0  0  0  0  0
    1.5980   -2.3619    3.8401 H   0  0  0  0  0  0  0  0  0  0  0  0
   -1.9049    0.1243    4.0022 H   0  0  0  0  0  0  0  0  0  0  0  0
   -2.8922   -1.2952    4.3752 H   0  0  0  0  0  0  0  0  0  0  0  0
   -1.8686    0.8926    1.6385 H   0  0  0  0  0  0  0  0  0  0  0  0
   -3.3686    0.5917    0.7295 H   0  0  0  0  0  0  0  0  0  0  0  0
   -2.0277   -0.5813    0.6527 H   0  0  0  0  0  0  0  0  0  0  0  0
   -4.5850   -1.9340    3.0822 H   0  0  0  0  0  0  0  0  0  0  0  0
   -3.8860   -2.3037    1.4915 H   0  0  0  0  0  0  0  0  0  0  0  0
   -5.0354   -0.9504    1.6654 H   0  0  0  0  0  0  0  0  0  0  0  0
   -0.1440   -5.9231    1.7965 H   0  0  0  0  0  0  0  0  0  0  0  0
    1.6061   -7.7962   -1.4523 H   0  0  0  0  0  0  0  0  0  0  0  0
   -0.1093   -7.8822   -1.9661 H   0  0  0  0  0  0  0  0  0  0  0  0
    0.4428   -8.8020   -0.5300 H   0  0  0  0  0  0  0  0  0  0  0  0
    0.9332   -5.9309   -2.7019 H   0  0  0  0  0  0  0  0  0  0  0  0
    1.3933   -2.0427   -4.9995 H   0  0  0  0  0  0  0  0  0  0  0  0
    0.3624   -0.7921    0.2050 H   0  0  0  0  0  0  0  0  0  0  0  0
    1.8918    1.4757    0.1455 H   0  0  0  0  0  0  0  0  0  0  0  0
    0.2137    5.5855   -1.1649 H   0  0  0  0  0  0  0  0  0  0  0  0
   -1.2755    4.9383   -3.4532 H   0  0  0  0  0  0  0  0  0  0  0  0
   -1.0408    6.5527   -2.7422 H   0  0  0  0  0  0  0  0  0  0  0  0
   -2.8953    5.4710   -1.0990 H   0  0  0  0  0  0  0  0  0  0  0  0
   -5.2431    5.8555   -1.2648 H   0  0  0  0  0  0  0  0  0  0  0  0
   -7.1182    6.7478   -2.5975 H   0  0  0  0  0  0  0  0  0  0  0  0
   -6.7736    7.4231   -4.9806 H   0  0  0  0  0  0  0  0  0  0  0  0
   -4.5022    7.1922   -5.9869 H   0  0  0  0  0  0  0  0  0  0  0  0
   -2.6242    6.3187   -4.6716 H   0  0  0  0  0  0  0  0  0  0  0  0
   -2.0989    3.0114   -2.3959 H   0  0  0  0  0  0  0  0  0  0  0  0
   -1.6744    0.5914   -2.0987 H   0  0  0  0  0  0  0  0  0  0  0  0
   -0.1663   -2.4805    0.6768 H   0  0  0  0  0  0  0  0  0  0  0  0
    3.5817    0.7146    3.2601 H   0  0  0  0  0  0  0  0  0  0  0  0
    2.2485   -1.7245    5.8683 H   0  0  0  0  0  0  0  0  0  0  0  0
    3.8143   -1.5540    6.7026 H   0  0  0  0  0  0  0  0  0  0  0  0
    3.7006   -2.4422    5.1443 H   0  0  0  0  0  0  0  0  0  0  0  0
    2.9176   -2.5064    0.5145 H   0  0  0  0  0  0  0  0  0  0  0  0
    3.1183   -0.3168   -1.3286 H   0  0  0  0  0  0  0  0  0  0  0  0
    3.3957   -2.0411   -1.6884 H   0  0  0  0  0  0  0  0  0  0  0  0
    4.7391   -1.0116   -1.0973 H   0  0  0  0  0  0  0  0  0  0  0  0
   -1.8676   -2.8807    1.6761 H   0  0  0  0  0  0  0  0  0  0  0  0
   -0.6530   -2.0162    4.3727 H   0  0  0  0  0  0  0  0  0  0  0  0
  1  2  2  0  0  0  0
  2  3  1  0  0  0  0
  3  4  1  0  0  0  0
  3 50  1  1  0  0  0
  3 46  1  0  0  0  0
  4 54  1  0  0  0  0
  5  4  1  0  0  0  0
  5  6  1  0  0  0  0
  6  7  1  0  0  0  0
  6 92  1  1  0  0  0
  7 55  1  0  0  0  0
  7 56  1  0  0  0  0
  8  7  1  0  0  0  0
  9 57  1  0  0  0  0
  9  8  1  0  0  0  0
 10  8  1  0  0  0  0
 10 60  1  0  0  0  0
 11 12  1  0  0  0  0
 11  6  1  0  0  0  0
 12 13  2  0  0  0  0
 14 63  1  0  0  0  0
 14 12  1  0  0  0  0
 15 14  1  0  0  0  0
 16 17  1  0  0  0  0
 16 15  2  0  0  0  0
 18 66  1  0  0  0  0
 18 17  1  0  0  0  0
 19 16  1  0  0  0  0
 20 19  2  0  0  0  0
 20 44  1  0  0  0  0
 21 20  1  0  0  0  0
 22 21  2  0  0  0  0
 22 23  1  0  0  0  0
 23 26  2  0  0  0  0
 24 23  1  0  0  0  0
 25 24  3  0  0  0  0
 26 44  1  0  0  0  0
 26 27  1  0  0  0  0
 27 69  1  0  0  0  0
 28 27  1  0  0  0  0
 28 29  1  0  0  0  0
 29 70  1  0  0  0  0
 30 29  2  0  0  0  0
 30 31  1  0  0  0  0
 32 30  1  0  0  0  0
 33 32  1  0  0  0  0
 33 71  1  0  0  0  0
 34 35  1  0  0  0  0
 34 33  1  0  0  0  0
 35 74  1  0  0  0  0
 36 37  1  0  0  0  0
 36 35  1  0  0  0  0
 37 75  1  0  0  0  0
 38 76  1  0  0  0  0
 38 37  2  0  0  0  0
 39 38  1  0  0  0  0
 40 39  2  0  0  0  0
 40 41  1  0  0  0  0
 41 36  2  0  0  0  0
 42 43  1  0  0  0  0
 42 32  2  0  0  0  0
 43 28  2  0  0  0  0
 44 45  2  0  0  0  0
 45 15  1  0  0  0  0
 45 82  1  0  0  0  0
 46 47  1  0  0  0  0
 47 49  2  0  0  0  0
 47 48  1  0  0  0  0
 48 84  1  0  0  0  0
 48 85  1  0  0  0  0
 51 87  1  0  0  0  0
 51  2  1  0  0  0  0
 52 51  1  0  0  0  0
 53  4  1  0  0  0  0
 58  9  1  0  0  0  0
 59  9  1  0  0  0  0
 61 10  1  0  0  0  0
 62 10  1  0  0  0  0
 64 18  1  0  0  0  0
 65 18  1  0  0  0  0
 67 19  1  0  0  0  0
 68 22  1  0  0  0  0
 72 34  1  0  0  0  0
 73 34  1  0  0  0  0
 77 39  1  0  0  0  0
 78 40  1  0  0  0  0
 79 41  1  0  0  0  0
 80 42  1  0  0  0  0
 81 43  1  0  0  0  0
 83 46  1  0  0  0  0
 86 48  1  0  0  0  0
 88 52  1  0  0  0  0
 89 52  1  0  0  0  0
 90 52  1  0  0  0  0
 91 11  1  0  0  0  0
M  END
