95
-1 1
O         4.382400   -5.297707    5.600498
C         3.529950   -4.417710    5.608065
C         2.028953   -4.746247    5.746957
C         1.262438   -4.075656    6.917546
S         1.502586   -2.319565    7.269774
C         3.073768   -2.596122    8.822449
C         3.888100   -1.320098    8.623282
N         4.511393   -0.776565    9.817190
C         5.418615   -1.665484   10.503211
C         3.597748   -0.096190   10.705658
C         3.728748   -3.840513    8.703088
C         3.204052   -5.043725    9.256247
O         2.263077   -5.129880   10.064781
N         3.823614   -6.216554    8.778557
C         3.387184   -7.516522    8.942510
C         3.868908   -8.471346    7.976679
O         4.694114   -7.935225    7.059365
C         5.168182   -8.687024    5.958469
C         4.152493   -8.758110    4.833515
C         3.499285   -9.789962    8.042906
C         2.632927  -10.253515    9.063283
N         2.368323  -11.591026    9.094761
C         1.602457  -12.034867   10.049055
C         0.994842  -11.203781   11.025751
C         0.132337  -11.771496   12.012619
N        -0.565140  -12.206716   12.832148
C         1.222071   -9.816590   11.004796
N         0.627310   -9.028478   11.960225
C         0.129798   -7.714774   11.797755
C        -0.424685   -7.291364   10.586854
C        -0.863163   -5.981529   10.459375
Cl        -1.525442   -5.444797    8.941375
C        -0.789864   -5.074990   11.525793
O        -1.191787   -3.789638   11.380652
C        -0.188727   -2.901626   10.858254
C         0.688980   -2.359609   11.960489
C         0.331159   -1.192416   12.639949
C         1.101603   -0.688769   13.693390
C         0.722560    0.601726   14.374870
C         2.247474   -1.396965   14.070681
C         2.616451   -2.562864   13.401117
C         1.848263   -3.045760   12.344261
C        -0.294499   -5.534257   12.745872
C         0.173037   -6.836175   12.881723
C         2.119213   -9.315884   10.004917
C         2.541216   -7.959688    9.939420
N         1.951005   -6.187375    5.841917
C         0.900693   -7.022607    5.645518
C        -0.426816   -6.407665    5.246750
O         1.008035   -8.230558    5.789452
H         1.578379   -4.399891    4.798835
N         3.824247   -3.118736    5.404126
C         5.201630   -2.703125    5.326752
H         0.191051   -4.225940    6.734055
H         1.499162   -4.636437    7.829398
H         3.250500   -0.526883    8.202068
H         4.676178   -1.522956    7.877126
H         4.917750   -2.495943   11.041949
H         6.015002   -1.092233   11.234197
H         6.110905   -2.123372    9.779752
H         3.025843    0.661047   10.145751
H         4.166257    0.427009   11.492581
H         2.870605   -0.759852   11.214083
H         4.439057   -6.090517    7.980108
H         5.479144   -9.690249    6.297701
H         6.071503   -8.154709    5.629801
H         3.180968   -9.134771    5.186767
H         4.525359   -9.411809    4.030005
H         3.990552   -7.750613    4.424479
H         3.840850  -10.527532    7.319212
H         1.404019  -13.112769   10.085003
H         0.209650   -9.539152   12.731035
H        -0.478374   -7.967679    9.732978
H        -0.739542   -2.093471   10.359837
H         0.418590   -3.429592   10.107266
H        -0.573957   -0.657356   12.334530
H        -0.369141    0.701216   14.469101
H         1.081893    1.470631   13.799096
H         1.159645    0.669714   15.381911
H         2.864390   -1.023078   14.893314
H         3.523334   -3.095856   13.696703
H         2.144727   -3.936729   11.781317
H        -0.244304   -4.828241   13.575640
H         0.608710   -7.170601   13.825356
H         2.199687   -7.221575   10.656125
H         2.830953   -6.632423    6.097532
H        -0.991871   -6.167349    6.159556
H        -0.990920   -7.161130    4.684237
H        -0.328322   -5.489190    4.651740
H         3.117769   -2.454251    5.748847
H         5.239984   -1.625585    5.119168
H         5.719888   -3.243019    4.520951
H         5.751613   -2.902770    6.263284
H         2.367967   -2.532032    9.655068
H         4.588431   -3.919265    8.032010
