95
-1 1
O         2.454561    0.310856   -3.760613
C         1.611350    1.195849   -3.735384
C         0.110881    0.877602   -3.560315
C        -0.669169    1.589951   -2.419639
S        -0.318230    3.315217   -2.000293
C         1.095815    3.047101   -0.613277
C         1.975842    4.302616   -0.739941
N         2.601358    4.782610    0.476082
C         3.467681    3.840269    1.145529
C         1.702082    5.468977    1.373969
C         1.788594    1.774345   -0.720032
C         1.274161    0.592378   -0.168640
O         0.270165    0.490721    0.575920
N         1.955854   -0.591898   -0.563285
C         1.530891   -1.889848   -0.390599
C         2.026245   -2.852500   -1.343135
O         2.845082   -2.317644   -2.269267
C         3.268829   -3.059625   -3.395900
C         2.200416   -3.127563   -4.471592
C         1.674187   -4.174681   -1.263602
C         0.806333   -4.637701   -0.244464
N         0.557729   -5.977746   -0.201730
C        -0.209315   -6.422593    0.751139
C        -0.831768   -5.588581    1.715826
C        -1.692708   -6.157095    2.703600
N        -2.389012   -6.594160    3.523279
C        -0.619452   -4.199281    1.683561
N        -1.225718   -3.411970    2.633565
C        -1.743640   -2.108670    2.462470
C        -2.292348   -1.695850    1.245158
C        -2.747769   -0.392823    1.111992
Cl        -3.404431    0.131733   -0.413371
C        -2.695076    0.517531    2.175508
O        -3.098230    1.802184    2.019517
C        -2.082427    2.680780    1.505345
C        -1.184583    3.185798    2.608597
C        -1.525066    4.332878    3.330481
C        -0.733022    4.800391    4.384055
C        -1.089891    6.071336    5.112705
C         0.416573    4.075615    4.717416
C         0.766969    2.928964    4.006434
C        -0.022972    2.481719    2.949507
C        -2.208376    0.067361    3.402266
C        -1.726114   -1.228137    3.545868
C         0.275659   -3.694638    0.683516
C         0.681922   -2.334515    0.605969
N         0.026301   -0.556956   -3.413078
C        -1.027417   -1.391636   -3.598809
C        -2.339417   -0.777439   -4.047848
O        -0.933771   -2.593007   -3.407009
H        -0.339367    1.184451   -4.522335
N         1.910007    2.489981   -3.982634
C         3.290450    2.891359   -4.088641
H        -1.735782    1.561603   -2.679388
H        -0.554048    1.000586   -1.502518
H         1.379861    5.138775   -1.143805
H         2.765100    4.094481   -1.484575
H         2.930448    3.011622    1.649010
H         4.072215    4.370280    1.902259
H         4.152872    3.380610    0.416969
H         1.172589    6.270453    0.833639
H         2.278290    5.938389    2.188508
H         0.938847    4.819446    1.846866
H         2.594952   -0.475996   -1.343397
H         3.601161   -4.064167   -3.081006
H         4.152656   -2.520596   -3.764236
H         1.251302   -3.519615   -4.076612
H         2.539199   -3.768327   -5.300267
H         2.009483   -2.116449   -4.858254
H         2.029008   -4.916408   -1.976767
H        -0.395664   -7.502337    0.795810
H        -1.632302   -3.922293    3.410339
H        -2.325741   -2.372931    0.390934
H        -2.623471    3.507909    1.027288
H        -1.486628    2.151621    0.745515
H        -2.433674    4.880298    3.059016
H        -2.179849    6.207029    5.174988
H        -0.678956    6.952072    4.591840
H        -0.686296    6.076503    6.136034
H         1.050421    4.421113    5.539690
H         1.675600    2.382251    4.269817
H         0.254186    1.605469    2.353031
H        -2.173850    0.776332    4.230335
H        -1.295793   -1.554828    4.494696
H         0.323714   -1.590953    1.309151
H         0.895278   -0.997990   -3.117285
H        -2.899550   -0.451578   -3.159122
H        -2.920712   -1.557348   -4.553491
H        -2.214523    0.088649   -4.712996
H         1.227137    3.170144   -3.634307
H         3.336247    3.954670   -4.359049
H         3.799012    2.300528   -4.863588
H         3.841774    2.741617   -3.143564
H         0.479355    3.099161    0.292363
H         2.674603    1.716309   -1.356884
