-1 1
 OpenBabel05232413483D

 95 97  0  0  1  0  0  0  0  0999 V2000
    2.3949    0.3889   -3.3643 O   0  0  0  0  0  0  0  0  0  0  0  0
    1.5224    1.2618   -3.3887 C   0  0  0  0  0  0  0  0  0  0  0  0
    0.0292    0.9246   -3.2407 C   0  0  2  0  0  0  0  0  0  0  0  0
   -0.6590    1.6327   -2.0489 C   0  0  0  0  0  0  0  0  0  0  0  0
   -0.7886    3.4515   -2.1580 S   0  0  0  0  0  1  0  0  0  0  0  0
    2.0191    2.6676    0.0809 C   0  0  0  0  0  0  0  0  0  0  0  0
    2.6064    3.9614   -0.4152 C   0  0  0  0  0  0  0  0  0  0  0  0
    2.7007    5.0322    0.5569 N   0  0  0  0  0  0  0  0  0  0  0  0
    3.5139    4.7058    1.7019 C   0  0  0  0  0  0  0  0  0  0  0  0
    1.4287    5.6239    0.9145 C   0  0  0  0  0  0  0  0  0  0  0  0
    2.4694    1.4531   -0.2483 C   0  0  0  0  0  0  0  0  0  0  0  0
    1.7795    0.2117    0.1930 C   0  0  0  0  0  0  0  0  0  0  0  0
    1.0303    0.1624    1.1585 O   0  0  0  0  0  0  0  0  0  0  0  0
    2.0665   -0.8735   -0.5957 N   0  0  0  0  0  0  0  0  0  0  0  0
    1.5327   -2.1591   -0.5078 C   0  0  0  0  0  0  0  0  0  0  0  0
    1.9105   -3.0582   -1.5630 C   0  0  0  0  0  0  0  0  0  0  0  0
    2.7360   -2.5083   -2.4682 O   0  0  0  0  0  0  0  0  0  0  0  0
    3.0381   -3.1582   -3.6905 C   0  0  0  0  0  0  0  0  0  0  0  0
    1.9278   -2.9953   -4.7101 C   0  0  0  0  0  0  0  0  0  0  0  0
    1.4549   -4.3515   -1.5730 C   0  0  0  0  0  0  0  0  0  0  0  0
    0.6100   -4.8317   -0.5440 C   0  0  0  0  0  0  0  0  0  0  0  0
    0.2680   -6.1521   -0.5846 N   0  0  0  0  0  0  0  0  0  0  0  0
   -0.4716   -6.6151    0.3807 C   0  0  0  0  0  0  0  0  0  0  0  0
   -0.9800   -5.8221    1.4426 C   0  0  0  0  0  0  0  0  0  0  0  0
   -1.8233   -6.4059    2.4368 C   0  0  0  0  0  0  0  0  0  0  0  0
   -2.5035   -6.8531    3.2640 N   0  0  0  0  0  0  0  0  0  0  0  0
   -0.6777   -4.4512    1.4959 C   0  0  0  0  0  0  0  0  0  0  0  0
   -1.1774   -3.6863    2.5198 N   0  0  0  0  0  0  0  0  0  0  0  0
   -1.6321   -2.3468    2.4092 C   0  0  0  0  0  0  0  0  0  0  0  0
   -2.3137   -1.9144    1.2686 C   0  0  0  0  0  0  0  0  0  0  0  0
   -2.7234   -0.5911    1.1801 C   0  0  0  0  0  0  0  0  0  0  0  0
   -3.5924   -0.0483   -0.2244 Cl  0  0  0  0  0  0  0  0  0  0  0  0
   -2.4771    0.3231    2.2158 C   0  0  0  0  0  0  0  0  0  0  0  0
   -2.8591    1.6133    2.0986 O   0  0  0  0  0  0  0  0  0  0  0  0
   -1.8981    2.4896    1.4806 C   0  0  0  0  0  0  0  0  0  0  0  0
   -1.0994    3.2197    2.5308 C   0  0  0  0  0  0  0  0  0  0  0  0
   -1.5255    4.4652    2.9969 C   0  0  0  0  0  0  0  0  0  0  0  0
   -0.8273    5.1571    3.9922 C   0  0  0  0  0  0  0  0  0  0  0  0
   -1.2759    6.5274    4.4312 C   0  0  0  0  0  0  0  0  0  0  0  0
    0.3167    4.5617    4.5325 C   0  0  0  0  0  0  0  0  0  0  0  0
    0.7522    3.3168    4.0794 C   0  0  0  0  0  0  0  0  0  0  0  0
    0.0534    2.6446    3.0795 C   0  0  0  0  0  0  0  0  0  0  0  0
   -1.8462   -0.1425    3.3699 C   0  0  0  0  0  0  0  0  0  0  0  0
   -1.4173   -1.4616    3.4658 C   0  0  0  0  0  0  0  0  0  0  0  0
    0.1958   -3.9374    0.4825 C   0  0  0  0  0  0  0  0  0  0  0  0
    0.6956   -2.6055    0.4885 C   0  0  0  0  0  0  0  0  0  0  0  0
   -0.0533   -0.5187   -3.1610 N   0  0  0  0  0  0  0  0  0  0  0  0
   -1.1073   -1.3402   -3.3798 C   0  0  0  0  0  0  0  0  0  0  0  0
   -2.4299   -0.7106   -3.7665 C   0  0  0  0  0  0  0  0  0  0  0  0
   -1.0042   -2.5554   -3.2700 O   0  0  0  0  0  0  0  0  0  0  0  0
   -0.4601    1.2891   -4.1612 H   0  0  0  0  0  0  0  0  0  0  0  0
    1.7907    2.5592   -3.5693 N   0  0  0  0  0  0  0  0  0  0  0  0
    3.1438    3.0248   -3.7106 C   0  0  0  0  0  0  0  0  0  0  0  0
   -1.6690    1.2044   -1.9815 H   0  0  0  0  0  0  0  0  0  0  0  0
   -0.1382    1.3196   -1.1301 H   0  0  0  0  0  0  0  0  0  0  0  0
    1.9499    4.2965   -1.2367 H   0  0  0  0  0  0  0  0  0  0  0  0
    3.6070    3.7727   -0.8416 H   0  0  0  0  0  0  0  0  0  0  0  0
    3.0646    3.9371    2.3683 H   0  0  0  0  0  0  0  0  0  0  0  0
    3.6840    5.6093    2.3106 H   0  0  0  0  0  0  0  0  0  0  0  0
    4.4965    4.3304    1.3724 H   0  0  0  0  0  0  0  0  0  0  0  0
    0.8523    5.8482    0.0054 H   0  0  0  0  0  0  0  0  0  0  0  0
    1.5998    6.5655    1.4632 H   0  0  0  0  0  0  0  0  0  0  0  0
    0.7958    4.9779    1.5544 H   0  0  0  0  0  0  0  0  0  0  0  0
    2.5675   -0.6831   -1.4655 H   0  0  0  0  0  0  0  0  0  0  0  0
    3.2745   -4.2194   -3.5016 H   0  0  0  0  0  0  0  0  0  0  0  0
    3.9606   -2.6725   -4.0372 H   0  0  0  0  0  0  0  0  0  0  0  0
    0.9653   -3.3587   -4.3198 H   0  0  0  0  0  0  0  0  0  0  0  0
    2.1793   -3.5444   -5.6303 H   0  0  0  0  0  0  0  0  0  0  0  0
    1.8093   -1.9295   -4.9525 H   0  0  0  0  0  0  0  0  0  0  0  0
    1.7165   -5.0546   -2.3612 H   0  0  0  0  0  0  0  0  0  0  0  0
   -0.7305   -7.6805    0.3575 H   0  0  0  0  0  0  0  0  0  0  0  0
   -1.6138   -4.2142    3.2691 H   0  0  0  0  0  0  0  0  0  0  0  0
   -2.5021   -2.5983    0.4396 H   0  0  0  0  0  0  0  0  0  0  0  0
   -2.4635    3.1884    0.8514 H   0  0  0  0  0  0  0  0  0  0  0  0
   -1.2372    1.9107    0.8182 H   0  0  0  0  0  0  0  0  0  0  0  0
   -2.4216    4.9145    2.5579 H   0  0  0  0  0  0  0  0  0  0  0  0
   -2.3728    6.5933    4.4843 H   0  0  0  0  0  0  0  0  0  0  0  0
   -0.9364    7.2957    3.7173 H   0  0  0  0  0  0  0  0  0  0  0  0
   -0.8687    6.7889    5.4188 H   0  0  0  0  0  0  0  0  0  0  0  0
    0.8800    5.0848    5.3108 H   0  0  0  0  0  0  0  0  0  0  0  0
    1.6553    2.8698    4.5023 H   0  0  0  0  0  0  0  0  0  0  0  0
    0.4137    1.6866    2.6939 H   0  0  0  0  0  0  0  0  0  0  0  0
   -1.6681    0.5684    4.1777 H   0  0  0  0  0  0  0  0  0  0  0  0
   -0.8806   -1.8064    4.3516 H   0  0  0  0  0  0  0  0  0  0  0  0
    0.4314   -1.9043    1.2724 H   0  0  0  0  0  0  0  0  0  0  0  0
    0.8350   -0.9800   -2.9844 H   0  0  0  0  0  0  0  0  0  0  0  0
   -3.0387   -0.5934   -2.8591 H   0  0  0  0  0  0  0  0  0  0  0  0
   -2.9497   -1.4080   -4.4350 H   0  0  0  0  0  0  0  0  0  0  0  0
   -2.3369    0.2748   -4.2412 H   0  0  0  0  0  0  0  0  0  0  0  0
    1.0137    3.2084   -3.3079 H   0  0  0  0  0  0  0  0  0  0  0  0
    3.1516    4.1212   -3.6541 H   0  0  0  0  0  0  0  0  0  0  0  0
    3.5749    2.7175   -4.6776 H   0  0  0  0  0  0  0  0  0  0  0  0
    3.8002    2.6249   -2.9206 H   0  0  0  0  0  0  0  0  0  0  0  0
    1.1285    2.7425    0.7116 H   0  0  0  0  0  0  0  0  0  0  0  0
    3.3203    1.3416   -0.9286 H   0  0  0  0  0  0  0  0  0  0  0  0
  2  1  2  0  0  0  0
  2  3  1  0  0  0  0
  3 51  1  6  0  0  0
  3 47  1  0  0  0  0
  3  4  1  0  0  0  0
  4 54  1  0  0  0  0
  4 55  1  0  0  0  0
  5  4  1  0  0  0  0
  6 94  1  0  0  0  0
  7  6  1  0  0  0  0
  7  8  1  0  0  0  0
  8 10  1  0  0  0  0
  8  9  1  0  0  0  0
  9 59  1  0  0  0  0
  9 58  1  0  0  0  0
 10 62  1  0  0  0  0
 10 63  1  0  0  0  0
 11  6  2  0  0  0  0
 11 12  1  0  0  0  0
 12 13  2  0  0  0  0
 14 15  1  0  0  0  0
 14 12  1  0  0  0  0
 15 46  1  0  0  0  0
 16 15  2  0  0  0  0
 17 16  1  0  0  0  0
 18 65  1  0  0  0  0
 18 17  1  0  0  0  0
 19 67  1  0  0  0  0
 19 18  1  0  0  0  0
 20 16  1  0  0  0  0
 20 21  2  0  0  0  0
 21 45  1  0  0  0  0
 22 21  1  0  0  0  0
 22 23  2  0  0  0  0
 23 24  1  0  0  0  0
 24 27  2  0  0  0  0
 24 25  1  0  0  0  0
 25 26  3  0  0  0  0
 27 28  1  0  0  0  0
 28 72  1  0  0  0  0
 29 28  1  0  0  0  0
 29 44  1  0  0  0  0
 30 29  2  0  0  0  0
 31 30  1  0  0  0  0
 31 33  2  0  0  0  0
 32 31  1  0  0  0  0
 33 43  1  0  0  0  0
 34 33  1  0  0  0  0
 35 34  1  0  0  0  0
 35 36  1  0  0  0  0
 36 37  2  0  0  0  0
 36 42  1  0  0  0  0
 37 38  1  0  0  0  0
 38 39  1  0  0  0  0
 38 40  2  0  0  0  0
 39 77  1  0  0  0  0
 39 79  1  0  0  0  0
 40 80  1  0  0  0  0
 41 81  1  0  0  0  0
 41 40  1  0  0  0  0
 42 41  2  0  0  0  0
 43 44  2  0  0  0  0
 43 83  1  0  0  0  0
 44 84  1  0  0  0  0
 45 46  2  0  0  0  0
 45 27  1  0  0  0  0
 46 85  1  0  0  0  0
 47 86  1  0  0  0  0
 48 50  2  0  0  0  0
 48 47  1  0  0  0  0
 49 48  1  0  0  0  0
 49 87  1  0  0  0  0
 52  2  1  0  0  0  0
 52 90  1  0  0  0  0
 53 91  1  0  0  0  0
 53 52  1  0  0  0  0
 53 93  1  0  0  0  0
 56  7  1  0  0  0  0
 57  7  1  0  0  0  0
 60  9  1  0  0  0  0
 61 10  1  0  0  0  0
 64 14  1  0  0  0  0
 66 18  1  0  0  0  0
 68 19  1  0  0  0  0
 69 19  1  0  0  0  0
 70 20  1  0  0  0  0
 71 23  1  0  0  0  0
 73 30  1  0  0  0  0
 74 35  1  0  0  0  0
 75 35  1  0  0  0  0
 76 37  1  0  0  0  0
 78 39  1  0  0  0  0
 82 42  1  0  0  0  0
 88 49  1  0  0  0  0
 89 49  1  0  0  0  0
 92 53  1  0  0  0  0
 95 11  1  0  0  0  0
M  END
