89
-1 1
O        -2.769739    1.303999    1.151733
C        -2.106736    0.682136    1.967326
C        -2.570022   -0.711831    2.446232
C        -1.632684   -1.405398    3.451983
S        -1.891126   -3.161228    3.695664
C        -0.069840   -3.857019    3.120888
C         0.906775   -2.830181    2.830162
C         1.756372   -2.387479    3.860051
O         1.778404   -2.795869    5.029047
N         2.754371   -1.381375    3.591938
C         2.879041   -0.330703    2.729429
C         3.990376    0.558983    3.000402
O         4.732854    0.206621    4.073411
C         5.825191    1.004614    4.456080
C         6.454506    0.381558    5.682866
C         4.236703    1.658738    2.222006
C         3.406729    1.976086    1.114833
N         3.723766    3.092955    0.396525
C         2.945739    3.399110   -0.600053
C         1.803479    2.648200   -0.996506
C         1.000552    3.207685   -2.039829
N         0.388748    3.727855   -2.877313
C         1.478546    1.466166   -0.299140
N         0.421281    0.678588   -0.607200
C        -0.276525    0.654641   -1.832208
C        -1.660905    0.839889   -1.831384
C        -2.346897    0.827301   -3.039571
Cl        -4.071705    1.071709   -3.056111
C        -1.668268    0.651754   -4.250200
O        -2.339021    0.679118   -5.440265
C        -2.524829    1.885980   -6.056981
C        -1.959768    3.078194   -5.597941
C        -2.202781    4.254699   -6.307594
C        -2.991776    4.254551   -7.455787
C        -3.548102    3.053716   -7.901178
C        -3.319213    1.870792   -7.206706
C        -0.294309    0.429239   -4.233946
C         0.399043    0.413617   -3.031556
C         2.313136    1.124723    0.827558
C         2.070476   -0.017941    1.642869
C        -0.395542   -4.825316    1.981072
N         0.676891   -5.712489    1.559369
C         1.222442   -6.526505    2.616488
C         1.700632   -5.129486    0.725007
N        -2.922937   -1.509061    1.290522
C        -2.029026   -1.875983    0.357844
C        -2.527441   -2.763406   -0.756047
O        -0.867973   -1.479788    0.373945
H        -3.526825   -0.499744    2.948528
N        -0.990647    1.187206    2.532263
C        -0.511154    2.509329    2.204564
H        -0.574248   -1.362233    3.109203
H        -1.700656   -0.874192    4.413568
H         3.372807   -1.326574    4.393028
H         5.482961    2.034467    4.668542
H         6.554758    1.065853    3.627478
H         5.727243    0.330019    6.505659
H         7.316948    0.978861    6.012684
H         6.797443   -0.639596    5.463447
H         5.067652    2.335507    2.414360
H         3.182036    4.307378   -1.167805
H         0.111924   -0.047208    0.045276
H        -2.187487    1.027255   -0.890850
H        -1.332160    3.106540   -4.703738
H        -1.759248    5.184086   -5.943425
H        -3.174521    5.183098   -8.000639
H        -4.171227    3.036855   -8.798737
H        -3.747892    0.921893   -7.533258
H         0.217388    0.280599   -5.185967
H         1.477222    0.245436   -3.015261
H         1.229004   -0.672451    1.431163
H         0.406195   -6.990793    3.193456
H         1.862293   -5.963931    3.330203
H         1.834777   -7.338895    2.187611
H         2.425354   -4.498686    1.278856
H         1.238307   -4.495338   -0.047300
H         2.262728   -5.931689    0.213200
H        -3.817539   -1.974906    1.301131
H        -3.530366   -3.172152   -0.576265
H        -1.814816   -3.586896   -0.893944
H        -2.539868   -2.168496   -1.681879
H        -0.416944    0.586396    3.110118
H        -0.643461    2.702592    1.130953
H         0.556280    2.576997    2.449054
H        -1.059521    3.288641    2.759057
H         0.188927   -4.383047    4.047789
H         1.017639   -2.487091    1.804243
H        -1.256361   -5.452782    2.275728
H        -0.716720   -4.241975    1.103966
