-1 1
 OpenBabel05232414493D

 89 91  0  0  1  0  0  0  0  0999 V2000
   -5.9420    8.7314   -3.4590 O   0  0  0  0  0  0  0  0  0  0  0  0
   -5.4585    8.0420   -2.5750 C   0  0  0  0  0  0  0  0  0  0  0  0
   -6.1082    6.7049   -2.1603 C   0  0  2  0  0  0  0  0  0  0  0  0
   -5.2655    5.8250   -1.2103 C   0  0  0  0  0  0  0  0  0  0  0  0
   -5.7123    4.0930   -1.1306 S   0  0  0  0  0  1  0  0  0  0  0  0
   -3.6185    3.2969   -1.7062 C   0  0  0  0  0  3  0  0  0  0  0  0
   -2.7037    4.3370   -1.9210 C   0  0  0  0  0  3  0  0  0  0  0  0
   -1.9455    4.8552   -0.8272 C   0  0  0  0  0  0  0  0  0  0  0  0
   -1.9628    4.4276    0.3263 O   0  0  0  0  0  0  0  0  0  0  0  0
   -1.0434    5.9421   -1.0331 N   0  0  0  0  0  0  0  0  0  0  0  0
   -0.8635    6.9303   -1.9709 C   0  0  0  0  0  0  0  0  0  0  0  0
    0.2439    7.8218   -1.7108 C   0  0  0  0  0  0  0  0  0  0  0  0
    0.9422    7.5307   -0.5904 O   0  0  0  0  0  0  0  0  0  0  0  0
    2.0253    8.3458   -0.2146 C   0  0  0  0  0  0  0  0  0  0  0  0
    2.6015    7.7971    1.0721 C   0  0  0  0  0  0  0  0  0  0  0  0
    0.5278    8.8721   -2.5455 C   0  0  0  0  0  0  0  0  0  0  0  0
   -0.2624    9.1295   -3.6952 C   0  0  0  0  0  0  0  0  0  0  0  0
    0.0816   10.2073   -4.4611 N   0  0  0  0  0  0  0  0  0  0  0  0
   -0.6780   10.4715   -5.4831 C   0  0  0  0  0  0  0  0  0  0  0  0
   -1.8240    9.7177   -5.8651 C   0  0  0  0  0  0  0  0  0  0  0  0
   -2.5941   10.2420   -6.9505 C   0  0  0  0  0  0  0  0  0  0  0  0
   -3.1698   10.7407   -7.8258 N   0  0  0  0  0  0  0  0  0  0  0  0
   -2.1732    8.5697   -5.1219 C   0  0  0  0  0  0  0  0  0  0  0  0
   -3.2224    7.7711   -5.4065 N   0  0  0  0  0  0  0  0  0  0  0  0
   -3.9954    7.7795   -6.5879 C   0  0  0  0  0  0  0  0  0  0  0  0
   -5.3557    8.0844   -6.5072 C   0  0  0  0  0  0  0  0  0  0  0  0
   -6.1135    8.1006   -7.6716 C   0  0  0  0  0  0  0  0  0  0  0  0
   -7.8086    8.4958   -7.5961 Cl  0  0  0  0  0  0  0  0  0  0  0  0
   -5.5291    7.8297   -8.9136 C   0  0  0  0  0  0  0  0  0  0  0  0
   -6.2697    7.8755  -10.0604 O   0  0  0  0  0  0  0  0  0  0  0  0
   -6.3917    9.0709  -10.7146 C   0  0  0  0  0  0  0  0  0  0  0  0
   -5.6951   10.2234  -10.3440 C   0  0  0  0  0  0  0  0  0  0  0  0
   -5.8825   11.3901  -11.0860 C   0  0  0  0  0  0  0  0  0  0  0  0
   -6.7448   11.4185  -12.1799 C   0  0  0  0  0  0  0  0  0  0  0  0
   -7.4326   10.2569  -12.5369 C   0  0  0  0  0  0  0  0  0  0  0  0
   -7.2609    9.0846  -11.8089 C   0  0  0  0  0  0  0  0  0  0  0  0
   -4.1813    7.4864   -8.9734 C   0  0  0  0  0  0  0  0  0  0  0  0
   -3.4176    7.4454   -7.8148 C   0  0  0  0  0  0  0  0  0  0  0  0
   -1.3538    8.2733   -3.9682 C   0  0  0  0  0  0  0  0  0  0  0  0
   -1.6307    7.1819   -3.0977 C   0  0  0  0  0  0  0  0  0  0  0  0
   -4.0120    2.4108   -2.8759 C   0  0  0  0  0  0  0  0  0  0  0  0
   -2.9970    1.4572   -3.3095 N   0  0  0  0  0  0  0  0  0  0  0  0
   -2.5798    0.5308   -2.2870 C   0  0  0  0  0  0  0  0  0  0  0  0
   -1.8848    2.0161   -4.0385 C   0  0  0  0  0  0  0  0  0  0  0  0
   -6.5849    6.0225   -3.3439 N   0  0  0  0  0  0  0  0  0  0  0  0
   -5.7492    5.4938   -4.2520 C   0  0  0  0  0  0  0  0  0  0  0  0
   -6.3607    4.5901   -5.2931 C   0  0  0  0  0  0  0  0  0  0  0  0
   -4.5426    5.7276   -4.2483 O   0  0  0  0  0  0  0  0  0  0  0  0
   -7.0189    7.0166   -1.6240 H   0  0  0  0  0  0  0  0  0  0  0  0
   -4.3843    8.4352   -1.8562 N   0  0  0  0  0  0  0  0  0  0  0  0
   -3.7232    9.6950   -2.0993 C   0  0  0  0  0  0  0  0  0  0  0  0
   -4.2044    5.8169   -1.5463 H   0  0  0  0  0  0  0  0  0  0  0  0
   -5.2956    6.2808   -0.2076 H   0  0  0  0  0  0  0  0  0  0  0  0
   -0.4680    6.0544   -0.2064 H   0  0  0  0  0  0  0  0  0  0  0  0
    1.6824    9.3884   -0.0805 H   0  0  0  0  0  0  0  0  0  0  0  0
    2.7868    8.3511   -1.0160 H   0  0  0  0  0  0  0  0  0  0  0  0
    1.8435    7.8028    1.8684 H   0  0  0  0  0  0  0  0  0  0  0  0
    3.4560    8.4084    1.3967 H   0  0  0  0  0  0  0  0  0  0  0  0
    2.9437    6.7620    0.9307 H   0  0  0  0  0  0  0  0  0  0  0  0
    1.3582    9.5529   -2.3655 H   0  0  0  0  0  0  0  0  0  0  0  0
   -0.4219   11.3486   -6.0901 H   0  0  0  0  0  0  0  0  0  0  0  0
   -3.5389    7.0691   -4.7296 H   0  0  0  0  0  0  0  0  0  0  0  0
   -5.7973    8.3350   -5.5376 H   0  0  0  0  0  0  0  0  0  0  0  0
   -5.0076   10.2284   -9.4944 H   0  0  0  0  0  0  0  0  0  0  0  0
   -5.3359   12.2886  -10.7911 H   0  0  0  0  0  0  0  0  0  0  0  0
   -6.8826   12.3391  -12.7509 H   0  0  0  0  0  0  0  0  0  0  0  0
   -8.1144   10.2631  -13.3909 H   0  0  0  0  0  0  0  0  0  0  0  0
   -7.7919    8.1666  -12.0662 H   0  0  0  0  0  0  0  0  0  0  0  0
   -3.7461    7.2653   -9.9490 H   0  0  0  0  0  0  0  0  0  0  0  0
   -2.3588    7.1845   -7.8552 H   0  0  0  0  0  0  0  0  0  0  0  0
   -2.4925    6.5458   -3.2806 H   0  0  0  0  0  0  0  0  0  0  0  0
   -3.4624    0.1058   -1.7825 H   0  0  0  0  0  0  0  0  0  0  0  0
   -1.9316    0.9840   -1.5054 H   0  0  0  0  0  0  0  0  0  0  0  0
   -2.0171   -0.3033   -2.7413 H   0  0  0  0  0  0  0  0  0  0  0  0
   -1.1721    2.5851   -3.4048 H   0  0  0  0  0  0  0  0  0  0  0  0
   -2.2539    2.7036   -4.8153 H   0  0  0  0  0  0  0  0  0  0  0  0
   -1.3252    1.2064   -4.5395 H   0  0  0  0  0  0  0  0  0  0  0  0
   -7.5223    5.6501   -3.3082 H   0  0  0  0  0  0  0  0  0  0  0  0
   -7.4478    4.7149   -5.3851 H   0  0  0  0  0  0  0  0  0  0  0  0
   -6.1437    3.5498   -5.0084 H   0  0  0  0  0  0  0  0  0  0  0  0
   -5.8829    4.7947   -6.2599 H   0  0  0  0  0  0  0  0  0  0  0  0
   -3.9601    7.7746   -1.2185 H   0  0  0  0  0  0  0  0  0  0  0  0
   -3.7823    9.9437   -3.1678 H   0  0  0  0  0  0  0  0  0  0  0  0
   -2.6668    9.6157   -1.8112 H   0  0  0  0  0  0  0  0  0  0  0  0
   -4.1909   10.5177   -1.5327 H   0  0  0  0  0  0  0  0  0  0  0  0
   -3.5138    2.7918   -0.7427 H   0  0  0  0  0  0  0  0  0  0  0  0
   -2.5771    4.7271   -2.9282 H   0  0  0  0  0  0  0  0  0  0  0  0
   -4.9219    1.8431   -2.6194 H   0  0  0  0  0  0  0  0  0  0  0  0
   -4.2596    3.0539   -3.7344 H   0  0  0  0  0  0  0  0  0  0  0  0
  1  2  2  0  0  0  0
  2  3  1  0  0  0  0
  2 50  1  0  0  0  0
  3 49  1  1  0  0  0
  3  4  1  0  0  0  0
  4  5  1  0  0  0  0
  4 53  1  0  0  0  0
  6 86  1  0  0  0  0
  7  6  1  0  0  0  0
  7  8  1  0  0  0  0
  8  9  2  0  0  0  0
 10  8  1  0  0  0  0
 10 54  1  0  0  0  0
 11 12  1  0  0  0  0
 11 10  1  0  0  0  0
 12 13  1  0  0  0  0
 13 14  1  0  0  0  0
 14 55  1  0  0  0  0
 14 15  1  0  0  0  0
 15 58  1  0  0  0  0
 15 57  1  0  0  0  0
 16 60  1  0  0  0  0
 16 12  2  0  0  0  0
 17 16  1  0  0  0  0
 18 17  2  0  0  0  0
 19 18  1  0  0  0  0
 20 19  2  0  0  0  0
 20 23  1  0  0  0  0
 21 20  1  0  0  0  0
 22 21  3  0  0  0  0
 23 39  2  0  0  0  0
 24 23  1  0  0  0  0
 24 62  1  0  0  0  0
 25 26  1  0  0  0  0
 25 24  1  0  0  0  0
 26 63  1  0  0  0  0
 27 28  1  0  0  0  0
 27 26  2  0  0  0  0
 29 27  1  0  0  0  0
 30 29  1  0  0  0  0
 31 32  1  0  0  0  0
 31 30  1  0  0  0  0
 32 64  1  0  0  0  0
 33 65  1  0  0  0  0
 33 32  2  0  0  0  0
 34 33  1  0  0  0  0
 35 34  2  0  0  0  0
 35 36  1  0  0  0  0
 36 31  2  0  0  0  0
 37 29  2  0  0  0  0
 37 38  1  0  0  0  0
 38 25  2  0  0  0  0
 39 17  1  0  0  0  0
 39 40  1  0  0  0  0
 40 11  2  0  0  0  0
 41 88  1  0  0  0  0
 41  6  1  0  0  0  0
 42 41  1  0  0  0  0
 42 43  1  0  0  0  0
 43 72  1  0  0  0  0
 43 73  1  0  0  0  0
 44 75  1  0  0  0  0
 44 42  1  0  0  0  0
 45 78  1  0  0  0  0
 45  3  1  0  0  0  0
 46 48  2  0  0  0  0
 46 45  1  0  0  0  0
 47 80  1  0  0  0  0
 47 46  1  0  0  0  0
 50 82  1  0  0  0  0
 51 50  1  0  0  0  0
 51 84  1  0  0  0  0
 51 85  1  0  0  0  0
 52  4  1  0  0  0  0
 56 14  1  0  0  0  0
 59 15  1  0  0  0  0
 61 19  1  0  0  0  0
 66 34  1  0  0  0  0
 67 35  1  0  0  0  0
 68 36  1  0  0  0  0
 69 37  1  0  0  0  0
 70 38  1  0  0  0  0
 71 40  1  0  0  0  0
 74 43  1  0  0  0  0
 76 44  1  0  0  0  0
 77 44  1  0  0  0  0
 79 47  1  0  0  0  0
 81 47  1  0  0  0  0
 83 51  1  0  0  0  0
 87  7  1  0  0  0  0
 89 41  1  0  0  0  0
M  END
