-1 1
 OpenBabel05232413483D

 89 91  0  0  1  0  0  0  0  0999 V2000
   -1.8537   -3.2715   -1.8884 O   0  0  0  0  0  0  0  0  0  0  0  0
   -1.0543   -2.7633   -2.6641 C   0  0  0  0  0  0  0  0  0  0  0  0
   -0.1757   -1.5926   -2.2024 C   0  0  2  0  0  0  0  0  0  0  0  0
   -0.6748   -0.2336   -2.7186 C   0  0  0  0  0  0  0  0  0  0  0  0
    0.2159    1.1677   -1.9630 S   0  0  0  0  0  1  0  0  0  0  0  0
    2.2514    3.6654   -0.7913 C   0  0  0  0  0  0  0  0  0  0  0  0
    1.2041    4.4081   -0.4278 C   0  0  0  0  0  0  0  0  0  0  0  0
    0.2690    5.0253   -1.4196 C   0  0  0  0  0  0  0  0  0  0  0  0
    0.6315    5.4378   -2.5023 O   0  0  0  0  0  0  0  0  0  0  0  0
   -1.0348    5.1962   -0.9962 N   0  0  0  0  0  0  0  0  0  0  0  0
   -1.6502    4.5589    0.0909 C   0  0  0  0  0  0  0  0  0  0  0  0
   -2.5254    5.3015    0.9371 C   0  0  0  0  0  0  0  0  0  0  0  0
   -2.7861    6.5619    0.5299 O   0  0  0  0  0  0  0  0  0  0  0  0
   -3.6443    7.3656    1.3037 C   0  0  0  0  0  0  0  0  0  0  0  0
   -3.7674    8.7115    0.6237 C   0  0  0  0  0  0  0  0  0  0  0  0
   -3.0330    4.7143    2.0774 C   0  0  0  0  0  0  0  0  0  0  0  0
   -2.6670    3.3930    2.4452 C   0  0  0  0  0  0  0  0  0  0  0  0
   -3.1213    2.9231    3.6460 N   0  0  0  0  0  0  0  0  0  0  0  0
   -2.6860    1.7518    4.0110 C   0  0  0  0  0  0  0  0  0  0  0  0
   -1.8196    0.9060    3.2587 C   0  0  0  0  0  0  0  0  0  0  0  0
   -1.3701   -0.2696    3.9367 C   0  0  0  0  0  0  0  0  0  0  0  0
   -1.0453   -1.1799    4.5786 N   0  0  0  0  0  0  0  0  0  0  0  0
   -1.4206    1.3064    1.9624 C   0  0  0  0  0  0  0  0  0  0  0  0
   -0.6618    0.5955    1.1089 N   0  0  0  0  0  0  0  0  0  0  0  0
   -0.1268   -0.7014    1.2629 C   0  0  0  0  0  0  0  0  0  0  0  0
   -0.9346   -1.8232    1.4441 C   0  0  0  0  0  0  0  0  0  0  0  0
   -0.3635   -3.0928    1.4536 C   0  0  0  0  0  0  0  0  0  0  0  0
   -1.3697   -4.4905    1.6685 Cl  0  0  0  0  0  0  0  0  0  0  0  0
    1.0079   -3.2542    1.2470 C   0  0  0  0  0  0  0  0  0  0  0  0
    1.5771   -4.4988    1.2339 O   0  0  0  0  0  0  0  0  0  0  0  0
    2.0177   -4.9587    0.0193 C   0  0  0  0  0  0  0  0  0  0  0  0
    3.2386   -5.6324   -0.0192 C   0  0  0  0  0  0  0  0  0  0  0  0
    3.7202   -6.1055   -1.2387 C   0  0  0  0  0  0  0  0  0  0  0  0
    2.9962   -5.8974   -2.4137 C   0  0  0  0  0  0  0  0  0  0  0  0
    1.7716   -5.2316   -2.3584 C   0  0  0  0  0  0  0  0  0  0  0  0
    1.2700   -4.7724   -1.1433 C   0  0  0  0  0  0  0  0  0  0  0  0
    1.8072   -2.1246    1.0614 C   0  0  0  0  0  0  0  0  0  0  0  0
    1.2520   -0.8522    1.0707 C   0  0  0  0  0  0  0  0  0  0  0  0
   -1.8424    2.6389    1.5757 C   0  0  0  0  0  0  0  0  0  0  0  0
   -1.3875    3.2409    0.3806 C   0  0  0  0  0  0  0  0  0  0  0  0
    3.2762    3.1683    0.1879 C   0  0  0  0  0  0  0  0  0  0  0  0
    3.4115    1.7251    0.3088 N   0  0  0  0  0  0  0  0  0  0  0  0
    3.7079    1.0600   -0.9418 C   0  0  0  0  0  0  0  0  0  0  0  0
    4.3544    1.3849    1.3465 C   0  0  0  0  0  0  0  0  0  0  0  0
    1.2576   -1.7885   -2.3996 N   0  0  0  0  0  0  0  0  0  0  0  0
    1.9318   -1.7641   -3.5674 C   0  0  0  0  0  0  0  0  0  0  0  0
    3.4321   -1.6129   -3.4360 C   0  0  0  0  0  0  0  0  0  0  0  0
    1.4066   -1.8622   -4.6732 O   0  0  0  0  0  0  0  0  0  0  0  0
   -0.3129   -1.5988   -1.1170 H   0  0  0  0  0  0  0  0  0  0  0  0
   -0.9122   -3.1527   -3.9514 N   0  0  0  0  0  0  0  0  0  0  0  0
   -1.6880   -4.2208   -4.5213 C   0  0  0  0  0  0  0  0  0  0  0  0
   -0.5641   -0.1985   -3.8134 H   0  0  0  0  0  0  0  0  0  0  0  0
   -1.7532   -0.1803   -2.4976 H   0  0  0  0  0  0  0  0  0  0  0  0
    1.0084    4.6009    0.6325 H   0  0  0  0  0  0  0  0  0  0  0  0
   -1.6000    5.7849   -1.5976 H   0  0  0  0  0  0  0  0  0  0  0  0
   -3.2359    7.4778    2.3249 H   0  0  0  0  0  0  0  0  0  0  0  0
   -4.6334    6.8804    1.3979 H   0  0  0  0  0  0  0  0  0  0  0  0
   -4.1863    8.5974   -0.3864 H   0  0  0  0  0  0  0  0  0  0  0  0
   -2.7816    9.1902    0.5356 H   0  0  0  0  0  0  0  0  0  0  0  0
   -4.4281    9.3721    1.2038 H   0  0  0  0  0  0  0  0  0  0  0  0
   -3.6895    5.2433    2.7666 H   0  0  0  0  0  0  0  0  0  0  0  0
   -3.0101    1.3827    4.9922 H   0  0  0  0  0  0  0  0  0  0  0  0
   -0.4073    0.9775    0.1606 H   0  0  0  0  0  0  0  0  0  0  0  0
   -2.0145   -1.7206    1.5458 H   0  0  0  0  0  0  0  0  0  0  0  0
    3.7957   -5.7668    0.9096 H   0  0  0  0  0  0  0  0  0  0  0  0
    4.6787   -6.6293   -1.2712 H   0  0  0  0  0  0  0  0  0  0  0  0
    3.3859   -6.2524   -3.3701 H   0  0  0  0  0  0  0  0  0  0  0  0
    1.1934   -5.0485   -3.2671 H   0  0  0  0  0  0  0  0  0  0  0  0
    0.3013   -4.2714   -1.0956 H   0  0  0  0  0  0  0  0  0  0  0  0
    2.8789   -2.2709    0.9071 H   0  0  0  0  0  0  0  0  0  0  0  0
    1.8591    0.0435    0.9054 H   0  0  0  0  0  0  0  0  0  0  0  0
   -0.8069    2.6753   -0.3560 H   0  0  0  0  0  0  0  0  0  0  0  0
    4.6468    1.4321   -1.4145 H   0  0  0  0  0  0  0  0  0  0  0  0
    2.8613    1.1636   -1.6396 H   0  0  0  0  0  0  0  0  0  0  0  0
    3.8377   -0.0177   -0.7530 H   0  0  0  0  0  0  0  0  0  0  0  0
    4.3757    0.2938    1.4943 H   0  0  0  0  0  0  0  0  0  0  0  0
    4.0550    1.8450    2.3010 H   0  0  0  0  0  0  0  0  0  0  0  0
    5.3945    1.7179    1.1192 H   0  0  0  0  0  0  0  0  0  0  0  0
    1.7998   -1.5784   -1.5714 H   0  0  0  0  0  0  0  0  0  0  0  0
    3.8156   -2.0319   -2.4950 H   0  0  0  0  0  0  0  0  0  0  0  0
    3.6760   -0.5404   -3.4711 H   0  0  0  0  0  0  0  0  0  0  0  0
    3.9143   -2.1092   -4.2867 H   0  0  0  0  0  0  0  0  0  0  0  0
   -0.1836   -2.6789   -4.4969 H   0  0  0  0  0  0  0  0  0  0  0  0
   -2.3009   -3.8684   -5.3673 H   0  0  0  0  0  0  0  0  0  0  0  0
   -2.3541   -4.6121   -3.7414 H   0  0  0  0  0  0  0  0  0  0  0  0
   -1.0447   -5.0408   -4.8828 H   0  0  0  0  0  0  0  0  0  0  0  0
    3.0364    3.5679    1.1864 H   0  0  0  0  0  0  0  0  0  0  0  0
    4.2575    3.6214   -0.1043 H   0  0  0  0  0  0  0  0  0  0  0  0
    2.3890    3.4478   -1.8553 H   0  0  0  0  0  0  0  0  0  0  0  0
  2  3  1  0  0  0  0
  2  1  2  0  0  0  0
  3 49  1  1  0  0  0
  4 53  1  0  0  0  0
  4  3  1  0  0  0  0
  4  5  1  0  0  0  0
  6  7  2  0  0  0  0
  6 41  1  0  0  0  0
  7 54  1  0  0  0  0
  8 10  1  0  0  0  0
  8  7  1  0  0  0  0
  9  8  2  0  0  0  0
 10 11  1  0  0  0  0
 11 40  2  0  0  0  0
 11 12  1  0  0  0  0
 12 16  2  0  0  0  0
 13 12  1  0  0  0  0
 13 14  1  0  0  0  0
 14 57  1  0  0  0  0
 14 56  1  0  0  0  0
 15 60  1  0  0  0  0
 15 14  1  0  0  0  0
 16 17  1  0  0  0  0
 16 61  1  0  0  0  0
 17 18  1  0  0  0  0
 18 19  2  0  0  0  0
 19 62  1  0  0  0  0
 20 21  1  0  0  0  0
 20 19  1  0  0  0  0
 21 22  3  0  0  0  0
 23 20  2  0  0  0  0
 24 25  1  0  0  0  0
 24 23  1  0  0  0  0
 25 26  1  0  0  0  0
 26 27  2  0  0  0  0
 26 64  1  0  0  0  0
 27 28  1  0  0  0  0
 29 27  1  0  0  0  0
 30 29  1  0  0  0  0
 31 30  1  0  0  0  0
 32 31  1  0  0  0  0
 32 65  1  0  0  0  0
 33 32  2  0  0  0  0
 34 35  2  0  0  0  0
 34 33  1  0  0  0  0
 35 36  1  0  0  0  0
 36 69  1  0  0  0  0
 36 31  2  0  0  0  0
 37 38  1  0  0  0  0
 37 29  2  0  0  0  0
 38 25  2  0  0  0  0
 39 23  1  0  0  0  0
 39 17  2  0  0  0  0
 40 39  1  0  0  0  0
 41 42  1  0  0  0  0
 41 87  1  0  0  0  0
 42 44  1  0  0  0  0
 43 75  1  0  0  0  0
 43 42  1  0  0  0  0
 44 76  1  0  0  0  0
 44 77  1  0  0  0  0
 45  3  1  0  0  0  0
 45 79  1  0  0  0  0
 46 47  1  0  0  0  0
 46 45  1  0  0  0  0
 47 80  1  0  0  0  0
 48 46  2  0  0  0  0
 50  2  1  0  0  0  0
 51 50  1  0  0  0  0
 51 85  1  0  0  0  0
 52  4  1  0  0  0  0
 55 10  1  0  0  0  0
 58 15  1  0  0  0  0
 59 15  1  0  0  0  0
 63 24  1  0  0  0  0
 66 33  1  0  0  0  0
 67 34  1  0  0  0  0
 68 35  1  0  0  0  0
 70 37  1  0  0  0  0
 71 38  1  0  0  0  0
 72 40  1  0  0  0  0
 73 43  1  0  0  0  0
 74 43  1  0  0  0  0
 78 44  1  0  0  0  0
 81 47  1  0  0  0  0
 82 47  1  0  0  0  0
 83 50  1  0  0  0  0
 84 51  1  0  0  0  0
 86 51  1  0  0  0  0
 88 41  1  0  0  0  0
 89  6  1  0  0  0  0
M  END
