-1 1
 OpenBabel05232414493D

 89 91  0  0  1  0  0  0  0  0999 V2000
    1.3132   -8.2314    2.5465 O   0  0  0  0  0  0  0  0  0  0  0  0
    2.3251   -7.6480    2.1817 C   0  0  0  0  0  0  0  0  0  0  0  0
    3.4139   -7.2486    3.1888 C   0  0  2  0  0  0  0  0  0  0  0  0
    3.5275   -5.7216    3.3504 C   0  0  0  0  0  0  0  0  0  0  0  0
    4.8954   -5.2510    4.4551 S   0  0  0  0  0  1  0  0  0  0  0  0
    5.1418   -3.0756    3.6327 C   0  0  0  0  0  3  0  0  0  0  0  0
    4.0617   -2.2887    4.0198 C   0  0  0  0  0  3  0  0  0  0  0  0
    2.8790   -2.1845    3.2244 C   0  0  0  0  0  0  0  0  0  0  0  0
    2.7680   -2.3766    2.0177 O   0  0  0  0  0  0  0  0  0  0  0  0
    1.7160   -1.7566    3.9384 N   0  0  0  0  0  0  0  0  0  0  0  0
    1.2376   -2.3291    5.1003 C   0  0  0  0  0  0  0  0  0  0  0  0
    0.0440   -1.7637    5.6708 C   0  0  0  0  0  0  0  0  0  0  0  0
   -0.4714   -0.7306    4.9684 O   0  0  0  0  0  0  0  0  0  0  0  0
   -1.6611   -0.1247    5.4103 C   0  0  0  0  0  0  0  0  0  0  0  0
   -2.0193    0.9745    4.4341 C   0  0  0  0  0  0  0  0  0  0  0  0
   -0.5008   -2.2750    6.8240 C   0  0  0  0  0  0  0  0  0  0  0  0
    0.0799   -3.3953    7.4744 C   0  0  0  0  0  0  0  0  0  0  0  0
   -0.5385   -3.8693    8.5932 N   0  0  0  0  0  0  0  0  0  0  0  0
   -0.0324   -4.9322    9.1510 C   0  0  0  0  0  0  0  0  0  0  0  0
    1.1038   -5.6361    8.6637 C   0  0  0  0  0  0  0  0  0  0  0  0
    1.5797   -6.7466    9.4298 C   0  0  0  0  0  0  0  0  0  0  0  0
    1.9361   -7.6281   10.0933 N   0  0  0  0  0  0  0  0  0  0  0  0
    1.7552   -5.1824    7.5057 C   0  0  0  0  0  0  0  0  0  0  0  0
    2.8287   -5.8365    6.9597 N   0  0  0  0  0  0  0  0  0  0  0  0
    2.9396   -7.2275    6.7964 C   0  0  0  0  0  0  0  0  0  0  0  0
    1.8175   -8.0443    6.6254 C   0  0  0  0  0  0  0  0  0  0  0  0
    1.9748   -9.3928    6.3214 C   0  0  0  0  0  0  0  0  0  0  0  0
    0.5693  -10.3901    6.0867 Cl  0  0  0  0  0  0  0  0  0  0  0  0
    3.2458   -9.9453    6.1575 C   0  0  0  0  0  0  0  0  0  0  0  0
    3.4154  -11.2650    5.8349 O   0  0  0  0  0  0  0  0  0  0  0  0
    3.7414  -11.5529    4.5353 C   0  0  0  0  0  0  0  0  0  0  0  0
    4.6292  -12.6084    4.3189 C   0  0  0  0  0  0  0  0  0  0  0  0
    4.9942  -12.9423    3.0166 C   0  0  0  0  0  0  0  0  0  0  0  0
    4.4848  -12.2238    1.9336 C   0  0  0  0  0  0  0  0  0  0  0  0
    3.5909  -11.1786    2.1639 C   0  0  0  0  0  0  0  0  0  0  0  0
    3.2059  -10.8420    3.4600 C   0  0  0  0  0  0  0  0  0  0  0  0
    4.3613   -9.1300    6.3505 C   0  0  0  0  0  0  0  0  0  0  0  0
    4.2184   -7.7892    6.6779 C   0  0  0  0  0  0  0  0  0  0  0  0
    1.2406   -3.9826    6.9058 C   0  0  0  0  0  0  0  0  0  0  0  0
    1.8001   -3.4253    5.7288 C   0  0  0  0  0  0  0  0  0  0  0  0
    6.5026   -2.7463    4.1995 C   0  0  0  0  0  0  0  0  0  0  0  0
    7.5579   -3.7290    4.0624 N   0  0  0  0  0  0  0  0  0  0  0  0
    7.7509   -4.1916    2.7098 C   0  0  0  0  0  0  0  0  0  0  0  0
    8.7790   -3.2704    4.6690 C   0  0  0  0  0  0  0  0  0  0  0  0
    4.6863   -7.9086    2.9205 N   0  0  0  0  0  0  0  0  0  0  0  0
    5.6056   -7.4823    2.0240 C   0  0  0  0  0  0  0  0  0  0  0  0
    7.0111   -7.9821    2.2666 C   0  0  0  0  0  0  0  0  0  0  0  0
    5.3419   -6.7339    1.0890 O   0  0  0  0  0  0  0  0  0  0  0  0
    3.0628   -7.6682    4.1383 H   0  0  0  0  0  0  0  0  0  0  0  0
    2.5765   -7.2995    0.9009 N   0  0  0  0  0  0  0  0  0  0  0  0
    1.6662   -7.5861   -0.1746 C   0  0  0  0  0  0  0  0  0  0  0  0
    3.6849   -5.2405    2.3752 H   0  0  0  0  0  0  0  0  0  0  0  0
    2.5520   -5.3668    3.7225 H   0  0  0  0  0  0  0  0  0  0  0  0
    4.0335   -1.8836    5.0351 H   0  0  0  0  0  0  0  0  0  0  0  0
    1.0023   -1.3553    3.3404 H   0  0  0  0  0  0  0  0  0  0  0  0
   -1.5197    0.2851    6.4274 H   0  0  0  0  0  0  0  0  0  0  0  0
   -2.4690   -0.8775    5.4696 H   0  0  0  0  0  0  0  0  0  0  0  0
   -2.1731    0.5614    3.4269 H   0  0  0  0  0  0  0  0  0  0  0  0
   -1.2130    1.7200    4.3812 H   0  0  0  0  0  0  0  0  0  0  0  0
   -2.9440    1.4785    4.7507 H   0  0  0  0  0  0  0  0  0  0  0  0
   -1.3994   -1.8615    7.2792 H   0  0  0  0  0  0  0  0  0  0  0  0
   -0.5173   -5.3074   10.0602 H   0  0  0  0  0  0  0  0  0  0  0  0
    3.4549   -5.3286    6.3104 H   0  0  0  0  0  0  0  0  0  0  0  0
    0.8117   -7.6288    6.6886 H   0  0  0  0  0  0  0  0  0  0  0  0
    5.0249  -13.1464    5.1820 H   0  0  0  0  0  0  0  0  0  0  0  0
    5.6928  -13.7657    2.8487 H   0  0  0  0  0  0  0  0  0  0  0  0
    4.7821  -12.4800    0.9145 H   0  0  0  0  0  0  0  0  0  0  0  0
    3.1773  -10.6062    1.3306 H   0  0  0  0  0  0  0  0  0  0  0  0
    2.4870  -10.0339    3.6161 H   0  0  0  0  0  0  0  0  0  0  0  0
    5.3525   -9.5760    6.2428 H   0  0  0  0  0  0  0  0  0  0  0  0
    5.0925   -7.1525    6.8070 H   0  0  0  0  0  0  0  0  0  0  0  0
    2.6943   -3.8665    5.2887 H   0  0  0  0  0  0  0  0  0  0  0  0
    7.9995   -3.3669    2.0004 H   0  0  0  0  0  0  0  0  0  0  0  0
    6.8520   -4.7087    2.3457 H   0  0  0  0  0  0  0  0  0  0  0  0
    8.5805   -4.9156    2.6830 H   0  0  0  0  0  0  0  0  0  0  0  0
    9.5406   -4.0657    4.6411 H   0  0  0  0  0  0  0  0  0  0  0  0
    8.6042   -3.0091    5.7246 H   0  0  0  0  0  0  0  0  0  0  0  0
    9.2125   -2.3702    4.1686 H   0  0  0  0  0  0  0  0  0  0  0  0
    5.0327   -8.4682    3.6886 H   0  0  0  0  0  0  0  0  0  0  0  0
    7.0243   -9.0177    2.6367 H   0  0  0  0  0  0  0  0  0  0  0  0
    7.4676   -7.3301    3.0277 H   0  0  0  0  0  0  0  0  0  0  0  0
    7.5876   -7.9079    1.3373 H   0  0  0  0  0  0  0  0  0  0  0  0
    3.4892   -6.8770    0.7104 H   0  0  0  0  0  0  0  0  0  0  0  0
    1.3599   -6.6642   -0.6941 H   0  0  0  0  0  0  0  0  0  0  0  0
    0.7757   -8.0662    0.2513 H   0  0  0  0  0  0  0  0  0  0  0  0
    2.1165   -8.2675   -0.9159 H   0  0  0  0  0  0  0  0  0  0  0  0
    6.3887   -2.5075    5.2699 H   0  0  0  0  0  0  0  0  0  0  0  0
    6.7979   -1.7900    3.6984 H   0  0  0  0  0  0  0  0  0  0  0  0
    5.1213   -3.4061    2.5887 H   0  0  0  0  0  0  0  0  0  0  0  0
  2  1  2  0  0  0  0
  2  3  1  0  0  0  0
  3  4  1  0  0  0  0
  3 49  1  1  0  0  0
  4 53  1  0  0  0  0
  4  5  1  0  0  0  0
  6  7  1  0  0  0  0
  6 41  1  0  0  0  0
  7 54  1  0  0  0  0
  8 10  1  0  0  0  0
  8  7  1  0  0  0  0
  9  8  2  0  0  0  0
 10 11  1  0  0  0  0
 11 12  2  0  0  0  0
 11 40  1  0  0  0  0
 12 16  1  0  0  0  0
 13 14  1  0  0  0  0
 13 12  1  0  0  0  0
 14 57  1  0  0  0  0
 14 56  1  0  0  0  0
 15 60  1  0  0  0  0
 15 14  1  0  0  0  0
 16 61  1  0  0  0  0
 16 17  2  0  0  0  0
 17 18  1  0  0  0  0
 18 19  2  0  0  0  0
 19 62  1  0  0  0  0
 20 19  1  0  0  0  0
 20 21  1  0  0  0  0
 21 22  3  0  0  0  0
 23 20  2  0  0  0  0
 24 23  1  0  0  0  0
 25 24  1  0  0  0  0
 26 64  1  0  0  0  0
 26 25  2  0  0  0  0
 27 26  1  0  0  0  0
 28 27  1  0  0  0  0
 29 27  2  0  0  0  0
 29 37  1  0  0  0  0
 30 29  1  0  0  0  0
 31 30  1  0  0  0  0
 32 31  1  0  0  0  0
 32 65  1  0  0  0  0
 33 32  2  0  0  0  0
 34 35  2  0  0  0  0
 34 33  1  0  0  0  0
 35 36  1  0  0  0  0
 36 69  1  0  0  0  0
 36 31  2  0  0  0  0
 37 38  2  0  0  0  0
 38 25  1  0  0  0  0
 38 71  1  0  0  0  0
 39 17  1  0  0  0  0
 39 23  1  0  0  0  0
 40 39  2  0  0  0  0
 41 87  1  0  0  0  0
 42 41  1  0  0  0  0
 42 44  1  0  0  0  0
 43 42  1  0  0  0  0
 44 77  1  0  0  0  0
 45  3  1  0  0  0  0
 45 79  1  0  0  0  0
 46 47  1  0  0  0  0
 46 45  1  0  0  0  0
 47 80  1  0  0  0  0
 47 81  1  0  0  0  0
 48 46  2  0  0  0  0
 50  2  1  0  0  0  0
 51 85  1  0  0  0  0
 51 50  1  0  0  0  0
 52  4  1  0  0  0  0
 55 10  1  0  0  0  0
 58 15  1  0  0  0  0
 59 15  1  0  0  0  0
 63 24  1  0  0  0  0
 66 33  1  0  0  0  0
 67 34  1  0  0  0  0
 68 35  1  0  0  0  0
 70 37  1  0  0  0  0
 72 40  1  0  0  0  0
 73 43  1  0  0  0  0
 74 43  1  0  0  0  0
 75 43  1  0  0  0  0
 76 44  1  0  0  0  0
 78 44  1  0  0  0  0
 82 47  1  0  0  0  0
 83 50  1  0  0  0  0
 84 51  1  0  0  0  0
 86 51  1  0  0  0  0
 88 41  1  0  0  0  0
 89  6  1  0  0  0  0
M  END
