-1 1
 OpenBabel05192410563D

 98102  0  0  1  0  0  0  0  0999 V2000
    1.8386   -5.2839    1.8375 O   0  0  0  0  0  0  0  0  0  0  0  0
    0.9934   -4.6254    1.2539 C   0  0  0  0  0  0  0  0  0  0  0  0
    0.0995   -3.6398    2.0418 C   0  0  2  0  0  0  0  0  0  0  0  0
   -0.6371   -2.6085    1.1759 C   0  0  0  0  0  0  0  0  0  0  0  0
    0.2203   -1.0940    0.6356 S   0  0  0  0  0  0  0  0  0  0  0  0
    1.8534   -1.3942   -0.3497 C   0  0  2  0  0  0  0  0  0  0  0  0
    2.9029   -1.8524    0.6715 C   0  0  0  0  0  0  0  0  0  0  0  0
    4.2745   -1.8488    0.2015 N   0  0  0  0  0  0  0  0  0  0  0  0
    5.1818   -2.2127    1.2599 C   0  0  0  0  0  0  0  0  0  0  0  0
    4.4812   -2.6234   -0.9917 C   0  0  0  0  0  0  0  0  0  0  0  0
    2.1948   -0.1118   -0.9734 C   0  0  0  0  0  3  0  0  0  0  0  0
    1.7223    0.5208   -2.1297 C   0  0  0  0  0  0  0  0  0  0  0  0
    2.0094    1.6847   -2.4689 O   0  0  0  0  0  0  0  0  0  0  0  0
    0.8781   -0.1608   -3.1131 N   0  0  0  0  0  0  0  0  0  0  0  0
   -0.2521   -0.9447   -2.7933 C   0  0  0  0  0  0  0  0  0  0  0  0
   -0.2278   -2.3762   -2.7607 C   0  0  0  0  0  0  0  0  0  0  0  0
    0.8594   -3.1403   -2.9936 O   0  0  0  0  0  0  0  0  0  0  0  0
    1.9288   -2.7140   -3.8357 C   0  0  0  0  0  0  0  0  0  0  0  0
    2.8044   -3.9197   -4.0915 C   0  0  0  0  0  0  0  0  0  0  0  0
   -1.3790   -3.0736   -2.4361 C   0  0  0  0  0  0  0  0  0  0  0  0
   -2.5930   -2.4263   -2.1269 C   0  0  0  0  0  0  0  0  0  0  0  0
   -3.6813   -3.2101   -1.8524 N   0  0  0  0  0  0  0  0  0  0  0  0
   -4.8052   -2.6043   -1.6063 C   0  0  0  0  0  0  0  0  0  0  0  0
   -4.9637   -1.1918   -1.5456 C   0  0  0  0  0  0  0  0  0  0  0  0
   -6.2260   -0.6272   -1.1905 C   0  0  0  0  0  0  0  0  0  0  0  0
   -7.2396   -0.1369   -0.9088 N   0  0  0  0  0  0  0  0  0  0  0  0
   -3.8600   -0.3524   -1.7753 C   0  0  0  0  0  0  0  0  0  0  0  0
   -3.9913    1.0023   -1.6473 N   0  0  0  0  0  0  0  0  0  0  0  0
   -2.9473    1.8690   -1.2137 C   0  0  0  0  0  0  0  0  0  0  0  0
   -2.7033    3.0705   -1.8796 C   0  0  0  0  0  0  0  0  0  0  0  0
   -1.5952    3.8376   -1.5349 C   0  0  0  0  0  0  0  0  0  0  0  0
   -1.2878    5.3244   -2.3918 Cl  0  0  0  0  0  0  0  0  0  0  0  0
   -0.6824    3.4126   -0.5509 C   0  0  0  0  0  0  0  0  0  0  0  0
    0.3913    4.1752   -0.3155 O   0  0  0  0  0  0  0  0  0  0  0  0
    1.5890    3.5782    0.1928 C   0  0  0  0  0  0  0  0  0  0  0  0
    1.5616    3.2617    1.6744 C   0  0  0  0  0  0  0  0  0  0  0  0
    1.8745    1.9872    2.0955 C   0  0  0  0  0  0  0  0  0  0  0  0
    1.8506    1.6260    3.4643 C   0  0  0  0  0  0  0  0  0  0  0  0
    1.5227    2.5643    4.4091 C   0  0  0  0  0  0  0  0  0  0  0  0
    1.2266    4.2594    2.6472 C   0  0  0  0  0  0  0  0  0  0  0  0
    1.2121    3.8998    4.0291 C   0  0  0  0  0  0  0  0  0  0  0  0
    0.8846    4.8869    4.9988 C   0  0  0  0  0  0  0  0  0  0  0  0
    0.5867    6.1746    4.6266 C   0  0  0  0  0  0  0  0  0  0  0  0
    0.5998    6.5336    3.2579 C   0  0  0  0  0  0  0  0  0  0  0  0
    0.9075    5.6024    2.2950 C   0  0  0  0  0  0  0  0  0  0  0  0
   -0.9727    2.2249    0.1298 C   0  0  0  0  0  0  0  0  0  0  0  0
   -2.0999    1.4812   -0.1788 C   0  0  0  0  0  0  0  0  0  0  0  0
   -2.6316   -1.0032   -2.1530 C   0  0  0  0  0  0  0  0  0  0  0  0
   -1.4556   -0.3201   -2.5374 C   0  0  0  0  0  0  0  0  0  0  0  0
    0.9410   -3.1153    3.0943 N   0  0  0  0  0  0  0  0  0  0  0  0
    0.7698   -2.0944    3.9771 C   0  0  0  0  0  0  0  0  0  0  0  0
   -0.5953   -1.4535    4.0982 C   0  0  0  0  0  0  0  0  0  0  0  0
    1.7019   -1.7164    4.6702 O   0  0  0  0  0  0  0  0  0  0  0  0
   -0.6860   -4.2970    2.4718 H   0  0  0  0  0  0  0  0  0  0  0  0
    0.7688   -4.7523   -0.0705 N   0  0  0  0  0  0  0  0  0  0  0  0
    1.5898   -5.6279   -0.8714 C   0  0  0  0  0  0  0  0  0  0  0  0
   -1.1117   -3.1247    0.3273 H   0  0  0  0  0  0  0  0  0  0  0  0
   -1.4883   -2.2087    1.7438 H   0  0  0  0  0  0  0  0  0  0  0  0
    2.8455   -1.1854    1.5465 H   0  0  0  0  0  0  0  0  0  0  0  0
    2.6334   -2.8644    1.0397 H   0  0  0  0  0  0  0  0  0  0  0  0
    5.0435   -3.2617    1.6145 H   0  0  0  0  0  0  0  0  0  0  0  0
    5.0365   -1.5505    2.1272 H   0  0  0  0  0  0  0  0  0  0  0  0
    6.2248   -2.1062    0.9210 H   0  0  0  0  0  0  0  0  0  0  0  0
    5.5367   -2.5650   -1.3004 H   0  0  0  0  0  0  0  0  0  0  0  0
    3.8733   -2.2131   -1.8091 H   0  0  0  0  0  0  0  0  0  0  0  0
    4.2275   -3.7043   -0.8636 H   0  0  0  0  0  0  0  0  0  0  0  0
    0.6317    0.5848   -3.7580 H   0  0  0  0  0  0  0  0  0  0  0  0
    2.4865   -1.8996   -3.3541 H   0  0  0  0  0  0  0  0  0  0  0  0
    1.5148   -2.3102   -4.7737 H   0  0  0  0  0  0  0  0  0  0  0  0
    3.2198   -4.3028   -3.1482 H   0  0  0  0  0  0  0  0  0  0  0  0
    3.6437   -3.6372   -4.7437 H   0  0  0  0  0  0  0  0  0  0  0  0
    2.2377   -4.7276   -4.5785 H   0  0  0  0  0  0  0  0  0  0  0  0
   -1.3702   -4.1646   -2.4553 H   0  0  0  0  0  0  0  0  0  0  0  0
   -5.6842   -3.2289   -1.4051 H   0  0  0  0  0  0  0  0  0  0  0  0
   -4.9379    1.3291   -1.4794 H   0  0  0  0  0  0  0  0  0  0  0  0
   -3.3445    3.3864   -2.7033 H   0  0  0  0  0  0  0  0  0  0  0  0
    2.3602    4.3338   -0.0152 H   0  0  0  0  0  0  0  0  0  0  0  0
    1.8283    2.6911   -0.4187 H   0  0  0  0  0  0  0  0  0  0  0  0
    2.1033    1.2273    1.3453 H   0  0  0  0  0  0  0  0  0  0  0  0
    2.0671    0.5962    3.7619 H   0  0  0  0  0  0  0  0  0  0  0  0
    1.4921    2.2945    5.4681 H   0  0  0  0  0  0  0  0  0  0  0  0
    0.8758    4.5987    6.0536 H   0  0  0  0  0  0  0  0  0  0  0  0
    0.3371    6.9224    5.3832 H   0  0  0  0  0  0  0  0  0  0  0  0
    0.3575    7.5576    2.9639 H   0  0  0  0  0  0  0  0  0  0  0  0
    0.8891    5.8859    1.2423 H   0  0  0  0  0  0  0  0  0  0  0  0
   -0.2997    1.8588    0.8994 H   0  0  0  0  0  0  0  0  0  0  0  0
   -2.2678    0.5382    0.3428 H   0  0  0  0  0  0  0  0  0  0  0  0
   -1.4451    0.7645   -2.6030 H   0  0  0  0  0  0  0  0  0  0  0  0
    1.8625   -3.5429    3.1351 H   0  0  0  0  0  0  0  0  0  0  0  0
   -1.4193   -2.1717    3.9805 H   0  0  0  0  0  0  0  0  0  0  0  0
   -0.6899   -0.6693    3.3313 H   0  0  0  0  0  0  0  0  0  0  0  0
   -0.6533   -0.9795    5.0849 H   0  0  0  0  0  0  0  0  0  0  0  0
    0.1945   -4.0743   -0.5537 H   0  0  0  0  0  0  0  0  0  0  0  0
    1.3035   -5.5043   -1.9221 H   0  0  0  0  0  0  0  0  0  0  0  0
    1.4580   -6.6774   -0.5682 H   0  0  0  0  0  0  0  0  0  0  0  0
    2.6573   -5.3777   -0.7591 H   0  0  0  0  0  0  0  0  0  0  0  0
    2.9201    0.4968   -0.4299 H   0  0  0  0  0  0  0  0  0  0  0  0
    1.6165   -2.2093   -1.0453 H   0  0  0  0  0  0  0  0  0  0  0  0
  2  1  2  0  0  0  0
  2  3  1  0  0  0  0
  3 54  1  1  0  0  0
  3 50  1  0  0  0  0
  4 58  1  0  0  0  0
  4  3  1  0  0  0  0
  5  4  1  0  0  0  0
  6 98  1  6  0  0  0
  6  5  1  0  0  0  0
  6  7  1  0  0  0  0
  7 60  1  0  0  0  0
  7 59  1  0  0  0  0
  8  7  1  0  0  0  0
  8  9  1  0  0  0  0
  9 61  1  0  0  0  0
  9 62  1  0  0  0  0
 10 66  1  0  0  0  0
 10  8  1  0  0  0  0
 11 97  1  0  0  0  0
 11  6  1  0  0  0  0
 12 11  1  0  0  0  0
 13 12  2  0  0  0  0
 14 15  1  0  0  0  0
 14 12  1  0  0  0  0
 15 16  2  0  0  0  0
 15 49  1  0  0  0  0
 16 20  1  0  0  0  0
 17 16  1  0  0  0  0
 18 68  1  0  0  0  0
 18 17  1  0  0  0  0
 19 18  1  0  0  0  0
 19 70  1  0  0  0  0
 20 21  2  0  0  0  0
 21 22  1  0  0  0  0
 22 23  2  0  0  0  0
 23 24  1  0  0  0  0
 23 74  1  0  0  0  0
 24 25  1  0  0  0  0
 25 26  3  0  0  0  0
 27 28  1  0  0  0  0
 27 24  2  0  0  0  0
 28 75  1  0  0  0  0
 28 29  1  0  0  0  0
 29 47  1  0  0  0  0
 30 31  1  0  0  0  0
 30 29  2  0  0  0  0
 31 33  2  0  0  0  0
 32 31  1  0  0  0  0
 33 34  1  0  0  0  0
 33 46  1  0  0  0  0
 34 35  1  0  0  0  0
 35 36  1  0  0  0  0
 36 37  2  0  0  0  0
 36 40  1  0  0  0  0
 37 38  1  0  0  0  0
 38 80  1  0  0  0  0
 38 39  2  0  0  0  0
 39 81  1  0  0  0  0
 40 41  1  0  0  0  0
 41 39  1  0  0  0  0
 41 42  2  0  0  0  0
 42 82  1  0  0  0  0
 43 42  1  0  0  0  0
 43 83  1  0  0  0  0
 44 43  2  0  0  0  0
 45 40  2  0  0  0  0
 45 44  1  0  0  0  0
 46 86  1  0  0  0  0
 47 46  2  0  0  0  0
 47 87  1  0  0  0  0
 48 21  1  0  0  0  0
 48 27  1  0  0  0  0
 49 48  2  0  0  0  0
 50 89  1  0  0  0  0
 50 51  1  0  0  0  0
 51 52  1  0  0  0  0
 51 53  2  0  0  0  0
 52 92  1  0  0  0  0
 55  2  1  0  0  0  0
 56 96  1  0  0  0  0
 56 95  1  0  0  0  0
 56 55  1  0  0  0  0
 57  4  1  0  0  0  0
 63  9  1  0  0  0  0
 64 10  1  0  0  0  0
 65 10  1  0  0  0  0
 67 14  1  0  0  0  0
 69 18  1  0  0  0  0
 71 19  1  0  0  0  0
 72 19  1  0  0  0  0
 73 20  1  0  0  0  0
 76 30  1  0  0  0  0
 77 35  1  0  0  0  0
 78 35  1  0  0  0  0
 79 37  1  0  0  0  0
 84 44  1  0  0  0  0
 85 45  1  0  0  0  0
 88 49  1  0  0  0  0
 90 52  1  0  0  0  0
 91 52  1  0  0  0  0
 93 55  1  0  0  0  0
 94 56  1  0  0  0  0
M  END
