98
-1 1
O         2.000964   -5.180314    1.636295
C         0.908950   -4.700362    1.355316
C         0.048981   -4.062717    2.471012
C        -1.355189   -3.615056    2.044879
S        -1.488275   -2.319317    0.767694
C         1.494461   -0.810548   -0.849847
C         2.114762   -1.461867    0.344796
N         3.543179   -1.273734    0.496300
C         3.997493   -1.656913    1.819263
C         4.302287   -1.982224   -0.513715
C         2.108346    0.097852   -1.617724
C         1.681034    0.754291   -2.881080
O         2.226471    1.784921   -3.240563
N         0.773293    0.137013   -3.721238
C        -0.273473   -0.759875   -3.366977
C        -0.214806   -2.145496   -3.693312
O         0.837774   -2.696945   -4.345227
C         2.101634   -2.698339   -3.695045
C         2.920655   -3.843531   -4.245260
C        -1.290429   -2.949015   -3.386246
C        -2.441774   -2.451196   -2.731248
N        -3.459648   -3.330059   -2.507112
C        -4.515540   -2.870892   -1.901523
C        -4.666539   -1.539051   -1.438901
C        -5.853106   -1.152366   -0.746111
N        -6.809088   -0.795500   -0.193287
C        -3.627219   -0.611288   -1.611734
N        -3.761516    0.652232   -1.115618
C        -2.685844    1.526685   -0.786725
C        -2.615151    2.791549   -1.372759
C        -1.491922    3.584181   -1.168731
Cl        -1.397518    5.151478   -1.929475
C        -0.403526    3.127353   -0.401579
O         0.672133    3.925447   -0.325214
C         1.917352    3.414653    0.133583
C         1.993575    3.187885    1.627146
C         2.384425    1.955302    2.104929
C         2.410453    1.674039    3.491936
C         2.073751    2.653582    4.390484
C         1.656131    4.230628    2.549613
C         1.707281    3.954019    3.948759
C         1.379279    4.984455    4.872279
C         1.021239    6.236461    4.437913
C         0.970847    6.513977    3.051209
C         1.275244    5.538760    2.132270
C        -0.523701    1.878869    0.220253
C        -1.657503    1.095819    0.048238
C        -2.480656   -1.078315   -2.352522
C        -1.391894   -0.261440   -2.738419
N         0.940235   -3.085949    3.089454
C         0.776909   -1.972983    3.848428
C        -0.608199   -1.449407    4.130790
O         1.768888   -1.391641    4.283762
H        -0.096527   -4.897141    3.188023
N         0.405954   -4.682125    0.107724
C         1.192035   -5.162594   -0.998412
H        -1.850277   -4.533017    1.685508
H        -1.916313   -3.324109    2.943189
H         1.589073   -1.093565    1.242082
H         1.834249   -2.535918    0.303113
H         3.944542   -2.757969    1.973609
H         3.382754   -1.190801    2.600980
H         5.045075   -1.347588    1.961238
H         5.375634   -1.769369   -0.393165
H         4.009277   -1.667411   -1.524667
H         4.163670   -3.085104   -0.441622
H         0.630435    0.678404   -4.568577
H         1.957708   -2.814808   -2.608328
H         2.613672   -1.735857   -3.856318
H         2.428204   -4.806244   -4.044611
H         3.914513   -3.854160   -3.773710
H         3.050958   -3.741278   -5.332702
H        -1.270076   -4.005284   -3.654273
H        -5.340836   -3.570931   -1.725520
H        -4.641307    0.833036   -0.641587
H        -3.411986    3.138918   -2.031467
H         2.645626    4.175678   -0.181403
H         2.154331    2.486652   -0.408991
H         2.657447    1.163073    1.398825
H         2.635475    0.663636    3.839501
H         2.072043    2.439230    5.462302
H         1.418170    4.758153    5.941171
H         0.771295    7.018574    5.158742
H         0.680353    7.509562    2.707878
H         1.205948    5.761884    1.067427
H         0.278025    1.498801    0.847127
H        -1.705078    0.107337    0.521011
H        -1.397571    0.807000   -2.546725
H         1.915586   -3.365226    3.018018
H        -1.212308   -2.193014    4.670908
H        -1.119249   -1.211858    3.182904
H        -0.503962   -0.547017    4.743774
H        -0.345155   -3.989856   -0.068683
H         0.647516   -4.966511   -1.931874
H         1.381697   -6.243799   -0.914880
H         2.176385   -4.662940   -1.046051
H         3.105116    0.438145   -1.318296
H         0.474566   -1.155389   -1.036758
