-1 1
 OpenBabel05232414493D

 98102  0  0  1  0  0  0  0  0999 V2000
   -5.6364   -2.6527    8.8456 O   0  0  0  0  0  0  0  0  0  0  0  0
   -6.4853   -1.9425    8.3305 C   0  0  0  0  0  0  0  0  0  0  0  0
   -7.3157   -0.9766    9.2050 C   0  0  2  0  0  0  0  0  0  0  0  0
   -8.1620    0.0248    8.4122 C   0  0  0  0  0  0  0  0  0  0  0  0
   -7.3330    1.4756    7.6666 S   0  0  0  0  0  0  0  0  0  0  0  0
   -5.5134    1.2932    6.5931 C   0  0  2  0  0  0  0  0  0  0  0  0
   -4.5377    0.8115    7.6609 C   0  0  0  0  0  0  0  0  0  0  0  0
   -3.1377    0.8580    7.2779 N   0  0  0  0  0  0  0  0  0  0  0  0
   -2.2963    0.4752    8.3850 C   0  0  0  0  0  0  0  0  0  0  0  0
   -2.8443    0.1088    6.0855 C   0  0  0  0  0  0  0  0  0  0  0  0
   -5.2593    2.5893    6.0670 C   0  0  0  0  0  3  0  0  0  0  0  0
   -5.7147    3.2247    4.8850 C   0  0  0  0  0  0  0  0  0  0  0  0
   -5.4501    4.3981    4.5897 O   0  0  0  0  0  0  0  0  0  0  0  0
   -6.4762    2.5160    3.8790 N   0  0  0  0  0  0  0  0  0  0  0  0
   -7.6190    1.7306    4.1776 C   0  0  0  0  0  0  0  0  0  0  0  0
   -7.5987    0.3016    4.1896 C   0  0  0  0  0  0  0  0  0  0  0  0
   -6.5177   -0.4652    3.9417 O   0  0  0  0  0  0  0  0  0  0  0  0
   -5.4159   -0.0316    3.1503 C   0  0  0  0  0  0  0  0  0  0  0  0
   -4.5385   -1.2397    2.9112 C   0  0  0  0  0  0  0  0  0  0  0  0
   -8.7500   -0.3937    4.5185 C   0  0  0  0  0  0  0  0  0  0  0  0
   -9.9567    0.2574    4.8432 C   0  0  0  0  0  0  0  0  0  0  0  0
  -11.0477   -0.5248    5.1129 N   0  0  0  0  0  0  0  0  0  0  0  0
  -12.1689    0.0829    5.3655 C   0  0  0  0  0  0  0  0  0  0  0  0
  -12.3236    1.4952    5.4369 C   0  0  0  0  0  0  0  0  0  0  0  0
  -13.5853    2.0602    5.7932 C   0  0  0  0  0  0  0  0  0  0  0  0
  -14.5989    2.5506    6.0746 N   0  0  0  0  0  0  0  0  0  0  0  0
  -11.2168    2.3330    5.2164 C   0  0  0  0  0  0  0  0  0  0  0  0
  -11.3463    3.6870    5.3539 N   0  0  0  0  0  0  0  0  0  0  0  0
  -10.3110    4.5481    5.8171 C   0  0  0  0  0  0  0  0  0  0  0  0
  -10.0939    5.7840    5.2071 C   0  0  0  0  0  0  0  0  0  0  0  0
   -9.0025    6.5580    5.5883 C   0  0  0  0  0  0  0  0  0  0  0  0
   -8.7294    8.0918    4.8040 Cl  0  0  0  0  0  0  0  0  0  0  0  0
   -8.0792    6.1057    6.5491 C   0  0  0  0  0  0  0  0  0  0  0  0
   -7.0165    6.8762    6.8147 O   0  0  0  0  0  0  0  0  0  0  0  0
   -5.8245    6.2769    7.3264 C   0  0  0  0  0  0  0  0  0  0  0  0
   -5.8470    5.9717    8.8100 C   0  0  0  0  0  0  0  0  0  0  0  0
   -5.5472    4.6980    9.2436 C   0  0  0  0  0  0  0  0  0  0  0  0
   -5.5290    4.3619   10.6190 C   0  0  0  0  0  0  0  0  0  0  0  0
   -5.8131    5.3222   11.5558 C   0  0  0  0  0  0  0  0  0  0  0  0
   -6.1424    6.9899    9.7746 C   0  0  0  0  0  0  0  0  0  0  0  0
   -6.1218    6.6540   11.1621 C   0  0  0  0  0  0  0  0  0  0  0  0
   -6.4086    7.6616   12.1235 C   0  0  0  0  0  0  0  0  0  0  0  0
   -6.7005    8.9467   11.7377 C   0  0  0  0  0  0  0  0  0  0  0  0
   -6.7217    9.2822   10.3633 C   0  0  0  0  0  0  0  0  0  0  0  0
   -6.4532    8.3310    9.4082 C   0  0  0  0  0  0  0  0  0  0  0  0
   -8.3391    4.8795    7.1700 C   0  0  0  0  0  0  0  0  0  0  0  0
   -9.4524    4.1288    6.8300 C   0  0  0  0  0  0  0  0  0  0  0  0
   -9.9908    1.6812    4.8339 C   0  0  0  0  0  0  0  0  0  0  0  0
   -8.8126    2.3629    4.4551 C   0  0  0  0  0  0  0  0  0  0  0  0
   -6.3692   -0.4264   10.1557 N   0  0  0  0  0  0  0  0  0  0  0  0
   -6.4113    0.6552   10.9781 C   0  0  0  0  0  0  0  0  0  0  0  0
   -7.7296    1.3594   11.2027 C   0  0  0  0  0  0  0  0  0  0  0  0
   -5.3927    1.0375   11.5384 O   0  0  0  0  0  0  0  0  0  0  0  0
   -8.0290   -1.6487    9.7269 H   0  0  0  0  0  0  0  0  0  0  0  0
   -6.7530   -1.9831    7.0084 N   0  0  0  0  0  0  0  0  0  0  0  0
   -5.9648   -2.8219    6.1378 C   0  0  0  0  0  0  0  0  0  0  0  0
   -8.7418   -0.5404    7.6635 H   0  0  0  0  0  0  0  0  0  0  0  0
   -8.9257    0.4524    9.0762 H   0  0  0  0  0  0  0  0  0  0  0  0
   -4.6627    1.4364    8.5582 H   0  0  0  0  0  0  0  0  0  0  0  0
   -4.8136   -0.2207    7.9610 H   0  0  0  0  0  0  0  0  0  0  0  0
   -2.4293   -0.5915    8.6842 H   0  0  0  0  0  0  0  0  0  0  0  0
   -2.5271    1.0925    9.2663 H   0  0  0  0  0  0  0  0  0  0  0  0
   -1.2352    0.6238    8.1279 H   0  0  0  0  0  0  0  0  0  0  0  0
   -1.7732    0.1904    5.8423 H   0  0  0  0  0  0  0  0  0  0  0  0
   -3.4103    0.5176    5.2371 H   0  0  0  0  0  0  0  0  0  0  0  0
   -3.0861   -0.9784    6.1809 H   0  0  0  0  0  0  0  0  0  0  0  0
   -6.6862    3.2223    3.1792 H   0  0  0  0  0  0  0  0  0  0  0  0
   -4.8692    0.7684    3.6668 H   0  0  0  0  0  0  0  0  0  0  0  0
   -5.7892    0.3914    2.2033 H   0  0  0  0  0  0  0  0  0  0  0  0
   -4.1622   -1.6364    3.8653 H   0  0  0  0  0  0  0  0  0  0  0  0
   -3.6737   -0.9555    2.2941 H   0  0  0  0  0  0  0  0  0  0  0  0
   -5.0924   -2.0380    2.3947 H   0  0  0  0  0  0  0  0  0  0  0  0
   -8.7454   -1.4843    4.4969 H   0  0  0  0  0  0  0  0  0  0  0  0
  -13.0495   -0.5406    5.5630 H   0  0  0  0  0  0  0  0  0  0  0  0
  -12.2945    4.0120    5.5170 H   0  0  0  0  0  0  0  0  0  0  0  0
  -10.7445    6.1265    4.4014 H   0  0  0  0  0  0  0  0  0  0  0  0
   -5.0461    7.0235    7.1122 H   0  0  0  0  0  0  0  0  0  0  0  0
   -5.5913    5.3826    6.7259 H   0  0  0  0  0  0  0  0  0  0  0  0
   -5.3513    3.9167    8.5058 H   0  0  0  0  0  0  0  0  0  0  0  0
   -5.3062    3.3358   10.9259 H   0  0  0  0  0  0  0  0  0  0  0  0
   -5.8078    5.0742   12.6207 H   0  0  0  0  0  0  0  0  0  0  0  0
   -6.3909    7.3915   13.1830 H   0  0  0  0  0  0  0  0  0  0  0  0
   -6.9189    9.7104   12.4880 H   0  0  0  0  0  0  0  0  0  0  0  0
   -6.9598   10.3040   10.0584 H   0  0  0  0  0  0  0  0  0  0  0  0
   -6.4993    8.5970    8.3519 H   0  0  0  0  0  0  0  0  0  0  0  0
   -7.6572    4.4828    7.9171 H   0  0  0  0  0  0  0  0  0  0  0  0
   -9.5885    3.1565    7.3050 H   0  0  0  0  0  0  0  0  0  0  0  0
   -8.7952    3.4489    4.4076 H   0  0  0  0  0  0  0  0  0  0  0  0
   -5.4582   -0.8766   10.1298 H   0  0  0  0  0  0  0  0  0  0  0  0
   -8.5788    0.6635   11.2579 H   0  0  0  0  0  0  0  0  0  0  0  0
   -7.8975    2.0663   10.3751 H   0  0  0  0  0  0  0  0  0  0  0  0
   -7.6512    1.9261   12.1378 H   0  0  0  0  0  0  0  0  0  0  0  0
   -7.3136   -1.2510    6.5882 H   0  0  0  0  0  0  0  0  0  0  0  0
   -6.2901   -2.6573    5.1047 H   0  0  0  0  0  0  0  0  0  0  0  0
   -6.0820   -3.8822    6.4066 H   0  0  0  0  0  0  0  0  0  0  0  0
   -4.8931   -2.5736    6.2173 H   0  0  0  0  0  0  0  0  0  0  0  0
   -4.6250    3.2410    6.6712 H   0  0  0  0  0  0  0  0  0  0  0  0
   -5.7898    0.5062    5.8874 H   0  0  0  0  0  0  0  0  0  0  0  0
  2  1  2  0  0  0  0
  2  3  1  0  0  0  0
  3 54  1  1  0  0  0
  3 50  1  0  0  0  0
  4 58  1  0  0  0  0
  4  3  1  0  0  0  0
  5  4  1  0  0  0  0
  6 98  1  6  0  0  0
  6  7  1  0  0  0  0
  6  5  1  0  0  0  0
  7 60  1  0  0  0  0
  7 59  1  0  0  0  0
  8  7  1  0  0  0  0
  8  9  1  0  0  0  0
  9 61  1  0  0  0  0
  9 62  1  0  0  0  0
 10 66  1  0  0  0  0
 10  8  1  0  0  0  0
 11  6  1  0  0  0  0
 11 97  1  0  0  0  0
 12 11  1  0  0  0  0
 13 12  2  0  0  0  0
 14 15  1  0  0  0  0
 14 12  1  0  0  0  0
 15 16  2  0  0  0  0
 15 49  1  0  0  0  0
 16 20  1  0  0  0  0
 17 16  1  0  0  0  0
 18 68  1  0  0  0  0
 18 17  1  0  0  0  0
 19 18  1  0  0  0  0
 19 70  1  0  0  0  0
 20 21  2  0  0  0  0
 21 22  1  0  0  0  0
 22 23  2  0  0  0  0
 23 24  1  0  0  0  0
 23 74  1  0  0  0  0
 24 25  1  0  0  0  0
 25 26  3  0  0  0  0
 27 28  1  0  0  0  0
 27 24  2  0  0  0  0
 28 75  1  0  0  0  0
 28 29  1  0  0  0  0
 29 47  1  0  0  0  0
 30 31  1  0  0  0  0
 30 29  2  0  0  0  0
 31 33  2  0  0  0  0
 32 31  1  0  0  0  0
 33 34  1  0  0  0  0
 33 46  1  0  0  0  0
 34 35  1  0  0  0  0
 35 36  1  0  0  0  0
 36 37  2  0  0  0  0
 36 40  1  0  0  0  0
 37 38  1  0  0  0  0
 38 80  1  0  0  0  0
 38 39  2  0  0  0  0
 39 81  1  0  0  0  0
 40 41  1  0  0  0  0
 41 39  1  0  0  0  0
 41 42  2  0  0  0  0
 42 82  1  0  0  0  0
 43 42  1  0  0  0  0
 43 83  1  0  0  0  0
 44 43  2  0  0  0  0
 45 40  2  0  0  0  0
 45 44  1  0  0  0  0
 46 86  1  0  0  0  0
 47 46  2  0  0  0  0
 47 87  1  0  0  0  0
 48 21  1  0  0  0  0
 48 27  1  0  0  0  0
 49 48  2  0  0  0  0
 50 51  1  0  0  0  0
 51 52  1  0  0  0  0
 51 53  2  0  0  0  0
 52 90  1  0  0  0  0
 52 92  1  0  0  0  0
 55  2  1  0  0  0  0
 56 96  1  0  0  0  0
 56 95  1  0  0  0  0
 56 55  1  0  0  0  0
 57  4  1  0  0  0  0
 63  9  1  0  0  0  0
 64 10  1  0  0  0  0
 65 10  1  0  0  0  0
 67 14  1  0  0  0  0
 69 18  1  0  0  0  0
 71 19  1  0  0  0  0
 72 19  1  0  0  0  0
 73 20  1  0  0  0  0
 76 30  1  0  0  0  0
 77 35  1  0  0  0  0
 78 35  1  0  0  0  0
 79 37  1  0  0  0  0
 84 44  1  0  0  0  0
 85 45  1  0  0  0  0
 88 49  1  0  0  0  0
 89 50  1  0  0  0  0
 91 52  1  0  0  0  0
 93 55  1  0  0  0  0
 94 56  1  0  0  0  0
M  END
