98
-1 1
O        -5.636386   -2.652705    8.845615
C        -6.485260   -1.942527    8.330517
C        -7.315668   -0.976640    9.205037
C        -8.162016    0.024831    8.412245
S        -7.332965    1.475616    7.666582
C        -5.513404    1.293247    6.593092
C        -4.537727    0.811503    7.660876
N        -3.137683    0.858005    7.277919
C        -2.296334    0.475185    8.384991
C        -2.844274    0.108792    6.085492
C        -5.259310    2.589282    6.067014
C        -5.714659    3.224684    4.885010
O        -5.450145    4.398105    4.589663
N        -6.476169    2.516026    3.878988
C        -7.619020    1.730588    4.177610
C        -7.598659    0.301626    4.189578
O        -6.517709   -0.465173    3.941678
C        -5.415924   -0.031632    3.150310
C        -4.538538   -1.239686    2.911196
C        -8.750032   -0.393671    4.518481
C        -9.956691    0.257440    4.843154
N       -11.047732   -0.524780    5.112926
C       -12.168882    0.082867    5.365477
C       -12.323558    1.495154    5.436878
C       -13.585340    2.060156    5.793230
N       -14.598949    2.550596    6.074579
C       -11.216842    2.332991    5.216449
N       -11.346340    3.686968    5.353937
C       -10.310959    4.548060    5.817102
C       -10.093888    5.783968    5.207111
C        -9.002511    6.557989    5.588308
Cl        -8.729415    8.091847    4.804011
C        -8.079155    6.105667    6.549128
O        -7.016475    6.876181    6.814663
C        -5.824531    6.276944    7.326377
C        -5.846973    5.971724    8.809989
C        -5.547223    4.698018    9.243605
C        -5.528950    4.361910   10.619034
C        -5.813134    5.322196   11.555823
C        -6.142404    6.989851    9.774649
C        -6.121755    6.653971   11.162137
C        -6.408567    7.661618   12.123546
C        -6.700492    8.946678   11.737709
C        -6.721742    9.282205   10.363279
C        -6.453238    8.330969    9.408246
C        -8.339089    4.879482    7.169989
C        -9.452426    4.128820    6.829993
C        -9.990761    1.681156    4.833864
C        -8.812608    2.362926    4.455057
N        -6.369205   -0.426393   10.155698
C        -6.411287    0.655226   10.978091
C        -7.729590    1.359422   11.202693
O        -5.392738    1.037548   11.538385
H        -8.029046   -1.648746    9.726906
N        -6.753018   -1.983059    7.008446
C        -5.964773   -2.821940    6.137807
H        -8.741777   -0.540377    7.663517
H        -8.925717    0.452379    9.076243
H        -4.662696    1.436435    8.558209
H        -4.813592   -0.220691    7.960967
H        -2.429331   -0.591502    8.684214
H        -2.527123    1.092543    9.266327
H        -1.235169    0.623767    8.127905
H        -1.773216    0.190403    5.842256
H        -3.410308    0.517552    5.237089
H        -3.086117   -0.978442    6.180862
H        -6.686152    3.222267    3.179170
H        -4.869151    0.768413    3.666757
H        -5.789229    0.391375    2.203264
H        -4.162178   -1.636356    3.865316
H        -3.673677   -0.955470    2.294087
H        -5.092352   -2.037977    2.394676
H        -8.745408   -1.484255    4.496907
H       -13.049523   -0.540561    5.562968
H       -12.294520    4.011996    5.517033
H       -10.744457    6.126503    4.401420
H        -5.046108    7.023545    7.112239
H        -5.591275    5.382650    6.725884
H        -5.351330    3.916685    8.505772
H        -5.306204    3.335792   10.925851
H        -5.807830    5.074169   12.620676
H        -6.390852    7.391525   13.182983
H        -6.918948    9.710441   12.488029
H        -6.959782   10.304025   10.058416
H        -6.499267    8.596996    8.351879
H        -7.657185    4.482822    7.917123
H        -9.588457    3.156459    7.304964
H        -8.795160    3.448908    4.407585
H        -5.458241   -0.876571   10.129817
H        -8.578757    0.663488   11.257894
H        -7.897474    2.066273   10.375093
H        -7.651155    1.926089   12.137803
H        -7.313603   -1.250958    6.588242
H        -6.290135   -2.657308    5.104656
H        -6.082042   -3.882228    6.406594
H        -4.893075   -2.573648    6.217252
H        -4.625005    3.241012    6.671200
H        -5.789780    0.506193    5.887441
