92
-1 1
O        -2.580451    0.800305   -2.770334
C        -1.685893    1.631334   -2.784128
C        -0.242450    1.271611   -3.197449
C         0.061927   -0.246966   -3.017313
S         1.260439   -0.717399   -1.735469
C         2.954334   -0.912665   -2.528182
C         3.257880    0.242878   -3.488602
N         4.216348   -0.101850   -4.524733
C         5.475589   -0.647334   -4.053709
C         4.408675    1.000390   -5.429029
C         3.847404   -1.066273   -1.356095
C         4.598618   -2.214854   -1.143325
O         4.853574   -3.142020   -1.934543
N         5.208992   -2.328163    0.177970
C         4.517414   -2.383751    1.356251
C         5.214605   -2.811594    2.545493
O         6.505678   -3.156398    2.326366
C         7.335612   -3.538120    3.397331
C         7.856323   -2.347812    4.186955
C         4.578039   -2.860742    3.763851
C         3.201566   -2.534583    3.892952
N         2.628222   -2.604326    5.129222
C         1.354497   -2.349262    5.212908
C         0.512062   -2.018060    4.107359
C        -0.891536   -1.936918    4.365489
N        -2.019050   -1.895515    4.635287
C         1.082511   -1.901809    2.830831
N         0.398149   -1.636058    1.677090
C        -0.808969   -0.954716    1.464650
C        -1.195391    0.153575    2.225305
C        -2.345653    0.851815    1.890372
Cl        -2.802922    2.248098    2.831965
C        -3.131585    0.492267    0.785327
O        -4.215192    1.254198    0.519057
C        -5.022131    0.930420   -0.583708
C        -6.059166    2.008845   -0.751966
C        -6.931213    2.000606   -1.845996
Cl        -6.820099    0.707149   -3.022920
C        -7.886532    2.995285   -2.036147
C        -7.981976    4.033575   -1.112802
C        -7.125569    4.064008   -0.014142
C        -6.175697    3.060324    0.162332
C        -2.737103   -0.614073    0.031444
C        -1.594243   -1.328280    0.372039
C         2.494855   -2.153989    2.726251
C         3.178613   -2.053300    1.495943
N         0.723478    2.218723   -2.677286
C         1.113048    2.401479   -1.356308
C         0.149705    2.012025   -0.259514
O         2.152200    2.979994   -1.118553
H        -0.258780    1.456423   -4.284979
N        -1.890756    2.940048   -2.526126
C        -3.156888    3.443896   -2.053738
H        -0.886533   -0.750889   -2.787056
H         0.417514   -0.666914   -3.968355
H         3.582156    1.122910   -2.884725
H         2.341781    0.542207   -4.026561
H         6.109177   -0.871305   -4.927896
H         5.322774   -1.583294   -3.496003
H         6.031812    0.058683   -3.397312
H         3.442430    1.326447   -5.850826
H         5.054475    0.697912   -6.269244
H         4.879113    1.892352   -4.948941
H         6.043500   -2.903490    0.163308
H         8.173143   -4.077211    2.930955
H         6.811807   -4.256063    4.053091
H         8.547653   -2.687883    4.972887
H         7.038377   -1.790509    4.664889
H         8.394819   -1.658611    3.520622
H         5.091135   -3.158048    4.677608
H         0.887939   -2.415857    6.203220
H         0.898494   -1.840587    0.816508
H        -0.588484    0.493953    3.064236
H        -5.517851   -0.046749   -0.426301
H        -4.411528    0.853144   -1.501467
H        -8.544856    2.949997   -2.904720
H        -8.728112    4.817745   -1.257012
H        -7.195127    4.874862    0.713805
H        -5.497079    3.075583    1.016097
H        -3.302724   -0.911094   -0.849406
H        -1.289503   -2.182275   -0.235202
H         2.685585   -1.703799    0.591955
H         1.494364    2.441348   -3.297865
H         0.742938    1.674649    0.597593
H        -0.557539    1.219267   -0.529596
H        -0.420594    2.903492    0.047093
H        -1.065015    3.524547   -2.495028
H        -3.978842    3.034640   -2.658964
H        -3.169754    4.537855   -2.140610
H        -3.340583    3.170577   -1.001116
H         2.927475   -1.852217   -3.100315
H         3.884402   -0.248108   -0.632160
