92
-1 1
O        -3.208578    0.460489   -2.687692
C        -2.230468    1.159812   -2.909888
C        -0.799856    0.595889   -2.809714
C        -0.705258   -0.417757   -1.658742
S         0.941384   -1.161430   -1.451386
C         4.473985   -0.842338   -2.673139
C         3.688886    0.360451   -3.082088
N         4.423047    1.201461   -4.014657
C         5.516904    1.890194   -3.368351
C         3.554545    2.116168   -4.723194
C         4.440593   -1.428892   -1.471259
C         5.227488   -2.667492   -1.260349
O         6.002251   -3.111751   -2.090541
N         5.113604   -3.342504   -0.057478
C         4.428984   -3.103286    1.140743
C         5.174875   -3.379706    2.333406
O         6.440066   -3.807329    2.116868
C         7.307931   -4.050479    3.202442
C         7.888743   -2.771673    3.781987
C         4.587798   -3.241870    3.567029
C         3.237267   -2.835581    3.691521
N         2.740520   -2.753203    4.961558
C         1.481509   -2.445460    5.077033
C         0.600442   -2.163928    3.998836
C        -0.768556   -1.950457    4.356411
N        -1.850990   -1.814278    4.751602
C         1.096400   -2.170409    2.673336
N         0.354430   -1.869768    1.594281
C        -0.896206   -1.204999    1.602187
C        -0.996446    0.102750    2.082065
C        -2.169948    0.815500    1.897721
Cl        -2.275687    2.462490    2.465204
C        -3.255149    0.259503    1.202703
O        -4.328268    1.045599    0.984967
C        -5.121041    0.815914   -0.155892
C        -5.682543    2.128662   -0.638810
C        -6.577323    2.177054   -1.712919
Cl        -7.078542    0.687238   -2.485612
C        -7.072855    3.380056   -2.208152
C        -6.671597    4.577151   -1.619955
C        -5.782849    4.555793   -0.547054
C        -5.295109    3.342967   -0.064539
C        -3.161548   -1.066798    0.776633
C        -1.992086   -1.791965    0.976693
C         2.485988   -2.559211    2.520938
C         3.109805   -2.712289    1.250741
N         0.218988    1.638381   -2.858692
C         0.688967    2.433614   -1.841207
C        -0.085016    2.474828   -0.547795
O         1.693089    3.106877   -1.999944
H        -0.660330    0.020827   -3.740268
N        -2.324944    2.452531   -3.298749
C        -3.583620    3.131384   -3.468765
H        -1.038462    0.075416   -0.736662
H        -1.464754   -1.181598   -1.873238
H         3.316799    0.916347   -2.197690
H         2.781178   -0.026745   -3.579737
H         6.120087    2.431808   -4.115105
H         6.175512    1.164597   -2.866473
H         5.176508    2.623401   -2.602835
H         2.807581    1.546387   -5.301957
H         4.141902    2.708648   -5.443587
H         3.015104    2.813125   -4.048074
H         5.846731   -4.039391    0.023474
H         8.110073   -4.677109    2.786988
H         6.795492   -4.647491    3.976855
H         8.606204   -3.011780    4.580946
H         7.106243   -2.126404    4.205489
H         8.413258   -2.205252    2.999166
H         5.116344   -3.438978    4.498275
H         1.065589   -2.403958    6.091374
H         0.765638   -1.822742    0.626267
H        -0.143898    0.574995    2.571598
H        -5.942480    0.116001    0.080573
H        -4.516071    0.382219   -0.972966
H        -7.764361    3.369862   -3.051786
H        -7.055470    5.524193   -2.005066
H        -5.460960    5.489603   -0.081557
H        -4.591267    3.315239    0.768214
H        -3.998016   -1.524971    0.248872
H        -1.901900   -2.810853    0.599397
H         2.537887   -2.548527    0.334368
H         0.920138    1.528909   -3.582209
H         0.177558    3.397137   -0.017503
H         0.230573    1.612155    0.058097
H        -1.173069    2.415332   -0.685260
H        -1.449954    2.942700   -3.436442
H        -4.371464    2.378191   -3.600701
H        -3.553306    3.777426   -4.358457
H        -3.849329    3.747635   -2.593533
H         5.091813   -1.303760   -3.452200
H         3.827522   -1.014909   -0.667938
