-1 1
 OpenBabel05232414493D

 92 95  0  0  1  0  0  0  0  0999 V2000
  -10.4183    4.8939    3.8231 O   0  0  0  0  0  0  0  0  0  0  0  0
   -9.8638    5.9123    3.4538 C   0  0  0  0  0  0  0  0  0  0  0  0
   -8.4247    5.9112    2.9043 C   0  0  2  0  0  0  0  0  0  0  0  0
   -7.5976    4.6758    3.3099 C   0  0  0  0  0  0  0  0  0  0  0  0
   -6.7200    4.6977    4.8946 S   0  0  0  0  0  0  0  0  0  0  0  0
   -4.5761    4.7505    4.3684 C   0  0  1  0  0  0  0  0  0  0  0  0
   -4.4746    6.1756    3.8591 C   0  0  0  0  0  0  0  0  0  0  0  0
   -3.2796    6.4280    3.0635 N   0  0  0  0  0  0  0  0  0  0  0  0
   -2.0615    6.5009    3.8364 C   0  0  0  0  0  0  0  0  0  0  0  0
   -3.4476    7.5912    2.2263 C   0  0  0  0  0  0  0  0  0  0  0  0
   -3.8374    4.3481    5.4993 C   0  0  0  0  0  3  0  0  0  0  0  0
   -3.4471    2.9952    5.6880 C   0  0  0  0  0  0  0  0  0  0  0  0
   -3.3879    2.1020    4.8461 O   0  0  0  0  0  0  0  0  0  0  0  0
   -3.0247    2.6635    7.0263 N   0  0  0  0  0  0  0  0  0  0  0  0
   -3.8119    2.7986    8.1485 C   0  0  0  0  0  0  0  0  0  0  0  0
   -3.2948    2.2990    9.3942 C   0  0  0  0  0  0  0  0  0  0  0  0
   -2.0826    1.7048    9.2871 O   0  0  0  0  0  0  0  0  0  0  0  0
   -1.4204    1.2244   10.4333 C   0  0  0  0  0  0  0  0  0  0  0  0
   -0.7453    2.3321   11.2260 C   0  0  0  0  0  0  0  0  0  0  0  0
   -4.0198    2.4193   10.5565 C   0  0  0  0  0  0  0  0  0  0  0  0
   -5.3100    3.0094   10.5629 C   0  0  0  0  0  0  0  0  0  0  0  0
   -5.9683    3.0906   11.7569 N   0  0  0  0  0  0  0  0  0  0  0  0
   -7.1714    3.5843   11.7358 C   0  0  0  0  0  0  0  0  0  0  0  0
   -7.8517    4.0439   10.5683 C   0  0  0  0  0  0  0  0  0  0  0  0
   -9.2196    4.4226   10.7479 C   0  0  0  0  0  0  0  0  0  0  0  0
  -10.3229    4.6950   10.9827 N   0  0  0  0  0  0  0  0  0  0  0  0
   -7.1829    4.0155    9.3302 C   0  0  0  0  0  0  0  0  0  0  0  0
   -7.7170    4.4270    8.1496 N   0  0  0  0  0  0  0  0  0  0  0  0
   -8.8782    5.1999    7.9523 C   0  0  0  0  0  0  0  0  0  0  0  0
   -9.0179    6.4544    8.5531 C   0  0  0  0  0  0  0  0  0  0  0  0
  -10.1623    7.2022    8.3279 C   0  0  0  0  0  0  0  0  0  0  0  0
  -10.3430    8.7579    9.0951 Cl  0  0  0  0  0  0  0  0  0  0  0  0
  -11.1783    6.7341    7.4825 C   0  0  0  0  0  0  0  0  0  0  0  0
  -12.2633    7.5275    7.3005 O   0  0  0  0  0  0  0  0  0  0  0  0
  -13.4873    6.9253    6.9797 C   0  0  0  0  0  0  0  0  0  0  0  0
  -14.5795    7.9587    7.0783 C   0  0  0  0  0  0  0  0  0  0  0  0
  -15.8824    7.6735    6.6564 C   0  0  0  0  0  0  0  0  0  0  0  0
  -16.2486    6.0874    6.0025 Cl  0  0  0  0  0  0  0  0  0  0  0  0
  -16.9079    8.6109    6.7409 C   0  0  0  0  0  0  0  0  0  0  0  0
  -16.6335    9.8735    7.2607 C   0  0  0  0  0  0  0  0  0  0  0  0
  -15.3441   10.1815    7.6893 C   0  0  0  0  0  0  0  0  0  0  0  0
  -14.3291    9.2317    7.5987 C   0  0  0  0  0  0  0  0  0  0  0  0
  -11.0072    5.5037    6.8508 C   0  0  0  0  0  0  0  0  0  0  0  0
   -9.8674    4.7426    7.0845 C   0  0  0  0  0  0  0  0  0  0  0  0
   -5.8468    3.4722    9.3369 C   0  0  0  0  0  0  0  0  0  0  0  0
   -5.0738    3.3668    8.1573 C   0  0  0  0  0  0  0  0  0  0  0  0
   -7.7703    7.2040    3.0158 N   0  0  0  0  0  0  0  0  0  0  0  0
   -7.4236    7.9399    4.1377 C   0  0  0  0  0  0  0  0  0  0  0  0
   -8.1723    7.7145    5.4293 C   0  0  0  0  0  0  0  0  0  0  0  0
   -6.6039    8.8306    4.0254 O   0  0  0  0  0  0  0  0  0  0  0  0
   -8.6082    5.7899    1.8201 H   0  0  0  0  0  0  0  0  0  0  0  0
  -10.4853    7.1159    3.3661 N   0  0  0  0  0  0  0  0  0  0  0  0
  -11.8334    7.3442    3.8130 C   0  0  0  0  0  0  0  0  0  0  0  0
   -8.2740    3.8108    3.2680 H   0  0  0  0  0  0  0  0  0  0  0  0
   -6.8298    4.5233    2.5322 H   0  0  0  0  0  0  0  0  0  0  0  0
   -4.5637    6.8842    4.7119 H   0  0  0  0  0  0  0  0  0  0  0  0
   -5.3307    6.3816    3.2061 H   0  0  0  0  0  0  0  0  0  0  0  0
   -1.1938    6.5891    3.1621 H   0  0  0  0  0  0  0  0  0  0  0  0
   -1.9464    5.5903    4.4390 H   0  0  0  0  0  0  0  0  0  0  0  0
   -2.0455    7.3749    4.5301 H   0  0  0  0  0  0  0  0  0  0  0  0
   -4.3095    7.4582    1.5522 H   0  0  0  0  0  0  0  0  0  0  0  0
   -2.5527    7.7381    1.5998 H   0  0  0  0  0  0  0  0  0  0  0  0
   -3.6226    8.5285    2.8018 H   0  0  0  0  0  0  0  0  0  0  0  0
   -2.4059    1.8604    7.0523 H   0  0  0  0  0  0  0  0  0  0  0  0
   -0.6669    0.5197   10.0523 H   0  0  0  0  0  0  0  0  0  0  0  0
   -2.1162    0.6455   11.0661 H   0  0  0  0  0  0  0  0  0  0  0  0
   -0.1898    1.9056   12.0749 H   0  0  0  0  0  0  0  0  0  0  0  0
   -1.4771    3.0514   11.6198 H   0  0  0  0  0  0  0  0  0  0  0  0
   -0.0395    2.8796   10.5848 H   0  0  0  0  0  0  0  0  0  0  0  0
   -3.6477    2.0673   11.5177 H   0  0  0  0  0  0  0  0  0  0  0  0
   -7.7127    3.6381   12.6883 H   0  0  0  0  0  0  0  0  0  0  0  0
   -7.2492    4.1660    7.2801 H   0  0  0  0  0  0  0  0  0  0  0  0
   -8.2366    6.8408    9.2082 H   0  0  0  0  0  0  0  0  0  0  0  0
  -13.6930    6.0840    7.6681 H   0  0  0  0  0  0  0  0  0  0  0  0
  -13.4749    6.5063    5.9587 H   0  0  0  0  0  0  0  0  0  0  0  0
  -17.9098    8.3458    6.4007 H   0  0  0  0  0  0  0  0  0  0  0  0
  -17.4330   10.6140    7.3298 H   0  0  0  0  0  0  0  0  0  0  0  0
  -15.1233   11.1687    8.1000 H   0  0  0  0  0  0  0  0  0  0  0  0
  -13.3164    9.4594    7.9334 H   0  0  0  0  0  0  0  0  0  0  0  0
  -11.7480    5.1332    6.1435 H   0  0  0  0  0  0  0  0  0  0  0  0
   -9.7387    3.7882    6.5739 H   0  0  0  0  0  0  0  0  0  0  0  0
   -5.4540    3.7224    7.2020 H   0  0  0  0  0  0  0  0  0  0  0  0
   -7.1589    7.4468    2.2432 H   0  0  0  0  0  0  0  0  0  0  0  0
   -7.4576    7.8375    6.2512 H   0  0  0  0  0  0  0  0  0  0  0  0
   -8.6366    6.7280    5.5207 H   0  0  0  0  0  0  0  0  0  0  0  0
   -8.9423    8.4969    5.5282 H   0  0  0  0  0  0  0  0  0  0  0  0
   -9.9055    7.9019    3.1022 H   0  0  0  0  0  0  0  0  0  0  0  0
  -12.3334    6.3700    3.8958 H   0  0  0  0  0  0  0  0  0  0  0  0
  -12.3856    7.9611    3.0881 H   0  0  0  0  0  0  0  0  0  0  0  0
  -11.8642    7.8429    4.7964 H   0  0  0  0  0  0  0  0  0  0  0  0
   -4.6118    4.0008    3.5690 H   0  0  0  0  0  0  0  0  0  0  0  0
   -3.6742    5.0613    6.3127 H   0  0  0  0  0  0  0  0  0  0  0  0
  2  1  2  0  0  0  0
  3 51  1  6  0  0  0
  3 47  1  0  0  0  0
  3  4  1  0  0  0  0
  3  2  1  0  0  0  0
  4  5  1  0  0  0  0
  6 91  1  6  0  0  0
  6  5  1  0  0  0  0
  6 11  1  0  0  0  0
  7  6  1  0  0  0  0
  7 56  1  0  0  0  0
  8  9  1  0  0  0  0
  8  7  1  0  0  0  0
  9 59  1  0  0  0  0
  9 60  1  0  0  0  0
 10 63  1  0  0  0  0
 10  8  1  0  0  0  0
 11 12  1  0  0  0  0
 11 92  1  0  0  0  0
 12 14  1  0  0  0  0
 13 12  2  0  0  0  0
 14 64  1  0  0  0  0
 14 15  1  0  0  0  0
 15 46  2  0  0  0  0
 15 16  1  0  0  0  0
 16 20  2  0  0  0  0
 17 16  1  0  0  0  0
 17 18  1  0  0  0  0
 18 66  1  0  0  0  0
 18 19  1  0  0  0  0
 19 68  1  0  0  0  0
 19 67  1  0  0  0  0
 20 21  1  0  0  0  0
 20 70  1  0  0  0  0
 21 22  1  0  0  0  0
 23 22  2  0  0  0  0
 23 71  1  0  0  0  0
 24 25  1  0  0  0  0
 24 23  1  0  0  0  0
 25 26  3  0  0  0  0
 27 45  1  0  0  0  0
 27 24  2  0  0  0  0
 28 27  1  0  0  0  0
 29 28  1  0  0  0  0
 29 30  1  0  0  0  0
 30 73  1  0  0  0  0
 31 30  2  0  0  0  0
 31 32  1  0  0  0  0
 33 31  1  0  0  0  0
 34 33  1  0  0  0  0
 35 36  1  0  0  0  0
 35 34  1  0  0  0  0
 35 74  1  0  0  0  0
 36 42  1  0  0  0  0
 37 39  1  0  0  0  0
 37 36  2  0  0  0  0
 38 37  1  0  0  0  0
 39 40  2  0  0  0  0
 40 77  1  0  0  0  0
 40 41  1  0  0  0  0
 41 78  1  0  0  0  0
 42 41  2  0  0  0  0
 42 79  1  0  0  0  0
 43 44  1  0  0  0  0
 43 33  2  0  0  0  0
 44 29  2  0  0  0  0
 45 21  2  0  0  0  0
 46 45  1  0  0  0  0
 47 48  1  0  0  0  0
 48 49  1  0  0  0  0
 49 85  1  0  0  0  0
 49 86  1  0  0  0  0
 49 84  1  0  0  0  0
 50 48  2  0  0  0  0
 52  2  1  0  0  0  0
 52 53  1  0  0  0  0
 53 88  1  0  0  0  0
 53 90  1  0  0  0  0
 54  4  1  0  0  0  0
 55  4  1  0  0  0  0
 57  7  1  0  0  0  0
 58  9  1  0  0  0  0
 61 10  1  0  0  0  0
 62 10  1  0  0  0  0
 65 18  1  0  0  0  0
 69 19  1  0  0  0  0
 72 28  1  0  0  0  0
 75 35  1  0  0  0  0
 76 39  1  0  0  0  0
 80 43  1  0  0  0  0
 81 44  1  0  0  0  0
 82 46  1  0  0  0  0
 83 47  1  0  0  0  0
 87 52  1  0  0  0  0
 89 53  1  0  0  0  0
M  END
