96
-1 1
O        -2.415108    1.605677    5.298949
C        -1.947762    1.466430    4.169076
C        -2.878086    1.216896    2.977619
C        -3.231509    2.507447    2.208101
S        -1.872078    3.239878    1.253548
C        -1.507975    1.865354    0.030005
C        -2.513058    1.926681   -1.119993
N        -2.527454    0.709339   -1.927664
C        -3.856725    0.213769   -2.199116
C        -1.716777    0.804557   -3.118213
C        -0.074006    1.876728   -0.342801
C         0.837794    1.292161    0.514539
O         0.564870    0.667424    1.587484
N         2.240437    1.370826    0.229360
C         2.695992    1.534802   -1.095358
C         2.861692    2.821656   -1.706286
O         2.611691    4.005518   -1.134732
C         2.463092    4.213543    0.267139
C         2.449476    5.710032    0.486400
C         3.316164    2.885547   -3.016444
C         3.566262    1.740210   -3.794840
N         4.039901    1.918295   -5.068400
C         4.243585    0.853429   -5.784489
C         3.945214   -0.472835   -5.363175
C         4.104326   -1.566612   -6.265217
N         4.225135   -2.481214   -6.970218
C         3.433513   -0.697196   -4.072092
N         3.061847   -1.958838   -3.701878
C         2.107388   -2.285795   -2.700279
C         2.415274   -3.248940   -1.739420
C         1.546709   -3.465504   -0.677178
Cl         1.950048   -4.660378    0.527266
C         0.377413   -2.697668   -0.512810
O        -0.346867   -2.905746    0.587975
C        -1.325752   -1.921535    0.957841
H        -0.894696   -0.929688    0.753641
C        -2.694145   -2.166509    0.305359
C        -3.498672   -3.024708    1.299712
C        -2.847707   -2.707906    2.623643
C        -1.614451   -2.084651    2.425314
C        -0.821127   -1.675736    3.492016
C        -1.294736   -1.882690    4.787569
C        -2.526696   -2.508994    4.997535
C        -3.306395   -2.933895    3.919991
C         0.057601   -1.767980   -1.515215
C         0.899822   -1.593464   -2.605799
C         3.332246    0.456656   -3.218571
C         2.962869    0.414517   -1.854479
N        -4.069829    0.605239    3.516542
C        -4.975330   -0.046387    2.764458
C        -6.116655   -0.693094    3.524292
O        -4.900250   -0.134357    1.544559
H        -2.397587    0.505709    2.292197
N        -0.646935    1.515172    3.880700
C         0.333855    1.736678    4.907582
H        -4.069914    2.269204    1.537897
H        -3.572904    3.275275    2.919251
H        -2.315487    2.822582   -1.744349
H        -3.516984    2.067206   -0.692779
H        -3.796384   -0.774614   -2.683428
H        -4.447078    0.880545   -2.869956
H        -4.415536    0.092028   -1.258911
H        -0.692307    1.096140   -2.846664
H        -2.108986    1.547930   -3.850591
H        -1.674531   -0.172561   -3.627272
H         2.699361    0.614607    0.726570
H         3.294544    3.734934    0.806421
H         1.523750    3.759899    0.615292
H         3.385836    6.172717    0.139596
H         2.322581    5.927476    1.557074
H         1.611724    6.169044   -0.058686
H         3.486684    3.863316   -3.466492
H         4.643842    0.991931   -6.796552
H         3.279327   -2.690203   -4.371337
H         3.356489   -3.797886   -1.789439
H        -2.603880   -2.614326   -0.694049
H        -3.190889   -1.192399    0.198013
H        -3.409573   -4.102659    1.080705
H        -4.566492   -2.761440    1.284285
H         0.123276   -1.164861    3.293542
H        -0.710204   -1.538882    5.643611
H        -2.886878   -2.658495    6.018608
H        -4.266615   -3.427026    4.095387
H        -0.832879   -1.139764   -1.428207
H         0.653184   -0.839145   -3.353621
H         2.832942   -0.537598   -1.348558
H        -4.137396    0.664883    4.529447
H        -6.008025   -1.783896    3.440830
H        -7.064101   -0.413426    3.044085
H        -6.143918   -0.420257    4.587931
H        -0.300793    1.290823    2.923822
H         0.279904    0.963511    5.693262
H         0.195281    2.713237    5.398995
H         1.327399    1.706249    4.442211
H        -1.723322    0.946614    0.589160
H         0.248522    2.453064   -1.211819
