96
-1 1
O        -2.998026    1.103583    5.678641
C        -2.426137    1.559582    4.689334
C        -3.055720    1.458904    3.294330
C        -3.327971    2.838283    2.651497
S        -1.823325    3.704953    2.070580
C        -0.905543    1.282157    0.155586
C        -2.162371    1.588238   -0.615844
N        -2.441411    0.591833   -1.658136
C        -3.863403    0.399108   -1.864139
C        -1.762735    0.887628   -2.897545
C         0.357553    1.400746   -0.279502
C         1.476406    1.021634    0.608547
O         1.345386    0.554069    1.726285
N         2.749162    1.280800    0.122712
C         3.084217    1.443444   -1.244259
C         3.478613    2.707590   -1.780081
O         3.556013    3.840917   -1.069724
C         2.596204    4.176944   -0.060863
C         2.528082    5.683889    0.030177
C         3.865859    2.766577   -3.108706
C         3.838725    1.639991   -3.956732
N         4.277082    1.812009   -5.241867
C         4.263842    0.771728   -6.020714
C         3.794111   -0.515268   -5.644374
C         3.784762   -1.580028   -6.594781
N         3.764483   -2.470407   -7.339052
C         3.302675   -0.735198   -4.343456
N         2.831988   -1.968922   -4.011396
C         1.943961   -2.284815   -2.943400
C         2.347745   -3.165047   -1.938613
C         1.524567   -3.386140   -0.842337
Cl         2.048762   -4.465285    0.419102
C         0.289971   -2.718238   -0.702062
O        -0.396645   -2.928666    0.417997
C        -1.548758   -2.117112    0.709900
H        -1.382590   -1.114480    0.299337
C        -2.854057   -2.739458    0.194304
C        -3.421994   -3.559717    1.368137
C        -2.811210   -2.892540    2.577428
C        -1.735247   -2.087566    2.201583
C        -0.992122   -1.373833    3.137977
C        -1.367151   -1.458941    4.478593
C        -2.455725   -2.245289    4.863471
C        -3.178156   -2.976769    3.918993
C        -0.123353   -1.878554   -1.748506
C         0.691628   -1.679361   -2.856562
C         3.366377    0.392248   -3.444597
C         3.037562    0.340934   -2.070007
N        -4.247117    0.655665    3.458075
C        -4.795910   -0.072535    2.474740
C        -5.961781   -0.953115    2.880678
O        -4.405760   -0.047788    1.310591
H        -2.358824    0.914843    2.640360
N        -1.225576    2.157248    4.711364
C        -0.525194    2.428337    5.936780
H        -4.003621    2.652122    1.801488
H        -3.891631    3.454478    3.373599
H        -2.110682    2.612724   -1.035136
H        -2.993961    1.573223    0.096760
H        -4.026905   -0.436569   -2.564474
H        -4.358737    1.299767   -2.292543
H        -4.348266    0.159839   -0.908120
H        -0.677346    0.954584   -2.737872
H        -2.097983    1.848232   -3.350559
H        -1.946201    0.086313   -3.632437
H         3.488505    1.020934    0.767066
H         2.894694    3.736725    0.901283
H         1.610444    3.762376   -0.320757
H         3.509427    6.105788    0.293353
H         1.800492    5.969429    0.803460
H         2.207564    6.118570   -0.927616
H         4.198539    3.716786   -3.525729
H         4.628108    0.903980   -7.046893
H         2.931683   -2.676588   -4.733045
H         3.325835   -3.644957   -1.987724
H        -2.696245   -3.323068   -0.724171
H        -3.540382   -1.910643   -0.027948
H        -3.106662   -4.616132    1.319916
H        -4.522923   -3.551789    1.385015
H        -0.157658   -0.739517    2.823326
H        -0.827353   -0.879623    5.229186
H        -2.751968   -2.269389    5.914439
H        -4.027031   -3.592827    4.228956
H        -1.070779   -1.337341   -1.675209
H         0.370942   -0.998104   -3.646456
H         2.745460   -0.592501   -1.598342
H        -4.484070    0.488550    4.434246
H        -5.662141   -2.002798    2.753879
H        -6.802646   -0.758346    2.200757
H        -6.284055   -0.797757    3.919093
H        -0.985454    2.684555    3.848488
H        -0.929717    1.782172    6.727241
H        -0.643444    3.478704    6.254526
H         0.549666    2.223761    5.816299
H        -1.030972    0.857863    1.153360
H         0.586342    1.845090   -1.250236
