-1 1
 OpenBabel05192410563D

 96100  0  0  1  0  0  0  0  0999 V2000
   -2.4151    1.6057    5.2989 O   0  0  0  0  0  0  0  0  0  0  0  0
   -1.9478    1.4664    4.1691 C   0  0  0  0  0  0  0  0  0  0  0  0
   -2.8781    1.2169    2.9776 C   0  0  2  0  0  0  0  0  0  0  0  0
   -3.2315    2.5074    2.2081 C   0  0  0  0  0  0  0  0  0  0  0  0
   -1.8721    3.2399    1.2535 S   0  0  0  0  0  0  0  0  0  0  0  0
   -1.5080    1.8654    0.0300 C   0  0  1  0  0  0  0  0  0  0  0  0
   -2.5131    1.9267   -1.1200 C   0  0  0  0  0  0  0  0  0  0  0  0
   -2.5275    0.7093   -1.9277 N   0  0  0  0  0  0  0  0  0  0  0  0
   -3.8567    0.2138   -2.1991 C   0  0  0  0  0  0  0  0  0  0  0  0
   -1.7168    0.8046   -3.1182 C   0  0  0  0  0  0  0  0  0  0  0  0
   -0.0740    1.8767   -0.3428 C   0  0  0  0  0  3  0  0  0  0  0  0
    0.8378    1.2922    0.5145 C   0  0  0  0  0  0  0  0  0  0  0  0
    0.5649    0.6674    1.5875 O   0  0  0  0  0  0  0  0  0  0  0  0
    2.2404    1.3708    0.2294 N   0  0  0  0  0  0  0  0  0  0  0  0
    2.6960    1.5348   -1.0954 C   0  0  0  0  0  0  0  0  0  0  0  0
    2.8617    2.8217   -1.7063 C   0  0  0  0  0  0  0  0  0  0  0  0
    2.6117    4.0055   -1.1347 O   0  0  0  0  0  0  0  0  0  0  0  0
    2.4631    4.2135    0.2671 C   0  0  0  0  0  0  0  0  0  0  0  0
    2.4495    5.7100    0.4864 C   0  0  0  0  0  0  0  0  0  0  0  0
    3.3162    2.8855   -3.0164 C   0  0  0  0  0  0  0  0  0  0  0  0
    3.5663    1.7402   -3.7948 C   0  0  0  0  0  0  0  0  0  0  0  0
    4.0399    1.9183   -5.0684 N   0  0  0  0  0  0  0  0  0  0  0  0
    4.2436    0.8534   -5.7845 C   0  0  0  0  0  0  0  0  0  0  0  0
    3.9452   -0.4728   -5.3632 C   0  0  0  0  0  0  0  0  0  0  0  0
    4.1043   -1.5666   -6.2652 C   0  0  0  0  0  0  0  0  0  0  0  0
    4.2251   -2.4812   -6.9702 N   0  0  0  0  0  0  0  0  0  0  0  0
    3.4335   -0.6972   -4.0721 C   0  0  0  0  0  0  0  0  0  0  0  0
    3.0618   -1.9588   -3.7019 N   0  0  0  0  0  0  0  0  0  0  0  0
    2.1074   -2.2858   -2.7003 C   0  0  0  0  0  0  0  0  0  0  0  0
    2.4153   -3.2489   -1.7394 C   0  0  0  0  0  0  0  0  0  0  0  0
    1.5467   -3.4655   -0.6772 C   0  0  0  0  0  0  0  0  0  0  0  0
    1.9500   -4.6604    0.5273 Cl  0  0  0  0  0  0  0  0  0  0  0  0
    0.3774   -2.6977   -0.5128 C   0  0  0  0  0  0  0  0  0  0  0  0
   -0.3469   -2.9057    0.5880 O   0  0  0  0  0  0  0  0  0  0  0  0
   -1.3258   -1.9215    0.9578 C   0  0  1  0  0  0  0  0  0  0  0  0
   -0.8947   -0.9297    0.7536 H   0  0  0  0  0  0  0  0  0  0  0  0
   -2.6941   -2.1665    0.3054 C   0  0  0  0  0  0  0  0  0  0  0  0
   -3.4987   -3.0247    1.2997 C   0  0  0  0  0  0  0  0  0  0  0  0
   -2.8477   -2.7079    2.6236 C   0  0  0  0  0  0  0  0  0  0  0  0
   -1.6145   -2.0847    2.4253 C   0  0  0  0  0  0  0  0  0  0  0  0
   -0.8211   -1.6757    3.4920 C   0  0  0  0  0  0  0  0  0  0  0  0
   -1.2947   -1.8827    4.7876 C   0  0  0  0  0  0  0  0  0  0  0  0
   -2.5267   -2.5090    4.9975 C   0  0  0  0  0  0  0  0  0  0  0  0
   -3.3064   -2.9339    3.9200 C   0  0  0  0  0  0  0  0  0  0  0  0
    0.0576   -1.7680   -1.5152 C   0  0  0  0  0  0  0  0  0  0  0  0
    0.8998   -1.5935   -2.6058 C   0  0  0  0  0  0  0  0  0  0  0  0
    3.3322    0.4567   -3.2186 C   0  0  0  0  0  0  0  0  0  0  0  0
    2.9629    0.4145   -1.8545 C   0  0  0  0  0  0  0  0  0  0  0  0
   -4.0698    0.6052    3.5165 N   0  0  0  0  0  0  0  0  0  0  0  0
   -4.9753   -0.0464    2.7645 C   0  0  0  0  0  0  0  0  0  0  0  0
   -6.1167   -0.6931    3.5243 C   0  0  0  0  0  0  0  0  0  0  0  0
   -4.9002   -0.1344    1.5446 O   0  0  0  0  0  0  0  0  0  0  0  0
   -2.3976    0.5057    2.2922 H   0  0  0  0  0  0  0  0  0  0  0  0
   -0.6469    1.5152    3.8807 N   0  0  0  0  0  0  0  0  0  0  0  0
    0.3339    1.7367    4.9076 C   0  0  0  0  0  0  0  0  0  0  0  0
   -4.0699    2.2692    1.5379 H   0  0  0  0  0  0  0  0  0  0  0  0
   -3.5729    3.2753    2.9193 H   0  0  0  0  0  0  0  0  0  0  0  0
   -2.3155    2.8226   -1.7443 H   0  0  0  0  0  0  0  0  0  0  0  0
   -3.5170    2.0672   -0.6928 H   0  0  0  0  0  0  0  0  0  0  0  0
   -3.7964   -0.7746   -2.6834 H   0  0  0  0  0  0  0  0  0  0  0  0
   -4.4471    0.8805   -2.8700 H   0  0  0  0  0  0  0  0  0  0  0  0
   -4.4155    0.0920   -1.2589 H   0  0  0  0  0  0  0  0  0  0  0  0
   -0.6923    1.0961   -2.8467 H   0  0  0  0  0  0  0  0  0  0  0  0
   -2.1090    1.5479   -3.8506 H   0  0  0  0  0  0  0  0  0  0  0  0
   -1.6745   -0.1726   -3.6273 H   0  0  0  0  0  0  0  0  0  0  0  0
    2.6994    0.6146    0.7266 H   0  0  0  0  0  0  0  0  0  0  0  0
    3.2945    3.7349    0.8064 H   0  0  0  0  0  0  0  0  0  0  0  0
    1.5237    3.7599    0.6153 H   0  0  0  0  0  0  0  0  0  0  0  0
    3.3858    6.1727    0.1396 H   0  0  0  0  0  0  0  0  0  0  0  0
    2.3226    5.9275    1.5571 H   0  0  0  0  0  0  0  0  0  0  0  0
    1.6117    6.1690   -0.0587 H   0  0  0  0  0  0  0  0  0  0  0  0
    3.4867    3.8633   -3.4665 H   0  0  0  0  0  0  0  0  0  0  0  0
    4.6438    0.9919   -6.7966 H   0  0  0  0  0  0  0  0  0  0  0  0
    3.2793   -2.6902   -4.3713 H   0  0  0  0  0  0  0  0  0  0  0  0
    3.3565   -3.7979   -1.7894 H   0  0  0  0  0  0  0  0  0  0  0  0
   -2.6039   -2.6143   -0.6940 H   0  0  0  0  0  0  0  0  0  0  0  0
   -3.1909   -1.1924    0.1980 H   0  0  0  0  0  0  0  0  0  0  0  0
   -3.4096   -4.1027    1.0807 H   0  0  0  0  0  0  0  0  0  0  0  0
   -4.5665   -2.7614    1.2843 H   0  0  0  0  0  0  0  0  0  0  0  0
    0.1233   -1.1649    3.2935 H   0  0  0  0  0  0  0  0  0  0  0  0
   -0.7102   -1.5389    5.6436 H   0  0  0  0  0  0  0  0  0  0  0  0
   -2.8869   -2.6585    6.0186 H   0  0  0  0  0  0  0  0  0  0  0  0
   -4.2666   -3.4270    4.0954 H   0  0  0  0  0  0  0  0  0  0  0  0
   -0.8329   -1.1398   -1.4282 H   0  0  0  0  0  0  0  0  0  0  0  0
    0.6532   -0.8391   -3.3536 H   0  0  0  0  0  0  0  0  0  0  0  0
    2.8329   -0.5376   -1.3486 H   0  0  0  0  0  0  0  0  0  0  0  0
   -4.1374    0.6649    4.5294 H   0  0  0  0  0  0  0  0  0  0  0  0
   -6.0080   -1.7839    3.4408 H   0  0  0  0  0  0  0  0  0  0  0  0
   -7.0641   -0.4134    3.0441 H   0  0  0  0  0  0  0  0  0  0  0  0
   -6.1439   -0.4203    4.5879 H   0  0  0  0  0  0  0  0  0  0  0  0
   -0.3008    1.2908    2.9238 H   0  0  0  0  0  0  0  0  0  0  0  0
    0.2799    0.9635    5.6933 H   0  0  0  0  0  0  0  0  0  0  0  0
    0.1953    2.7132    5.3990 H   0  0  0  0  0  0  0  0  0  0  0  0
    1.3274    1.7062    4.4422 H   0  0  0  0  0  0  0  0  0  0  0  0
   -1.7233    0.9466    0.5892 H   0  0  0  0  0  0  0  0  0  0  0  0
    0.2485    2.4531   -1.2118 H   0  0  0  0  0  0  0  0  0  0  0  0
  2  1  2  0  0  0  0
  3 53  1  6  0  0  0
  3 49  1  0  0  0  0
  3  2  1  0  0  0  0
  4 57  1  0  0  0  0
  4  3  1  0  0  0  0
  5  4  1  0  0  0  0
  6 95  1  1  0  0  0
  6  5  1  0  0  0  0
  7 59  1  0  0  0  0
  7  6  1  0  0  0  0
  8  7  1  0  0  0  0
  9  8  1  0  0  0  0
  9 62  1  0  0  0  0
 10 63  1  0  0  0  0
 10  8  1  0  0  0  0
 11  6  1  0  0  0  0
 11 12  1  0  0  0  0
 12 13  2  0  0  0  0
 14 12  1  0  0  0  0
 14 66  1  0  0  0  0
 15 14  1  0  0  0  0
 16 17  1  0  0  0  0
 16 15  1  0  0  0  0
 17 18  1  0  0  0  0
 18 19  1  0  0  0  0
 18 68  1  0  0  0  0
 18 67  1  0  0  0  0
 19 70  1  0  0  0  0
 20 16  2  0  0  0  0
 21 47  1  0  0  0  0
 21 20  1  0  0  0  0
 22 21  2  0  0  0  0
 23 24  2  0  0  0  0
 23 22  1  0  0  0  0
 24 27  1  0  0  0  0
 25 24  1  0  0  0  0
 26 25  3  0  0  0  0
 27 28  1  0  0  0  0
 27 47  2  0  0  0  0
 28 29  1  0  0  0  0
 29 46  2  0  0  0  0
 29 30  1  0  0  0  0
 30 31  2  0  0  0  0
 31 33  1  0  0  0  0
 31 32  1  0  0  0  0
 33 34  1  0  0  0  0
 34 35  1  0  0  0  0
 35 36  1  6  0  0  0
 35 40  1  0  0  0  0
 37 35  1  0  0  0  0
 37 38  1  0  0  0  0
 38 39  1  0  0  0  0
 39 44  1  0  0  0  0
 40 39  2  0  0  0  0
 40 41  1  0  0  0  0
 41 42  2  0  0  0  0
 42 43  1  0  0  0  0
 42 81  1  0  0  0  0
 43 82  1  0  0  0  0
 44 83  1  0  0  0  0
 44 43  2  0  0  0  0
 45 84  1  0  0  0  0
 45 33  2  0  0  0  0
 46 45  1  0  0  0  0
 47 48  1  0  0  0  0
 48 86  1  0  0  0  0
 48 15  2  0  0  0  0
 49 87  1  0  0  0  0
 50 49  1  0  0  0  0
 50 51  1  0  0  0  0
 51 90  1  0  0  0  0
 52 50  2  0  0  0  0
 54  2  1  0  0  0  0
 54 55  1  0  0  0  0
 55 93  1  0  0  0  0
 55 92  1  0  0  0  0
 56  4  1  0  0  0  0
 58  7  1  0  0  0  0
 60  9  1  0  0  0  0
 61  9  1  0  0  0  0
 64 10  1  0  0  0  0
 65 10  1  0  0  0  0
 69 19  1  0  0  0  0
 71 19  1  0  0  0  0
 72 20  1  0  0  0  0
 73 23  1  0  0  0  0
 74 28  1  0  0  0  0
 75 30  1  0  0  0  0
 76 37  1  0  0  0  0
 77 37  1  0  0  0  0
 78 38  1  0  0  0  0
 79 38  1  0  0  0  0
 80 41  1  0  0  0  0
 85 46  1  0  0  0  0
 88 51  1  0  0  0  0
 89 51  1  0  0  0  0
 91 54  1  0  0  0  0
 94 55  1  0  0  0  0
 96 11  1  0  0  0  0
M  END
