-1 1
 OpenBabel05232413483D

 93 96  0  0  1  0  0  0  0  0999 V2000
    2.3904   -0.7704   -2.4186 O   0  0  0  0  0  0  0  0  0  0  0  0
    2.8754   -0.8846   -3.5357 C   0  0  0  0  0  0  0  0  0  0  0  0
    2.6297    0.1452   -4.6277 C   0  0  2  0  0  0  0  0  0  0  0  0
    3.4509    1.4227   -4.2907 C   0  0  0  0  0  0  0  0  0  0  0  0
    2.8706    2.9292   -5.1292 S   0  0  0  0  0  1  0  0  0  0  0  0
    2.2839    2.8211   -0.1212 C   0  0  0  0  0  0  0  0  0  0  0  0
    2.5218    3.8188   -1.2148 C   0  0  0  0  0  0  0  0  0  0  0  0
    1.3186    4.5841   -1.4550 N   0  0  0  0  0  0  0  0  0  0  0  0
    0.9156    5.6447   -0.5368 C   0  0  0  0  0  0  0  0  0  0  0  0
    0.3854    6.4387   -1.7457 C   0  0  0  0  0  0  0  0  0  0  0  0
    1.2685    5.5023   -2.5947 C   0  0  0  0  0  0  0  0  0  0  0  0
    2.3641    1.4975   -0.2743 C   0  0  0  0  0  0  0  0  0  0  0  0
    1.8770    0.5851    0.7925 C   0  0  0  0  0  0  0  0  0  0  0  0
    1.6755    0.9538    1.9401 O   0  0  0  0  0  0  0  0  0  0  0  0
    1.6152   -0.6916    0.3404 N   0  0  0  0  0  0  0  0  0  0  0  0
    0.8536   -1.6488    0.9957 C   0  0  0  0  0  0  0  0  0  0  0  0
    0.5494   -2.8609    0.2706 C   0  0  0  0  0  0  0  0  0  0  0  0
    1.0862   -2.9118   -0.9538 O   0  0  0  0  0  0  0  0  0  0  0  0
    0.7467   -3.9370   -1.8728 C   0  0  0  0  0  0  0  0  0  0  0  0
   -0.6314   -3.7605   -2.4831 C   0  0  0  0  0  0  0  0  0  0  0  0
   -0.2186   -3.8472    0.8478 C   0  0  0  0  0  0  0  0  0  0  0  0
   -0.7663   -3.6800    2.1469 C   0  0  0  0  0  0  0  0  0  0  0  0
   -1.5426   -4.6680    2.6643 N   0  0  0  0  0  0  0  0  0  0  0  0
   -2.0944   -4.4756    3.8323 C   0  0  0  0  0  0  0  0  0  0  0  0
   -1.9600   -3.2730    4.5838 C   0  0  0  0  0  0  0  0  0  0  0  0
   -2.6594   -3.1324    5.8288 C   0  0  0  0  0  0  0  0  0  0  0  0
   -3.2458   -3.0703    6.8254 N   0  0  0  0  0  0  0  0  0  0  0  0
   -1.1714   -2.2485    4.0792 C   0  0  0  0  0  0  0  0  0  0  0  0
   -1.1189   -0.9846    4.7396 N   0  0  0  0  0  0  0  0  0  0  0  0
   -1.8280    0.0362    4.0430 C   0  0  0  0  0  0  0  0  0  0  0  0
   -3.1927   -0.1259    3.7915 C   0  0  0  0  0  0  0  0  0  0  0  0
   -3.8497    0.7525    2.9394 C   0  0  0  0  0  0  0  0  0  0  0  0
   -5.5303    0.4750    2.5597 Cl  0  0  0  0  0  0  0  0  0  0  0  0
   -3.1779    1.8169    2.3233 C   0  0  0  0  0  0  0  0  0  0  0  0
   -3.8417    2.5480    1.3991 O   0  0  0  0  0  0  0  0  0  0  0  0
   -3.1228    3.0011    0.2640 C   0  0  0  0  0  0  0  0  0  0  0  0
   -2.3457    1.9156   -0.4517 C   0  0  0  0  0  0  0  0  0  0  0  0
   -1.1718    2.2390   -1.1372 C   0  0  0  0  0  0  0  0  0  0  0  0
   -0.4423    1.2494   -1.7927 C   0  0  0  0  0  0  0  0  0  0  0  0
   -0.8514   -0.0806   -1.7334 C   0  0  0  0  0  0  0  0  0  0  0  0
   -2.0249   -0.4094   -1.0550 C   0  0  0  0  0  0  0  0  0  0  0  0
   -2.7788    0.5846   -0.4334 C   0  0  0  0  0  0  0  0  0  0  0  0
   -1.8428    2.0291    2.6701 C   0  0  0  0  0  0  0  0  0  0  0  0
   -1.1750    1.1540    3.5184 C   0  0  0  0  0  0  0  0  0  0  0  0
   -0.5074   -2.4675    2.8429 C   0  0  0  0  0  0  0  0  0  0  0  0
    0.3393   -1.4918    2.2612 C   0  0  0  0  0  0  0  0  0  0  0  0
    1.2385    0.4802   -4.7183 N   0  0  0  0  0  0  0  0  0  0  0  0
    0.2772   -0.4431   -4.8851 C   0  0  0  0  0  0  0  0  0  0  0  0
   -1.1157    0.0905   -5.1419 C   0  0  0  0  0  0  0  0  0  0  0  0
    0.5013   -1.6510   -4.8249 O   0  0  0  0  0  0  0  0  0  0  0  0
    2.9767   -0.2573   -5.5987 H   0  0  0  0  0  0  0  0  0  0  0  0
    3.7622   -1.8595   -3.8452 N   0  0  0  0  0  0  0  0  0  0  0  0
    4.1904   -2.8614   -2.9042 C   0  0  0  0  0  0  0  0  0  0  0  0
    3.4057    1.5572   -3.1967 H   0  0  0  0  0  0  0  0  0  0  0  0
    4.5022    1.2008   -4.5352 H   0  0  0  0  0  0  0  0  0  0  0  0
    2.7917    3.3233   -2.1608 H   0  0  0  0  0  0  0  0  0  0  0  0
    3.3723    4.4885   -0.9408 H   0  0  0  0  0  0  0  0  0  0  0  0
    1.7806    6.1509   -0.0538 H   0  0  0  0  0  0  0  0  0  0  0  0
    0.2018    5.3506    0.2532 H   0  0  0  0  0  0  0  0  0  0  0  0
    0.6054    7.5143   -1.7784 H   0  0  0  0  0  0  0  0  0  0  0  0
   -0.6884    6.2786   -1.9161 H   0  0  0  0  0  0  0  0  0  0  0  0
    2.2556    5.9537   -2.8211 H   0  0  0  0  0  0  0  0  0  0  0  0
    0.8730    5.0686   -3.5246 H   0  0  0  0  0  0  0  0  0  0  0  0
    1.8338   -0.8857   -0.6439 H   0  0  0  0  0  0  0  0  0  0  0  0
    0.8615   -4.9207   -1.3838 H   0  0  0  0  0  0  0  0  0  0  0  0
    1.5075   -3.8582   -2.6599 H   0  0  0  0  0  0  0  0  0  0  0  0
   -1.4113   -3.6704   -1.7129 H   0  0  0  0  0  0  0  0  0  0  0  0
   -0.8668   -4.6383   -3.1037 H   0  0  0  0  0  0  0  0  0  0  0  0
   -0.6408   -2.8793   -3.1399 H   0  0  0  0  0  0  0  0  0  0  0  0
   -0.4557   -4.7725    0.3251 H   0  0  0  0  0  0  0  0  0  0  0  0
   -2.7117   -5.2839    4.2403 H   0  0  0  0  0  0  0  0  0  0  0  0
   -0.1590   -0.7008    4.9126 H   0  0  0  0  0  0  0  0  0  0  0  0
   -3.7387   -0.9662    4.2214 H   0  0  0  0  0  0  0  0  0  0  0  0
   -2.4440    3.8308    0.5329 H   0  0  0  0  0  0  0  0  0  0  0  0
   -3.8977    3.4234   -0.3932 H   0  0  0  0  0  0  0  0  0  0  0  0
   -0.7785    3.2609   -1.1560 H   0  0  0  0  0  0  0  0  0  0  0  0
    0.4681    1.5107   -2.3335 H   0  0  0  0  0  0  0  0  0  0  0  0
   -0.2370   -0.8505   -2.2042 H   0  0  0  0  0  0  0  0  0  0  0  0
   -2.3539   -1.4501   -1.0016 H   0  0  0  0  0  0  0  0  0  0  0  0
   -3.6985    0.3185    0.0925 H   0  0  0  0  0  0  0  0  0  0  0  0
   -1.2839    2.8432    2.2073 H   0  0  0  0  0  0  0  0  0  0  0  0
   -0.1066    1.3054    3.6846 H   0  0  0  0  0  0  0  0  0  0  0  0
    0.5802   -0.5758    2.7845 H   0  0  0  0  0  0  0  0  0  0  0  0
    1.1039    1.4860   -4.9080 H   0  0  0  0  0  0  0  0  0  0  0  0
   -1.1555    1.1873   -5.1707 H   0  0  0  0  0  0  0  0  0  0  0  0
   -1.7842   -0.2687   -4.3473 H   0  0  0  0  0  0  0  0  0  0  0  0
   -1.4740   -0.3180   -6.0977 H   0  0  0  0  0  0  0  0  0  0  0  0
    4.0670   -1.9212   -4.8064 H   0  0  0  0  0  0  0  0  0  0  0  0
    3.6329   -2.7066   -1.9711 H   0  0  0  0  0  0  0  0  0  0  0  0
    5.2688   -2.7853   -2.6890 H   0  0  0  0  0  0  0  0  0  0  0  0
    3.9795   -3.8766   -3.2769 H   0  0  0  0  0  0  0  0  0  0  0  0
    1.9410    3.2044    0.8481 H   0  0  0  0  0  0  0  0  0  0  0  0
    2.6440    1.0528   -1.2318 H   0  0  0  0  0  0  0  0  0  0  0  0
  2  1  2  0  0  0  0
  3 51  1  6  0  0  0
  3  4  1  0  0  0  0
  3  2  1  0  0  0  0
  4 54  1  0  0  0  0
  5  4  1  0  0  0  0
  6 92  1  0  0  0  0
  7 57  1  0  0  0  0
  7  6  1  0  0  0  0
  8  7  1  0  0  0  0
  8  9  1  0  0  0  0
  9 58  1  0  0  0  0
  9 59  1  0  0  0  0
 10  9  1  0  0  0  0
 11 10  1  0  0  0  0
 11  8  1  0  0  0  0
 12  6  2  0  0  0  0
 12 13  1  0  0  0  0
 13 14  2  0  0  0  0
 15 13  1  0  0  0  0
 15 16  1  0  0  0  0
 16 46  1  0  0  0  0
 17 21  1  0  0  0  0
 17 16  2  0  0  0  0
 18 17  1  0  0  0  0
 19 65  1  0  0  0  0
 19 18  1  0  0  0  0
 20 19  1  0  0  0  0
 20 67  1  0  0  0  0
 21 22  2  0  0  0  0
 22 23  1  0  0  0  0
 22 45  1  0  0  0  0
 23 24  2  0  0  0  0
 24 71  1  0  0  0  0
 24 25  1  0  0  0  0
 25 26  1  0  0  0  0
 26 27  3  0  0  0  0
 28 25  2  0  0  0  0
 28 29  1  0  0  0  0
 29 72  1  0  0  0  0
 30 29  1  0  0  0  0
 31 30  1  0  0  0  0
 31 73  1  0  0  0  0
 32 31  2  0  0  0  0
 33 32  1  0  0  0  0
 34 43  2  0  0  0  0
 34 32  1  0  0  0  0
 35 34  1  0  0  0  0
 36 74  1  0  0  0  0
 36 35  1  0  0  0  0
 37 42  1  0  0  0  0
 37 36  1  0  0  0  0
 38 37  2  0  0  0  0
 39 40  2  0  0  0  0
 39 38  1  0  0  0  0
 40 41  1  0  0  0  0
 41 79  1  0  0  0  0
 41 42  2  0  0  0  0
 42 80  1  0  0  0  0
 43 44  1  0  0  0  0
 44 82  1  0  0  0  0
 44 30  2  0  0  0  0
 45 28  1  0  0  0  0
 46 83  1  0  0  0  0
 46 45  2  0  0  0  0
 47  3  1  0  0  0  0
 48 50  2  0  0  0  0
 48 47  1  0  0  0  0
 49 48  1  0  0  0  0
 49 86  1  0  0  0  0
 52  2  1  0  0  0  0
 52 53  1  0  0  0  0
 53 90  1  0  0  0  0
 53 89  1  0  0  0  0
 55  4  1  0  0  0  0
 56  7  1  0  0  0  0
 60 10  1  0  0  0  0
 61 10  1  0  0  0  0
 62 11  1  0  0  0  0
 63 11  1  0  0  0  0
 64 15  1  0  0  0  0
 66 19  1  0  0  0  0
 68 20  1  0  0  0  0
 69 20  1  0  0  0  0
 70 21  1  0  0  0  0
 75 36  1  0  0  0  0
 76 38  1  0  0  0  0
 77 39  1  0  0  0  0
 78 40  1  0  0  0  0
 81 43  1  0  0  0  0
 84 47  1  0  0  0  0
 85 49  1  0  0  0  0
 87 49  1  0  0  0  0
 88 52  1  0  0  0  0
 91 53  1  0  0  0  0
 93 12  1  0  0  0  0
M  END
