93
-1 1
O         2.390380   -0.770399   -2.418647
C         2.875438   -0.884625   -3.535708
C         2.629669    0.145210   -4.627747
C         3.450943    1.422703   -4.290685
S         2.870598    2.929186   -5.129183
C         2.283938    2.821112   -0.121170
C         2.521807    3.818839   -1.214813
N         1.318578    4.584121   -1.454966
C         0.915553    5.644711   -0.536808
C         0.385441    6.438727   -1.745657
C         1.268489    5.502292   -2.594718
C         2.364079    1.497511   -0.274291
C         1.877000    0.585098    0.792511
O         1.675529    0.953824    1.940087
N         1.615212   -0.691608    0.340408
C         0.853566   -1.648751    0.995675
C         0.549437   -2.860948    0.270561
O         1.086155   -2.911781   -0.953759
C         0.746696   -3.937042   -1.872848
C        -0.631438   -3.760511   -2.483144
C        -0.218574   -3.847208    0.847752
C        -0.766281   -3.679967    2.146875
N        -1.542584   -4.667961    2.664261
C        -2.094387   -4.475645    3.832291
C        -1.959975   -3.273031    4.583773
C        -2.659365   -3.132410    5.828801
N        -3.245781   -3.070284    6.825390
C        -1.171384   -2.248484    4.079248
N        -1.118893   -0.984640    4.739602
C        -1.828042    0.036208    4.043028
C        -3.192734   -0.125874    3.791458
C        -3.849747    0.752498    2.939405
Cl        -5.530349    0.474969    2.559734
C        -3.177877    1.816947    2.323286
O        -3.841692    2.547957    1.399085
C        -3.122846    3.001072    0.264009
C        -2.345732    1.915629   -0.451727
C        -1.171837    2.238989   -1.137187
C        -0.442280    1.249414   -1.792747
C        -0.851405   -0.080602   -1.733359
C        -2.024851   -0.409392   -1.055022
C        -2.778754    0.584596   -0.433361
C        -1.842751    2.029121    2.670062
C        -1.175004    1.154018    3.518414
C        -0.507447   -2.467462    2.842911
C         0.339310   -1.491845    2.261155
N         1.238486    0.480224   -4.718295
C         0.277167   -0.443104   -4.885108
C        -1.115736    0.090518   -5.141929
O         0.501326   -1.650981   -4.824894
H         2.976703   -0.257282   -5.598736
N         3.762232   -1.859494   -3.845214
C         4.190367   -2.861422   -2.904177
H         3.405655    1.557235   -3.196696
H         4.502167    1.200799   -4.535245
H         2.791650    3.323345   -2.160846
H         3.372299    4.488492   -0.940834
H         1.780597    6.150863   -0.053785
H         0.201757    5.350571    0.253238
H         0.605437    7.514276   -1.778402
H        -0.688441    6.278582   -1.916143
H         2.255576    5.953693   -2.821094
H         0.873040    5.068591   -3.524634
H         1.833832   -0.885692   -0.643857
H         0.861510   -4.920747   -1.383848
H         1.507506   -3.858247   -2.659918
H        -1.411320   -3.670357   -1.712918
H        -0.866849   -4.638297   -3.103675
H        -0.640794   -2.879265   -3.139881
H        -0.455659   -4.772456    0.325058
H        -2.711730   -5.283944    4.240347
H        -0.159037   -0.700807    4.912601
H        -3.738736   -0.966198    4.221440
H        -2.444042    3.830797    0.532860
H        -3.897668    3.423430   -0.393217
H        -0.778479    3.260858   -1.156006
H         0.468090    1.510711   -2.333518
H        -0.237042   -0.850508   -2.204215
H        -2.353872   -1.450073   -1.001623
H        -3.698516    0.318540    0.092502
H        -1.283870    2.843224    2.207348
H        -0.106602    1.305353    3.684622
H         0.580174   -0.575773    2.784490
H         1.103942    1.485963   -4.907958
H        -1.155536    1.187303   -5.170724
H        -1.784182   -0.268742   -4.347254
H        -1.473988   -0.318047   -6.097723
H         4.066975   -1.921191   -4.806367
H         3.632853   -2.706610   -1.971106
H         5.268813   -2.785269   -2.688953
H         3.979480   -3.876614   -3.276906
H         1.940966    3.204365    0.848080
H         2.644018    1.052774   -1.231812
