-1 1
 OpenBabel05232414493D

 93 96  0  0  1  0  0  0  0  0999 V2000
    5.9721   -4.6241    2.4743 O   0  0  0  0  0  0  0  0  0  0  0  0
    7.1175   -4.5557    2.8830 C   0  0  0  0  0  0  0  0  0  0  0  0
    8.0636   -3.3829    2.5814 C   0  0  2  0  0  0  0  0  0  0  0  0
    8.2883   -2.5696    3.9041 C   0  0  0  0  0  0  0  0  0  0  0  0
    8.2362   -0.7746    3.7881 S   0  0  0  0  0  1  0  0  0  0  0  0
    5.9658   -0.6360    4.2929 C   0  0  0  0  0  3  0  0  0  0  0  0
    5.6045    0.4105    3.2630 C   0  0  0  0  0  0  0  0  0  0  0  0
    4.2866    0.9432    3.5371 N   0  0  0  0  0  0  0  0  0  0  0  0
    4.0676    1.6660    4.7881 C   0  0  0  0  0  0  0  0  0  0  0  0
    3.0809    2.5827    4.0408 C   0  0  0  0  0  0  0  0  0  0  0  0
    3.7729    2.0683    2.7635 C   0  0  0  0  0  0  0  0  0  0  0  0
    5.3618   -1.8883    4.2379 C   0  0  0  0  0  3  0  0  0  0  0  0
    5.1581   -2.6832    5.4104 C   0  0  0  0  0  0  0  0  0  0  0  0
    5.3647   -2.3352    6.5768 O   0  0  0  0  0  0  0  0  0  0  0  0
    4.6563   -3.9735    5.1180 N   0  0  0  0  0  0  0  0  0  0  0  0
    4.2079   -4.9203    5.9961 C   0  0  0  0  0  0  0  0  0  0  0  0
    3.6270   -6.1170    5.4275 C   0  0  0  0  0  0  0  0  0  0  0  0
    3.5721   -6.0931    4.0834 O   0  0  0  0  0  0  0  0  0  0  0  0
    2.9925   -7.1485    3.3484 C   0  0  0  0  0  0  0  0  0  0  0  0
    1.4749   -7.0794    3.3442 C   0  0  0  0  0  0  0  0  0  0  0  0
    3.2127   -7.1558    6.2248 C   0  0  0  0  0  0  0  0  0  0  0  0
    3.2813   -7.0548    7.6415 C   0  0  0  0  0  0  0  0  0  0  0  0
    2.8463   -8.0969    8.3938 N   0  0  0  0  0  0  0  0  0  0  0  0
    2.8546   -7.9708    9.6948 C   0  0  0  0  0  0  0  0  0  0  0  0
    3.2576   -6.7831   10.3682 C   0  0  0  0  0  0  0  0  0  0  0  0
    3.1725   -6.7176   11.7992 C   0  0  0  0  0  0  0  0  0  0  0  0
    3.0807   -6.7173   12.9536 N   0  0  0  0  0  0  0  0  0  0  0  0
    3.6986   -5.6999    9.6203 C   0  0  0  0  0  0  0  0  0  0  0  0
    3.9722   -4.4484   10.2456 N   0  0  0  0  0  0  0  0  0  0  0  0
    2.9488   -3.4854   10.0162 C   0  0  0  0  0  0  0  0  0  0  0  0
    1.6402   -3.7655   10.4204 C   0  0  0  0  0  0  0  0  0  0  0  0
    0.6001   -2.9311   10.0339 C   0  0  0  0  0  0  0  0  0  0  0  0
   -1.0395   -3.3561   10.4597 Cl  0  0  0  0  0  0  0  0  0  0  0  0
    0.8294   -1.7839    9.2638 C   0  0  0  0  0  0  0  0  0  0  0  0
   -0.2463   -1.0913    8.8201 O   0  0  0  0  0  0  0  0  0  0  0  0
   -0.1460   -0.4070    7.5858 C   0  0  0  0  0  0  0  0  0  0  0  0
    0.4402   -1.2400    6.4655 C   0  0  0  0  0  0  0  0  0  0  0  0
    1.3221   -0.6567    5.5540 C   0  0  0  0  0  0  0  0  0  0  0  0
    1.9415   -1.4128    4.5600 C   0  0  0  0  0  0  0  0  0  0  0  0
    1.6758   -2.7793    4.4764 C   0  0  0  0  0  0  0  0  0  0  0  0
    0.7870   -3.3714    5.3743 C   0  0  0  0  0  0  0  0  0  0  0  0
    0.1663   -2.6073    6.3611 C   0  0  0  0  0  0  0  0  0  0  0  0
    2.1530   -1.4594    8.9602 C   0  0  0  0  0  0  0  0  0  0  0  0
    3.1998   -2.3024    9.3166 C   0  0  0  0  0  0  0  0  0  0  0  0
    3.7693   -5.8438    8.2087 C   0  0  0  0  0  0  0  0  0  0  0  0
    4.2547   -4.8116    7.3713 C   0  0  0  0  0  0  0  0  0  0  0  0
    7.5375   -2.5623    1.5390 N   0  0  0  0  0  0  0  0  0  0  0  0
    7.4880   -2.9781    0.2534 C   0  0  0  0  0  0  0  0  0  0  0  0
    6.8756   -1.9790   -0.7116 C   0  0  0  0  0  0  0  0  0  0  0  0
    7.8706   -4.0786   -0.1073 O   0  0  0  0  0  0  0  0  0  0  0  0
    9.0216   -3.8198    2.2451 H   0  0  0  0  0  0  0  0  0  0  0  0
    7.6673   -5.4955    3.6989 N   0  0  0  0  0  0  0  0  0  0  0  0
    6.9147   -6.5905    4.2556 C   0  0  0  0  0  0  0  0  0  0  0  0
    7.4900   -2.8477    4.6123 H   0  0  0  0  0  0  0  0  0  0  0  0
    9.2440   -2.8732    4.3543 H   0  0  0  0  0  0  0  0  0  0  0  0
    5.5966   -0.0401    2.2564 H   0  0  0  0  0  0  0  0  0  0  0  0
    6.3650    1.2231    3.2566 H   0  0  0  0  0  0  0  0  0  0  0  0
    4.9683    2.2237    5.1245 H   0  0  0  0  0  0  0  0  0  0  0  0
    3.7072    1.0524    5.6293 H   0  0  0  0  0  0  0  0  0  0  0  0
    3.1298    3.6601    4.2485 H   0  0  0  0  0  0  0  0  0  0  0  0
    2.0401    2.2377    4.1198 H   0  0  0  0  0  0  0  0  0  0  0  0
    4.5726    2.7625    2.4238 H   0  0  0  0  0  0  0  0  0  0  0  0
    3.1468    1.8030    1.8948 H   0  0  0  0  0  0  0  0  0  0  0  0
    4.6553   -4.2414    4.1355 H   0  0  0  0  0  0  0  0  0  0  0  0
    3.3532   -8.1203    3.7287 H   0  0  0  0  0  0  0  0  0  0  0  0
    3.3895   -7.0247    2.3315 H   0  0  0  0  0  0  0  0  0  0  0  0
    1.0604   -7.1944    4.3560 H   0  0  0  0  0  0  0  0  0  0  0  0
    1.0625   -7.8791    2.7111 H   0  0  0  0  0  0  0  0  0  0  0  0
    1.1407   -6.1117    2.9430 H   0  0  0  0  0  0  0  0  0  0  0  0
    2.7956   -8.0746    5.8147 H   0  0  0  0  0  0  0  0  0  0  0  0
    2.5113   -8.8241   10.2904 H   0  0  0  0  0  0  0  0  0  0  0  0
    4.8730   -4.0836    9.9493 H   0  0  0  0  0  0  0  0  0  0  0  0
    1.4196   -4.6618   11.0006 H   0  0  0  0  0  0  0  0  0  0  0  0
    0.4411    0.5225    7.7028 H   0  0  0  0  0  0  0  0  0  0  0  0
   -1.1803   -0.1087    7.3576 H   0  0  0  0  0  0  0  0  0  0  0  0
    1.5603    0.4073    5.6430 H   0  0  0  0  0  0  0  0  0  0  0  0
    2.6697   -0.9323    3.8998 H   0  0  0  0  0  0  0  0  0  0  0  0
    2.1900   -3.3917    3.7331 H   0  0  0  0  0  0  0  0  0  0  0  0
    0.5933   -4.4457    5.3214 H   0  0  0  0  0  0  0  0  0  0  0  0
   -0.5051   -3.0827    7.0807 H   0  0  0  0  0  0  0  0  0  0  0  0
    2.3747   -0.5801    8.3556 H   0  0  0  0  0  0  0  0  0  0  0  0
    4.2038   -2.0659    8.9556 H   0  0  0  0  0  0  0  0  0  0  0  0
    4.6813   -3.8973    7.7688 H   0  0  0  0  0  0  0  0  0  0  0  0
    7.4105   -1.5826    1.8015 H   0  0  0  0  0  0  0  0  0  0  0  0
    7.0010   -0.9379   -0.3808 H   0  0  0  0  0  0  0  0  0  0  0  0
    5.7980   -2.1881   -0.7924 H   0  0  0  0  0  0  0  0  0  0  0  0
    7.3277   -2.1153   -1.7020 H   0  0  0  0  0  0  0  0  0  0  0  0
    8.6033   -5.3284    4.0421 H   0  0  0  0  0  0  0  0  0  0  0  0
    5.9397   -6.6093    3.7543 H   0  0  0  0  0  0  0  0  0  0  0  0
    6.7413   -6.4633    5.3372 H   0  0  0  0  0  0  0  0  0  0  0  0
    7.4242   -7.5524    4.0873 H   0  0  0  0  0  0  0  0  0  0  0  0
    6.1304   -0.2478    5.3032 H   0  0  0  0  0  0  0  0  0  0  0  0
    5.0826   -2.3077    3.2677 H   0  0  0  0  0  0  0  0  0  0  0  0
  1  2  2  0  0  0  0
  2 52  1  0  0  0  0
  3 51  1  6  0  0  0
  3  2  1  0  0  0  0
  3  4  1  0  0  0  0
  4 55  1  0  0  0  0
  4 54  1  0  0  0  0
  5  4  1  0  0  0  0
  6 92  1  0  0  0  0
  7  8  1  0  0  0  0
  7  6  1  0  0  0  0
  8  9  1  0  0  0  0
  9 58  1  0  0  0  0
  9 59  1  0  0  0  0
 10 61  1  0  0  0  0
 10 60  1  0  0  0  0
 10  9  1  0  0  0  0
 11  8  1  0  0  0  0
 11 10  1  0  0  0  0
 12  6  1  0  0  0  0
 12 13  1  0  0  0  0
 13 14  2  0  0  0  0
 15 13  1  0  0  0  0
 15 16  1  0  0  0  0
 16 46  1  0  0  0  0
 17 16  2  0  0  0  0
 17 21  1  0  0  0  0
 18 17  1  0  0  0  0
 19 65  1  0  0  0  0
 19 18  1  0  0  0  0
 20 19  1  0  0  0  0
 20 67  1  0  0  0  0
 21 22  2  0  0  0  0
 22 45  1  0  0  0  0
 22 23  1  0  0  0  0
 23 24  2  0  0  0  0
 24 71  1  0  0  0  0
 24 25  1  0  0  0  0
 25 26  1  0  0  0  0
 26 27  3  0  0  0  0
 28 29  1  0  0  0  0
 28 25  2  0  0  0  0
 30 29  1  0  0  0  0
 30 31  1  0  0  0  0
 31 73  1  0  0  0  0
 32 31  2  0  0  0  0
 32 33  1  0  0  0  0
 34 32  1  0  0  0  0
 35 34  1  0  0  0  0
 36 74  1  0  0  0  0
 36 35  1  0  0  0  0
 37 36  1  0  0  0  0
 38 76  1  0  0  0  0
 38 37  2  0  0  0  0
 39 38  1  0  0  0  0
 40 39  2  0  0  0  0
 40 41  1  0  0  0  0
 41 42  2  0  0  0  0
 42 37  1  0  0  0  0
 42 80  1  0  0  0  0
 43 34  2  0  0  0  0
 43 44  1  0  0  0  0
 44 30  2  0  0  0  0
 45 28  1  0  0  0  0
 46 83  1  0  0  0  0
 46 45  2  0  0  0  0
 47 84  1  0  0  0  0
 47  3  1  0  0  0  0
 48 47  1  0  0  0  0
 49 85  1  0  0  0  0
 49 48  1  0  0  0  0
 50 48  2  0  0  0  0
 52 88  1  0  0  0  0
 52 53  1  0  0  0  0
 53 90  1  0  0  0  0
 56  7  1  0  0  0  0
 57  7  1  0  0  0  0
 62 11  1  0  0  0  0
 63 11  1  0  0  0  0
 64 15  1  0  0  0  0
 66 19  1  0  0  0  0
 68 20  1  0  0  0  0
 69 20  1  0  0  0  0
 70 21  1  0  0  0  0
 72 29  1  0  0  0  0
 75 36  1  0  0  0  0
 77 39  1  0  0  0  0
 78 40  1  0  0  0  0
 79 41  1  0  0  0  0
 81 43  1  0  0  0  0
 82 44  1  0  0  0  0
 86 49  1  0  0  0  0
 87 49  1  0  0  0  0
 89 53  1  0  0  0  0
 91 53  1  0  0  0  0
 93 12  1  0  0  0  0
M  END
