-1 1
 OpenBabel05192410563D

 61 63  0  0  1  0  0  0  0  0999 V2000
    4.3821    0.6308    3.7098 O   0  0  0  0  0  0  0  0  0  0  0  0
    3.5898   -0.2877    3.5858 C   0  0  0  0  0  0  0  0  0  0  0  0
    3.8206   -1.3781    2.5291 C   0  0  2  0  0  0  0  0  0  0  0  0
    3.7281   -0.7646    1.1288 C   0  0  0  0  0  0  0  0  0  0  0  0
    2.1223    0.0101    0.7406 S   0  0  0  0  0  0  0  0  0  0  0  0
    1.4359   -1.2484   -0.4867 C   0  0  1  0  0  0  0  0  0  0  0  0
    1.3220   -2.6466   -0.0174 C   0  0  1  0  0  3  0  0  0  0  0  0
   -0.1150   -3.3371    0.7844 S   0  0  0  0  0  0  0  0  0  0  0  0
    2.1856   -3.6518   -0.4904 C   0  0  0  0  0  0  0  0  0  0  0  0
    3.2431   -3.5631   -1.1228 O   0  0  0  0  0  0  0  0  0  0  0  0
    1.6736   -4.9291   -0.1049 N   0  0  0  0  0  0  0  0  0  0  0  0
    0.4814   -5.0027    0.5536 C   0  0  0  0  0  0  0  0  0  0  0  0
   -0.0750   -6.0049    0.9481 O   0  0  0  0  0  0  0  0  0  0  0  0
    0.1477   -0.6755   -1.0350 C   0  0  0  0  0  0  0  0  0  0  0  0
   -0.0836   -0.6764   -2.4136 C   0  0  0  0  0  0  0  0  0  0  0  0
   -1.2909   -0.2150   -2.9290 C   0  0  0  0  0  0  0  0  0  0  0  0
   -2.2698    0.2480   -2.0587 C   0  0  0  0  0  0  0  0  0  0  0  0
   -3.4859    0.6721   -2.5854 O   0  0  0  0  0  0  0  0  0  0  0  0
   -3.7023    1.9788   -2.7923 C   0  0  0  0  0  0  0  0  0  0  0  0
   -2.7313    2.9673   -2.5794 C   0  0  0  0  0  0  0  0  0  0  0  0
   -3.0345    4.3010   -2.8191 C   0  0  0  0  0  0  0  0  0  0  0  0
   -1.9718    5.3555   -2.5810 C   0  0  0  0  0  0  0  0  0  0  0  0
   -0.8311    4.8210   -2.1496 F   0  0  0  0  0  0  0  0  0  0  0  0
   -1.7014    6.0288   -3.7027 F   0  0  0  0  0  0  0  0  0  0  0  0
   -2.3707    6.2442   -1.6675 F   0  0  0  0  0  0  0  0  0  0  0  0
   -4.3113    4.6726   -3.2786 C   0  0  0  0  0  0  0  0  0  0  0  0
   -4.6738    6.0379   -3.5425 C   0  0  0  0  0  0  0  0  0  0  0  0
   -5.0111    7.1215   -3.7690 N   0  0  0  0  0  0  0  0  0  0  0  0
   -5.2716    3.6715   -3.4887 C   0  0  0  0  0  0  0  0  0  0  0  0
   -4.9754    2.3407   -3.2492 C   0  0  0  0  0  0  0  0  0  0  0  0
   -2.0856    0.2620   -0.6738 C   0  0  0  0  0  0  0  0  0  0  0  0
   -3.1699    0.7613    0.2417 C   0  0  0  0  0  0  0  0  0  0  0  0
   -0.8622   -0.2059   -0.1879 C   0  0  0  0  0  0  0  0  0  0  0  0
    2.9492   -2.5214    2.6533 N   0  0  0  0  0  0  0  0  0  0  0  0
    3.2523   -3.5398    3.5107 C   0  0  0  0  0  0  0  0  0  0  0  0
    2.3875   -4.7734    3.3650 C   0  0  0  0  0  0  0  0  0  0  0  0
    4.1545   -3.4582    4.3253 O   0  0  0  0  0  0  0  0  0  0  0  0
    4.8617   -1.7024    2.6935 H   0  0  0  0  0  0  0  0  0  0  0  0
    2.4565   -0.4171    4.3115 N   0  0  0  0  0  0  0  0  0  0  0  0
    2.0471    0.5455    5.2954 C   0  0  0  0  0  0  0  0  0  0  0  0
    4.4920    0.0190    1.0471 H   0  0  0  0  0  0  0  0  0  0  0  0
    3.9296   -1.5373    0.3702 H   0  0  0  0  0  0  0  0  0  0  0  0
    2.1849   -1.2706   -1.2913 H   0  0  0  0  0  0  0  0  0  0  0  0
    2.1777   -5.7733   -0.3472 H   0  0  0  0  0  0  0  0  0  0  0  0
    0.6886   -1.0537   -3.0876 H   0  0  0  0  0  0  0  0  0  0  0  0
   -1.4872   -0.2117   -4.0028 H   0  0  0  0  0  0  0  0  0  0  0  0
   -1.7395    2.6867   -2.2247 H   0  0  0  0  0  0  0  0  0  0  0  0
   -6.2634    3.9547   -3.8446 H   0  0  0  0  0  0  0  0  0  0  0  0
   -5.7159    1.5560   -3.4077 H   0  0  0  0  0  0  0  0  0  0  0  0
   -4.1351    0.2886    0.0065 H   0  0  0  0  0  0  0  0  0  0  0  0
   -3.3088    1.8508    0.1447 H   0  0  0  0  0  0  0  0  0  0  0  0
   -2.9231    0.5465    1.2897 H   0  0  0  0  0  0  0  0  0  0  0  0
   -0.6895   -0.2071    0.8919 H   0  0  0  0  0  0  0  0  0  0  0  0
    2.3027   -2.6847    1.8719 H   0  0  0  0  0  0  0  0  0  0  0  0
    1.3249   -4.5190    3.2439 H   0  0  0  0  0  0  0  0  0  0  0  0
    2.5290   -5.4141    4.2431 H   0  0  0  0  0  0  0  0  0  0  0  0
    2.6886   -5.3273    2.4633 H   0  0  0  0  0  0  0  0  0  0  0  0
    1.8550   -1.1937    4.0666 H   0  0  0  0  0  0  0  0  0  0  0  0
    1.1282    1.0735    4.9914 H   0  0  0  0  0  0  0  0  0  0  0  0
    2.8558    1.2814    5.3950 H   0  0  0  0  0  0  0  0  0  0  0  0
    1.8732    0.0710    6.2746 H   0  0  0  0  0  0  0  0  0  0  0  0
  2  1  2  0  0  0  0
  2 39  1  0  0  0  0
  3 34  1  0  0  0  0
  3 38  1  1  0  0  0
  3  2  1  0  0  0  0
  4  3  1  0  0  0  0
  5  4  1  0  0  0  0
  6 43  1  6  0  0  0
  6  5  1  0  0  0  0
  7  6  1  6  0  0  0
  7  8  1  0  0  0  0
  9 11  1  0  0  0  0
  9  7  1  0  0  0  0
 10  9  2  0  0  0  0
 11 12  1  0  0  0  0
 12  8  1  0  0  0  0
 12 13  2  0  0  0  0
 14  6  1  0  0  0  0
 14 33  1  0  0  0  0
 15 14  2  0  0  0  0
 16 15  1  0  0  0  0
 16 17  2  0  0  0  0
 17 31  1  0  0  0  0
 18 17  1  0  0  0  0
 19 18  1  0  0  0  0
 19 20  1  0  0  0  0
 20 47  1  0  0  0  0
 21 22  1  0  0  0  0
 21 20  2  0  0  0  0
 22 23  1  0  0  0  0
 22 25  1  0  0  0  0
 24 22  1  0  0  0  0
 26 21  1  0  0  0  0
 27 26  1  0  0  0  0
 28 27  3  0  0  0  0
 29 26  2  0  0  0  0
 29 30  1  0  0  0  0
 30 19  2  0  0  0  0
 31 33  2  0  0  0  0
 31 32  1  0  0  0  0
 32 52  1  0  0  0  0
 33 53  1  0  0  0  0
 34 35  1  0  0  0  0
 35 37  2  0  0  0  0
 36 35  1  0  0  0  0
 36 56  1  0  0  0  0
 39 40  1  0  0  0  0
 40 60  1  0  0  0  0
 40 61  1  0  0  0  0
 41  4  1  0  0  0  0
 42  4  1  0  0  0  0
 44 11  1  0  0  0  0
 45 15  1  0  0  0  0
 46 16  1  0  0  0  0
 48 29  1  0  0  0  0
 49 30  1  0  0  0  0
 50 32  1  0  0  0  0
 51 32  1  0  0  0  0
 54 34  1  0  0  0  0
 55 36  1  0  0  0  0
 57 36  1  0  0  0  0
 58 39  1  0  0  0  0
 59 40  1  0  0  0  0
M  END
