-1 1
 OpenBabel05232414493D

 61 62  0  0  1  0  0  0  0  0999 V2000
    3.6494   -2.1058    5.8578 O   0  0  0  0  0  0  0  0  0  0  0  0
    2.5795   -2.4358    5.3797 C   0  0  0  0  0  0  0  0  0  0  0  0
    2.4476   -3.6843    4.4934 C   0  0  2  0  0  0  0  0  0  0  0  0
    2.5107   -3.2943    3.0031 C   0  0  0  0  0  0  0  0  0  0  0  0
    0.9872   -2.5379    2.3375 S   0  0  0  0  0  1  0  0  0  0  0  0
    0.3500   -4.6372    0.8090 C   0  0  0  0  0  3  0  0  0  0  0  0
    0.4131   -5.8000    1.5230 C   0  0  2  0  0  3  0  0  0  0  0  0
   -0.8669   -6.5471    2.4991 S   0  0  0  0  0  0  0  0  0  0  0  0
    1.6560   -6.5655    1.6324 C   0  0  0  0  0  0  0  0  0  0  0  0
    2.7118   -6.3737    1.0661 O   0  0  0  0  0  0  0  0  0  0  0  0
    1.4626   -7.6399    2.5148 N   0  0  0  0  0  0  0  0  0  0  0  0
    0.2345   -7.8169    3.0973 C   0  0  0  0  0  0  0  0  0  0  0  0
   -0.0744   -8.6830    3.8761 O   0  0  0  0  0  0  0  0  0  0  0  0
   -0.8516   -3.9042    0.3752 C   0  0  0  0  0  0  0  0  0  0  0  0
   -0.8178   -3.2357   -0.8559 C   0  0  0  0  0  0  0  0  0  0  0  0
   -1.9192   -2.5158   -1.3037 C   0  0  0  0  0  0  0  0  0  0  0  0
   -3.0612   -2.4582   -0.5155 C   0  0  0  0  0  0  0  0  0  0  0  0
   -4.1527   -1.7297   -0.9714 O   0  0  0  0  0  0  0  0  0  0  0  0
   -4.3312   -0.4721   -0.5323 C   0  0  0  0  0  0  0  0  0  0  0  0
   -3.4250    0.1877    0.3095 C   0  0  0  0  0  0  0  0  0  0  0  0
   -3.6842    1.4881    0.7220 C   0  0  0  0  0  0  0  0  0  0  0  0
   -2.6965    2.1839    1.6396 C   0  0  0  0  0  0  0  0  0  0  0  0
   -1.6635    1.4043    1.9381 F   0  0  0  0  0  0  0  0  0  0  0  0
   -2.2175    3.2949    1.0725 F   0  0  0  0  0  0  0  0  0  0  0  0
   -3.2813    2.5412    2.7867 F   0  0  0  0  0  0  0  0  0  0  0  0
   -4.8485    2.1540    0.2971 C   0  0  0  0  0  0  0  0  0  0  0  0
   -5.1631    3.4992    0.6933 C   0  0  0  0  0  0  0  0  0  0  0  0
   -5.4622    4.5793    0.9821 N   0  0  0  0  0  0  0  0  0  0  0  0
   -5.7428    1.4809   -0.5484 C   0  0  0  0  0  0  0  0  0  0  0  0
   -5.4916    0.1828   -0.9595 C   0  0  0  0  0  0  0  0  0  0  0  0
   -3.1458   -3.1174    0.7152 C   0  0  0  0  0  0  0  0  0  0  0  0
   -4.3885   -3.0179    1.5575 C   0  0  0  0  0  0  0  0  0  0  0  0
   -2.0263   -3.8333    1.1375 C   0  0  0  0  0  0  0  0  0  0  0  0
    1.2473   -4.4493    4.7364 N   0  0  0  0  0  0  0  0  0  0  0  0
    1.0298   -5.1073    5.9049 C   0  0  0  0  0  0  0  0  0  0  0  0
   -0.3349   -5.7564    6.0461 C   0  0  0  0  0  0  0  0  0  0  0  0
    1.8767   -5.2006    6.7754 O   0  0  0  0  0  0  0  0  0  0  0  0
    3.3268   -4.2939    4.7482 H   0  0  0  0  0  0  0  0  0  0  0  0
    1.4286   -1.7250    5.5342 N   0  0  0  0  0  0  0  0  0  0  0  0
    1.4270   -0.4310    6.1632 C   0  0  0  0  0  0  0  0  0  0  0  0
    3.3665   -2.6168    2.8662 H   0  0  0  0  0  0  0  0  0  0  0  0
    2.7283   -4.2066    2.4270 H   0  0  0  0  0  0  0  0  0  0  0  0
    1.2632   -4.4170    0.2519 H   0  0  0  0  0  0  0  0  0  0  0  0
    2.2315   -8.2580    2.7467 H   0  0  0  0  0  0  0  0  0  0  0  0
    0.0926   -3.2653   -1.4578 H   0  0  0  0  0  0  0  0  0  0  0  0
   -1.9005   -1.9817   -2.2554 H   0  0  0  0  0  0  0  0  0  0  0  0
   -2.5182   -0.3187    0.6428 H   0  0  0  0  0  0  0  0  0  0  0  0
   -6.6470    1.9937   -0.8800 H   0  0  0  0  0  0  0  0  0  0  0  0
   -6.1825   -0.3498   -1.6140 H   0  0  0  0  0  0  0  0  0  0  0  0
   -5.2919   -3.2002    0.9569 H   0  0  0  0  0  0  0  0  0  0  0  0
   -4.4898   -2.0139    2.0015 H   0  0  0  0  0  0  0  0  0  0  0  0
   -4.3616   -3.7448    2.3799 H   0  0  0  0  0  0  0  0  0  0  0  0
   -2.0575   -4.3006    2.1228 H   0  0  0  0  0  0  0  0  0  0  0  0
    0.4886   -4.2781    4.0766 H   0  0  0  0  0  0  0  0  0  0  0  0
   -1.1018   -5.2782    5.4214 H   0  0  0  0  0  0  0  0  0  0  0  0
   -0.6284   -5.7143    7.1027 H   0  0  0  0  0  0  0  0  0  0  0  0
   -0.2667   -6.8152    5.7529 H   0  0  0  0  0  0  0  0  0  0  0  0
    0.7023   -1.9264    4.8486 H   0  0  0  0  0  0  0  0  0  0  0  0
    1.5013    0.3895    5.4280 H   0  0  0  0  0  0  0  0  0  0  0  0
    2.2981   -0.3733    6.8284 H   0  0  0  0  0  0  0  0  0  0  0  0
    0.5105   -0.2863    6.7560 H   0  0  0  0  0  0  0  0  0  0  0  0
  2 39  1  0  0  0  0
  2  1  2  0  0  0  0
  3 34  1  0  0  0  0
  3 38  1  1  0  0  0
  3  2  1  0  0  0  0
  4  3  1  0  0  0  0
  5  4  1  0  0  0  0
  7  6  1  1  0  0  0
  7  9  1  0  0  0  0
  7  8  1  0  0  0  0
  8 12  1  0  0  0  0
  9 11  1  0  0  0  0
 10  9  2  0  0  0  0
 11 44  1  0  0  0  0
 11 12  1  0  0  0  0
 12 13  2  0  0  0  0
 14  6  1  0  0  0  0
 14 33  1  0  0  0  0
 15 14  2  0  0  0  0
 16 15  1  0  0  0  0
 16 17  2  0  0  0  0
 17 31  1  0  0  0  0
 18 19  1  0  0  0  0
 18 17  1  0  0  0  0
 19 20  1  0  0  0  0
 20 47  1  0  0  0  0
 20 21  2  0  0  0  0
 21 22  1  0  0  0  0
 22 23  1  0  0  0  0
 22 25  1  0  0  0  0
 24 22  1  0  0  0  0
 26 27  1  0  0  0  0
 26 21  1  0  0  0  0
 27 28  3  0  0  0  0
 29 26  2  0  0  0  0
 30 29  1  0  0  0  0
 30 19  2  0  0  0  0
 31 33  2  0  0  0  0
 31 32  1  0  0  0  0
 32 51  1  0  0  0  0
 32 52  1  0  0  0  0
 33 53  1  0  0  0  0
 34 35  1  0  0  0  0
 35 36  1  0  0  0  0
 35 37  2  0  0  0  0
 36 56  1  0  0  0  0
 39 40  1  0  0  0  0
 40 61  1  0  0  0  0
 40 60  1  0  0  0  0
 41  4  1  0  0  0  0
 42  4  1  0  0  0  0
 43  6  1  0  0  0  0
 45 15  1  0  0  0  0
 46 16  1  0  0  0  0
 48 29  1  0  0  0  0
 49 30  1  0  0  0  0
 50 32  1  0  0  0  0
 54 34  1  0  0  0  0
 55 36  1  0  0  0  0
 57 36  1  0  0  0  0
 58 39  1  0  0  0  0
 59 40  1  0  0  0  0
M  END
