92
-1 1
O         4.028719   -7.368550    0.762281
C         3.254080   -6.690173    0.091894
C         1.726154   -6.745694    0.304540
C         1.371647   -6.441211    1.772020
S         0.919172   -4.710551    2.145649
C         2.146818   -3.588936    1.203388
C         3.006618   -2.784069    2.193014
N         4.325014   -3.347262    2.442762
C         4.310838   -4.625575    3.117679
C         5.179749   -2.400814    3.114014
C         1.429433   -2.742900    0.221393
C         1.167446   -3.189980   -1.057028
O         1.577199   -4.254339   -1.615054
N         0.326954   -2.381914   -1.911007
C        -0.722055   -1.676203   -1.285528
C        -1.785059   -2.387989   -0.630132
O        -1.739943   -3.711191   -0.772049
C        -2.458995   -4.540666    0.119497
C        -2.045469   -5.969311   -0.144671
C        -2.747748   -1.700725    0.082083
C        -2.727684   -0.287373    0.149782
N        -3.709402    0.327865    0.875114
C        -3.696202    1.626141    0.927639
C        -2.739739    2.464737    0.282256
C        -2.955867    3.875312    0.370792
N        -3.195266    5.005162    0.476848
C        -1.706254    1.861886   -0.456762
N        -0.740511    2.559258   -1.129472
C        -0.366447    3.901350   -0.900944
C         0.019286    4.307209    0.378914
C         0.286661    5.647222    0.622116
Cl         0.704794    6.159967    2.233371
C         0.213718    6.596973   -0.405907
O         0.431972    7.913760   -0.156451
C        -0.722218    8.631073    0.283942
C        -1.687586    8.894147   -0.846464
C        -2.802218    8.071588   -1.032017
C        -3.629739    8.302009   -2.125738
F        -4.694707    7.521066   -2.309231
C        -3.381590    9.317979   -3.040291
C        -2.263684   10.130021   -2.849623
C        -1.421568    9.920594   -1.761145
C        -0.093694    6.161897   -1.695890
C        -0.391632    4.827809   -1.944716
C        -1.701608    0.430848   -0.522926
C        -0.703510   -0.307891   -1.215977
N         1.157105   -7.991908   -0.200430
C         1.227673   -9.282253    0.247815
C         1.893640   -9.538986    1.582288
O         0.736834  -10.185513   -0.409027
H         1.283957   -5.959000   -0.326005
N         3.642860   -5.827276   -0.859259
C         5.035117   -5.492724   -1.018410
H         0.459798   -6.996208    2.034578
H         2.172778   -6.788939    2.439209
H         2.451875   -2.617970    3.145880
H         3.167764   -1.793019    1.743066
H         3.798189   -4.588054    4.105715
H         5.344872   -4.967825    3.277193
H         3.820340   -5.391954    2.506086
H         4.824590   -2.134398    4.138292
H         5.245737   -1.467217    2.533595
H         6.197579   -2.810634    3.212662
H        -0.004077   -3.009650   -2.639249
H        -3.545898   -4.405509   -0.035066
H        -2.211910   -4.249375    1.154846
H        -2.266185   -6.256154   -1.182970
H        -2.583058   -6.651050    0.530099
H        -0.968047   -6.081903    0.030195
H        -3.550828   -2.207209    0.615259
H        -4.490829    2.115697    1.503934
H        -0.204681    2.041859   -1.812784
H         0.068069    3.582390    1.192544
H        -0.334651    9.574648    0.690778
H        -1.220365    8.079841    1.098268
H        -3.022716    7.234455   -0.361945
H        -4.060432    9.458844   -3.882924
H        -2.053700   10.933373   -3.559187
H        -0.542597   10.553844   -1.618393
H        -0.138600    6.907226   -2.491183
H        -0.691718    4.504773   -2.943004
H         0.155857    0.170586   -1.689500
H         0.717615   -7.929402   -1.111564
H         1.223372   -9.233700    2.400032
H         2.833632   -8.977002    1.668226
H         2.071611  -10.617891    1.661537
H         2.914281   -5.178397   -1.240422
H         5.192609   -5.040111   -2.006960
H         5.654487   -6.395671   -0.926288
H         5.360375   -4.773968   -0.244219
H         0.989615   -1.807937    0.576258
H         2.811059   -4.283250    0.682446
