-1 1
 OpenBabel05192410563D

 92 95  0  0  1  0  0  0  0  0999 V2000
    4.0287   -7.3685    0.7623 O   0  0  0  0  0  0  0  0  0  0  0  0
    3.2541   -6.6902    0.0919 C   0  0  0  0  0  0  0  0  0  0  0  0
    1.7262   -6.7457    0.3045 C   0  0  2  0  0  0  0  0  0  0  0  0
    1.3716   -6.4412    1.7720 C   0  0  0  0  0  0  0  0  0  0  0  0
    0.9192   -4.7106    2.1456 S   0  0  0  0  0  0  0  0  0  0  0  0
    2.1468   -3.5889    1.2034 C   0  0  2  0  0  0  0  0  0  0  0  0
    3.0066   -2.7841    2.1930 C   0  0  0  0  0  0  0  0  0  0  0  0
    4.3250   -3.3473    2.4428 N   0  0  0  0  0  0  0  0  0  0  0  0
    4.3108   -4.6256    3.1177 C   0  0  0  0  0  0  0  0  0  0  0  0
    5.1797   -2.4008    3.1140 C   0  0  0  0  0  0  0  0  0  0  0  0
    1.4294   -2.7429    0.2214 C   0  0  0  0  0  3  0  0  0  0  0  0
    1.1674   -3.1900   -1.0570 C   0  0  0  0  0  0  0  0  0  0  0  0
    1.5772   -4.2543   -1.6151 O   0  0  0  0  0  0  0  0  0  0  0  0
    0.3270   -2.3819   -1.9110 N   0  0  0  0  0  0  0  0  0  0  0  0
   -0.7221   -1.6762   -1.2855 C   0  0  0  0  0  0  0  0  0  0  0  0
   -1.7851   -2.3880   -0.6301 C   0  0  0  0  0  0  0  0  0  0  0  0
   -1.7399   -3.7112   -0.7720 O   0  0  0  0  0  0  0  0  0  0  0  0
   -2.4590   -4.5407    0.1195 C   0  0  0  0  0  0  0  0  0  0  0  0
   -2.0455   -5.9693   -0.1447 C   0  0  0  0  0  0  0  0  0  0  0  0
   -2.7477   -1.7007    0.0821 C   0  0  0  0  0  0  0  0  0  0  0  0
   -2.7277   -0.2874    0.1498 C   0  0  0  0  0  0  0  0  0  0  0  0
   -3.7094    0.3279    0.8751 N   0  0  0  0  0  0  0  0  0  0  0  0
   -3.6962    1.6261    0.9276 C   0  0  0  0  0  0  0  0  0  0  0  0
   -2.7397    2.4647    0.2823 C   0  0  0  0  0  0  0  0  0  0  0  0
   -2.9559    3.8753    0.3708 C   0  0  0  0  0  0  0  0  0  0  0  0
   -3.1953    5.0052    0.4768 N   0  0  0  0  0  0  0  0  0  0  0  0
   -1.7063    1.8619   -0.4568 C   0  0  0  0  0  0  0  0  0  0  0  0
   -0.7405    2.5593   -1.1295 N   0  0  0  0  0  0  0  0  0  0  0  0
   -0.3664    3.9013   -0.9009 C   0  0  0  0  0  0  0  0  0  0  0  0
    0.0193    4.3072    0.3789 C   0  0  0  0  0  0  0  0  0  0  0  0
    0.2867    5.6472    0.6221 C   0  0  0  0  0  0  0  0  0  0  0  0
    0.7048    6.1600    2.2334 Cl  0  0  0  0  0  0  0  0  0  0  0  0
    0.2137    6.5970   -0.4059 C   0  0  0  0  0  0  0  0  0  0  0  0
    0.4320    7.9138   -0.1565 O   0  0  0  0  0  0  0  0  0  0  0  0
   -0.7222    8.6311    0.2839 C   0  0  0  0  0  0  0  0  0  0  0  0
   -1.6876    8.8941   -0.8465 C   0  0  0  0  0  0  0  0  0  0  0  0
   -2.8022    8.0716   -1.0320 C   0  0  0  0  0  0  0  0  0  0  0  0
   -3.6297    8.3020   -2.1257 C   0  0  0  0  0  0  0  0  0  0  0  0
   -4.6947    7.5211   -2.3092 F   0  0  0  0  0  0  0  0  0  0  0  0
   -3.3816    9.3180   -3.0403 C   0  0  0  0  0  0  0  0  0  0  0  0
   -2.2637   10.1300   -2.8496 C   0  0  0  0  0  0  0  0  0  0  0  0
   -1.4216    9.9206   -1.7611 C   0  0  0  0  0  0  0  0  0  0  0  0
   -0.0937    6.1619   -1.6959 C   0  0  0  0  0  0  0  0  0  0  0  0
   -0.3916    4.8278   -1.9447 C   0  0  0  0  0  0  0  0  0  0  0  0
   -1.7016    0.4308   -0.5229 C   0  0  0  0  0  0  0  0  0  0  0  0
   -0.7035   -0.3079   -1.2160 C   0  0  0  0  0  0  0  0  0  0  0  0
    1.1571   -7.9919   -0.2004 N   0  0  0  0  0  0  0  0  0  0  0  0
    1.2277   -9.2823    0.2478 C   0  0  0  0  0  0  0  0  0  0  0  0
    1.8936   -9.5390    1.5823 C   0  0  0  0  0  0  0  0  0  0  0  0
    0.7368  -10.1855   -0.4090 O   0  0  0  0  0  0  0  0  0  0  0  0
    1.2840   -5.9590   -0.3260 H   0  0  0  0  0  0  0  0  0  0  0  0
    3.6429   -5.8273   -0.8593 N   0  0  0  0  0  0  0  0  0  0  0  0
    5.0351   -5.4927   -1.0184 C   0  0  0  0  0  0  0  0  0  0  0  0
    0.4598   -6.9962    2.0346 H   0  0  0  0  0  0  0  0  0  0  0  0
    2.1728   -6.7889    2.4392 H   0  0  0  0  0  0  0  0  0  0  0  0
    2.4519   -2.6180    3.1459 H   0  0  0  0  0  0  0  0  0  0  0  0
    3.1678   -1.7930    1.7431 H   0  0  0  0  0  0  0  0  0  0  0  0
    3.7982   -4.5881    4.1057 H   0  0  0  0  0  0  0  0  0  0  0  0
    5.3449   -4.9678    3.2772 H   0  0  0  0  0  0  0  0  0  0  0  0
    3.8203   -5.3920    2.5061 H   0  0  0  0  0  0  0  0  0  0  0  0
    4.8246   -2.1344    4.1383 H   0  0  0  0  0  0  0  0  0  0  0  0
    5.2457   -1.4672    2.5336 H   0  0  0  0  0  0  0  0  0  0  0  0
    6.1976   -2.8106    3.2127 H   0  0  0  0  0  0  0  0  0  0  0  0
   -0.0041   -3.0097   -2.6392 H   0  0  0  0  0  0  0  0  0  0  0  0
   -3.5459   -4.4055   -0.0351 H   0  0  0  0  0  0  0  0  0  0  0  0
   -2.2119   -4.2494    1.1548 H   0  0  0  0  0  0  0  0  0  0  0  0
   -2.2662   -6.2562   -1.1830 H   0  0  0  0  0  0  0  0  0  0  0  0
   -2.5831   -6.6510    0.5301 H   0  0  0  0  0  0  0  0  0  0  0  0
   -0.9680   -6.0819    0.0302 H   0  0  0  0  0  0  0  0  0  0  0  0
   -3.5508   -2.2072    0.6153 H   0  0  0  0  0  0  0  0  0  0  0  0
   -4.4908    2.1157    1.5039 H   0  0  0  0  0  0  0  0  0  0  0  0
   -0.2047    2.0419   -1.8128 H   0  0  0  0  0  0  0  0  0  0  0  0
    0.0681    3.5824    1.1925 H   0  0  0  0  0  0  0  0  0  0  0  0
   -0.3347    9.5746    0.6908 H   0  0  0  0  0  0  0  0  0  0  0  0
   -1.2204    8.0798    1.0983 H   0  0  0  0  0  0  0  0  0  0  0  0
   -3.0227    7.2345   -0.3619 H   0  0  0  0  0  0  0  0  0  0  0  0
   -4.0604    9.4588   -3.8829 H   0  0  0  0  0  0  0  0  0  0  0  0
   -2.0537   10.9334   -3.5592 H   0  0  0  0  0  0  0  0  0  0  0  0
   -0.5426   10.5538   -1.6184 H   0  0  0  0  0  0  0  0  0  0  0  0
   -0.1386    6.9072   -2.4912 H   0  0  0  0  0  0  0  0  0  0  0  0
   -0.6917    4.5048   -2.9430 H   0  0  0  0  0  0  0  0  0  0  0  0
    0.1559    0.1706   -1.6895 H   0  0  0  0  0  0  0  0  0  0  0  0
    0.7176   -7.9294   -1.1116 H   0  0  0  0  0  0  0  0  0  0  0  0
    1.2234   -9.2337    2.4000 H   0  0  0  0  0  0  0  0  0  0  0  0
    2.8336   -8.9770    1.6682 H   0  0  0  0  0  0  0  0  0  0  0  0
    2.0716  -10.6179    1.6615 H   0  0  0  0  0  0  0  0  0  0  0  0
    2.9143   -5.1784   -1.2404 H   0  0  0  0  0  0  0  0  0  0  0  0
    5.1926   -5.0401   -2.0070 H   0  0  0  0  0  0  0  0  0  0  0  0
    5.6545   -6.3957   -0.9263 H   0  0  0  0  0  0  0  0  0  0  0  0
    5.3604   -4.7740   -0.2442 H   0  0  0  0  0  0  0  0  0  0  0  0
    0.9896   -1.8079    0.5763 H   0  0  0  0  0  0  0  0  0  0  0  0
    2.8111   -4.2832    0.6824 H   0  0  0  0  0  0  0  0  0  0  0  0
  2  3  1  0  0  0  0
  2  1  2  0  0  0  0
  3 51  1  6  0  0  0
  3  4  1  0  0  0  0
  4 54  1  0  0  0  0
  4  5  1  0  0  0  0
  4 55  1  0  0  0  0
  6 92  1  6  0  0  0
  6  5  1  0  0  0  0
  6  7  1  0  0  0  0
  7  8  1  0  0  0  0
  7 56  1  0  0  0  0
  8 10  1  0  0  0  0
  8  9  1  0  0  0  0
  9 59  1  0  0  0  0
  9 58  1  0  0  0  0
 10 63  1  0  0  0  0
 10 61  1  0  0  0  0
 11 91  1  0  0  0  0
 11  6  1  0  0  0  0
 12 11  1  0  0  0  0
 13 12  2  0  0  0  0
 14 15  1  0  0  0  0
 14 12  1  0  0  0  0
 15 46  2  0  0  0  0
 15 16  1  0  0  0  0
 16 20  2  0  0  0  0
 17 16  1  0  0  0  0
 17 18  1  0  0  0  0
 18 66  1  0  0  0  0
 19 69  1  0  0  0  0
 19 18  1  0  0  0  0
 19 68  1  0  0  0  0
 20 21  1  0  0  0  0
 20 70  1  0  0  0  0
 21 22  1  0  0  0  0
 22 23  2  0  0  0  0
 23 71  1  0  0  0  0
 24 25  1  0  0  0  0
 24 23  1  0  0  0  0
 25 26  3  0  0  0  0
 27 24  2  0  0  0  0
 28 29  1  0  0  0  0
 28 27  1  0  0  0  0
 29 30  1  0  0  0  0
 30 31  2  0  0  0  0
 30 73  1  0  0  0  0
 31 32  1  0  0  0  0
 33 34  1  0  0  0  0
 33 31  1  0  0  0  0
 34 35  1  0  0  0  0
 35 74  1  0  0  0  0
 35 75  1  0  0  0  0
 36 35  1  0  0  0  0
 37 36  1  0  0  0  0
 37 76  1  0  0  0  0
 38 37  2  0  0  0  0
 39 38  1  0  0  0  0
 40 41  2  0  0  0  0
 40 38  1  0  0  0  0
 41 42  1  0  0  0  0
 42 79  1  0  0  0  0
 42 36  2  0  0  0  0
 43 33  2  0  0  0  0
 44 43  1  0  0  0  0
 44 29  2  0  0  0  0
 45 27  1  0  0  0  0
 45 21  2  0  0  0  0
 46 45  1  0  0  0  0
 47 48  1  0  0  0  0
 47  3  1  0  0  0  0
 48 49  1  0  0  0  0
 49 86  1  0  0  0  0
 49 85  1  0  0  0  0
 49 84  1  0  0  0  0
 50 48  2  0  0  0  0
 52  2  1  0  0  0  0
 53 89  1  0  0  0  0
 53 52  1  0  0  0  0
 53 90  1  0  0  0  0
 57  7  1  0  0  0  0
 60  9  1  0  0  0  0
 62 10  1  0  0  0  0
 64 14  1  0  0  0  0
 65 18  1  0  0  0  0
 67 19  1  0  0  0  0
 72 28  1  0  0  0  0
 77 40  1  0  0  0  0
 78 41  1  0  0  0  0
 80 43  1  0  0  0  0
 81 44  1  0  0  0  0
 82 46  1  0  0  0  0
 83 47  1  0  0  0  0
 87 52  1  0  0  0  0
 88 53  1  0  0  0  0
M  END
