100
-1 1
O         1.414417    0.425575   -1.019310
C         1.140569    1.068762   -0.014596
C         1.347171    0.505439    1.396947
C         2.554158    1.209029    2.066643
S         2.386708    1.493620    3.853341
C         0.981391    2.786462    4.002180
C         1.515441    4.182826    3.651775
N         1.037619    5.225445    4.545170
C        -0.400021    5.416480    4.553106
C        -0.806359    6.342281    5.692523
C        -0.094610    7.691525    5.598865
C         1.407662    7.469080    5.470071
C         1.737309    6.480292    4.355226
O        -0.513103    8.426301    4.462756
C        -0.286111    2.442814    3.315421
C        -1.088589    1.412874    3.815517
O        -0.877399    0.768185    4.859829
N        -2.211158    0.930891    3.039625
C        -2.270570    1.005245    1.642440
C        -2.721219    2.216584    1.020096
O        -3.033540    3.218085    1.857971
C        -3.267299    4.513994    1.357572
C        -2.004187    5.196104    0.855937
C        -2.832783    2.283235   -0.351416
C        -2.470741    1.195829   -1.180065
N        -2.580692    1.386663   -2.529046
C        -2.230274    0.393388   -3.291946
C        -1.700670   -0.844713   -2.835605
C        -1.444760   -1.821879   -3.846823
N        -1.300591   -2.552696   -4.736023
C        -1.500964   -1.046472   -1.452314
N        -0.898177   -2.145637   -0.941771
C        -0.044915   -3.010216   -1.677468
C         1.077039   -2.493435   -2.329701
C         1.883799   -3.348212   -3.068823
Cl         3.268446   -2.701606   -3.913631
C         1.612309   -4.720891   -3.146062
O         2.396956   -5.554439   -3.880643
C         2.059761   -5.635720   -5.264997
C         0.780267   -6.401024   -5.496779
C        -0.440356   -5.727534   -5.607410
C        -1.629285   -6.444794   -5.740456
C        -1.610076   -7.838115   -5.766643
C        -0.395542   -8.517432   -5.655402
C         0.790769   -7.800460   -5.518272
C         0.521478   -5.225132   -2.436603
C        -0.305560   -4.378898   -1.708855
C        -1.986891    0.002686   -0.586676
C        -1.929287   -0.059513    0.830447
N         1.411864   -0.936777    1.258771
C         0.775410   -1.851433    2.049413
C         0.761267   -1.641760    3.532602
O         0.250843   -2.843785    1.539097
H         0.464717    0.794382    1.985239
N         0.683399    2.336761   -0.044553
C         0.510913    3.073238   -1.272136
H         3.457319    0.595208    1.934452
H         2.744089    2.171141    1.567683
H         1.268902    4.417422    2.586367
H         2.612736    4.180987    3.723564
H        -0.896994    4.441499    4.645572
H        -0.748128    5.859997    3.590437
H        -0.550799    5.866812    6.652936
H        -1.901207    6.491331    5.689603
H        -0.296682    8.278442    6.517908
H         1.786993    7.073194    6.425616
H         1.902046    8.434845    5.281148
H         2.820971    6.283115    4.350221
H         1.487680    6.944470    3.372794
H        -1.469297    8.354728    4.399240
H        -2.448303    0.017655    3.411862
H        -3.679194    5.069601    2.211866
H        -4.048417    4.493529    0.575748
H        -1.250146    5.226503    1.654843
H        -2.229072    6.229576    0.552429
H        -1.573276    4.674343   -0.009774
H        -3.195214    3.172853   -0.864469
H        -2.343948    0.525722   -4.374865
H        -0.762476   -2.258415    0.069889
H         1.302047   -1.426304   -2.260766
H         2.911233   -6.145855   -5.735973
H         1.984850   -4.621990   -5.692686
H        -0.478414   -4.635459   -5.557918
H        -2.574680   -5.902799   -5.814066
H        -2.542611   -8.398378   -5.870098
H        -0.374528   -9.609828   -5.673238
H         1.741649   -8.331765   -5.419206
H         0.323906   -6.296336   -2.495534
H        -1.173256   -4.768591   -1.175547
H        -1.583392   -0.967857    1.327277
H         1.458695   -1.211661    0.277733
H         0.359816   -2.549017    3.998552
H         0.144707   -0.779642    3.848054
H         1.770377   -1.426407    3.907565
H         0.342992    2.720102    0.834049
H         0.805544    4.122787   -1.125270
H        -0.527098    3.038236   -1.639681
H         1.152970    2.623057   -2.039746
H        -0.623322    3.060445    2.481802
H         0.871859    2.731473    5.098188
