-1 1
 OpenBabel05192410563D

100104  0  0  1  0  0  0  0  0999 V2000
    1.4144    0.4256   -1.0193 O   0  0  0  0  0  0  0  0  0  0  0  0
    1.1406    1.0688   -0.0146 C   0  0  0  0  0  0  0  0  0  0  0  0
    1.3472    0.5054    1.3969 C   0  0  2  0  0  0  0  0  0  0  0  0
    2.5542    1.2090    2.0666 C   0  0  0  0  0  0  0  0  0  0  0  0
    2.3867    1.4936    3.8533 S   0  0  0  0  0  0  0  0  0  0  0  0
    0.9814    2.7865    4.0022 C   0  0  1  0  0  0  0  0  0  0  0  0
    1.5154    4.1828    3.6518 C   0  0  0  0  0  0  0  0  0  0  0  0
    1.0376    5.2254    4.5452 N   0  0  0  0  0  0  0  0  0  0  0  0
   -0.4000    5.4165    4.5531 C   0  0  0  0  0  0  0  0  0  0  0  0
   -0.8064    6.3423    5.6925 C   0  0  0  0  0  0  0  0  0  0  0  0
   -0.0946    7.6915    5.5989 C   0  0  1  0  0  0  0  0  0  0  0  0
    1.4077    7.4691    5.4701 C   0  0  0  0  0  0  0  0  0  0  0  0
    1.7373    6.4803    4.3552 C   0  0  0  0  0  0  0  0  0  0  0  0
   -0.5131    8.4263    4.4628 O   0  0  0  0  0  0  0  0  0  0  0  0
   -0.2861    2.4428    3.3154 C   0  0  0  0  0  3  0  0  0  0  0  0
   -1.0886    1.4129    3.8155 C   0  0  0  0  0  0  0  0  0  0  0  0
   -0.8774    0.7682    4.8598 O   0  0  0  0  0  0  0  0  0  0  0  0
   -2.2112    0.9309    3.0396 N   0  0  0  0  0  0  0  0  0  0  0  0
   -2.2706    1.0052    1.6424 C   0  0  0  0  0  0  0  0  0  0  0  0
   -2.7212    2.2166    1.0201 C   0  0  0  0  0  0  0  0  0  0  0  0
   -3.0335    3.2181    1.8580 O   0  0  0  0  0  0  0  0  0  0  0  0
   -3.2673    4.5140    1.3576 C   0  0  0  0  0  0  0  0  0  0  0  0
   -2.0042    5.1961    0.8559 C   0  0  0  0  0  0  0  0  0  0  0  0
   -2.8328    2.2832   -0.3514 C   0  0  0  0  0  0  0  0  0  0  0  0
   -2.4707    1.1958   -1.1801 C   0  0  0  0  0  0  0  0  0  0  0  0
   -2.5807    1.3867   -2.5290 N   0  0  0  0  0  0  0  0  0  0  0  0
   -2.2303    0.3934   -3.2919 C   0  0  0  0  0  0  0  0  0  0  0  0
   -1.7007   -0.8447   -2.8356 C   0  0  0  0  0  0  0  0  0  0  0  0
   -1.4448   -1.8219   -3.8468 C   0  0  0  0  0  0  0  0  0  0  0  0
   -1.3006   -2.5527   -4.7360 N   0  0  0  0  0  0  0  0  0  0  0  0
   -1.5010   -1.0465   -1.4523 C   0  0  0  0  0  0  0  0  0  0  0  0
   -0.8982   -2.1456   -0.9418 N   0  0  0  0  0  0  0  0  0  0  0  0
   -0.0449   -3.0102   -1.6775 C   0  0  0  0  0  0  0  0  0  0  0  0
    1.0770   -2.4934   -2.3297 C   0  0  0  0  0  0  0  0  0  0  0  0
    1.8838   -3.3482   -3.0688 C   0  0  0  0  0  0  0  0  0  0  0  0
    3.2684   -2.7016   -3.9136 Cl  0  0  0  0  0  0  0  0  0  0  0  0
    1.6123   -4.7209   -3.1461 C   0  0  0  0  0  0  0  0  0  0  0  0
    2.3970   -5.5544   -3.8806 O   0  0  0  0  0  0  0  0  0  0  0  0
    2.0598   -5.6357   -5.2650 C   0  0  0  0  0  0  0  0  0  0  0  0
    0.7803   -6.4010   -5.4968 C   0  0  0  0  0  0  0  0  0  0  0  0
   -0.4404   -5.7275   -5.6074 C   0  0  0  0  0  0  0  0  0  0  0  0
   -1.6293   -6.4448   -5.7405 C   0  0  0  0  0  0  0  0  0  0  0  0
   -1.6101   -7.8381   -5.7666 C   0  0  0  0  0  0  0  0  0  0  0  0
   -0.3955   -8.5174   -5.6554 C   0  0  0  0  0  0  0  0  0  0  0  0
    0.7908   -7.8005   -5.5183 C   0  0  0  0  0  0  0  0  0  0  0  0
    0.5215   -5.2251   -2.4366 C   0  0  0  0  0  0  0  0  0  0  0  0
   -0.3056   -4.3789   -1.7089 C   0  0  0  0  0  0  0  0  0  0  0  0
   -1.9869    0.0027   -0.5867 C   0  0  0  0  0  0  0  0  0  0  0  0
   -1.9293   -0.0595    0.8304 C   0  0  0  0  0  0  0  0  0  0  0  0
    1.4119   -0.9368    1.2588 N   0  0  0  0  0  0  0  0  0  0  0  0
    0.7754   -1.8514    2.0494 C   0  0  0  0  0  0  0  0  0  0  0  0
    0.7613   -1.6418    3.5326 C   0  0  0  0  0  0  0  0  0  0  0  0
    0.2508   -2.8438    1.5391 O   0  0  0  0  0  0  0  0  0  0  0  0
    0.4647    0.7944    1.9852 H   0  0  0  0  0  0  0  0  0  0  0  0
    0.6834    2.3368   -0.0446 N   0  0  0  0  0  0  0  0  0  0  0  0
    0.5109    3.0732   -1.2721 C   0  0  0  0  0  0  0  0  0  0  0  0
    3.4573    0.5952    1.9345 H   0  0  0  0  0  0  0  0  0  0  0  0
    2.7441    2.1711    1.5677 H   0  0  0  0  0  0  0  0  0  0  0  0
    1.2689    4.4174    2.5864 H   0  0  0  0  0  0  0  0  0  0  0  0
    2.6127    4.1810    3.7236 H   0  0  0  0  0  0  0  0  0  0  0  0
   -0.8970    4.4415    4.6456 H   0  0  0  0  0  0  0  0  0  0  0  0
   -0.7481    5.8600    3.5904 H   0  0  0  0  0  0  0  0  0  0  0  0
   -0.5508    5.8668    6.6529 H   0  0  0  0  0  0  0  0  0  0  0  0
   -1.9012    6.4913    5.6896 H   0  0  0  0  0  0  0  0  0  0  0  0
   -0.2967    8.2784    6.5179 H   0  0  0  0  0  0  0  0  0  0  0  0
    1.7870    7.0732    6.4256 H   0  0  0  0  0  0  0  0  0  0  0  0
    1.9020    8.4348    5.2811 H   0  0  0  0  0  0  0  0  0  0  0  0
    2.8210    6.2831    4.3502 H   0  0  0  0  0  0  0  0  0  0  0  0
    1.4877    6.9445    3.3728 H   0  0  0  0  0  0  0  0  0  0  0  0
   -1.4693    8.3547    4.3992 H   0  0  0  0  0  0  0  0  0  0  0  0
   -2.4483    0.0177    3.4119 H   0  0  0  0  0  0  0  0  0  0  0  0
   -3.6792    5.0696    2.2119 H   0  0  0  0  0  0  0  0  0  0  0  0
   -4.0484    4.4935    0.5757 H   0  0  0  0  0  0  0  0  0  0  0  0
   -1.2501    5.2265    1.6548 H   0  0  0  0  0  0  0  0  0  0  0  0
   -2.2291    6.2296    0.5524 H   0  0  0  0  0  0  0  0  0  0  0  0
   -1.5733    4.6743   -0.0098 H   0  0  0  0  0  0  0  0  0  0  0  0
   -3.1952    3.1729   -0.8645 H   0  0  0  0  0  0  0  0  0  0  0  0
   -2.3439    0.5257   -4.3749 H   0  0  0  0  0  0  0  0  0  0  0  0
   -0.7625   -2.2584    0.0699 H   0  0  0  0  0  0  0  0  0  0  0  0
    1.3020   -1.4263   -2.2608 H   0  0  0  0  0  0  0  0  0  0  0  0
    2.9112   -6.1459   -5.7360 H   0  0  0  0  0  0  0  0  0  0  0  0
    1.9849   -4.6220   -5.6927 H   0  0  0  0  0  0  0  0  0  0  0  0
   -0.4784   -4.6355   -5.5579 H   0  0  0  0  0  0  0  0  0  0  0  0
   -2.5747   -5.9028   -5.8141 H   0  0  0  0  0  0  0  0  0  0  0  0
   -2.5426   -8.3984   -5.8701 H   0  0  0  0  0  0  0  0  0  0  0  0
   -0.3745   -9.6098   -5.6732 H   0  0  0  0  0  0  0  0  0  0  0  0
    1.7416   -8.3318   -5.4192 H   0  0  0  0  0  0  0  0  0  0  0  0
    0.3239   -6.2963   -2.4955 H   0  0  0  0  0  0  0  0  0  0  0  0
   -1.1733   -4.7686   -1.1755 H   0  0  0  0  0  0  0  0  0  0  0  0
   -1.5834   -0.9679    1.3273 H   0  0  0  0  0  0  0  0  0  0  0  0
    1.4587   -1.2117    0.2777 H   0  0  0  0  0  0  0  0  0  0  0  0
    0.3598   -2.5490    3.9986 H   0  0  0  0  0  0  0  0  0  0  0  0
    0.1447   -0.7796    3.8481 H   0  0  0  0  0  0  0  0  0  0  0  0
    1.7704   -1.4264    3.9076 H   0  0  0  0  0  0  0  0  0  0  0  0
    0.3430    2.7201    0.8340 H   0  0  0  0  0  0  0  0  0  0  0  0
    0.8055    4.1228   -1.1253 H   0  0  0  0  0  0  0  0  0  0  0  0
   -0.5271    3.0382   -1.6397 H   0  0  0  0  0  0  0  0  0  0  0  0
    1.1530    2.6231   -2.0397 H   0  0  0  0  0  0  0  0  0  0  0  0
   -0.6233    3.0604    2.4818 H   0  0  0  0  0  0  0  0  0  0  0  0
    0.8719    2.7315    5.0982 H   0  0  0  0  0  0  0  0  0  0  0  0
  1  2  2  0  0  0  0
  2  3  1  0  0  0  0
  3 54  1  1  0  0  0
  3  4  1  0  0  0  0
  4  5  1  0  0  0  0
  5  6  1  0  0  0  0
  6100  1  1  0  0  0
  7 60  1  0  0  0  0
  7  6  1  0  0  0  0
  7  8  1  0  0  0  0
  8  9  1  0  0  0  0
  9 61  1  0  0  0  0
  9 10  1  0  0  0  0
 10 63  1  0  0  0  0
 11 10  1  0  0  0  0
 11 65  1  1  0  0  0
 12 11  1  0  0  0  0
 12 66  1  0  0  0  0
 13  8  1  0  0  0  0
 13 12  1  0  0  0  0
 14 11  1  0  0  0  0
 15 16  1  0  0  0  0
 15  6  1  0  0  0  0
 16 17  2  0  0  0  0
 18 71  1  0  0  0  0
 18 16  1  0  0  0  0
 19 18  1  0  0  0  0
 20 19  1  0  0  0  0
 20 21  1  0  0  0  0
 22 21  1  0  0  0  0
 22 72  1  0  0  0  0
 23 22  1  0  0  0  0
 23 74  1  0  0  0  0
 24 20  2  0  0  0  0
 25 48  1  0  0  0  0
 25 24  1  0  0  0  0
 26 25  2  0  0  0  0
 27 28  2  0  0  0  0
 27 26  1  0  0  0  0
 28 31  1  0  0  0  0
 29 28  1  0  0  0  0
 30 29  3  0  0  0  0
 31 32  1  0  0  0  0
 31 48  2  0  0  0  0
 32 79  1  0  0  0  0
 33 32  1  0  0  0  0
 34 80  1  0  0  0  0
 34 33  2  0  0  0  0
 35 34  1  0  0  0  0
 36 35  1  0  0  0  0
 37 35  2  0  0  0  0
 37 46  1  0  0  0  0
 38 37  1  0  0  0  0
 39 38  1  0  0  0  0
 40 39  1  0  0  0  0
 41 83  1  0  0  0  0
 41 40  2  0  0  0  0
 42 41  1  0  0  0  0
 43 42  2  0  0  0  0
 43 44  1  0  0  0  0
 44 45  2  0  0  0  0
 45 40  1  0  0  0  0
 45 87  1  0  0  0  0
 46 47  2  0  0  0  0
 47 33  1  0  0  0  0
 47 89  1  0  0  0  0
 48 49  1  0  0  0  0
 49 90  1  0  0  0  0
 49 19  2  0  0  0  0
 50  3  1  0  0  0  0
 50 51  1  0  0  0  0
 51 52  1  0  0  0  0
 52 93  1  0  0  0  0
 52 94  1  0  0  0  0
 52 92  1  0  0  0  0
 53 51  2  0  0  0  0
 55  2  1  0  0  0  0
 55 95  1  0  0  0  0
 56 96  1  0  0  0  0
 56 55  1  0  0  0  0
 57  4  1  0  0  0  0
 58  4  1  0  0  0  0
 59  7  1  0  0  0  0
 62  9  1  0  0  0  0
 64 10  1  0  0  0  0
 67 12  1  0  0  0  0
 68 13  1  0  0  0  0
 69 13  1  0  0  0  0
 70 14  1  0  0  0  0
 73 22  1  0  0  0  0
 75 23  1  0  0  0  0
 76 23  1  0  0  0  0
 77 24  1  0  0  0  0
 78 27  1  0  0  0  0
 81 39  1  0  0  0  0
 82 39  1  0  0  0  0
 84 42  1  0  0  0  0
 85 43  1  0  0  0  0
 86 44  1  0  0  0  0
 88 46  1  0  0  0  0
 91 50  1  0  0  0  0
 97 56  1  0  0  0  0
 98 56  1  0  0  0  0
 99 15  1  0  0  0  0
M  END
