92
-1 1
O        -4.634496   -0.874434    3.219682
C        -4.010413   -1.869571    2.881759
C        -3.607948   -2.111837    1.420585
C        -4.883402   -2.174872    0.551606
S        -4.617170   -2.290053   -1.246345
C        -0.680811   -2.147908   -1.230417
C        -1.115079   -2.382416   -2.645352
N        -1.139269   -1.269422   -3.563492
C        -2.183244   -0.284151   -3.407695
C         0.115503   -0.755496   -4.027665
C        -0.410126   -0.945160   -0.706593
C        -0.186874   -0.753726    0.735314
O        -0.137722   -1.668238    1.554251
N        -0.028973    0.541169    1.160521
C        -0.267102    1.704468    0.388636
C        -1.604623    2.020089   -0.033947
O        -2.512269    1.100497    0.240712
C        -3.843793    1.155201   -0.292181
C        -4.809449    1.667315    0.754020
C        -1.828692    3.223297   -0.682579
C        -0.761144    4.085742   -1.022126
N        -1.076991    5.272444   -1.623738
C        -0.097070    6.058221   -1.962891
C         1.279403    5.739272   -1.814104
C         2.288014    6.620138   -2.308018
N         3.139417    7.309060   -2.692239
C         1.646447    4.515854   -1.226328
N         2.965023    4.161353   -1.146318
C         3.452934    2.824934   -1.185385
C         4.414222    2.408214   -0.269479
C         4.839984    1.079958   -0.231861
C         4.281694    0.148236   -1.112774
O         4.584088   -1.167978   -1.134522
C         5.390843   -1.717055   -0.120805
C         4.760891   -1.687087    1.255429
C         3.376683   -1.802399    1.413054
C         2.808042   -1.799510    2.686026
C         3.622572   -1.685332    3.812742
C         5.004346   -1.571138    3.664285
C         5.568871   -1.566646    2.389618
C         3.335812    0.572804   -2.056165
C         2.938953    1.898387   -2.102610
C         0.579555    3.698147   -0.729194
C         0.774762    2.519456    0.038905
N        -2.628506   -3.179624    1.282719
C        -2.706207   -4.446232    0.769602
C        -4.048752   -5.132751    0.709102
O        -1.684210   -5.022843    0.424189
H        -3.081937   -1.190538    1.121599
N        -3.645128   -2.844664    3.752995
C        -3.909408   -2.773710    5.162476
H        -5.524418   -2.996919    0.909633
H        -5.433772   -1.255835    0.803093
H        -2.138870   -2.793908   -2.550339
H        -0.502518   -3.197329   -3.073841
H        -2.497483    0.103459   -4.394069
H        -1.877377    0.597146   -2.799868
H        -3.055115   -0.735465   -2.907575
H         0.826509   -1.579617   -4.201270
H         0.605758   -0.033770   -3.333019
H        -0.021882   -0.226611   -4.987806
H         0.019651    0.637056    2.169279
H        -4.077457    0.120489   -0.600837
H        -3.846627    1.769160   -1.205705
H        -4.783646    1.018345    1.643461
H        -5.830324    1.643756    0.344328
H        -4.577842    2.702637    1.052629
H        -2.829701    3.552269   -0.955423
H        -0.356624    7.019295   -2.423235
H         3.622785    4.878573   -1.436085
H         4.804657    3.123707    0.457246
H         5.564957    0.777384    0.522800
H         6.381485   -1.225595   -0.099592
H         5.554531   -2.758747   -0.434969
H         2.729103   -1.890657    0.537032
H         1.721520   -1.882475    2.770363
H         3.177053   -1.683218    4.810319
H         5.646389   -1.476380    4.543440
H         6.652610   -1.463205    2.275504
H         2.907405   -0.167588   -2.733108
H         2.181568    2.212639   -2.824103
H         1.766188    2.216567    0.366525
H        -1.662737   -2.846975    1.313794
H        -4.594923   -4.734179   -0.163021
H        -4.644510   -4.950322    1.614937
H        -3.872139   -6.206989    0.577417
H        -3.041374   -3.563260    3.371132
H        -2.981919   -2.672150    5.751361
H        -4.449809   -3.665967    5.518484
H        -4.533480   -1.887345    5.338426
H        -0.663166   -3.040428   -0.591047
H        -0.438849   -0.056337   -1.335776
