-1 1
 OpenBabel05192410563D

 92 95  0  0  1  0  0  0  0  0999 V2000
   -5.0426   -1.2522    2.1774 O   0  0  0  0  0  0  0  0  0  0  0  0
   -4.0508   -1.9503    2.3371 C   0  0  0  0  0  0  0  0  0  0  0  0
   -3.0378   -2.2111    1.2178 C   0  0  2  0  0  0  0  0  0  0  0  0
   -3.6776   -2.0012   -0.1773 C   0  0  0  0  0  0  0  0  0  0  0  0
   -2.9633   -2.9110   -1.5639 S   0  0  0  0  0  0  0  0  0  0  0  0
   -1.1615   -2.2792   -1.6660 C   0  0  1  0  0  0  0  0  0  0  0  0
   -0.7889   -2.2466   -3.1654 C   0  0  0  0  0  0  0  0  0  0  0  0
   -1.0546   -1.0549   -3.9470 N   0  0  0  0  0  0  0  0  0  0  0  0
   -2.4164   -0.5941   -4.0150 C   0  0  0  0  0  0  0  0  0  0  0  0
   -0.0783    0.0020   -3.9182 C   0  0  0  0  0  0  0  0  0  0  0  0
   -0.8823   -1.0362   -0.9255 C   0  0  0  0  0  3  0  0  0  0  0  0
   -0.2634   -1.0657    0.3097 C   0  0  0  0  0  0  0  0  0  0  0  0
    0.1607   -2.0832    0.9343 O   0  0  0  0  0  0  0  0  0  0  0  0
   -0.0687    0.1758    1.0157 N   0  0  0  0  0  0  0  0  0  0  0  0
   -0.3096    1.4087    0.4020 C   0  0  0  0  0  0  0  0  0  0  0  0
   -1.6540    1.9076    0.3026 C   0  0  0  0  0  0  0  0  0  0  0  0
   -2.6022    1.1318    0.8353 O   0  0  0  0  0  0  0  0  0  0  0  0
   -3.9575    1.5487    0.8626 C   0  0  0  0  0  0  0  0  0  0  0  0
   -4.2312    2.5232    1.9947 C   0  0  0  0  0  0  0  0  0  0  0  0
   -1.8783    3.1290   -0.3020 C   0  0  0  0  0  0  0  0  0  0  0  0
   -0.8217    3.9028   -0.8413 C   0  0  0  0  0  0  0  0  0  0  0  0
   -1.1551    5.1121   -1.3842 N   0  0  0  0  0  0  0  0  0  0  0  0
   -0.1926    5.8355   -1.8769 C   0  0  0  0  0  0  0  0  0  0  0  0
    1.1670    5.4329   -1.9230 C   0  0  0  0  0  0  0  0  0  0  0  0
    2.1439    6.2734   -2.5356 C   0  0  0  0  0  0  0  0  0  0  0  0
    2.9672    6.9323   -3.0217 N   0  0  0  0  0  0  0  0  0  0  0  0
    1.5503    4.1853   -1.3904 C   0  0  0  0  0  0  0  0  0  0  0  0
    2.8612    3.8079   -1.4738 N   0  0  0  0  0  0  0  0  0  0  0  0
    3.3733    2.4833   -1.4089 C   0  0  0  0  0  0  0  0  0  0  0  0
    4.3245    2.1532   -0.4478 C   0  0  0  0  0  0  0  0  0  0  0  0
    4.7569    0.8367   -0.2915 C   0  0  0  0  0  0  0  0  0  0  0  0
    4.2152   -0.1703   -1.0980 C   0  0  0  0  0  0  0  0  0  0  0  0
    4.5240   -1.4806   -0.9987 O   0  0  0  0  0  0  0  0  0  0  0  0
    5.2820   -1.9398    0.0956 C   0  0  0  0  0  0  0  0  0  0  0  0
    4.5994   -1.7726    1.4363 C   0  0  0  0  0  0  0  0  0  0  0  0
    3.2139   -1.9133    1.5551 C   0  0  0  0  0  0  0  0  0  0  0  0
    2.5968   -1.7793    2.7984 C   0  0  0  0  0  0  0  0  0  0  0  0
    3.3596   -1.5062    3.9339 C   0  0  0  0  0  0  0  0  0  0  0  0
    4.7431   -1.3658    3.8229 C   0  0  0  0  0  0  0  0  0  0  0  0
    5.3576   -1.4937    2.5777 C   0  0  0  0  0  0  0  0  0  0  0  0
    3.2857    0.1673   -2.0915 C   0  0  0  0  0  0  0  0  0  0  0  0
    2.8840    1.4821   -2.2571 C   0  0  0  0  0  0  0  0  0  0  0  0
    0.5127    3.4064   -0.7730 C   0  0  0  0  0  0  0  0  0  0  0  0
    0.7169    2.1658   -0.1085 C   0  0  0  0  0  0  0  0  0  0  0  0
   -2.2401   -3.3990    1.4223 N   0  0  0  0  0  0  0  0  0  0  0  0
   -2.6432   -4.6985    1.2749 C   0  0  0  0  0  0  0  0  0  0  0  0
   -4.1321   -4.9614    1.1242 C   0  0  0  0  0  0  0  0  0  0  0  0
   -1.8458   -5.6179    1.2860 O   0  0  0  0  0  0  0  0  0  0  0  0
   -2.3314   -1.3779    1.3499 H   0  0  0  0  0  0  0  0  0  0  0  0
   -3.7131   -2.4937    3.5318 N   0  0  0  0  0  0  0  0  0  0  0  0
   -4.4698   -2.2829    4.7342 C   0  0  0  0  0  0  0  0  0  0  0  0
   -4.7382   -2.2914   -0.1666 H   0  0  0  0  0  0  0  0  0  0  0  0
   -3.6399   -0.9295   -0.4069 H   0  0  0  0  0  0  0  0  0  0  0  0
   -1.2712   -3.1062   -3.6707 H   0  0  0  0  0  0  0  0  0  0  0  0
    0.2976   -2.4274   -3.2220 H   0  0  0  0  0  0  0  0  0  0  0  0
   -2.5314    0.0961   -4.8700 H   0  0  0  0  0  0  0  0  0  0  0  0
   -2.7616   -0.0573   -3.1046 H   0  0  0  0  0  0  0  0  0  0  0  0
   -3.0977   -1.4451   -4.1576 H   0  0  0  0  0  0  0  0  0  0  0  0
    0.9354   -0.4259   -3.9667 H   0  0  0  0  0  0  0  0  0  0  0  0
   -0.1168    0.6530   -3.0198 H   0  0  0  0  0  0  0  0  0  0  0  0
   -0.2070    0.6488   -4.8055 H   0  0  0  0  0  0  0  0  0  0  0  0
    0.8122    0.1322    1.5186 H   0  0  0  0  0  0  0  0  0  0  0  0
   -4.5301    0.6256    1.0251 H   0  0  0  0  0  0  0  0  0  0  0  0
   -4.2444    1.9663   -0.1177 H   0  0  0  0  0  0  0  0  0  0  0  0
   -3.9732    2.0560    2.9559 H   0  0  0  0  0  0  0  0  0  0  0  0
   -5.3013    2.7782    2.0139 H   0  0  0  0  0  0  0  0  0  0  0  0
   -3.6549    3.4545    1.8930 H   0  0  0  0  0  0  0  0  0  0  0  0
   -2.8723    3.5662   -0.3756 H   0  0  0  0  0  0  0  0  0  0  0  0
   -0.4569    6.8124   -2.2998 H   0  0  0  0  0  0  0  0  0  0  0  0
    3.4891    4.5094   -1.8528 H   0  0  0  0  0  0  0  0  0  0  0  0
    4.6940    2.9302    0.2246 H   0  0  0  0  0  0  0  0  0  0  0  0
    5.4703    0.6030    0.4977 H   0  0  0  0  0  0  0  0  0  0  0  0
    6.2785   -1.4595    0.1097 H   0  0  0  0  0  0  0  0  0  0  0  0
    5.4416   -3.0081   -0.1136 H   0  0  0  0  0  0  0  0  0  0  0  0
    2.5743   -2.1244    0.6936 H   0  0  0  0  0  0  0  0  0  0  0  0
    1.5097   -1.8928    2.8254 H   0  0  0  0  0  0  0  0  0  0  0  0
    2.8753   -1.3996    4.9078 H   0  0  0  0  0  0  0  0  0  0  0  0
    5.3471   -1.1459    4.7069 H   0  0  0  0  0  0  0  0  0  0  0  0
    6.4419   -1.3679    2.4919 H   0  0  0  0  0  0  0  0  0  0  0  0
    2.8649   -0.6334   -2.7005 H   0  0  0  0  0  0  0  0  0  0  0  0
    2.1295    1.7316   -3.0055 H   0  0  0  0  0  0  0  0  0  0  0  0
    1.7127    1.7490   -0.0000 H   0  0  0  0  0  0  0  0  0  0  0  0
   -1.2269   -3.2225    1.3050 H   0  0  0  0  0  0  0  0  0  0  0  0
   -4.4087   -4.7875    0.0735 H   0  0  0  0  0  0  0  0  0  0  0  0
   -4.7595   -4.3190    1.7572 H   0  0  0  0  0  0  0  0  0  0  0  0
   -4.3150   -6.0150    1.3669 H   0  0  0  0  0  0  0  0  0  0  0  0
   -2.8718   -3.0594    3.5346 H   0  0  0  0  0  0  0  0  0  0  0  0
   -3.8752   -1.7632    5.5036 H   0  0  0  0  0  0  0  0  0  0  0  0
   -4.8321   -3.2337    5.1583 H   0  0  0  0  0  0  0  0  0  0  0  0
   -5.3354   -1.6582    4.4775 H   0  0  0  0  0  0  0  0  0  0  0  0
   -0.5935   -3.0947   -1.1963 H   0  0  0  0  0  0  0  0  0  0  0  0
   -1.2106   -0.0894   -1.3502 H   0  0  0  0  0  0  0  0  0  0  0  0
  1  2  2  0  0  0  0
  2 50  1  0  0  0  0
  3 49  1  1  0  0  0
  3 45  1  0  0  0  0
  3  2  1  0  0  0  0
  4 52  1  0  0  0  0
  4  3  1  0  0  0  0
  5  4  1  0  0  0  0
  6  5  1  0  0  0  0
  6 91  1  1  0  0  0
  6 11  1  0  0  0  0
  7  6  1  0  0  0  0
  8 10  1  0  0  0  0
  8  7  1  0  0  0  0
  9  8  1  0  0  0  0
  9 57  1  0  0  0  0
 10 60  1  0  0  0  0
 11 12  1  0  0  0  0
 12 13  2  0  0  0  0
 12 14  1  0  0  0  0
 14 62  1  0  0  0  0
 15 14  1  0  0  0  0
 16 15  1  0  0  0  0
 16 17  1  0  0  0  0
 17 18  1  0  0  0  0
 18 63  1  0  0  0  0
 18 19  1  0  0  0  0
 19 66  1  0  0  0  0
 19 65  1  0  0  0  0
 20 16  2  0  0  0  0
 21 43  1  0  0  0  0
 21 20  1  0  0  0  0
 22 21  2  0  0  0  0
 23 22  1  0  0  0  0
 24 23  2  0  0  0  0
 24 27  1  0  0  0  0
 25 24  1  0  0  0  0
 26 25  3  0  0  0  0
 27 43  2  0  0  0  0
 28 29  1  0  0  0  0
 28 27  1  0  0  0  0
 29 30  1  0  0  0  0
 30 31  2  0  0  0  0
 30 71  1  0  0  0  0
 31 72  1  0  0  0  0
 32 33  1  0  0  0  0
 32 31  1  0  0  0  0
 33 34  1  0  0  0  0
 34 73  1  0  0  0  0
 34 35  1  0  0  0  0
 35 36  2  0  0  0  0
 35 40  1  0  0  0  0
 36 37  1  0  0  0  0
 37 76  1  0  0  0  0
 37 38  2  0  0  0  0
 38 77  1  0  0  0  0
 39 38  1  0  0  0  0
 39 78  1  0  0  0  0
 40 39  2  0  0  0  0
 41 32  2  0  0  0  0
 42 41  1  0  0  0  0
 42 29  2  0  0  0  0
 43 44  1  0  0  0  0
 44 82  1  0  0  0  0
 44 15  2  0  0  0  0
 46 48  2  0  0  0  0
 46 45  1  0  0  0  0
 47 46  1  0  0  0  0
 47 86  1  0  0  0  0
 47 85  1  0  0  0  0
 50 87  1  0  0  0  0
 50 51  1  0  0  0  0
 51 89  1  0  0  0  0
 51 88  1  0  0  0  0
 53  4  1  0  0  0  0
 54  7  1  0  0  0  0
 55  7  1  0  0  0  0
 56  9  1  0  0  0  0
 58  9  1  0  0  0  0
 59 10  1  0  0  0  0
 61 10  1  0  0  0  0
 64 18  1  0  0  0  0
 67 19  1  0  0  0  0
 68 20  1  0  0  0  0
 69 23  1  0  0  0  0
 70 28  1  0  0  0  0
 74 34  1  0  0  0  0
 75 36  1  0  0  0  0
 79 40  1  0  0  0  0
 80 41  1  0  0  0  0
 81 42  1  0  0  0  0
 83 45  1  0  0  0  0
 84 47  1  0  0  0  0
 90 51  1  0  0  0  0
 92 11  1  0  0  0  0
M  END
