92
-1 1
O        -5.042583   -1.252183    2.177389
C        -4.050847   -1.950339    2.337064
C        -3.037752   -2.211112    1.217843
C        -3.677557   -2.001238   -0.177330
S        -2.963252   -2.910957   -1.563921
C        -1.161499   -2.279157   -1.666032
C        -0.788910   -2.246596   -3.165354
N        -1.054616   -1.054920   -3.946980
C        -2.416398   -0.594105   -4.014959
C        -0.078344    0.002020   -3.918208
C        -0.882317   -1.036152   -0.925543
C        -0.263422   -1.065661    0.309731
O         0.160716   -2.083207    0.934344
N        -0.068678    0.175813    1.015717
C        -0.309608    1.408666    0.402009
C        -1.653996    1.907609    0.302635
O        -2.602220    1.131781    0.835300
C        -3.957537    1.548722    0.862606
C        -4.231215    2.523230    1.994719
C        -1.878298    3.129034   -0.302036
C        -0.821730    3.902769   -0.841290
N        -1.155140    5.112068   -1.384243
C        -0.192589    5.835464   -1.876920
C         1.166961    5.432936   -1.923001
C         2.143862    6.273381   -2.535574
N         2.967161    6.932300   -3.021683
C         1.550319    4.185292   -1.390373
N         2.861212    3.807932   -1.473847
C         3.373289    2.483328   -1.408906
C         4.324470    2.153242   -0.447826
C         4.756934    0.836728   -0.291516
C         4.215184   -0.170328   -1.098009
O         4.523981   -1.480578   -0.998732
C         5.281982   -1.939834    0.095570
C         4.599433   -1.772582    1.436302
C         3.213880   -1.913343    1.555079
C         2.596831   -1.779321    2.798440
C         3.359607   -1.506208    3.933891
C         4.743063   -1.365828    3.822930
C         5.357569   -1.493714    2.577664
C         3.285672    0.167346   -2.091455
C         2.884012    1.482051   -2.257081
C         0.512705    3.406438   -0.772979
C         0.716873    2.165798   -0.108485
N        -2.240085   -3.398977    1.422309
C        -2.643200   -4.698490    1.274910
C        -4.132079   -4.961449    1.124203
O        -1.845827   -5.617895    1.286035
H        -2.331415   -1.377852    1.349923
N        -3.713106   -2.493660    3.531801
C        -4.469823   -2.282946    4.734227
H        -4.738229   -2.291404   -0.166599
H        -3.639867   -0.929457   -0.406916
H        -1.271160   -3.106185   -3.670695
H         0.297617   -2.427375   -3.222019
H        -2.531397    0.096073   -4.869975
H        -2.761569   -0.057316   -3.104587
H        -3.097716   -1.445124   -4.157588
H         0.935392   -0.425870   -3.966741
H        -0.116844    0.652951   -3.019778
H        -0.207035    0.648819   -4.805487
H         0.812228    0.132208    1.518593
H        -4.530065    0.625596    1.025075
H        -4.244388    1.966302   -0.117676
H        -3.973191    2.056035    2.955900
H        -5.301341    2.778185    2.013899
H        -3.654860    3.454544    1.892993
H        -2.872339    3.566195   -0.375582
H        -0.456906    6.812432   -2.299842
H         3.489106    4.509396   -1.852783
H         4.693972    2.930178    0.224595
H         5.470264    0.602986    0.497724
H         6.278544   -1.459458    0.109654
H         5.441599   -3.008129   -0.113611
H         2.574338   -2.124393    0.693564
H         1.509673   -1.892773    2.825376
H         2.875322   -1.399637    4.907753
H         5.347070   -1.145941    4.706895
H         6.441864   -1.367898    2.491942
H         2.864904   -0.633369   -2.700527
H         2.129459    1.731621   -3.005455
H         1.712675    1.749008   -0.000030
H        -1.226856   -3.222496    1.304965
H        -4.408675   -4.787481    0.073549
H        -4.759549   -4.318950    1.757207
H        -4.315002   -6.014990    1.366930
H        -2.871831   -3.059443    3.534630
H        -3.875229   -1.763213    5.503629
H        -4.832132   -3.233744    5.158284
H        -5.335438   -1.658189    4.477549
H        -0.593450   -3.094684   -1.196291
H        -1.210552   -0.089386   -1.350203
