91
-1 1
O         1.238614   -4.490904    5.281111
C         2.341118   -4.722418    4.800698
C         2.500316   -5.719861    3.638078
C         3.001683   -5.089123    2.320921
S         4.713622   -4.488448    2.366081
C         4.370129   -2.606824    2.517387
C         5.671809   -2.014307    2.954770
N         6.253561   -2.317808    4.165697
C         7.351943   -1.610371    4.222027
N         7.532490   -0.849333    3.107888
C         8.631056    0.039764    2.833147
C         6.454898   -1.103343    2.288777
C         3.721661   -2.032510    1.331793
C         2.348998   -1.795227    1.374693
O         1.557836   -1.969470    2.318978
N         1.812029   -1.222271    0.146373
C         0.469906   -1.045505   -0.069930
C        -0.438577   -2.156333    0.114357
O         0.130316   -3.328406    0.398887
C        -0.590897   -4.332048    1.085035
C        -0.983720   -3.915320    2.490308
C        -1.789094   -1.983067   -0.095882
C        -2.323627   -0.757124   -0.561287
N        -3.665058   -0.690953   -0.800336
C        -4.147085    0.432808   -1.244834
C        -3.377156    1.608416   -1.485055
C        -4.096679    2.788552   -1.857009
N        -4.751092    3.704583   -2.138707
C        -1.990838    1.563521   -1.261637
N        -1.158455    2.642638   -1.440236
C        -1.408671    3.742578   -2.286078
C        -1.410439    5.041816   -1.774311
C        -1.737378    6.109890   -2.596503
Cl        -1.776330    7.722364   -1.937481
C        -2.092751    5.911554   -3.940810
O        -2.490409    6.997632   -4.634037
C        -2.996101    6.857953   -5.936889
C        -4.313256    6.113272   -6.036381
C        -5.066735    5.782219   -4.908890
C        -6.262652    5.077872   -5.043941
C        -6.730163    4.720707   -6.306342
C        -5.988213    5.059937   -7.438683
C        -4.782778    5.743596   -7.301845
C        -2.037831    4.613206   -4.454685
C        -1.688321    3.544390   -3.638462
C        -1.437831    0.328837   -0.796739
C        -0.053192    0.144196   -0.544085
N         1.198688   -6.315902    3.456511
C         0.984906   -7.491092    2.825395
C        -0.474686   -7.904091    2.730024
O         1.874567   -8.161841    2.328635
H         3.218457   -6.502560    3.936546
N         3.474235   -4.154010    5.249115
C         3.439392   -3.044287    6.171873
H         2.942842   -5.869713    1.550921
H         2.355528   -4.249444    2.022014
H         8.066862   -1.597185    5.046305
H         9.312874    0.048464    3.694003
H         8.273355    1.066558    2.663158
H         9.194710   -0.288339    1.946402
H         6.313238   -0.612848    1.330338
H         2.413925   -0.527905   -0.275837
H         0.104228   -5.181834    1.128529
H        -1.467552   -4.651144    0.489519
H        -0.094035   -3.587411    3.045484
H        -1.460486   -4.763643    3.006229
H        -1.699651   -3.080953    2.480171
H        -2.493503   -2.803885    0.034474
H        -5.226698    0.483029   -1.431531
H        -0.278913    2.622483   -0.943388
H        -1.204023    5.215488   -0.717761
H        -2.244668    6.383365   -6.595486
H        -3.126456    7.890475   -6.293692
H        -4.713035    6.032781   -3.907955
H        -6.809529    4.792100   -4.143695
H        -7.665698    4.166391   -6.409469
H        -6.342982    4.777850   -8.432797
H        -4.194941    5.988950   -8.191901
H        -2.309089    4.421420   -5.492280
H        -1.677014    2.530871   -4.043244
H         0.655088    0.960654   -0.703695
H         0.459908   -5.826684    3.957098
H        -0.854944   -7.618661    1.737009
H        -1.108422   -7.431519    3.493582
H        -0.540506   -8.996432    2.812881
H         4.324327   -4.303307    4.702506
H         4.410014   -2.534734    6.120721
H         3.249945   -3.379005    7.205156
H         2.642616   -2.338193    5.891023
H         4.260773   -1.987782    0.381165
H         3.659234   -2.535729    3.352308
