91
-1 1
O         2.189207   -3.788527    5.836395
C         2.830469   -4.022505    4.814239
C         2.376270   -5.122861    3.836796
C         2.322337   -4.667008    2.366994
S         3.928951   -4.472957    1.517363
C         4.706331   -0.069085    1.898248
C         5.931622   -0.550383    2.522852
N         6.762168    0.255146    3.266470
C         7.696588   -0.537148    3.721751
N         7.528852   -1.828404    3.307697
C         8.352594   -2.968722    3.632924
C         6.404928   -1.849825    2.532492
C         3.799261   -0.900012    1.361208
C         2.547932   -0.420761    0.741933
O         2.237734    0.755752    0.623266
N         1.751868   -1.464914    0.312935
C         0.493041   -1.378565   -0.265269
C        -0.181728   -2.623876   -0.520761
O         0.520103   -3.702754   -0.163930
C        -0.052287   -5.000790   -0.156694
C        -1.021189   -5.199851    0.995116
C        -1.429112   -2.629026   -1.102406
C        -2.081285   -1.420301   -1.450231
N        -3.311380   -1.506436   -2.037446
C        -3.901898   -0.391249   -2.349839
C        -3.373902    0.914414   -2.119845
C        -4.222806    2.007907   -2.486015
N        -4.989495    2.818471   -2.805344
C        -2.108260    1.033716   -1.516741
N        -1.502323    2.219166   -1.226377
C        -1.919947    3.488710   -1.699627
C        -2.594703    4.366987   -0.850199
C        -3.090453    5.562258   -1.346107
Cl        -3.975216    6.632449   -0.296301
C        -2.930652    5.907580   -2.699610
O        -3.514093    7.049847   -3.106701
C        -3.500192    7.409472   -4.465071
C        -4.320499    6.511148   -5.369425
C        -5.187037    5.541917   -4.861443
C        -5.915094    4.727412   -5.728156
C        -5.802340    4.887790   -7.107113
C        -4.944874    5.861855   -7.620775
C        -4.202738    6.661973   -6.755710
C        -2.205048    5.045395   -3.526689
C        -1.701750    3.849774   -3.027317
C        -1.432121   -0.189938   -1.180467
C        -0.137803   -0.198804   -0.597930
N         1.074888   -5.540375    4.320857
C         0.402194   -6.635789    3.908313
C        -0.939380   -6.849551    4.593794
O         0.782741   -7.385651    3.023125
H         3.089716   -5.964711    3.896135
N         3.946228   -3.365700    4.459596
C         4.445361   -2.241058    5.208586
H         1.755062   -5.447485    1.847750
H         1.725957   -3.737673    2.320454
H         8.533918   -0.246158    4.357513
H         9.110196   -2.668853    4.368701
H         8.859607   -3.355872    2.737146
H         7.737007   -3.771786    4.062616
H         5.998732   -2.765199    2.095915
H         2.119896   -2.410939    0.442350
H         0.809535   -5.672219   -0.053495
H        -0.524615   -5.206431   -1.133238
H        -0.537266   -4.904685    1.936734
H        -1.283783   -6.264553    1.072897
H        -1.941926   -4.611305    0.872067
H        -1.962873   -3.554177   -1.313870
H        -4.890345   -0.459113   -2.820497
H        -0.642991    2.174637   -0.694107
H        -2.772633    4.092166    0.189672
H        -2.460866    7.475474   -4.837209
H        -3.911911    8.429437   -4.483550
H        -5.277228    5.379493   -3.786519
H        -6.556972    3.951730   -5.306424
H        -6.372318    4.247136   -7.783792
H        -4.843946    5.990577   -8.700998
H        -3.518352    7.412029   -7.164253
H        -2.068908    5.281394   -4.581427
H        -1.169091    3.162389   -3.686623
H         0.420394    0.710266   -0.387217
H         0.781643   -5.023361    5.147483
H        -1.105964   -7.927804    4.713041
H        -1.732446   -6.456963    3.938735
H        -1.015284   -6.349833    5.569826
H         4.301512   -3.569355    3.508089
H         4.212063   -1.284860    4.712516
H         5.539352   -2.301605    5.319851
H         3.980149   -2.246064    6.202674
H         3.949792   -1.990437    1.385797
H         4.532888    1.011315    1.898957
