65
-1 1
O        -0.006608   -4.483415    3.349076
C         0.603093   -3.603081    2.766764
C         0.498763   -3.377403    1.245816
C        -0.067047   -2.000712    0.833680
S        -1.869171   -1.851286    0.946805
C        -1.963803   -0.540658    3.138799
C        -1.002523    0.449769    3.119932
S         0.659592    0.425765    3.780214
C        -1.228766    1.683039    2.385749
O        -2.231776    2.047234    1.806733
N        -0.067364    2.484971    2.434640
C         1.033029    2.035796    3.110581
O         2.086029    2.609899    3.246213
C        -2.064281   -1.644969    4.128884
C        -2.921139   -2.730938    3.914277
C        -3.033545   -3.741997    4.860337
C        -2.293988   -3.686549    6.031504
O        -2.401618   -4.685692    6.976309
C        -1.344938   -5.500024    7.176420
C        -1.314049   -6.186632    8.396453
C        -0.274849   -7.056842    8.683550
C        -0.253507   -7.777295   10.012465
F        -1.313202   -7.465499   10.766207
F        -0.261096   -9.104231    9.854055
F         0.836986   -7.469300   10.721466
C         0.757404   -7.255358    7.743603
C         1.861746   -8.139789    7.994704
N         2.764817   -8.842601    8.169951
C         0.701774   -6.567518    6.524018
C        -0.337316   -5.694258    6.229172
C        -1.454534   -2.594680    6.288143
O        -0.767683   -2.632676    7.452135
C         0.049701   -1.541683    7.809841
C         0.732280   -1.885750    9.114991
C        -1.359338   -1.576991    5.339960
N        -0.270132   -4.425350    0.645589
C         0.218193   -5.682369    0.507911
C        -0.820339   -6.728560    0.150590
O         1.394284   -5.962041    0.665650
H         1.532762   -3.464146    0.870417
N         1.484133   -2.788135    3.397227
H         0.396139   -1.202796    1.439015
H         0.239888   -1.819422   -0.207898
H        -0.052155    3.386747    1.973217
H        -2.114519   -6.010946    9.113671
H         1.488336   -6.723694    5.783617
H        -0.352215   -5.180901    5.260501
H        -0.565016   -0.628248    7.910778
H         0.796112   -1.346139    7.020213
H         1.347243   -2.789881    8.999181
H        -0.011580   -2.075208    9.902112
H         1.380999   -1.057782    9.435120
H        -0.740121   -0.707279    5.551228
H        -1.272883   -4.238261    0.635680
H        -1.629001   -6.320605   -0.472429
H        -1.262352   -7.108138    1.084625
H        -0.328029   -7.561104   -0.366633
H        -3.453781   -2.804812    2.967158
H        -3.677068   -4.606383    4.690028
H         1.924799   -2.048300    2.867528
C         1.837054   -2.942077    4.784168
H         0.950115   -3.206869    5.374119
H         2.242502   -1.993824    5.163098
H         2.592163   -3.733126    4.933969
H        -2.907171   -0.207138    2.703425
