65
-1 1
O         0.603231   -1.184768   -1.636467
C         1.055347   -0.204198   -2.204146
C         0.780930    0.052119   -3.702254
C         0.421390    1.489311   -4.121295
S        -1.313311    1.999467   -3.955448
C        -1.451684    2.700096   -2.194882
C        -0.567416    3.837267   -1.894142
S         1.157001    3.795643   -1.420353
C        -0.977303    5.153252   -2.170398
O        -2.065580    5.587535   -2.554962
N         0.113400    6.056383   -1.936456
C         1.321309    5.570247   -1.557163
O         2.338627    6.189820   -1.327640
C        -1.579207    1.581532   -1.165954
C        -2.337227    0.432874   -1.415420
C        -2.469331   -0.558183   -0.446651
C        -1.841717   -0.418177    0.779576
O        -1.987335   -1.384178    1.755182
C        -0.915183   -2.117034    2.113829
C        -0.987217   -2.748917    3.361812
C         0.058781   -3.539952    3.808150
C        -0.035532   -4.203772    5.163227
F        -1.190284   -3.924309    5.776273
F         0.045802   -5.534364    5.065853
F         0.947927   -3.805219    5.975559
C         1.203684   -3.712874    3.003691
C         2.319364   -4.517406    3.418847
N         3.235039   -5.156842    3.723648
C         1.252008   -3.080603    1.754036
C         0.206752   -2.287348    1.299391
C        -1.092748    0.733185    1.062503
O        -0.496930    0.773489    2.273823
C         0.226848    1.926903    2.648503
C         0.832129    1.667467    4.009793
C        -0.984483    1.727876    0.092100
N        -0.191671   -0.883893   -4.184098
C         0.151946   -2.160557   -4.517839
C        -1.020395   -3.113859   -4.629279
O         1.300956   -2.509982   -4.705947
H         1.732937   -0.209137   -4.194610
N         1.909288    0.652195   -1.604534
H         1.050290    2.244398   -3.628806
H         0.622189    1.575447   -5.198565
H        -0.020500    7.050385   -2.074236
H        -1.874720   -2.593827    3.973644
H         2.128868   -3.219877    1.119367
H         0.268838   -1.818063    0.311294
H        -0.448546    2.801121    2.671265
H         1.012900    2.144192    1.904509
H         1.508301    0.801082    3.971275
H         0.046401    1.456920    4.749571
H         1.404214    2.544895    4.343782
H        -0.430759    2.641763    0.298473
H        -1.150222   -0.677421   -3.924138
H        -1.903512   -2.634688   -5.076279
H        -1.286747   -3.450918   -3.615650
H        -0.722152   -3.983866   -5.225808
H        -2.821961    0.310281   -2.384917
H        -3.051426   -1.461952   -0.634508
H         2.167888    1.511705   -2.072889
C         2.322888    0.477684   -0.233982
H         1.456275    0.299982    0.418736
H         2.834655    1.389215    0.099719
H         3.008671   -0.378556   -0.126309
H        -2.443916    3.172214   -2.301839
