-1 1
 OpenBabel05232413483D

 65 66  0  0  1  0  0  0  0  0999 V2000
    0.1314   -1.0270   -1.7190 O   0  0  0  0  0  0  0  0  0  0  0  0
    0.7378   -0.1411   -2.2976 C   0  0  0  0  0  0  0  0  0  0  0  0
    0.6763    0.0871   -3.8179 C   0  0  2  0  0  0  0  0  0  0  0  0
    0.0244    1.4308   -4.2412 C   0  0  0  0  0  0  0  0  0  0  0  0
   -1.7924    1.4035   -4.3534 S   0  0  0  0  0  1  0  0  0  0  0  0
   -1.6709    3.0628   -1.5542 C   0  0  0  0  0  0  0  0  0  0  0  0
   -0.6573    3.9473   -1.6509 C   0  0  0  0  0  0  0  0  0  0  0  0
    0.9029    3.9545   -0.7954 S   0  0  0  0  0  0  0  0  0  0  0  0
   -0.7027    5.0564   -2.6357 C   0  0  0  0  0  0  0  0  0  0  0  0
   -1.6287    5.3867   -3.3291 O   0  0  0  0  0  0  0  0  0  0  0  0
    0.5329    5.7183   -2.6443 N   0  0  0  0  0  0  0  0  0  0  0  0
    1.5115    5.3288   -1.7641 C   0  0  0  0  0  0  0  0  0  0  0  0
    2.6027    5.8182   -1.6423 O   0  0  0  0  0  0  0  0  0  0  0  0
   -1.8082    1.9442   -0.6138 C   0  0  0  0  0  0  0  0  0  0  0  0
   -2.5579    0.8251   -0.9924 C   0  0  0  0  0  0  0  0  0  0  0  0
   -2.6736   -0.2621   -0.1324 C   0  0  0  0  0  0  0  0  0  0  0  0
   -2.0456   -0.2415    1.1005 C   0  0  0  0  0  0  0  0  0  0  0  0
   -2.1339   -1.3172    1.9556 O   0  0  0  0  0  0  0  0  0  0  0  0
   -1.0089   -2.0345    2.1793 C   0  0  0  0  0  0  0  0  0  0  0  0
   -0.9018   -2.6560    3.4280 C   0  0  0  0  0  0  0  0  0  0  0  0
    0.2143   -3.4176    3.7354 C   0  0  0  0  0  0  0  0  0  0  0  0
    0.3255   -4.0576    5.1004 C   0  0  0  0  0  0  0  0  0  0  0  0
   -0.7482   -3.8076    5.8570 F   0  0  0  0  0  0  0  0  0  0  0  0
    0.4463   -5.3854    5.0155 F   0  0  0  0  0  0  0  0  0  0  0  0
    1.3911   -3.6043    5.7688 F   0  0  0  0  0  0  0  0  0  0  0  0
    1.2444   -3.5706    2.7847 C   0  0  0  0  0  0  0  0  0  0  0  0
    2.4269   -4.3411    3.0565 C   0  0  0  0  0  0  0  0  0  0  0  0
    3.3916   -4.9512    3.2489 N   0  0  0  0  0  0  0  0  0  0  0  0
    1.1103   -2.9518    1.5347 C   0  0  0  0  0  0  0  0  0  0  0  0
   -0.0053   -2.1850    1.2207 C   0  0  0  0  0  0  0  0  0  0  0  0
   -1.3101    0.8824    1.5144 C   0  0  0  0  0  0  0  0  0  0  0  0
   -0.7242    0.7889    2.7279 O   0  0  0  0  0  0  0  0  0  0  0  0
    0.2229    1.7570    3.1164 C   0  0  0  0  0  0  0  0  0  0  0  0
    0.8981    1.2610    4.3760 C   0  0  0  0  0  0  0  0  0  0  0  0
   -1.2071    1.9744    0.6577 C   0  0  0  0  0  0  0  0  0  0  0  0
    0.0102   -1.0015   -4.4609 N   0  0  0  0  0  0  0  0  0  0  0  0
    0.5628   -2.2296   -4.5571 C   0  0  0  0  0  0  0  0  0  0  0  0
   -0.3789   -3.3137   -5.0485 C   0  0  0  0  0  0  0  0  0  0  0  0
    1.7243   -2.4679   -4.2629 O   0  0  0  0  0  0  0  0  0  0  0  0
    1.7311    0.0842   -4.1454 H   0  0  0  0  0  0  0  0  0  0  0  0
    1.5864    0.6924   -1.6407 N   0  0  0  0  0  0  0  0  0  0  0  0
    0.3573    2.2161   -3.5370 H   0  0  0  0  0  0  0  0  0  0  0  0
    0.4488    1.6954   -5.2231 H   0  0  0  0  0  0  0  0  0  0  0  0
    0.6948    6.4924   -3.2785 H   0  0  0  0  0  0  0  0  0  0  0  0
   -1.7009   -2.5101    4.1532 H   0  0  0  0  0  0  0  0  0  0  0  0
    1.8946   -3.0790    0.7864 H   0  0  0  0  0  0  0  0  0  0  0  0
   -0.0803   -1.7190    0.2298 H   0  0  0  0  0  0  0  0  0  0  0  0
   -0.2757    2.7285    3.2913 H   0  0  0  0  0  0  0  0  0  0  0  0
    0.9618    1.9081    2.3088 H   0  0  0  0  0  0  0  0  0  0  0  0
    1.4002    0.3009    4.1881 H   0  0  0  0  0  0  0  0  0  0  0  0
    0.1595    1.1112    5.1766 H   0  0  0  0  0  0  0  0  0  0  0  0
    1.6466    1.9890    4.7204 H   0  0  0  0  0  0  0  0  0  0  0  0
   -0.6730    2.8656    0.9861 H   0  0  0  0  0  0  0  0  0  0  0  0
   -0.9851   -0.8180   -4.6233 H   0  0  0  0  0  0  0  0  0  0  0  0
   -1.1768   -2.9192   -5.6933 H   0  0  0  0  0  0  0  0  0  0  0  0
   -0.8453   -3.7891   -4.1720 H   0  0  0  0  0  0  0  0  0  0  0  0
    0.2005   -4.0749   -5.5861 H   0  0  0  0  0  0  0  0  0  0  0  0
   -2.9562    0.7851   -2.0080 H   0  0  0  0  0  0  0  0  0  0  0  0
   -3.2142   -1.1610   -0.4307 H   0  0  0  0  0  0  0  0  0  0  0  0
    2.0611    1.4144   -2.1644 H   0  0  0  0  0  0  0  0  0  0  0  0
    1.9150    0.5135   -0.2516 C   0  0  0  0  0  0  0  0  0  0  0  0
    1.0023    0.4183    0.3523 H   0  0  0  0  0  0  0  0  0  0  0  0
    2.4781    1.3872    0.1023 H   0  0  0  0  0  0  0  0  0  0  0  0
    2.5249   -0.3914   -0.0863 H   0  0  0  0  0  0  0  0  0  0  0  0
   -2.4715    3.2086   -2.2842 H   0  0  0  0  0  0  0  0  0  0  0  0
  2  1  2  0  0  0  0
  2 41  1  0  0  0  0
  3 40  1  6  0  0  0
  3  2  1  0  0  0  0
  4  3  1  0  0  0  0
  4 42  1  0  0  0  0
  5  4  1  0  0  0  0
  6 14  1  0  0  0  0
  7  6  2  0  0  0  0
  7  8  1  0  0  0  0
  9  7  1  0  0  0  0
 10  9  2  0  0  0  0
 11  9  1  0  0  0  0
 11 12  1  0  0  0  0
 12 13  2  0  0  0  0
 12  8  1  0  0  0  0
 14 35  1  0  0  0  0
 15 14  2  0  0  0  0
 15 16  1  0  0  0  0
 16 17  2  0  0  0  0
 17 31  1  0  0  0  0
 17 18  1  0  0  0  0
 18 19  1  0  0  0  0
 19 20  1  0  0  0  0
 20 21  2  0  0  0  0
 20 45  1  0  0  0  0
 21 22  1  0  0  0  0
 22 25  1  0  0  0  0
 22 23  1  0  0  0  0
 24 22  1  0  0  0  0
 26 27  1  0  0  0  0
 26 21  1  0  0  0  0
 27 28  3  0  0  0  0
 29 26  2  0  0  0  0
 30 29  1  0  0  0  0
 30 19  2  0  0  0  0
 31 32  1  0  0  0  0
 32 33  1  0  0  0  0
 33 48  1  0  0  0  0
 33 34  1  0  0  0  0
 34 52  1  0  0  0  0
 34 51  1  0  0  0  0
 35 53  1  0  0  0  0
 35 31  2  0  0  0  0
 36  3  1  0  0  0  0
 37 36  1  0  0  0  0
 37 39  2  0  0  0  0
 38 37  1  0  0  0  0
 38 56  1  0  0  0  0
 41 61  1  0  0  0  0
 43  4  1  0  0  0  0
 44 11  1  0  0  0  0
 46 29  1  0  0  0  0
 47 30  1  0  0  0  0
 49 33  1  0  0  0  0
 50 34  1  0  0  0  0
 54 36  1  0  0  0  0
 55 38  1  0  0  0  0
 57 38  1  0  0  0  0
 58 15  1  0  0  0  0
 59 16  1  0  0  0  0
 60 41  1  0  0  0  0
 61 64  1  0  0  0  0
 61 63  1  0  0  0  0
 61 62  1  0  0  0  0
 65  6  1  0  0  0  0
M  END
