-1 1
 OpenBabel05192410563D

 65 67  0  0  1  0  0  0  0  0999 V2000
    0.6032   -1.1848   -1.6365 O   0  0  0  0  0  0  0  0  0  0  0  0
    1.0553   -0.2042   -2.2041 C   0  0  0  0  0  0  0  0  0  0  0  0
    0.7809    0.0521   -3.7023 C   0  0  2  0  0  0  0  0  0  0  0  0
    0.4214    1.4893   -4.1213 C   0  0  0  0  0  0  0  0  0  0  0  0
   -1.3133    1.9995   -3.9554 S   0  0  0  0  0  0  0  0  0  0  0  0
   -1.4517    2.7001   -2.1949 C   0  0  2  0  0  0  0  0  0  0  0  0
   -0.5674    3.8373   -1.8941 C   0  0  1  0  0  3  0  0  0  0  0  0
    1.1570    3.7956   -1.4204 S   0  0  0  0  0  0  0  0  0  0  0  0
   -0.9773    5.1533   -2.1704 C   0  0  0  0  0  0  0  0  0  0  0  0
   -2.0656    5.5875   -2.5550 O   0  0  0  0  0  0  0  0  0  0  0  0
    0.1134    6.0564   -1.9365 N   0  0  0  0  0  0  0  0  0  0  0  0
    1.3213    5.5702   -1.5572 C   0  0  0  0  0  0  0  0  0  0  0  0
    2.3386    6.1898   -1.3276 O   0  0  0  0  0  0  0  0  0  0  0  0
   -1.5792    1.5815   -1.1660 C   0  0  0  0  0  0  0  0  0  0  0  0
   -2.3372    0.4329   -1.4154 C   0  0  0  0  0  0  0  0  0  0  0  0
   -2.4693   -0.5582   -0.4467 C   0  0  0  0  0  0  0  0  0  0  0  0
   -1.8417   -0.4182    0.7796 C   0  0  0  0  0  0  0  0  0  0  0  0
   -1.9873   -1.3842    1.7552 O   0  0  0  0  0  0  0  0  0  0  0  0
   -0.9152   -2.1170    2.1138 C   0  0  0  0  0  0  0  0  0  0  0  0
   -0.9872   -2.7489    3.3618 C   0  0  0  0  0  0  0  0  0  0  0  0
    0.0588   -3.5400    3.8081 C   0  0  0  0  0  0  0  0  0  0  0  0
   -0.0355   -4.2038    5.1632 C   0  0  0  0  0  0  0  0  0  0  0  0
   -1.1903   -3.9243    5.7763 F   0  0  0  0  0  0  0  0  0  0  0  0
    0.0458   -5.5344    5.0659 F   0  0  0  0  0  0  0  0  0  0  0  0
    0.9479   -3.8052    5.9756 F   0  0  0  0  0  0  0  0  0  0  0  0
    1.2037   -3.7129    3.0037 C   0  0  0  0  0  0  0  0  0  0  0  0
    2.3194   -4.5174    3.4188 C   0  0  0  0  0  0  0  0  0  0  0  0
    3.2350   -5.1568    3.7236 N   0  0  0  0  0  0  0  0  0  0  0  0
    1.2520   -3.0806    1.7540 C   0  0  0  0  0  0  0  0  0  0  0  0
    0.2068   -2.2873    1.2994 C   0  0  0  0  0  0  0  0  0  0  0  0
   -1.0927    0.7332    1.0625 C   0  0  0  0  0  0  0  0  0  0  0  0
   -0.4969    0.7735    2.2738 O   0  0  0  0  0  0  0  0  0  0  0  0
    0.2268    1.9269    2.6485 C   0  0  0  0  0  0  0  0  0  0  0  0
    0.8321    1.6675    4.0098 C   0  0  0  0  0  0  0  0  0  0  0  0
   -0.9845    1.7279    0.0921 C   0  0  0  0  0  0  0  0  0  0  0  0
   -0.1917   -0.8839   -4.1841 N   0  0  0  0  0  0  0  0  0  0  0  0
    0.1519   -2.1606   -4.5178 C   0  0  0  0  0  0  0  0  0  0  0  0
   -1.0204   -3.1139   -4.6293 C   0  0  0  0  0  0  0  0  0  0  0  0
    1.3010   -2.5100   -4.7059 O   0  0  0  0  0  0  0  0  0  0  0  0
    1.7329   -0.2091   -4.1946 H   0  0  0  0  0  0  0  0  0  0  0  0
    1.9093    0.6522   -1.6045 N   0  0  0  0  0  0  0  0  0  0  0  0
    1.0503    2.2444   -3.6288 H   0  0  0  0  0  0  0  0  0  0  0  0
    0.6222    1.5754   -5.1986 H   0  0  0  0  0  0  0  0  0  0  0  0
   -0.0205    7.0504   -2.0742 H   0  0  0  0  0  0  0  0  0  0  0  0
   -1.8747   -2.5938    3.9736 H   0  0  0  0  0  0  0  0  0  0  0  0
    2.1289   -3.2199    1.1194 H   0  0  0  0  0  0  0  0  0  0  0  0
    0.2688   -1.8181    0.3113 H   0  0  0  0  0  0  0  0  0  0  0  0
   -0.4485    2.8011    2.6713 H   0  0  0  0  0  0  0  0  0  0  0  0
    1.0129    2.1442    1.9045 H   0  0  0  0  0  0  0  0  0  0  0  0
    1.5083    0.8011    3.9713 H   0  0  0  0  0  0  0  0  0  0  0  0
    0.0464    1.4569    4.7496 H   0  0  0  0  0  0  0  0  0  0  0  0
    1.4042    2.5449    4.3438 H   0  0  0  0  0  0  0  0  0  0  0  0
   -0.4308    2.6418    0.2985 H   0  0  0  0  0  0  0  0  0  0  0  0
   -1.1502   -0.6774   -3.9241 H   0  0  0  0  0  0  0  0  0  0  0  0
   -1.9035   -2.6347   -5.0763 H   0  0  0  0  0  0  0  0  0  0  0  0
   -1.2867   -3.4509   -3.6157 H   0  0  0  0  0  0  0  0  0  0  0  0
   -0.7222   -3.9839   -5.2258 H   0  0  0  0  0  0  0  0  0  0  0  0
   -2.8220    0.3103   -2.3849 H   0  0  0  0  0  0  0  0  0  0  0  0
   -3.0514   -1.4620   -0.6345 H   0  0  0  0  0  0  0  0  0  0  0  0
    2.1679    1.5117   -2.0729 H   0  0  0  0  0  0  0  0  0  0  0  0
    2.3229    0.4777   -0.2340 C   0  0  0  0  0  0  0  0  0  0  0  0
    1.4563    0.3000    0.4187 H   0  0  0  0  0  0  0  0  0  0  0  0
    2.8347    1.3892    0.0997 H   0  0  0  0  0  0  0  0  0  0  0  0
    3.0087   -0.3786   -0.1263 H   0  0  0  0  0  0  0  0  0  0  0  0
   -2.4439    3.1722   -2.3018 H   0  0  0  0  0  0  0  0  0  0  0  0
  2  1  2  0  0  0  0
  2 41  1  0  0  0  0
  3 40  1  6  0  0  0
  3  2  1  0  0  0  0
  4  5  1  0  0  0  0
  4  3  1  0  0  0  0
  4 42  1  0  0  0  0
  5  6  1  0  0  0  0
  6 65  1  1  0  0  0
  6 14  1  0  0  0  0
  7  6  1  6  0  0  0
  7  8  1  0  0  0  0
  9 11  1  0  0  0  0
  9  7  1  0  0  0  0
 10  9  2  0  0  0  0
 11 12  1  0  0  0  0
 12  8  1  0  0  0  0
 12 13  2  0  0  0  0
 14 35  1  0  0  0  0
 15 14  2  0  0  0  0
 15 16  1  0  0  0  0
 16 17  2  0  0  0  0
 17 31  1  0  0  0  0
 17 18  1  0  0  0  0
 18 19  1  0  0  0  0
 19 20  1  0  0  0  0
 20 21  2  0  0  0  0
 20 45  1  0  0  0  0
 21 22  1  0  0  0  0
 22 23  1  0  0  0  0
 22 25  1  0  0  0  0
 24 22  1  0  0  0  0
 26 27  1  0  0  0  0
 26 21  1  0  0  0  0
 27 28  3  0  0  0  0
 29 26  2  0  0  0  0
 30 29  1  0  0  0  0
 30 19  2  0  0  0  0
 31 32  1  0  0  0  0
 32 33  1  0  0  0  0
 33 48  1  0  0  0  0
 33 34  1  0  0  0  0
 34 52  1  0  0  0  0
 34 51  1  0  0  0  0
 35 53  1  0  0  0  0
 35 31  2  0  0  0  0
 36 54  1  0  0  0  0
 36  3  1  0  0  0  0
 37 36  1  0  0  0  0
 38 37  1  0  0  0  0
 38 56  1  0  0  0  0
 39 37  2  0  0  0  0
 41 61  1  0  0  0  0
 43  4  1  0  0  0  0
 44 11  1  0  0  0  0
 46 29  1  0  0  0  0
 47 30  1  0  0  0  0
 49 33  1  0  0  0  0
 50 34  1  0  0  0  0
 55 38  1  0  0  0  0
 57 38  1  0  0  0  0
 58 15  1  0  0  0  0
 59 16  1  0  0  0  0
 60 41  1  0  0  0  0
 61 64  1  0  0  0  0
 61 63  1  0  0  0  0
 61 62  1  0  0  0  0
M  END
