-1 1
 OpenBabel05232414493D

 65 66  0  0  1  0  0  0  0  0999 V2000
   -0.0066   -4.4834    3.3491 O   0  0  0  0  0  0  0  0  0  0  0  0
    0.6031   -3.6031    2.7668 C   0  0  0  0  0  0  0  0  0  0  0  0
    0.4988   -3.3774    1.2458 C   0  0  2  0  0  0  0  0  0  0  0  0
   -0.0670   -2.0007    0.8337 C   0  0  0  0  0  0  0  0  0  0  0  0
   -1.8692   -1.8513    0.9468 S   0  0  0  0  0  1  0  0  0  0  0  0
   -1.9638   -0.5407    3.1388 C   0  0  0  0  0  3  0  0  0  0  0  0
   -1.0025    0.4498    3.1199 C   0  0  1  0  0  3  0  0  0  0  0  0
    0.6596    0.4258    3.7802 S   0  0  0  0  0  0  0  0  0  0  0  0
   -1.2288    1.6830    2.3857 C   0  0  0  0  0  0  0  0  0  0  0  0
   -2.2318    2.0472    1.8067 O   0  0  0  0  0  0  0  0  0  0  0  0
   -0.0674    2.4850    2.4346 N   0  0  0  0  0  0  0  0  0  0  0  0
    1.0330    2.0358    3.1106 C   0  0  0  0  0  0  0  0  0  0  0  0
    2.0860    2.6099    3.2462 O   0  0  0  0  0  0  0  0  0  0  0  0
   -2.0643   -1.6450    4.1289 C   0  0  0  0  0  0  0  0  0  0  0  0
   -2.9211   -2.7309    3.9143 C   0  0  0  0  0  0  0  0  0  0  0  0
   -3.0335   -3.7420    4.8603 C   0  0  0  0  0  0  0  0  0  0  0  0
   -2.2940   -3.6865    6.0315 C   0  0  0  0  0  0  0  0  0  0  0  0
   -2.4016   -4.6857    6.9763 O   0  0  0  0  0  0  0  0  0  0  0  0
   -1.3449   -5.5000    7.1764 C   0  0  0  0  0  0  0  0  0  0  0  0
   -1.3140   -6.1866    8.3965 C   0  0  0  0  0  0  0  0  0  0  0  0
   -0.2748   -7.0568    8.6836 C   0  0  0  0  0  0  0  0  0  0  0  0
   -0.2535   -7.7773   10.0125 C   0  0  0  0  0  0  0  0  0  0  0  0
   -1.3132   -7.4655   10.7662 F   0  0  0  0  0  0  0  0  0  0  0  0
   -0.2611   -9.1042    9.8541 F   0  0  0  0  0  0  0  0  0  0  0  0
    0.8370   -7.4693   10.7215 F   0  0  0  0  0  0  0  0  0  0  0  0
    0.7574   -7.2554    7.7436 C   0  0  0  0  0  0  0  0  0  0  0  0
    1.8617   -8.1398    7.9947 C   0  0  0  0  0  0  0  0  0  0  0  0
    2.7648   -8.8426    8.1700 N   0  0  0  0  0  0  0  0  0  0  0  0
    0.7018   -6.5675    6.5240 C   0  0  0  0  0  0  0  0  0  0  0  0
   -0.3373   -5.6943    6.2292 C   0  0  0  0  0  0  0  0  0  0  0  0
   -1.4545   -2.5947    6.2881 C   0  0  0  0  0  0  0  0  0  0  0  0
   -0.7677   -2.6327    7.4521 O   0  0  0  0  0  0  0  0  0  0  0  0
    0.0497   -1.5417    7.8098 C   0  0  0  0  0  0  0  0  0  0  0  0
    0.7323   -1.8858    9.1150 C   0  0  0  0  0  0  0  0  0  0  0  0
   -1.3593   -1.5770    5.3400 C   0  0  0  0  0  0  0  0  0  0  0  0
   -0.2701   -4.4253    0.6456 N   0  0  0  0  0  0  0  0  0  0  0  0
    0.2182   -5.6824    0.5079 C   0  0  0  0  0  0  0  0  0  0  0  0
   -0.8203   -6.7286    0.1506 C   0  0  0  0  0  0  0  0  0  0  0  0
    1.3943   -5.9620    0.6656 O   0  0  0  0  0  0  0  0  0  0  0  0
    1.5328   -3.4641    0.8704 H   0  0  0  0  0  0  0  0  0  0  0  0
    1.4841   -2.7881    3.3972 N   0  0  0  0  0  0  0  0  0  0  0  0
    0.3961   -1.2028    1.4390 H   0  0  0  0  0  0  0  0  0  0  0  0
    0.2399   -1.8194   -0.2079 H   0  0  0  0  0  0  0  0  0  0  0  0
   -0.0522    3.3867    1.9732 H   0  0  0  0  0  0  0  0  0  0  0  0
   -2.1145   -6.0109    9.1137 H   0  0  0  0  0  0  0  0  0  0  0  0
    1.4883   -6.7237    5.7836 H   0  0  0  0  0  0  0  0  0  0  0  0
   -0.3522   -5.1809    5.2605 H   0  0  0  0  0  0  0  0  0  0  0  0
   -0.5650   -0.6282    7.9108 H   0  0  0  0  0  0  0  0  0  0  0  0
    0.7961   -1.3461    7.0202 H   0  0  0  0  0  0  0  0  0  0  0  0
    1.3472   -2.7899    8.9992 H   0  0  0  0  0  0  0  0  0  0  0  0
   -0.0116   -2.0752    9.9021 H   0  0  0  0  0  0  0  0  0  0  0  0
    1.3810   -1.0578    9.4351 H   0  0  0  0  0  0  0  0  0  0  0  0
   -0.7401   -0.7073    5.5512 H   0  0  0  0  0  0  0  0  0  0  0  0
   -1.2729   -4.2383    0.6357 H   0  0  0  0  0  0  0  0  0  0  0  0
   -1.6290   -6.3206   -0.4724 H   0  0  0  0  0  0  0  0  0  0  0  0
   -1.2624   -7.1081    1.0846 H   0  0  0  0  0  0  0  0  0  0  0  0
   -0.3280   -7.5611   -0.3666 H   0  0  0  0  0  0  0  0  0  0  0  0
   -3.4538   -2.8048    2.9672 H   0  0  0  0  0  0  0  0  0  0  0  0
   -3.6771   -4.6064    4.6900 H   0  0  0  0  0  0  0  0  0  0  0  0
    1.9248   -2.0483    2.8675 H   0  0  0  0  0  0  0  0  0  0  0  0
    1.8371   -2.9421    4.7842 C   0  0  0  0  0  0  0  0  0  0  0  0
    0.9501   -3.2069    5.3741 H   0  0  0  0  0  0  0  0  0  0  0  0
    2.2425   -1.9938    5.1631 H   0  0  0  0  0  0  0  0  0  0  0  0
    2.5922   -3.7331    4.9340 H   0  0  0  0  0  0  0  0  0  0  0  0
   -2.9072   -0.2071    2.7034 H   0  0  0  0  0  0  0  0  0  0  0  0
  2  1  2  0  0  0  0
  2 41  1  0  0  0  0
  3 40  1  6  0  0  0
  3  2  1  0  0  0  0
  4  5  1  0  0  0  0
  4  3  1  0  0  0  0
  4 42  1  0  0  0  0
  6 14  1  0  0  0  0
  7  6  1  6  0  0  0
  7  8  1  0  0  0  0
  9 11  1  0  0  0  0
  9  7  1  0  0  0  0
 10  9  2  0  0  0  0
 11 12  1  0  0  0  0
 12 13  2  0  0  0  0
 12  8  1  0  0  0  0
 14 35  1  0  0  0  0
 15 14  2  0  0  0  0
 15 16  1  0  0  0  0
 16 17  2  0  0  0  0
 17 31  1  0  0  0  0
 17 18  1  0  0  0  0
 18 19  1  0  0  0  0
 19 20  1  0  0  0  0
 20 21  2  0  0  0  0
 20 45  1  0  0  0  0
 21 22  1  0  0  0  0
 22 25  1  0  0  0  0
 22 23  1  0  0  0  0
 24 22  1  0  0  0  0
 26 27  1  0  0  0  0
 26 21  1  0  0  0  0
 27 28  3  0  0  0  0
 29 26  2  0  0  0  0
 30 29  1  0  0  0  0
 30 19  2  0  0  0  0
 31 32  1  0  0  0  0
 32 33  1  0  0  0  0
 33 48  1  0  0  0  0
 33 34  1  0  0  0  0
 34 52  1  0  0  0  0
 34 51  1  0  0  0  0
 35 53  1  0  0  0  0
 35 31  2  0  0  0  0
 36  3  1  0  0  0  0
 37 36  1  0  0  0  0
 37 39  2  0  0  0  0
 38 37  1  0  0  0  0
 38 56  1  0  0  0  0
 41 61  1  0  0  0  0
 43  4  1  0  0  0  0
 44 11  1  0  0  0  0
 46 29  1  0  0  0  0
 47 30  1  0  0  0  0
 49 33  1  0  0  0  0
 50 34  1  0  0  0  0
 54 36  1  0  0  0  0
 55 38  1  0  0  0  0
 57 38  1  0  0  0  0
 58 15  1  0  0  0  0
 59 16  1  0  0  0  0
 60 41  1  0  0  0  0
 61 64  1  0  0  0  0
 61 63  1  0  0  0  0
 61 62  1  0  0  0  0
 65  6  1  0  0  0  0
M  END
