91
-1 1
O         3.960959   -0.185073    5.723948
C         4.290858    0.842573    5.152539
C         5.733158    1.077482    4.692002
C         5.942388    0.408859    3.314150
S         7.540858    0.745281    2.505818
C         3.409114    2.728766    1.303932
C         4.536094    3.397601    1.909855
N         4.441621    4.120359    3.082932
C         5.658237    4.534673    3.329497
N         6.546924    4.131231    2.380570
C         7.986898    4.258023    2.417119
C         5.850718    3.381367    1.482377
C         2.161173    2.749752    1.807117
C         1.064743    1.982999    1.194277
O         1.093860    1.493126    0.077747
N        -0.027666    1.854758    2.037905
C        -1.187711    1.124686    1.831636
C        -2.054039    0.987536    2.968921
O        -1.577180    1.566718    4.089728
C        -2.285306    1.477590    5.312542
C        -3.392654    2.510947    5.416797
C        -3.243258    0.309110    2.857011
C        -3.629291   -0.288474    1.629347
N        -4.834456   -0.926168    1.588607
C        -5.178637   -1.476279    0.461258
C        -4.391294   -1.478489   -0.728102
C        -4.927974   -2.208623   -1.838301
N        -5.439449   -2.824219   -2.678089
C        -3.145098   -0.827725   -0.715621
N        -2.289485   -0.777173   -1.774859
C        -2.607725   -1.164538   -3.100597
C        -2.097138   -2.353307   -3.621476
C        -2.496629   -2.775481   -4.883462
Cl        -1.885440   -4.272811   -5.527049
C        -3.409481   -2.023348   -5.635579
O        -3.842763   -2.449889   -6.847755
C        -4.959723   -3.319369   -6.796948
C        -5.421365   -3.656540   -8.190061
C        -4.836918   -3.079948   -9.318486
C        -5.298373   -3.407679  -10.594240
C        -6.346530   -4.310789  -10.754488
C        -6.933934   -4.890027   -9.628562
C        -6.473055   -4.565301   -8.355995
C        -3.868403   -0.810372   -5.122785
C        -3.464825   -0.374064   -3.868484
C        -2.760508   -0.189061    0.515374
C        -1.549663    0.540210    0.637827
N         6.592807    0.572817    5.738148
C         7.695216    1.134397    6.296940
C         8.139357    2.467020    5.725528
O         8.291637    0.596546    7.215991
H         5.902330    2.156870    4.576387
N         3.409428    1.833048    4.864484
C         2.005985    1.674397    5.134946
H         5.106850    0.745827    2.672840
H         5.804284   -0.676154    3.458299
H         5.970571    5.125957    4.190448
H         8.275828    4.814582    3.317700
H         8.350055    4.791487    1.527202
H         8.398412    3.232382    2.455638
H         6.337016    2.860813    0.663116
H         0.067751    2.226814    2.974987
H        -1.526539    1.646200    6.089146
H        -2.669621    0.452653    5.447068
H        -2.981510    3.523996    5.300649
H        -3.875089    2.443548    6.403046
H        -4.163336    2.362386    4.647097
H        -3.935506    0.197999    3.690062
H        -6.146516   -1.990439    0.426428
H        -1.344533   -0.465511   -1.589718
H        -1.425480   -2.969991   -3.023590
H        -5.776790   -2.836303   -6.229844
H        -4.694825   -4.243702   -6.253218
H        -4.014715   -2.375627   -9.188202
H        -4.830864   -2.951694  -11.470108
H        -6.705539   -4.566173  -11.754028
H        -7.755107   -5.601359   -9.743110
H        -6.934749   -5.024073   -7.476820
H        -4.562705   -0.226819   -5.729372
H        -3.842735    0.562163   -3.454432
H        -0.856057    0.675190   -0.188986
H         6.311996   -0.320167    6.131452
H         8.309622    2.348201    4.643535
H         9.060585    2.765431    6.239564
H         7.369072    3.240562    5.879200
H         3.724435    2.656750    4.351778
H         1.531298    2.662796    5.230125
H         1.872300    1.120608    6.075127
H         1.484173    1.106048    4.344287
H         3.596411    2.148831    0.395020
H         1.964883    3.310319    2.724952
