97
-1 1
O        -1.285572   -0.297938    1.255817
C        -2.063866    0.522972    1.727127
C        -3.121597    1.199522    0.844326
C        -4.107117    0.105835    0.408078
S        -5.636678    0.641563   -0.392496
C        -5.266315    0.422223   -2.252167
N        -4.568979   -2.735933   -3.963861
C        -5.348266   -2.140104   -5.027964
C        -4.957901   -2.751339   -6.363139
O        -5.076871   -4.153290   -6.352295
C        -4.317808   -4.728188   -5.317454
C        -4.718712   -4.173839   -3.957640
C        -4.337327   -0.661258   -2.617210
C        -4.781579   -2.095383   -2.657241
C        -3.007426   -0.315634   -2.854658
N        -2.149374   -1.355861   -3.287425
C        -0.785036   -1.369454   -3.117151
C        -0.143882   -0.736310   -2.059883
C         0.017882   -2.094435   -4.050345
O        -0.598844   -2.761177   -5.074692
C        -1.015244   -1.950372   -6.166371
C         0.144733   -1.454890   -7.011120
C         1.386175   -2.132435   -3.926604
C         2.050260   -1.450337   -2.880697
C         1.260023   -0.768289   -1.917371
C         1.934893   -0.144622   -0.798450
N         1.189898    0.379152    0.208593
C         1.693398    0.719633    1.491529
C         2.286899   -0.262156    2.288290
C         2.813481    0.080697    3.525270
Cl         3.579737   -1.140355    4.510068
C         2.738968    1.397823    3.995082
O         3.274573    1.750065    5.196490
C         4.644356    2.090005    5.144068
C         5.129502    2.511910    6.506096
C         4.249823    2.686134    7.575706
C         4.728142    3.097123    8.820575
C         6.086832    3.340219    9.009030
C         6.970557    3.166890    7.942663
C         6.494233    2.753981    6.701498
C         2.084306    2.350775    3.216686
C         1.558742    2.021319    1.971778
C         3.340090   -0.119294   -0.853060
C         4.179192    0.572970    0.077262
N         4.932333    1.118030    0.772337
C         4.006978   -0.809560   -1.912728
N         3.418897   -1.471351   -2.862409
O        -2.508027    0.838447   -2.736420
N        -2.476017    1.821592   -0.278372
C        -1.504357    2.729232   -0.073498
C        -0.743062    3.157468   -1.307496
O        -1.216054    3.146556    1.049250
H        -3.658243    1.959548    1.439427
N        -2.103678    0.816169    3.043920
C        -1.112977    0.304610    3.962614
H        -3.601683   -0.597655   -0.276451
H        -4.406006   -0.462795    1.300746
H        -5.159463   -1.055375   -5.033119
H        -6.440079   -2.293964   -4.859871
H        -3.915415   -2.459428   -6.598775
H        -5.610619   -2.379923   -7.166669
H        -3.237522   -4.531107   -5.474582
H        -4.484363   -5.814515   -5.362152
H        -4.068855   -4.603346   -3.177764
H        -5.765788   -4.481357   -3.728839
H        -2.597100   -2.119005   -3.794692
H        -0.766258   -0.198884   -1.347401
H        -1.618226   -1.102611   -5.796994
H        -1.675894   -2.595682   -6.764082
H         0.806293   -0.795102   -6.431060
H        -0.236532   -0.883372   -7.871093
H         0.741350   -2.299194   -7.388316
H         1.985498   -2.673760   -4.659107
H         0.191958    0.145844    0.234624
H         2.359971   -1.288404    1.926522
H         4.793949    2.912656    4.419462
H         5.238284    1.231701    4.781824
H         3.187994    2.491107    7.422050
H         4.029371    3.227329    9.650484
H         6.459015    3.661835    9.984495
H         8.038625    3.351544    8.079993
H         7.191171    2.615211    5.869860
H         2.001610    3.366454    3.607769
H         1.013447    2.761977    1.384801
H         5.103946   -0.790268   -1.912868
H        -2.612189    1.446362   -1.248897
H        -0.669124    4.253444   -1.327885
H        -1.192834    2.769885   -2.230455
H         0.277219    2.751632   -1.220405
H        -2.584360    1.671837    3.289286
H        -0.795673   -0.686901    3.617285
H        -1.542607    0.216153    4.970319
H        -0.219738    0.949545    4.004856
H        -5.853190   -2.159629   -2.364663
H        -4.227410   -2.718798   -1.929061
H        -6.286455    0.275089   -2.641694
H        -4.878075    1.388914   -2.595626
