-1 1
 OpenBabel05232414493D

 97100  0  0  1  0  0  0  0  0999 V2000
    1.7530    5.2600    4.1315 O   0  0  0  0  0  0  0  0  0  0  0  0
    1.0471    6.1872    4.5279 C   0  0  0  0  0  0  0  0  0  0  0  0
    0.1738    7.0066    3.5785 C   0  0  2  0  0  0  0  0  0  0  0  0
   -1.0530    6.1693    3.1670 C   0  0  0  0  0  0  0  0  0  0  0  0
   -2.3886    7.1045    2.3894 S   0  0  0  0  0  1  0  0  0  0  0  0
   -2.0683    5.9607   -0.0234 C   0  0  0  0  0  0  0  0  0  0  0  0
   -1.1358    2.4612   -0.4227 N   0  0  0  0  0  0  0  0  0  0  0  0
   -1.3988    2.6120   -1.8423 C   0  0  0  0  0  0  0  0  0  0  0  0
   -0.6120    1.5646   -2.6132 C   0  0  0  0  0  0  0  0  0  0  0  0
   -0.9308    0.2633   -2.1802 O   0  0  0  0  0  0  0  0  0  0  0  0
   -0.6846    0.1046   -0.8078 C   0  0  0  0  0  0  0  0  0  0  0  0
   -1.4566    1.1210    0.0232 C   0  0  0  0  0  0  0  0  0  0  0  0
   -1.2153    4.9009    0.0625 C   0  0  0  0  0  0  0  0  0  0  0  0
   -1.7066    3.5173    0.4148 C   0  0  0  0  0  0  0  0  0  0  0  0
    0.2200    5.1865   -0.0384 C   0  0  0  0  0  0  0  0  0  0  0  0
    1.0588    4.1025    0.0277 N   0  0  0  0  0  0  0  0  0  0  0  0
    2.4596    4.2303    0.0643 C   0  0  0  0  0  0  0  0  0  0  0  0
    3.0885    4.6782    1.2051 C   0  0  0  0  0  0  0  0  0  0  0  0
    3.2364    3.8917   -1.0767 C   0  0  0  0  0  0  0  0  0  0  0  0
    2.6124    3.4482   -2.2032 O   0  0  0  0  0  0  0  0  0  0  0  0
    1.9758    4.4593   -2.9828 C   0  0  0  0  0  0  0  0  0  0  0  0
    2.9478    5.1151   -3.9460 C   0  0  0  0  0  0  0  0  0  0  0  0
    4.6084    4.0026   -1.0336 C   0  0  0  0  0  0  0  0  0  0  0  0
    5.2686    4.4744    0.1256 C   0  0  0  0  0  0  0  0  0  0  0  0
    4.4943    4.8140    1.2667 C   0  0  0  0  0  0  0  0  0  0  0  0
    5.1723    5.2732    2.4630 C   0  0  0  0  0  0  0  0  0  0  0  0
    4.4501    5.5214    3.5724 N   0  0  0  0  0  0  0  0  0  0  0  0
    4.9779    5.8620    4.8435 C   0  0  0  0  0  0  0  0  0  0  0  0
    5.6129    4.8840    5.6103 C   0  0  0  0  0  0  0  0  0  0  0  0
    6.1776    5.2312    6.8300 C   0  0  0  0  0  0  0  0  0  0  0  0
    7.0074    4.0224    7.7766 Cl  0  0  0  0  0  0  0  0  0  0  0  0
    6.0971    6.5453    7.3067 C   0  0  0  0  0  0  0  0  0  0  0  0
    6.6744    6.9015    8.4864 O   0  0  0  0  0  0  0  0  0  0  0  0
    8.0334    7.2728    8.3783 C   0  0  0  0  0  0  0  0  0  0  0  0
    8.5725    7.6742    9.7260 C   0  0  0  0  0  0  0  0  0  0  0  0
    7.7439    7.7826   10.8439 C   0  0  0  0  0  0  0  0  0  0  0  0
    8.2711    8.1735   12.0755 C   0  0  0  0  0  0  0  0  0  0  0  0
    9.6280    8.4617   12.2023 C   0  0  0  0  0  0  0  0  0  0  0  0
   10.4608    8.3545   11.0873 C   0  0  0  0  0  0  0  0  0  0  0  0
    9.9359    7.9620    9.8592 C   0  0  0  0  0  0  0  0  0  0  0  0
    5.4011    7.4928    6.5562 C   0  0  0  0  0  0  0  0  0  0  0  0
    4.8380    7.1626    5.3286 C   0  0  0  0  0  0  0  0  0  0  0  0
    6.5703    5.4290    2.3573 C   0  0  0  0  0  0  0  0  0  0  0  0
    7.4192    5.9608    3.3804 C   0  0  0  0  0  0  0  0  0  0  0  0
    8.1881    6.3860    4.1388 N   0  0  0  0  0  0  0  0  0  0  0  0
    7.2172    5.0613    1.1399 C   0  0  0  0  0  0  0  0  0  0  0  0
    6.6316    4.5930    0.0784 N   0  0  0  0  0  0  0  0  0  0  0  0
    0.6760    6.3273   -0.1851 O   0  0  0  0  0  0  0  0  0  0  0  0
    0.9540    7.3912    2.4314 N   0  0  0  0  0  0  0  0  0  0  0  0
    2.1216    8.0387    2.5779 C   0  0  0  0  0  0  0  0  0  0  0  0
    2.9095    8.2868    1.3121 C   0  0  0  0  0  0  0  0  0  0  0  0
    2.5362    8.3855    3.6845 O   0  0  0  0  0  0  0  0  0  0  0  0
   -0.1792    7.9074    4.1097 H   0  0  0  0  0  0  0  0  0  0  0  0
    0.9248    6.4786    5.8375 N   0  0  0  0  0  0  0  0  0  0  0  0
    1.7066    5.8203    6.8555 C   0  0  0  0  0  0  0  0  0  0  0  0
   -0.6933    5.3712    2.4849 H   0  0  0  0  0  0  0  0  0  0  0  0
   -1.4224    5.6587    4.0716 H   0  0  0  0  0  0  0  0  0  0  0  0
   -1.0978    3.6226   -2.1574 H   0  0  0  0  0  0  0  0  0  0  0  0
   -2.4842    2.5035   -2.0644 H   0  0  0  0  0  0  0  0  0  0  0  0
    0.4715    1.7619   -2.4826 H   0  0  0  0  0  0  0  0  0  0  0  0
   -0.8488    1.6130   -3.6859 H   0  0  0  0  0  0  0  0  0  0  0  0
    0.3986    0.2164   -0.5965 H   0  0  0  0  0  0  0  0  0  0  0  0
   -0.9842   -0.9193   -0.5404 H   0  0  0  0  0  0  0  0  0  0  0  0
   -1.1823    1.0161    1.0852 H   0  0  0  0  0  0  0  0  0  0  0  0
   -2.5476    0.9152   -0.0626 H   0  0  0  0  0  0  0  0  0  0  0  0
    0.6201    3.1879   -0.1253 H   0  0  0  0  0  0  0  0  0  0  0  0
    2.4476    4.9265    2.0537 H   0  0  0  0  0  0  0  0  0  0  0  0
    1.5175    5.2167   -2.3262 H   0  0  0  0  0  0  0  0  0  0  0  0
    1.1683    3.9488   -3.5295 H   0  0  0  0  0  0  0  0  0  0  0  0
    3.7507    5.6305   -3.3980 H   0  0  0  0  0  0  0  0  0  0  0  0
    2.4243    5.8625   -4.5612 H   0  0  0  0  0  0  0  0  0  0  0  0
    3.4045    4.3675   -4.6117 H   0  0  0  0  0  0  0  0  0  0  0  0
    5.2098    3.7456   -1.9057 H   0  0  0  0  0  0  0  0  0  0  0  0
    3.4278    5.4159    3.5642 H   0  0  0  0  0  0  0  0  0  0  0  0
    5.6951    3.8630    5.2364 H   0  0  0  0  0  0  0  0  0  0  0  0
    8.1318    8.1136    7.6661 H   0  0  0  0  0  0  0  0  0  0  0  0
    8.6268    6.4357    7.9686 H   0  0  0  0  0  0  0  0  0  0  0  0
    6.6832    7.5528   10.7384 H   0  0  0  0  0  0  0  0  0  0  0  0
    7.6121    8.2522   12.9435 H   0  0  0  0  0  0  0  0  0  0  0  0
   10.0386    8.7676   13.1674 H   0  0  0  0  0  0  0  0  0  0  0  0
   11.5271    8.5754   11.1760 H   0  0  0  0  0  0  0  0  0  0  0  0
   10.5930    7.8757    8.9890 H   0  0  0  0  0  0  0  0  0  0  0  0
    5.3259    8.5070    6.9531 H   0  0  0  0  0  0  0  0  0  0  0  0
    4.2808    7.8911    4.7326 H   0  0  0  0  0  0  0  0  0  0  0  0
    8.3071    5.1812    1.0989 H   0  0  0  0  0  0  0  0  0  0  0  0
    0.6308    7.1354    1.4939 H   0  0  0  0  0  0  0  0  0  0  0  0
    2.9994    9.3711    1.1527 H   0  0  0  0  0  0  0  0  0  0  0  0
    2.4512    7.8079    0.4372 H   0  0  0  0  0  0  0  0  0  0  0  0
    3.9241    7.8884    1.4603 H   0  0  0  0  0  0  0  0  0  0  0  0
    0.4476    7.3392    6.0691 H   0  0  0  0  0  0  0  0  0  0  0  0
    1.9822    4.8236    6.4894 H   0  0  0  0  0  0  0  0  0  0  0  0
    1.1198    5.7158    7.7793 H   0  0  0  0  0  0  0  0  0  0  0  0
    2.6374    6.3688    7.0785 H   0  0  0  0  0  0  0  0  0  0  0  0
   -2.8155    3.5113    0.3645 H   0  0  0  0  0  0  0  0  0  0  0  0
   -1.4415    3.2669    1.4582 H   0  0  0  0  0  0  0  0  0  0  0  0
   -3.1478    5.8135   -0.0238 H   0  0  0  0  0  0  0  0  0  0  0  0
   -1.6857    6.9341   -0.3222 H   0  0  0  0  0  0  0  0  0  0  0  0
  1  2  2  0  0  0  0
  2 54  1  0  0  0  0
  3 53  1  1  0  0  0
  3  2  1  0  0  0  0
  4  3  1  0  0  0  0
  4 57  1  0  0  0  0
  5  4  1  0  0  0  0
  6 13  2  0  0  0  0
  7 12  1  0  0  0  0
  7 14  1  0  0  0  0
  8  7  1  0  0  0  0
  9 60  1  0  0  0  0
  9 10  1  0  0  0  0
  9  8  1  0  0  0  0
 10 11  1  0  0  0  0
 11 62  1  0  0  0  0
 11 63  1  0  0  0  0
 11 12  1  0  0  0  0
 12 64  1  0  0  0  0
 13 14  1  0  0  0  0
 14 95  1  0  0  0  0
 15 16  1  0  0  0  0
 15 13  1  0  0  0  0
 16 17  1  0  0  0  0
 17 18  1  0  0  0  0
 18 25  2  0  0  0  0
 18 67  1  0  0  0  0
 19 23  1  0  0  0  0
 19 17  2  0  0  0  0
 20 19  1  0  0  0  0
 21 68  1  0  0  0  0
 21 20  1  0  0  0  0
 22 70  1  0  0  0  0
 22 21  1  0  0  0  0
 23 24  2  0  0  0  0
 24 25  1  0  0  0  0
 25 26  1  0  0  0  0
 26 27  1  0  0  0  0
 27 28  1  0  0  0  0
 28 42  2  0  0  0  0
 28 29  1  0  0  0  0
 29 30  2  0  0  0  0
 30 32  1  0  0  0  0
 30 31  1  0  0  0  0
 32 33  1  0  0  0  0
 34 33  1  0  0  0  0
 34 35  1  0  0  0  0
 35 40  2  0  0  0  0
 35 36  1  0  0  0  0
 36 37  2  0  0  0  0
 37 38  1  0  0  0  0
 37 79  1  0  0  0  0
 38 80  1  0  0  0  0
 39 81  1  0  0  0  0
 39 38  2  0  0  0  0
 40 39  1  0  0  0  0
 41 83  1  0  0  0  0
 41 32  2  0  0  0  0
 42 41  1  0  0  0  0
 43 26  2  0  0  0  0
 43 44  1  0  0  0  0
 44 45  3  0  0  0  0
 46 43  1  0  0  0  0
 47 24  1  0  0  0  0
 47 46  2  0  0  0  0
 48 15  2  0  0  0  0
 49 50  1  0  0  0  0
 49  3  1  0  0  0  0
 50 52  2  0  0  0  0
 51 89  1  0  0  0  0
 51 50  1  0  0  0  0
 54 90  1  0  0  0  0
 54 55  1  0  0  0  0
 55 93  1  0  0  0  0
 55 92  1  0  0  0  0
 56  4  1  0  0  0  0
 58  8  1  0  0  0  0
 59  8  1  0  0  0  0
 61  9  1  0  0  0  0
 65 12  1  0  0  0  0
 66 16  1  0  0  0  0
 69 21  1  0  0  0  0
 71 22  1  0  0  0  0
 72 22  1  0  0  0  0
 73 23  1  0  0  0  0
 74 27  1  0  0  0  0
 75 29  1  0  0  0  0
 76 34  1  0  0  0  0
 77 34  1  0  0  0  0
 78 36  1  0  0  0  0
 82 40  1  0  0  0  0
 84 42  1  0  0  0  0
 85 46  1  0  0  0  0
 86 49  1  0  0  0  0
 87 51  1  0  0  0  0
 88 51  1  0  0  0  0
 91 55  1  0  0  0  0
 94 14  1  0  0  0  0
 96  6  1  0  0  0  0
 97  6  1  0  0  0  0
M  END
