99
-1 1
O         1.572967    5.685693  -12.003508
C         0.803660    5.502111  -11.064316
C        -0.601536    4.935414  -11.277170
C        -0.835191    3.589159  -10.553422
S        -1.045931    3.728036   -8.749431
C        -3.309662    4.531721   -8.892211
C        -3.098315    5.922931   -8.329332
N        -2.470337    6.844577   -9.255119
C        -3.373833    7.325415  -10.272890
C        -1.731922    7.896935   -8.611410
C        -4.204537    3.668722   -8.276348
C        -4.587581    2.452532   -8.925812
O        -4.205619    2.070948  -10.032054
N        -5.496423    1.665773   -8.178532
C        -6.070031    0.469309   -8.530678
C        -6.985880   -0.119615   -7.590204
O        -7.158618    0.600104   -6.457628
C        -8.021874    0.117623   -5.456922
C        -8.016476    1.107527   -4.312863
C        -7.609823   -1.313041   -7.861140
C        -7.373257   -2.001899   -9.079235
N        -8.031472   -3.181133   -9.282645
C        -7.812152   -3.795718  -10.407507
C        -6.938103   -3.338523  -11.439415
C        -6.880918   -4.149260  -12.618741
N        -6.912744   -4.870080  -13.527869
C        -6.235181   -2.135570  -11.248747
N        -5.368056   -1.593984  -12.145294
C        -4.915415   -2.207914  -13.340329
C        -3.967148   -3.232570  -13.286889
C        -3.577842   -3.872318  -14.449533
Cl        -2.425399   -5.189516  -14.357409
C        -4.095097   -3.515599  -15.713294
N        -3.687344   -4.171605  -16.848271
C        -4.358813   -4.013252  -18.116680
C        -3.746811   -4.901515  -19.172605
C        -4.476892   -5.941903  -19.701393
C        -3.939532   -6.790524  -20.698835
C        -2.665150   -6.587029  -21.160074
C        -2.407158   -4.675672  -19.633136
C        -1.868943   -5.528310  -20.642150
C        -0.545874   -5.300612  -21.110300
C         0.214634   -4.276103  -20.603999
C        -0.315129   -3.431476  -19.599937
C        -1.589871   -3.625700  -19.125853
C        -5.020924   -2.457800  -15.743689
C        -5.421969   -1.818375  -14.577633
C        -6.472236   -1.434097  -10.011701
C        -5.831917   -0.205926   -9.714869
N        -0.792448    4.827487  -12.704993
C        -2.001312    4.923263  -13.297558
C        -1.986723    4.826775  -14.814958
O        -3.050687    5.048663  -12.687080
H        -1.322006    5.656587  -10.856558
N         1.097901    5.782965   -9.778982
C         2.408250    6.204139   -9.364257
H        -1.759910    3.154574  -10.964343
H        -0.012550    2.893491  -10.787875
H        -4.086058    6.320776   -7.995304
H        -2.475427    5.849286   -7.426594
H        -2.822572    7.938249  -11.003610
H        -4.200126    7.947984   -9.854098
H        -3.807600    6.483380  -10.830185
H        -1.195844    8.494918   -9.365594
H        -0.979373    7.467455   -7.932513
H        -2.372338    8.595696   -8.020482
H        -5.776801    2.025409   -7.276698
H        -7.682805   -0.878289   -5.117233
H        -9.041304   -0.004362   -5.867180
H        -8.361750    2.094103   -4.653924
H        -7.002155    1.219076   -3.903655
H        -8.682368    0.762564   -3.508677
H        -8.306377   -1.778594   -7.165584
H        -8.343560   -4.739695  -10.579633
H        -4.972733   -0.693283  -11.904787
H        -3.560005   -3.548185  -12.325698
H        -3.210141   -5.052355  -16.699131
H        -4.285220   -2.959313  -18.441433
H        -5.438822   -4.238924  -18.032695
H        -5.494890   -6.115822  -19.343581
H        -4.547379   -7.606378  -21.095565
H        -2.241745   -7.235944  -21.930970
H        -0.143251   -5.959864  -21.883691
H         1.230389   -4.112196  -20.970436
H         0.296358   -2.622924  -19.193975
H        -1.974297   -2.984818  -18.331442
H        -5.451579   -2.144214  -16.694450
H        -6.164972   -1.020184  -14.619425
H        -5.125139    0.284637  -10.382069
H         0.065073    4.888661  -13.245702
H        -2.416494    3.856816  -15.105893
H        -0.981837    4.915052  -15.251336
H        -2.637567    5.611880  -15.222737
H         0.439736    5.388232   -9.087247
H         2.960236    5.392229   -8.860425
H         2.344469    7.057648   -8.670416
H         2.974763    6.508911  -10.253930
H        -4.518482    3.845593   -7.241757
H        -3.220673    4.429843   -9.978713
