99
-1 1
O        -6.232098    4.994369  -11.137205
C        -6.089872    4.000421  -10.435096
C        -6.718017    3.910835   -9.034541
C        -7.469764    2.592093   -8.773333
S        -6.387919    1.185731   -8.351332
C        -8.055669    0.042333   -7.290417
C        -7.954352   -1.308117   -7.986866
N        -9.104506   -2.185401   -7.811912
C        -9.243459   -2.818380   -6.525107
C       -10.346237   -1.640506   -8.301209
C        -7.990070    0.097284   -5.893306
C        -8.456699    1.234676   -5.171839
O        -8.842053    2.306865   -5.651996
N        -8.489075    1.045263   -3.771380
C        -8.889794    1.920484   -2.788395
C        -9.154020    1.357340   -1.494411
O        -9.043395    0.001256   -1.350478
C       -10.185420   -0.748379   -1.755611
C       -11.316884   -0.687394   -0.746639
C        -9.466665    2.152877   -0.423327
C        -9.580224    3.558309   -0.564069
N        -9.859786    4.296021    0.549250
C        -9.949758    5.586491    0.408576
C        -9.785907    6.279102   -0.826590
C       -10.026442    7.689455   -0.839467
N       -10.242699    8.827397   -0.798578
C        -9.491189    5.552370   -1.985765
N        -9.327383    6.127712   -3.216869
C        -8.549811    7.261500   -3.548265
C        -7.566972    7.781665   -2.704652
C        -6.716141    8.772991   -3.175999
Cl        -5.483665    9.399037   -2.088267
C        -6.766584    9.260237   -4.493854
N        -5.859211   10.194647   -4.958437
C        -5.434803   10.230678   -6.343965
C        -5.015399    8.912926   -6.984906
C        -5.633547    8.513813   -8.149384
C        -5.264106    7.331118   -8.832817
C        -4.285912    6.525534   -8.313683
C        -3.976113    8.089781   -6.434980
C        -3.628316    6.875354   -7.102515
C        -2.623112    6.036274   -6.549425
C        -1.968117    6.380988   -5.393316
C        -2.286330    7.595412   -4.743659
C        -3.259164    8.422961   -5.251103
C        -7.783732    8.738612   -5.306615
C        -8.668267    7.780994   -4.838626
C        -9.381261    4.121623   -1.853570
C        -9.024964    3.291284   -2.944367
N        -7.568420    5.062310   -8.872294
C        -7.853687    5.712806   -7.713753
C        -7.242923    5.137053   -6.456318
O        -8.560173    6.712823   -7.721214
H        -5.883421    3.959746   -8.314083
N        -5.369909    2.921884  -10.805373
C        -4.736205    2.819623  -12.093606
H        -8.136161    2.757961   -7.914345
H        -8.103835    2.356425   -9.645654
H        -7.058750   -1.840652   -7.625656
H        -7.811024   -1.143182   -9.065602
H        -9.970132   -3.646849   -6.596436
H        -9.583487   -2.132426   -5.719887
H        -8.278100   -3.245205   -6.210475
H       -10.198001   -1.210115   -9.304270
H       -10.776028   -0.845611   -7.653152
H       -11.101342   -2.440755   -8.386289
H        -8.239696    0.124493   -3.435012
H        -9.826283   -1.781640   -1.871646
H       -10.528810   -0.402939   -2.747030
H       -11.698077    0.338449   -0.637586
H       -10.977231   -1.038564    0.239078
H       -12.149482   -1.326099   -1.078241
H        -9.633860    1.710204    0.558734
H       -10.181321    6.179549    1.301317
H        -9.436495    5.487118   -3.994464
H        -7.421622    7.397085   -1.695357
H        -5.159314   10.451950   -4.277054
H        -4.595178   10.942708   -6.391956
H        -6.231372   10.667702   -6.969868
H        -6.444870    9.121068   -8.559419
H        -5.771099    7.037788   -9.753712
H        -4.002767    5.601136   -8.824056
H        -2.384598    5.102124   -7.064425
H        -1.204234    5.721874   -4.975049
H        -1.762845    7.875811   -3.826947
H        -3.485749    9.346526   -4.721618
H        -7.870580    9.048197   -6.347234
H        -9.395406    7.369979   -5.540319
H        -8.823604    3.687401   -3.937112
H        -7.854650    5.531701   -9.725705
H        -7.505515    5.776872   -5.609480
H        -6.145359    5.119301   -6.537230
H        -7.590250    4.107835   -6.269209
H        -5.405770    2.099244  -10.191644
H        -4.782588    3.801726  -12.581028
H        -5.243203    2.083510  -12.739463
H        -3.682093    2.518866  -11.989146
H        -8.792435    0.721194   -7.732767
H        -7.484827   -0.704859   -5.345795
