99
-1 1
O        -1.162030    0.057637   -4.973972
C        -0.043648   -0.357559   -4.698332
C         0.372150   -0.660786   -3.253726
C         0.789935   -2.135593   -3.056667
S         2.423725   -2.585154   -3.740501
C         0.180541   -5.085080   -0.940362
C         0.683623   -6.353848   -1.575523
N        -0.010862   -6.741355   -2.791089
C        -1.363090   -7.188134   -2.569971
C         0.092939   -5.786840   -3.878605
C        -0.457177   -4.993173    0.230928
C        -0.891878   -3.664175    0.748195
O        -0.646636   -2.619268    0.180047
N        -1.594008   -3.728183    1.931007
C        -2.011291   -2.671579    2.746040
C        -2.601290   -3.049568    3.990736
O        -2.783991   -4.386814    4.230124
C        -4.026159   -4.922559    3.782425
C        -5.194503   -4.556371    4.677931
C        -2.921563   -2.103983    4.930073
C        -2.709642   -0.725753    4.678985
N        -2.978179    0.151181    5.690941
C        -2.742692    1.410162    5.457381
C        -2.255055    1.940856    4.230205
C        -2.166515    3.365061    4.129274
N        -2.129656    4.523877    4.115001
C        -1.993972    1.072122    3.153529
N        -1.570282    1.472967    1.934954
C        -0.720266    2.554315    1.626866
C         0.365364    2.890405    2.437510
C         1.286305    3.829937    2.000725
Cl         2.650205    4.212076    3.043054
C         1.199144    4.453704    0.742238
N         2.173099    5.329227    0.310312
C         2.496009    5.548025   -1.085309
C         2.487162    4.339383   -2.012649
C         1.790771    4.440884   -3.197288
C         1.740269    3.382185   -4.133339
C         2.386972    2.204480   -3.866790
C         3.176196    3.116140   -1.713967
C         3.106219    2.038081   -2.650720
C         3.728474    0.794734   -2.348235
C         4.408224    0.623312   -1.167833
C         4.513485    1.694810   -0.252001
C         3.918497    2.905582   -0.517075
C         0.077839    4.123303   -0.037043
C        -0.862790    3.200032    0.395874
C        -2.212365   -0.338509    3.407471
C        -1.859062   -1.328602    2.455237
N        -0.739991   -0.282488   -2.409257
C        -0.702430    0.045599   -1.112216
C         0.648365    0.141666   -0.443819
O        -1.748499    0.321694   -0.507031
H         1.241179   -0.034043   -3.012799
N         0.922293   -0.588869   -5.612673
C         0.635486   -0.504491   -7.020809
H         0.779122   -2.300925   -1.970307
H        -0.012752   -2.771308   -3.472480
H         0.621311   -7.188912   -0.856552
H         1.748746   -6.207336   -1.821573
H        -1.770688   -7.607195   -3.503970
H        -2.056357   -6.383110   -2.236385
H        -1.383621   -7.984993   -1.808344
H         1.103418   -5.352483   -3.930376
H        -0.614831   -4.936543   -3.782455
H        -0.122253   -6.287697   -4.836748
H        -1.676180   -4.634244    2.376704
H        -3.880322   -6.012991    3.769382
H        -4.218621   -4.597597    2.743454
H        -5.379842   -3.472775    4.671535
H        -5.000966   -4.871632    5.713806
H        -6.106995   -5.059252    4.323774
H        -3.325517   -2.400142    5.898094
H        -2.953940    2.119451    6.266950
H        -1.725695    0.864545    1.102853
H         0.518577    2.396874    3.398071
H         2.934766    5.450190    0.962306
H         3.498027    6.006949   -1.099311
H         1.816334    6.301567   -1.522157
H         1.247062    5.365473   -3.414837
H         1.168479    3.499766   -5.056065
H         2.333952    1.368822   -4.569164
H         3.619128   -0.048394   -3.041217
H         4.855146   -0.346244   -0.938501
H         5.060710    1.559884    0.684029
H         4.004386    3.705234    0.216115
H        -0.048454    4.590270   -1.013122
H        -1.703008    2.934143   -0.246132
H        -1.447798   -1.056932    1.485876
H        -1.640534   -0.214655   -2.877639
H         0.520738    0.106293    0.643627
H         1.107131    1.109391   -0.707570
H         1.337042   -0.654616   -0.750581
H         1.696262   -1.202284   -5.281272
H         0.016047    0.380749   -7.221784
H         0.086076   -1.387305   -7.393137
H         1.577166   -0.420642   -7.581110
H         0.343065   -4.159578   -1.501819
H        -0.655723   -5.887022    0.834989
