93
-1 1
O        -2.145815    9.434426    5.261583
C        -2.582084    8.294533    5.258572
C        -1.685533    7.096726    4.896154
C        -2.253709    6.083631    3.887793
S        -3.766623    5.136556    4.321849
C        -3.709698    3.244314    5.653183
C        -2.857555    3.592673    6.855058
N        -3.173946    4.751986    7.697551
C        -2.648320    4.568662    9.030495
C        -4.541503    5.225115    7.745130
C        -5.043922    2.848367    5.755975
C        -5.622608    2.030319    4.730265
O        -5.051932    1.578456    3.744908
N        -7.017902    1.728815    4.836317
C        -7.916657    2.193496    5.786451
C        -7.728132    1.856913    7.172835
O        -6.708032    1.034152    7.434307
C        -6.059424    1.101918    8.684298
C        -4.753282    0.350401    8.561264
C        -8.571087    2.373795    8.131752
C        -9.696420    3.159039    7.779689
N       -10.495199    3.612717    8.789774
C       -11.537031    4.316049    8.457539
C       -11.914905    4.645614    7.122630
C       -13.144197    5.363801    6.968222
N       -14.153819    5.934798    6.942378
C       -11.107456    4.201728    6.061777
N       -11.371933    4.444583    4.746490
C       -12.285429    5.403599    4.239490
C       -12.048316    6.767174    4.428758
C       -12.972786    7.694075    3.981188
Cl       -12.683928    9.397285    4.276234
C       -14.154221    7.315225    3.309622
N       -15.055391    8.262112    2.887680
C       -16.376265    7.937163    2.422087
C       -16.436767    7.386441    1.006187
C       -17.531349    6.613603    0.606196
C       -17.620536    6.127354   -0.696770
C       -16.608205    6.402654   -1.615766
C       -15.510069    7.165589   -1.221420
C       -15.425699    7.654870    0.081226
C       -14.345993    5.939477    3.090634
C       -13.432064    5.003889    3.556931
C        -9.945847    3.427718    6.409026
C        -9.013702    2.956932    5.446659
N        -1.221207    6.464796    6.116566
C         0.102313    6.362144    6.395074
C         0.427532    5.657466    7.702061
O         0.988935    6.781663    5.670086
H        -0.793744    7.551828    4.445140
N        -3.846001    7.972892    5.628694
C        -4.816195    8.968396    5.993590
H        -2.474084    6.618901    2.949343
H        -1.442609    5.374243    3.659707
H        -1.815298    3.719883    6.513909
H        -2.868670    2.671728    7.479393
H        -3.219486    3.808774    9.612073
H        -2.683527    5.517370    9.589845
H        -1.601901    4.235437    8.992237
H        -4.928199    5.361744    6.729189
H        -4.559296    6.201833    8.254728
H        -5.221171    4.541073    8.299830
H        -7.395155    1.493946    3.926309
H        -6.698155    0.667154    9.476028
H        -5.879311    2.161719    8.942622
H        -4.935358   -0.707632    8.323784
H        -4.186435    0.409465    9.502094
H        -4.158948    0.790431    7.747605
H        -8.434013    2.159136    9.191057
H       -12.181753    4.676884    9.268082
H       -10.793064    3.963301    4.072862
H       -11.153509    7.099409    4.956787
H       -14.894487    9.199618    3.227623
H       -16.972600    8.862283    2.461783
H       -16.874512    7.224493    3.106805
H       -18.322377    6.384269    1.326546
H       -18.480890    5.523017   -0.993524
H       -16.671679    6.016076   -2.635338
H       -14.707933    7.378098   -1.931834
H       -14.560844    8.241998    0.398076
H       -15.231124    5.598012    2.554180
H       -13.621266    3.939064    3.410134
H        -9.097327    3.233931    4.393475
H        -1.922288    6.017377    6.723160
H         0.250083    4.575343    7.602242
H        -0.194166    6.031636    8.527250
H         1.487361    5.821422    7.929175
H        -4.149707    7.012122    5.418046
H        -5.525504    9.179978    5.174377
H        -4.285606    9.898907    6.235243
H        -5.396186    8.642884    6.871759
H        -5.684828    3.245572    6.540097
H        -3.144778    2.675133    4.910609
