-1 1
 OpenBabel05232413483D

 93 95  0  0  1  0  0  0  0  0999 V2000
    1.5867    3.3336   -1.1317 O   0  0  0  0  0  0  0  0  0  0  0  0
    0.9195    2.3089   -1.2273 C   0  0  0  0  0  0  0  0  0  0  0  0
    1.2433    1.2746   -2.3133 C   0  0  2  0  0  0  0  0  0  0  0  0
    0.3674    0.0182   -2.3849 C   0  0  0  0  0  0  0  0  0  0  0  0
    0.5759   -1.1619   -1.0027 S   0  0  0  0  0  1  0  0  0  0  0  0
    4.2379   -1.5759    0.5147 C   0  0  0  0  0  0  0  0  0  0  0  0
    4.6787   -0.2248    0.9991 C   0  0  0  0  0  0  0  0  0  0  0  0
    3.7550    0.8269    0.6085 N   0  0  0  0  0  0  0  0  0  0  0  0
    4.3608    2.1419    0.5646 C   0  0  0  0  0  0  0  0  0  0  0  0
    2.5552    0.8105    1.4241 C   0  0  0  0  0  0  0  0  0  0  0  0
    3.6127   -2.4928    1.2542 C   0  0  0  0  0  0  0  0  0  0  0  0
    3.2752   -3.8194    0.6616 C   0  0  0  0  0  0  0  0  0  0  0  0
    3.9053   -4.3072   -0.2572 O   0  0  0  0  0  0  0  0  0  0  0  0
    2.2367   -4.5051    1.2400 N   0  0  0  0  0  0  0  0  0  0  0  0
    1.2624   -4.0405    2.1548 C   0  0  0  0  0  0  0  0  0  0  0  0
    1.2817   -4.5415    3.4906 C   0  0  0  0  0  0  0  0  0  0  0  0
    2.3098   -5.3549    3.7925 O   0  0  0  0  0  0  0  0  0  0  0  0
    2.4089   -5.8790    5.0954 C   0  0  0  0  0  0  0  0  0  0  0  0
    3.6622   -6.7237    5.1647 C   0  0  0  0  0  0  0  0  0  0  0  0
    0.2703   -4.1955    4.3631 C   0  0  0  0  0  0  0  0  0  0  0  0
   -0.7943   -3.3561    3.9521 C   0  0  0  0  0  0  0  0  0  0  0  0
   -1.7977   -3.1451    4.8572 N   0  0  0  0  0  0  0  0  0  0  0  0
   -2.8308   -2.4759    4.4338 C   0  0  0  0  0  0  0  0  0  0  0  0
   -2.9739   -1.8884    3.1464 C   0  0  0  0  0  0  0  0  0  0  0  0
   -4.2583   -1.3358    2.8535 C   0  0  0  0  0  0  0  0  0  0  0  0
   -5.3356   -0.9355    2.6940 N   0  0  0  0  0  0  0  0  0  0  0  0
   -1.8937   -1.9552    2.2321 C   0  0  0  0  0  0  0  0  0  0  0  0
   -1.8376   -1.3338    1.0455 N   0  0  0  0  0  0  0  0  0  0  0  0
   -2.6451   -0.3011    0.5220 C   0  0  0  0  0  0  0  0  0  0  0  0
   -3.0523    0.8083    1.2643 C   0  0  0  0  0  0  0  0  0  0  0  0
   -3.7062    1.8559    0.6332 C   0  0  0  0  0  0  0  0  0  0  0  0
   -4.2108    3.2338    1.5976 Cl  0  0  0  0  0  0  0  0  0  0  0  0
   -3.9293    1.8888   -0.7554 C   0  0  0  0  0  0  0  0  0  0  0  0
   -4.5311    2.9708   -1.3585 N   0  0  0  0  0  0  0  0  0  0  0  0
   -4.4929    3.1837   -2.7834 C   0  0  0  0  0  0  0  0  0  0  0  0
   -3.1031    3.2979   -3.3946 C   0  0  0  0  0  0  0  0  0  0  0  0
   -2.8346    2.7475   -4.6504 C   0  0  0  0  0  0  0  0  0  0  0  0
   -1.5610    2.8399   -5.2120 C   0  0  0  0  0  0  0  0  0  0  0  0
   -0.5379    3.4884   -4.5224 C   0  0  0  0  0  0  0  0  0  0  0  0
   -0.7986    4.0471   -3.2706 C   0  0  0  0  0  0  0  0  0  0  0  0
   -2.0702    3.9452   -2.7116 C   0  0  0  0  0  0  0  0  0  0  0  0
   -3.5047    0.7615   -1.4804 C   0  0  0  0  0  0  0  0  0  0  0  0
   -2.8918   -0.3128   -0.8545 C   0  0  0  0  0  0  0  0  0  0  0  0
   -0.7893   -2.8077    2.6431 C   0  0  0  0  0  0  0  0  0  0  0  0
    0.2594   -3.1813    1.7644 C   0  0  0  0  0  0  0  0  0  0  0  0
    2.6517    0.9790   -2.2487 N   0  0  0  0  0  0  0  0  0  0  0  0
    3.5125    1.3582   -3.2162 C   0  0  0  0  0  0  0  0  0  0  0  0
    4.9713    1.0541   -2.9184 C   0  0  0  0  0  0  0  0  0  0  0  0
    3.1834    1.8990   -4.2618 O   0  0  0  0  0  0  0  0  0  0  0  0
    1.1038    1.8304   -3.2538 H   0  0  0  0  0  0  0  0  0  0  0  0
   -0.1386    2.0505   -0.4279 N   0  0  0  0  0  0  0  0  0  0  0  0
   -0.5034    2.9411    0.6416 C   0  0  0  0  0  0  0  0  0  0  0  0
   -0.6827    0.3420   -2.4903 H   0  0  0  0  0  0  0  0  0  0  0  0
    0.6308   -0.4902   -3.3245 H   0  0  0  0  0  0  0  0  0  0  0  0
    5.6614   -0.0014    0.5521 H   0  0  0  0  0  0  0  0  0  0  0  0
    4.8249   -0.2422    2.1034 H   0  0  0  0  0  0  0  0  0  0  0  0
    4.6850    2.5004    1.5677 H   0  0  0  0  0  0  0  0  0  0  0  0
    3.6373    2.8582    0.1463 H   0  0  0  0  0  0  0  0  0  0  0  0
    5.2429    2.1291   -0.0938 H   0  0  0  0  0  0  0  0  0  0  0  0
    1.9949   -0.1207    1.2612 H   0  0  0  0  0  0  0  0  0  0  0  0
    1.9007    1.6378    1.1266 H   0  0  0  0  0  0  0  0  0  0  0  0
    2.7937    0.9264    2.5060 H   0  0  0  0  0  0  0  0  0  0  0  0
    2.1139   -5.4380    0.8609 H   0  0  0  0  0  0  0  0  0  0  0  0
    1.5134   -6.4839    5.3300 H   0  0  0  0  0  0  0  0  0  0  0  0
    2.4495   -5.0550    5.8314 H   0  0  0  0  0  0  0  0  0  0  0  0
    3.6134   -7.5466    4.4373 H   0  0  0  0  0  0  0  0  0  0  0  0
    3.7784   -7.1509    6.1713 H   0  0  0  0  0  0  0  0  0  0  0  0
    4.5488   -6.1157    4.9353 H   0  0  0  0  0  0  0  0  0  0  0  0
    0.2197   -4.5695    5.3844 H   0  0  0  0  0  0  0  0  0  0  0  0
   -3.6672   -2.3536    5.1335 H   0  0  0  0  0  0  0  0  0  0  0  0
   -0.9937   -1.4407    0.4264 H   0  0  0  0  0  0  0  0  0  0  0  0
   -2.8472    0.8764    2.3325 H   0  0  0  0  0  0  0  0  0  0  0  0
   -4.6494    3.7831   -0.7693 H   0  0  0  0  0  0  0  0  0  0  0  0
   -5.0580    4.1081   -2.9829 H   0  0  0  0  0  0  0  0  0  0  0  0
   -5.0471    2.3806   -3.3006 H   0  0  0  0  0  0  0  0  0  0  0  0
   -3.6278    2.2181   -5.1880 H   0  0  0  0  0  0  0  0  0  0  0  0
   -1.3604    2.3826   -6.1836 H   0  0  0  0  0  0  0  0  0  0  0  0
    0.4728    3.5261   -4.9357 H   0  0  0  0  0  0  0  0  0  0  0  0
    0.0105    4.5148   -2.7064 H   0  0  0  0  0  0  0  0  0  0  0  0
   -2.2544    4.3494   -1.7125 H   0  0  0  0  0  0  0  0  0  0  0  0
   -3.6355    0.7352   -2.5616 H   0  0  0  0  0  0  0  0  0  0  0  0
   -2.5412   -1.1623   -1.4421 H   0  0  0  0  0  0  0  0  0  0  0  0
    0.2845   -2.8384    0.7272 H   0  0  0  0  0  0  0  0  0  0  0  0
    3.0098    0.6212   -1.3587 H   0  0  0  0  0  0  0  0  0  0  0  0
    5.1071    0.4423   -2.0160 H   0  0  0  0  0  0  0  0  0  0  0  0
    5.5081    2.0065   -2.7953 H   0  0  0  0  0  0  0  0  0  0  0  0
    5.4070    0.5354   -3.7832 H   0  0  0  0  0  0  0  0  0  0  0  0
   -0.4873    1.0926   -0.4197 H   0  0  0  0  0  0  0  0  0  0  0  0
   -1.4542    3.4612    0.4399 H   0  0  0  0  0  0  0  0  0  0  0  0
    0.2901    3.6924    0.7505 H   0  0  0  0  0  0  0  0  0  0  0  0
   -0.6158    2.3879    1.5862 H   0  0  0  0  0  0  0  0  0  0  0  0
    3.3435   -2.2965    2.2975 H   0  0  0  0  0  0  0  0  0  0  0  0
    4.4224   -1.8154   -0.5380 H   0  0  0  0  0  0  0  0  0  0  0  0
  2  1  2  0  0  0  0
  2 51  1  0  0  0  0
  3 50  1  6  0  0  0
  3 46  1  0  0  0  0
  3  2  1  0  0  0  0
  4  3  1  0  0  0  0
  4  5  1  0  0  0  0
  6  7  1  0  0  0  0
  6 11  2  0  0  0  0
  7 56  1  0  0  0  0
  8  7  1  0  0  0  0
  8 10  1  0  0  0  0
  9  8  1  0  0  0  0
  9 57  1  0  0  0  0
 10 62  1  0  0  0  0
 11 92  1  0  0  0  0
 12 14  1  0  0  0  0
 12 11  1  0  0  0  0
 13 12  2  0  0  0  0
 14 15  1  0  0  0  0
 15 16  1  0  0  0  0
 16 17  1  0  0  0  0
 16 20  2  0  0  0  0
 17 18  1  0  0  0  0
 18 19  1  0  0  0  0
 18 64  1  0  0  0  0
 18 65  1  0  0  0  0
 19 67  1  0  0  0  0
 20 69  1  0  0  0  0
 21 20  1  0  0  0  0
 21 22  1  0  0  0  0
 23 22  2  0  0  0  0
 23 70  1  0  0  0  0
 24 23  1  0  0  0  0
 25 24  1  0  0  0  0
 26 25  3  0  0  0  0
 27 44  1  0  0  0  0
 27 24  2  0  0  0  0
 28 27  1  0  0  0  0
 29 28  1  0  0  0  0
 29 30  1  0  0  0  0
 30 72  1  0  0  0  0
 31 30  2  0  0  0  0
 31 32  1  0  0  0  0
 33 31  1  0  0  0  0
 34 73  1  0  0  0  0
 34 33  1  0  0  0  0
 35 34  1  0  0  0  0
 36 35  1  0  0  0  0
 36 41  1  0  0  0  0
 37 36  2  0  0  0  0
 38 37  1  0  0  0  0
 38 39  2  0  0  0  0
 39 40  1  0  0  0  0
 40 41  2  0  0  0  0
 40 79  1  0  0  0  0
 41 80  1  0  0  0  0
 42 43  1  0  0  0  0
 42 33  2  0  0  0  0
 43 29  2  0  0  0  0
 44 21  2  0  0  0  0
 45 15  2  0  0  0  0
 45 44  1  0  0  0  0
 46 84  1  0  0  0  0
 47 48  1  0  0  0  0
 47 46  1  0  0  0  0
 48 86  1  0  0  0  0
 48 85  1  0  0  0  0
 49 47  2  0  0  0  0
 51 88  1  0  0  0  0
 51 52  1  0  0  0  0
 52 90  1  0  0  0  0
 52 91  1  0  0  0  0
 53  4  1  0  0  0  0
 54  4  1  0  0  0  0
 55  7  1  0  0  0  0
 58  9  1  0  0  0  0
 59  9  1  0  0  0  0
 60 10  1  0  0  0  0
 61 10  1  0  0  0  0
 63 14  1  0  0  0  0
 66 19  1  0  0  0  0
 68 19  1  0  0  0  0
 71 28  1  0  0  0  0
 74 35  1  0  0  0  0
 75 35  1  0  0  0  0
 76 37  1  0  0  0  0
 77 38  1  0  0  0  0
 78 39  1  0  0  0  0
 81 42  1  0  0  0  0
 82 43  1  0  0  0  0
 83 45  1  0  0  0  0
 87 48  1  0  0  0  0
 89 52  1  0  0  0  0
 93  6  1  0  0  0  0
M  END
