-1 1
 OpenBabel05232414493D

 93 95  0  0  1  0  0  0  0  0999 V2000
    2.3151    6.8385    3.4809 O   0  0  0  0  0  0  0  0  0  0  0  0
    1.6371    7.7974    3.0920 C   0  0  0  0  0  0  0  0  0  0  0  0
    0.2345    7.6286    2.4859 C   0  0  2  0  0  0  0  0  0  0  0  0
   -0.3184    6.2124    2.6454 C   0  0  0  0  0  0  0  0  0  0  0  0
   -2.0238    6.0254    2.0648 S   0  0  0  0  0  1  0  0  0  0  0  0
   -1.1762    4.3960   -0.1658 C   0  0  0  0  0  0  0  0  0  0  0  0
    0.1093    3.9989   -0.0178 C   0  0  0  0  0  0  0  0  0  0  0  0
    1.2155    4.8852   -0.3551 C   0  0  0  0  0  0  0  0  0  0  0  0
    2.4744    4.3361   -0.1991 N   0  0  0  0  0  0  0  0  0  0  0  0
    3.6636    5.1132   -0.1455 C   0  0  0  0  0  0  0  0  0  0  0  0
    4.0819    5.5984    1.0763 C   0  0  0  0  0  0  0  0  0  0  0  0
    4.4833    5.3183   -1.2979 C   0  0  0  0  0  0  0  0  0  0  0  0
    4.2190    4.8226   -2.5192 O   0  0  0  0  0  0  0  0  0  0  0  0
    2.9032    4.8163   -3.0664 C   0  0  0  0  0  0  0  0  0  0  0  0
    3.0272    4.9789   -4.5660 C   0  0  0  0  0  0  0  0  0  0  0  0
    5.6784    6.0014   -1.1563 C   0  0  0  0  0  0  0  0  0  0  0  0
    6.1222    6.4863    0.0896 C   0  0  0  0  0  0  0  0  0  0  0  0
    5.3061    6.2869    1.2377 C   0  0  0  0  0  0  0  0  0  0  0  0
    5.7871    6.7365    2.5208 C   0  0  0  0  0  0  0  0  0  0  0  0
    5.0286    6.5073    3.6305 N   0  0  0  0  0  0  0  0  0  0  0  0
    5.4473    6.3050    4.9477 C   0  0  0  0  0  0  0  0  0  0  0  0
    6.6950    5.7582    5.2675 C   0  0  0  0  0  0  0  0  0  0  0  0
    7.0441    5.5449    6.5945 C   0  0  0  0  0  0  0  0  0  0  0  0
    8.6018    4.8166    6.9232 Cl  0  0  0  0  0  0  0  0  0  0  0  0
    6.1837    5.8626    7.6569 C   0  0  0  0  0  0  0  0  0  0  0  0
    6.5449    5.6465    9.0002 N   0  0  0  0  0  0  0  0  0  0  0  0
    7.5294    6.5442    9.5847 C   0  0  0  0  0  0  0  0  0  0  0  0
    8.0251    6.0435   10.9221 C   0  0  0  0  0  0  0  0  0  0  0  0
    8.2155    4.6747   11.1433 C   0  0  0  0  0  0  0  0  0  0  0  0
    8.7095    4.2166   12.3629 C   0  0  0  0  0  0  0  0  0  0  0  0
    9.0216    5.1192   13.3800 C   0  0  0  0  0  0  0  0  0  0  0  0
    8.8326    6.4840   13.1693 C   0  0  0  0  0  0  0  0  0  0  0  0
    8.3344    6.9402   11.9493 C   0  0  0  0  0  0  0  0  0  0  0  0
    4.9234    6.3654    7.3076 C   0  0  0  0  0  0  0  0  0  0  0  0
    4.5477    6.5742    5.9881 C   0  0  0  0  0  0  0  0  0  0  0  0
    7.0166    7.4148    2.5192 C   0  0  0  0  0  0  0  0  0  0  0  0
    7.5422    8.0897    3.6646 C   0  0  0  0  0  0  0  0  0  0  0  0
    8.0001    8.6750    4.5547 N   0  0  0  0  0  0  0  0  0  0  0  0
    7.7332    7.5569    1.2933 C   0  0  0  0  0  0  0  0  0  0  0  0
    7.3358    7.1179    0.1368 N   0  0  0  0  0  0  0  0  0  0  0  0
    1.0924    6.0345   -0.7816 O   0  0  0  0  0  0  0  0  0  0  0  0
    0.2795    8.0134    1.0868 N   0  0  0  0  0  0  0  0  0  0  0  0
    0.2051    9.2785    0.6520 C   0  0  0  0  0  0  0  0  0  0  0  0
    0.0287    9.4342   -0.8419 C   0  0  0  0  0  0  0  0  0  0  0  0
    0.2596   10.2592    1.3999 O   0  0  0  0  0  0  0  0  0  0  0  0
   -0.4364    8.3361    3.0018 H   0  0  0  0  0  0  0  0  0  0  0  0
    2.0619    9.0680    3.1520 N   0  0  0  0  0  0  0  0  0  0  0  0
    3.4020    9.4356    3.5358 C   0  0  0  0  0  0  0  0  0  0  0  0
    0.3526    5.5095    2.1088 H   0  0  0  0  0  0  0  0  0  0  0  0
   -0.2301    5.9435    3.7086 H   0  0  0  0  0  0  0  0  0  0  0  0
    2.5156    3.4329    0.2561 H   0  0  0  0  0  0  0  0  0  0  0  0
    3.4270    5.4254    1.9319 H   0  0  0  0  0  0  0  0  0  0  0  0
    2.3096    5.6292   -2.6232 H   0  0  0  0  0  0  0  0  0  0  0  0
    2.4044    3.8661   -2.8179 H   0  0  0  0  0  0  0  0  0  0  0  0
    3.4938    5.9428   -4.8167 H   0  0  0  0  0  0  0  0  0  0  0  0
    2.0306    4.9419   -5.0304 H   0  0  0  0  0  0  0  0  0  0  0  0
    3.6424    4.1753   -4.9978 H   0  0  0  0  0  0  0  0  0  0  0  0
    6.3111    6.1552   -2.0301 H   0  0  0  0  0  0  0  0  0  0  0  0
    3.9998    6.5662    3.5165 H   0  0  0  0  0  0  0  0  0  0  0  0
    7.3992    5.4786    4.4841 H   0  0  0  0  0  0  0  0  0  0  0  0
    7.1434    7.5771    9.6951 H   0  0  0  0  0  0  0  0  0  0  0  0
    8.3839    6.6107    8.8927 H   0  0  0  0  0  0  0  0  0  0  0  0
    7.9623    3.9764   10.3427 H   0  0  0  0  0  0  0  0  0  0  0  0
    8.8529    3.1449   12.5206 H   0  0  0  0  0  0  0  0  0  0  0  0
    9.4074    4.7588   14.3365 H   0  0  0  0  0  0  0  0  0  0  0  0
    9.0681    7.1991   13.9612 H   0  0  0  0  0  0  0  0  0  0  0  0
    8.1810    8.0117   11.7919 H   0  0  0  0  0  0  0  0  0  0  0  0
    4.2186    6.6073    8.1076 H   0  0  0  0  0  0  0  0  0  0  0  0
    3.5498    6.9435    5.7447 H   0  0  0  0  0  0  0  0  0  0  0  0
    8.6928    8.0874    1.3275 H   0  0  0  0  0  0  0  0  0  0  0  0
    0.2994    7.2570    0.3992 H   0  0  0  0  0  0  0  0  0  0  0  0
   -1.0415    9.5873   -1.0472 H   0  0  0  0  0  0  0  0  0  0  0  0
    0.3666    8.5447   -1.3902 H   0  0  0  0  0  0  0  0  0  0  0  0
    0.5742   10.3252   -1.1783 H   0  0  0  0  0  0  0  0  0  0  0  0
    1.4487    9.7594    2.6972 H   0  0  0  0  0  0  0  0  0  0  0  0
    3.4456   10.5211    3.6911 H   0  0  0  0  0  0  0  0  0  0  0  0
    4.1456    9.1678    2.7654 H   0  0  0  0  0  0  0  0  0  0  0  0
    3.6970    8.9411    4.4724 H   0  0  0  0  0  0  0  0  0  0  0  0
    5.7206    5.5914    9.5904 H   0  0  0  0  0  0  0  0  0  0  0  0
    0.3274    3.0008    0.3734 H   0  0  0  0  0  0  0  0  0  0  0  0
   -2.3359    3.4595    0.0657 C   0  0  0  0  0  0  0  0  0  0  0  0
   -1.3701    5.3720   -0.6098 H   0  0  0  0  0  0  0  0  0  0  0  0
   -2.1299    2.1353   -0.5052 N   0  0  0  0  0  0  0  0  0  0  0  0
   -3.2696    3.9328   -0.3119 H   0  0  0  0  0  0  0  0  0  0  0  0
   -2.4687    3.3591    1.1520 H   0  0  0  0  0  0  0  0  0  0  0  0
   -2.0799    2.1449   -1.9465 C   0  0  0  0  0  0  0  0  0  0  0  0
   -3.0438    2.4596   -2.4122 H   0  0  0  0  0  0  0  0  0  0  0  0
   -1.8362    1.1397   -2.3267 H   0  0  0  0  0  0  0  0  0  0  0  0
   -1.2966    2.8355   -2.2921 H   0  0  0  0  0  0  0  0  0  0  0  0
   -3.0825    1.1778   -0.0029 C   0  0  0  0  0  0  0  0  0  0  0  0
   -2.8459    0.1707   -0.3831 H   0  0  0  0  0  0  0  0  0  0  0  0
   -4.1343    1.4083   -0.2949 H   0  0  0  0  0  0  0  0  0  0  0  0
   -3.0435    1.1454    1.0963 H   0  0  0  0  0  0  0  0  0  0  0  0
  2 47  1  0  0  0  0
  2  1  2  0  0  0  0
  3  4  1  0  0  0  0
  3 46  1  1  0  0  0
  3  2  1  0  0  0  0
  4 50  1  0  0  0  0
  5  4  1  0  0  0  0
  6  7  2  0  0  0  0
  6 81  1  0  0  0  0
  7 80  1  0  0  0  0
  8  9  1  0  0  0  0
  8  7  1  0  0  0  0
  9 10  1  0  0  0  0
  9 51  1  0  0  0  0
 10 11  1  0  0  0  0
 11 18  2  0  0  0  0
 11 52  1  0  0  0  0
 12 16  1  0  0  0  0
 12 10  2  0  0  0  0
 13 12  1  0  0  0  0
 14 54  1  0  0  0  0
 14 53  1  0  0  0  0
 14 13  1  0  0  0  0
 15 14  1  0  0  0  0
 16 17  2  0  0  0  0
 17 40  1  0  0  0  0
 17 18  1  0  0  0  0
 18 19  1  0  0  0  0
 19 20  1  0  0  0  0
 20 21  1  0  0  0  0
 21 22  2  0  0  0  0
 21 35  1  0  0  0  0
 22 23  1  0  0  0  0
 23 24  1  0  0  0  0
 23 25  2  0  0  0  0
 25 26  1  0  0  0  0
 26 27  1  0  0  0  0
 26 79  1  0  0  0  0
 27 61  1  0  0  0  0
 27 28  1  0  0  0  0
 28 29  2  0  0  0  0
 28 33  1  0  0  0  0
 29 30  1  0  0  0  0
 30 64  1  0  0  0  0
 30 31  2  0  0  0  0
 31 65  1  0  0  0  0
 32 31  1  0  0  0  0
 32 66  1  0  0  0  0
 33 32  2  0  0  0  0
 34 25  1  0  0  0  0
 34 68  1  0  0  0  0
 35 34  2  0  0  0  0
 36 19  2  0  0  0  0
 36 37  1  0  0  0  0
 37 38  3  0  0  0  0
 39 70  1  0  0  0  0
 39 36  1  0  0  0  0
 40 39  2  0  0  0  0
 41  8  2  0  0  0  0
 42  3  1  0  0  0  0
 43 42  1  0  0  0  0
 43 45  2  0  0  0  0
 44 43  1  0  0  0  0
 47 48  1  0  0  0  0
 48 76  1  0  0  0  0
 48 78  1  0  0  0  0
 49  4  1  0  0  0  0
 55 15  1  0  0  0  0
 56 15  1  0  0  0  0
 57 15  1  0  0  0  0
 58 16  1  0  0  0  0
 59 20  1  0  0  0  0
 60 22  1  0  0  0  0
 62 27  1  0  0  0  0
 63 29  1  0  0  0  0
 67 33  1  0  0  0  0
 69 35  1  0  0  0  0
 71 42  1  0  0  0  0
 72 44  1  0  0  0  0
 73 44  1  0  0  0  0
 74 44  1  0  0  0  0
 75 47  1  0  0  0  0
 77 48  1  0  0  0  0
 81 85  1  0  0  0  0
 82  6  1  0  0  0  0
 83 90  1  0  0  0  0
 83 81  1  0  0  0  0
 84 81  1  0  0  0  0
 86 83  1  0  0  0  0
 87 86  1  0  0  0  0
 88 86  1  0  0  0  0
 89 86  1  0  0  0  0
 90 93  1  0  0  0  0
 91 90  1  0  0  0  0
 92 90  1  0  0  0  0
M  END
