93
-1 1
O        -1.447851    0.804742    0.198632
C        -2.114620    1.784324   -0.158374
C        -3.545961    1.659778   -0.703922
C        -4.148471    0.268744   -0.514108
S        -5.892656    0.169461   -1.027946
C        -4.886598   -1.671751   -3.585066
C        -3.604090   -2.047382   -3.475878
C        -2.509229   -1.093543   -3.714759
N        -1.250460   -1.623132   -3.549590
C        -0.063559   -0.845724   -3.449070
C         0.334915   -0.400568   -2.205987
C         0.775398   -0.613635   -4.581074
O         0.513859   -1.073984   -5.818584
C        -0.783847   -0.956832   -6.395081
C        -0.614901   -0.709123   -7.878618
C         1.973865    0.051748   -4.401940
C         2.401408    0.493670   -3.133502
C         1.563124    0.270953   -2.006075
C         2.028606    0.674571   -0.700490
N         1.247550    0.422077    0.386051
C         1.639985    0.205035    1.709981
C         2.865841   -0.380868    2.043770
C         3.191773   -0.606697    3.374477
Cl         4.721914   -1.382907    3.721433
C         2.327378   -0.264572    4.426132
N         2.664381   -0.493776    5.773199
C         3.669765    0.370919    6.372038
C         4.135663   -0.149844    7.712531
C         4.283791   -1.524537    7.929532
C         4.751029   -2.001950    9.152293
C         5.077867   -1.113111   10.176838
C         4.930802    0.257520    9.970301
C         4.459381    0.733158    8.747052
C         1.087326    0.276854    4.062066
C         0.735370    0.500130    2.738323
C         3.268314    1.334178   -0.662545
C         3.788659    1.965357    0.510026
N         4.246492    2.517098    1.421323
C         4.005451    1.504593   -1.871851
N         3.621434    1.107604   -3.048142
O        -2.665009    0.073994   -4.053208
N        -3.538768    2.029039   -2.108813
C        -3.581168    3.289843   -2.560800
C        -3.827535    3.429883   -4.046270
O        -3.446802    4.277525   -1.832912
H        -4.172099    2.394827   -0.170311
N        -1.650890    3.042146   -0.112608
C        -0.286341    3.370702    0.215002
H        -3.521790   -0.455863   -1.069477
H        -4.030126    0.006476    0.548391
H        -1.198655   -2.567840   -3.189778
H        -0.334738   -0.594146   -1.366371
H        -1.335910   -0.136080   -5.913728
H        -1.349885   -1.885658   -6.218285
H        -0.081904    0.236017   -8.057687
H        -1.600385   -0.652061   -8.364228
H        -0.042028   -1.522655   -8.348030
H         2.622652    0.225443   -5.260028
H         0.220598    0.503040    0.255147
H         3.570488   -0.681164    1.268324
H         3.314138    1.414667    6.482684
H         4.533186    0.414238    5.689557
H         4.019408   -2.211923    7.123159
H         4.861472   -3.078023    9.306556
H         5.442595   -1.488566   11.135800
H         5.178041    0.962064   10.768007
H         4.338749    1.809282    8.592997
H         0.380152    0.538825    4.853557
H        -0.246963    0.901590    2.483120
H         4.971156    2.020939   -1.806011
H        -3.609739    1.266477   -2.780833
H        -4.909998    3.547807   -4.206600
H        -3.487816    2.544299   -4.600192
H        -3.321313    4.331900   -4.412403
H        -2.257246    3.749214   -0.552828
H        -0.202088    4.456274    0.351585
H         0.418421    3.068367   -0.579026
H         0.028930    2.881116    1.147724
H         1.831509   -0.523994    6.352989
H        -3.370668   -3.064988   -3.147519
C        -6.053587   -2.555276   -3.279282
H        -5.117595   -0.641280   -3.865766
N        -5.736906   -3.964596   -3.173063
H        -6.865064   -2.361463   -4.018125
H        -6.425757   -2.170176   -2.313374
C        -5.609284   -4.610328   -4.455823
H        -6.573704   -4.659605   -5.014554
H        -5.240481   -5.641533   -4.332702
H        -4.887048   -4.066534   -5.083212
C        -6.618144   -4.676316   -2.279543
H        -6.265987   -5.712444   -2.148542
H        -7.670009   -4.723877   -2.645722
H        -6.625968   -4.190701   -1.293245
