93
-1 1
O        -1.536966    0.552923    0.548906
C        -2.249835    1.445866    0.083171
C        -3.606002    1.143902   -0.580367
C        -4.008944   -0.303533   -0.308113
S        -5.567474   -0.852730   -1.031905
C        -4.973184   -1.562974   -2.707863
C        -3.637302   -2.177230   -2.680989
C        -2.562666   -1.502082   -3.224807
N        -1.280508   -2.124616   -3.201454
C        -0.143274   -1.276775   -3.163306
C         0.301795   -0.773552   -1.957732
C         0.594976   -0.967181   -4.352292
O         0.322702   -1.436357   -5.577344
C        -0.994323   -1.747943   -6.032789
C        -0.983287   -1.632623   -7.542009
C         1.738155   -0.189345   -4.252333
C         2.200853    0.314876   -3.023351
C         1.461675    0.029771   -1.840531
C         1.936874    0.546208   -0.587032
N         1.226560    0.283696    0.555139
C         1.699298    0.140552    1.859039
C         2.992511   -0.312022    2.146353
C         3.402877   -0.461738    3.464374
Cl         5.019901   -1.067711    3.754107
C         2.562231   -0.172519    4.550036
N         2.988437   -0.320723    5.884930
C         3.914997    0.674929    6.402035
C         4.476163    0.276736    7.747828
C         4.786367   -1.060227    8.022657
C         5.338845   -1.421091    9.249839
C         5.590589   -0.451803   10.221340
C         5.282627    0.881659    9.957163
C         4.726046    1.240193    8.729702
C         1.259331    0.235286    4.235852
C         0.822739    0.380948    2.926537
C         3.095592    1.337023   -0.631205
C         3.585814    2.073885    0.491093
N         4.008469    2.711643    1.362855
C         3.756867    1.530638   -1.881451
N         3.354243    1.053647   -3.020408
O        -2.599560   -0.348051   -3.765327
N        -3.523385    1.441931   -1.994812
C        -3.690861    2.688132   -2.466923
C        -3.703521    2.801762   -3.974265
O        -3.837567    3.676787   -1.740779
H        -4.349891    1.834002   -0.148366
N        -1.907538    2.742068    0.086287
C        -0.598555    3.198551    0.487655
H        -3.230138   -0.988332   -0.680691
H        -4.076981   -0.454560    0.777493
H        -1.225003   -2.888239   -2.538058
H        -0.288162   -1.013635   -1.070982
H        -1.713367   -1.051888   -5.576545
H        -1.264809   -2.765645   -5.715472
H        -0.740159   -0.606144   -7.854586
H        -1.975353   -1.892321   -7.941224
H        -0.240729   -2.312823   -7.986684
H         2.308965    0.032672   -5.153766
H         0.199465    0.281852    0.471621
H         3.685236   -0.564398    1.343641
H         3.454979    1.680710    6.475081
H         4.746247    0.771495    5.685587
H         4.580743   -1.812219    7.257933
H         5.576039   -2.468929    9.449233
H         6.022620   -0.736174   11.183712
H         5.470432    1.648155   10.712871
H         4.479604    2.287028    8.530364
H         0.570518    0.455304    5.056107
H        -0.203653    0.682794    2.710135
H         4.667697    2.142444   -1.883847
H        -3.202663    0.702476   -2.668195
H        -4.741391    2.975747   -4.296385
H        -3.324869    1.890207   -4.455041
H        -3.109412    3.675637   -4.273209
H        -2.548786    3.372066   -0.411902
H        -0.624187    4.286032    0.632000
H         0.171719    2.965710   -0.267292
H        -0.293068    2.728136    1.432879
H         2.191967   -0.418404    6.507022
H        -3.511350   -3.172581   -2.245546
C        -6.113086   -2.484751   -3.141648
H        -4.939574   -0.680884   -3.359721
N        -5.902360   -3.103211   -4.437642
H        -7.069213   -1.904584   -3.126018
H        -6.223682   -3.289903   -2.394841
C        -5.571979   -2.177908   -5.494528
H        -6.373075   -1.423432   -5.682907
H        -5.412933   -2.733986   -6.432235
H        -4.641094   -1.641210   -5.262454
C        -6.988560   -3.977367   -4.787731
H        -6.757563   -4.522998   -5.717082
H        -7.957702   -3.443108   -4.943560
H        -7.149615   -4.721313   -3.991218
