89
-1 1
O         0.958639    0.741143   -4.112458
C         1.955827    1.424130   -3.908903
C         3.240807    1.179353   -4.726732
C         4.547012    1.780433   -4.188014
S         4.636488    3.614198   -4.240685
C         4.482677    2.038278   -0.342640
C         5.782991    2.613281   -0.812987
N         6.725780    1.627869   -1.292276
C         7.391311    0.917542   -0.229403
C         7.643847    2.150721   -2.279959
C         4.032144    0.825496   -0.673684
C         2.644460    0.410488   -0.364935
O         1.970748    0.894302    0.530469
N         2.176812   -0.555484   -1.227032
C         0.866113   -0.991971   -1.377657
C         0.596494   -1.746673   -2.570063
O         1.659203   -1.953065   -3.356612
C         1.439880   -2.237899   -4.727711
C        -0.675077   -2.202807   -2.822006
C        -1.736415   -1.941049   -1.920653
N        -2.966142   -2.453121   -2.215007
C        -3.939661   -2.196358   -1.390729
C        -3.822249   -1.408415   -0.209205
C        -5.025475   -1.120309    0.508355
N        -6.035005   -0.917209    1.041591
C        -2.565570   -0.885658    0.131361
N        -2.338366   -0.086533    1.223364
C        -3.006010   -0.109983    2.461862
C        -3.238029    1.092658    3.136281
C        -3.861461    1.088404    4.375523
Cl        -4.134401    2.596870    5.203990
C        -4.299271   -0.106681    4.968077
O        -4.926755   -0.007791    6.161276
C        -5.477537   -1.155285    6.753443
C        -4.450811   -2.087067    7.362600
C        -4.747829   -3.442355    7.530786
C        -3.823776   -4.301960    8.122341
C        -2.587044   -3.814466    8.542820
C        -2.282833   -2.464582    8.370529
C        -3.210403   -1.603991    7.786523
C        -4.055335   -1.303162    4.289179
C        -3.404818   -1.305786    3.060063
C        -1.476006   -1.177370   -0.752094
C        -0.153028   -0.731365   -0.492382
N         3.023464    1.619544   -6.086558
C         2.851601    0.788353   -7.135197
C         2.694073    1.481477   -8.478020
O         2.800315   -0.430317   -7.049588
H         3.330286    0.082758   -4.767285
N         2.015839    2.397784   -2.979394
C         0.878102    2.751607   -2.171849
H         4.703763    1.416728   -3.161813
H         5.361118    1.352267   -4.795381
H         6.215229    3.262829   -0.016141
H         5.521194    3.285421   -1.656324
H         8.072457    1.570343    0.366357
H         7.995052    0.093528   -0.641786
H         6.653887    0.482425    0.462162
H         8.369912    2.878768   -1.849426
H         7.082585    2.657112   -3.080791
H         8.223204    1.325492   -2.724125
H         2.773406   -0.809531   -2.007498
H         0.736042   -1.506464   -5.147811
H         1.073087   -3.270136   -4.857427
H         2.396105   -2.106394   -5.244964
H        -0.912590   -2.770474   -3.719840
H        -4.928847   -2.602041   -1.635221
H        -1.499428    0.478436    1.185066
H        -2.942373    2.040841    2.685522
H        -6.113427   -1.700182    6.032558
H        -6.139786   -0.770948    7.544112
H        -5.710744   -3.832879    7.188401
H        -4.066961   -5.359798    8.245092
H        -1.857335   -4.488151    8.997294
H        -1.312674   -2.077453    8.689759
H        -2.970994   -0.547956    7.644182
H        -4.349762   -2.255334    4.728891
H        -3.210748   -2.254338    2.556894
H         0.106138   -0.160927    0.395670
H         3.206929    2.613409   -6.221210
H         2.987497    2.540093   -8.459668
H         1.639840    1.410091   -8.784717
H         3.294795    0.943255   -9.223288
H         2.818372    3.044567   -3.053682
H         0.131311    1.950499   -2.255522
H         0.416565    3.695649   -2.509214
H         1.168090    2.856918   -1.115438
H         3.823283    2.696727    0.233588
H         4.660826    0.175115   -1.289751
