-1 1
 OpenBabel05192410563D

 89 92  0  0  1  0  0  0  0  0999 V2000
    0.8792   -0.0761   -5.5050 O   0  0  0  0  0  0  0  0  0  0  0  0
    1.5185    0.7660   -4.8901 C   0  0  0  0  0  0  0  0  0  0  0  0
    2.8614    1.2793   -5.4432 C   0  0  2  0  0  0  0  0  0  0  0  0
    4.0448    1.3345   -4.4659 C   0  0  0  0  0  0  0  0  0  0  0  0
    4.0119    2.7099   -3.2805 S   0  0  0  0  0  0  0  0  0  0  0  0
    4.4496    1.7405   -1.5902 C   0  0  2  0  0  0  0  0  0  0  0  0
    5.9528    1.9516   -1.4174 C   0  0  0  0  0  0  0  0  0  0  0  0
    6.5048    1.3262   -0.2289 N   0  0  0  0  0  0  0  0  0  0  0  0
    5.8197    1.6807    0.9895 C   0  0  0  0  0  0  0  0  0  0  0  0
    7.9263    1.5225   -0.1411 C   0  0  0  0  0  0  0  0  0  0  0  0
    3.9901    0.3700   -1.5645 C   0  0  0  0  0  3  0  0  0  0  0  0
    2.6682    0.0843   -1.1999 C   0  0  0  0  0  0  0  0  0  0  0  0
    1.8398    0.8690   -0.7034 O   0  0  0  0  0  0  0  0  0  0  0  0
    2.2597   -1.2652   -1.4990 N   0  0  0  0  0  0  0  0  0  0  0  0
    0.9445   -1.6532   -1.5586 C   0  0  0  0  0  0  0  0  0  0  0  0
    0.5224   -2.4481   -2.6811 C   0  0  0  0  0  0  0  0  0  0  0  0
    1.5081   -2.7535   -3.5440 O   0  0  0  0  0  0  0  0  0  0  0  0
    1.1664   -3.1875   -4.8390 C   0  0  0  0  0  0  0  0  0  0  0  0
   -0.7933   -2.8224   -2.8264 C   0  0  0  0  0  0  0  0  0  0  0  0
   -1.7746   -2.4054   -1.8911 C   0  0  0  0  0  0  0  0  0  0  0  0
   -3.0623   -2.8101   -2.0845 N   0  0  0  0  0  0  0  0  0  0  0  0
   -3.9617   -2.3904   -1.2424 C   0  0  0  0  0  0  0  0  0  0  0  0
   -3.7024   -1.5177   -0.1446 C   0  0  0  0  0  0  0  0  0  0  0  0
   -4.8310   -1.0306    0.5861 C   0  0  0  0  0  0  0  0  0  0  0  0
   -5.7838   -0.6657    1.1374 N   0  0  0  0  0  0  0  0  0  0  0  0
   -2.3838   -1.1053    0.0932 C   0  0  0  0  0  0  0  0  0  0  0  0
   -2.0148   -0.2226    1.0811 N   0  0  0  0  0  0  0  0  0  0  0  0
   -2.5669   -0.0685    2.3609 C   0  0  0  0  0  0  0  0  0  0  0  0
   -2.5183    1.1883    2.9753 C   0  0  0  0  0  0  0  0  0  0  0  0
   -3.0187    1.3596    4.2577 C   0  0  0  0  0  0  0  0  0  0  0  0
   -2.9386    2.9325    5.0056 Cl  0  0  0  0  0  0  0  0  0  0  0  0
   -3.6076    0.2974    4.9608 C   0  0  0  0  0  0  0  0  0  0  0  0
   -4.0967    0.5684    6.1938 O   0  0  0  0  0  0  0  0  0  0  0  0
   -4.7858   -0.4292    6.8991 C   0  0  0  0  0  0  0  0  0  0  0  0
   -3.8907   -1.5024    7.4832 C   0  0  0  0  0  0  0  0  0  0  0  0
   -4.4119   -2.7659    7.7756 C   0  0  0  0  0  0  0  0  0  0  0  0
   -3.6063   -3.7503    8.3453 C   0  0  0  0  0  0  0  0  0  0  0  0
   -2.2656   -3.4824    8.6191 C   0  0  0  0  0  0  0  0  0  0  0  0
   -1.7388   -2.2259    8.3225 C   0  0  0  0  0  0  0  0  0  0  0  0
   -2.5471   -1.2394    7.7605 C   0  0  0  0  0  0  0  0  0  0  0  0
   -3.6431   -0.9546    4.3429 C   0  0  0  0  0  0  0  0  0  0  0  0
   -3.1187   -1.1386    3.0679 C   0  0  0  0  0  0  0  0  0  0  0  0
   -1.3728   -1.5915   -0.7976 C   0  0  0  0  0  0  0  0  0  0  0  0
   -0.0034   -1.2741   -0.6293 C   0  0  0  0  0  0  0  0  0  0  0  0
    2.6321    2.5572   -6.0956 N   0  0  0  0  0  0  0  0  0  0  0  0
    3.1578    2.8705   -7.3104 C   0  0  0  0  0  0  0  0  0  0  0  0
    2.9755    4.3211   -7.7213 C   0  0  0  0  0  0  0  0  0  0  0  0
    3.7489    2.0720   -8.0126 O   0  0  0  0  0  0  0  0  0  0  0  0
    3.1189    0.5763   -6.2455 H   0  0  0  0  0  0  0  0  0  0  0  0
    1.0834    1.3652   -3.7636 N   0  0  0  0  0  0  0  0  0  0  0  0
   -0.2024    1.0841   -3.1702 C   0  0  0  0  0  0  0  0  0  0  0  0
    4.0570    0.4136   -3.8547 H   0  0  0  0  0  0  0  0  0  0  0  0
    4.9697    1.3817   -5.0589 H   0  0  0  0  0  0  0  0  0  0  0  0
    6.1657    3.0470   -1.4322 H   0  0  0  0  0  0  0  0  0  0  0  0
    6.4720    1.5257   -2.2935 H   0  0  0  0  0  0  0  0  0  0  0  0
    5.8562    2.7747    1.2102 H   0  0  0  0  0  0  0  0  0  0  0  0
    6.2808    1.1543    1.8404 H   0  0  0  0  0  0  0  0  0  0  0  0
    4.7665    1.3706    0.9361 H   0  0  0  0  0  0  0  0  0  0  0  0
    8.2201    2.5922   -0.0049 H   0  0  0  0  0  0  0  0  0  0  0  0
    8.4172    1.1631   -1.0597 H   0  0  0  0  0  0  0  0  0  0  0  0
    8.3405    0.9541    0.7075 H   0  0  0  0  0  0  0  0  0  0  0  0
    2.8347   -1.7075   -2.2045 H   0  0  0  0  0  0  0  0  0  0  0  0
    0.5213   -2.4434   -5.3310 H   0  0  0  0  0  0  0  0  0  0  0  0
    0.6793   -4.1778   -4.8173 H   0  0  0  0  0  0  0  0  0  0  0  0
    2.1070   -3.2643   -5.3974 H   0  0  0  0  0  0  0  0  0  0  0  0
   -1.1371   -3.4165   -3.6715 H   0  0  0  0  0  0  0  0  0  0  0  0
   -4.9976   -2.7119   -1.4050 H   0  0  0  0  0  0  0  0  0  0  0  0
   -1.1470    0.2724    0.9111 H   0  0  0  0  0  0  0  0  0  0  0  0
   -2.0946    2.0425    2.4454 H   0  0  0  0  0  0  0  0  0  0  0  0
   -5.5703   -0.8845    6.2677 H   0  0  0  0  0  0  0  0  0  0  0  0
   -5.2962    0.1057    7.7147 H   0  0  0  0  0  0  0  0  0  0  0  0
   -5.4591   -2.9861    7.5477 H   0  0  0  0  0  0  0  0  0  0  0  0
   -4.0251   -4.7349    8.5656 H   0  0  0  0  0  0  0  0  0  0  0  0
   -1.6294   -4.2555    9.0556 H   0  0  0  0  0  0  0  0  0  0  0  0
   -0.6871   -2.0118    8.5255 H   0  0  0  0  0  0  0  0  0  0  0  0
   -2.1343   -0.2574    7.5199 H   0  0  0  0  0  0  0  0  0  0  0  0
   -4.0609   -1.8145    4.8653 H   0  0  0  0  0  0  0  0  0  0  0  0
   -3.1414   -2.1323    2.6186 H   0  0  0  0  0  0  0  0  0  0  0  0
    0.3506   -0.6693    0.2010 H   0  0  0  0  0  0  0  0  0  0  0  0
    2.2631    3.3006   -5.5146 H   0  0  0  0  0  0  0  0  0  0  0  0
    2.0716    4.7759   -7.2917 H   0  0  0  0  0  0  0  0  0  0  0  0
    2.9342    4.3745   -8.8161 H   0  0  0  0  0  0  0  0  0  0  0  0
    3.8493    4.8975   -7.3808 H   0  0  0  0  0  0  0  0  0  0  0  0
    1.7492    1.9315   -3.2339 H   0  0  0  0  0  0  0  0  0  0  0  0
   -0.5448    0.0885   -3.4827 H   0  0  0  0  0  0  0  0  0  0  0  0
   -0.9610    1.8218   -3.4846 H   0  0  0  0  0  0  0  0  0  0  0  0
   -0.0885    1.1045   -2.0793 H   0  0  0  0  0  0  0  0  0  0  0  0
    3.8617    2.3654   -0.9045 H   0  0  0  0  0  0  0  0  0  0  0  0
    4.6547   -0.4303   -1.9000 H   0  0  0  0  0  0  0  0  0  0  0  0
  1  2  2  0  0  0  0
  2 50  1  0  0  0  0
  3 49  1  6  0  0  0
  3  2  1  0  0  0  0
  3  4  1  0  0  0  0
  4 52  1  0  0  0  0
  4  5  1  0  0  0  0
  5  6  1  0  0  0  0
  6 11  1  0  0  0  0
  6  7  1  0  0  0  0
  6 88  1  1  0  0  0
  7  8  1  0  0  0  0
  8 10  1  0  0  0  0
  8  9  1  0  0  0  0
  9 56  1  0  0  0  0
  9 57  1  0  0  0  0
 10 59  1  0  0  0  0
 10 61  1  0  0  0  0
 11 12  1  0  0  0  0
 12 13  2  0  0  0  0
 14 12  1  0  0  0  0
 15 14  1  0  0  0  0
 15 44  1  0  0  0  0
 16 15  2  0  0  0  0
 17 16  1  0  0  0  0
 18 64  1  0  0  0  0
 18 17  1  0  0  0  0
 19 16  1  0  0  0  0
 19 20  2  0  0  0  0
 20 43  1  0  0  0  0
 21 20  1  0  0  0  0
 21 22  2  0  0  0  0
 22 23  1  0  0  0  0
 23 26  2  0  0  0  0
 23 24  1  0  0  0  0
 24 25  3  0  0  0  0
 26 27  1  0  0  0  0
 27 28  1  0  0  0  0
 28 29  2  0  0  0  0
 28 42  1  0  0  0  0
 29 30  1  0  0  0  0
 30 32  2  0  0  0  0
 30 31  1  0  0  0  0
 32 33  1  0  0  0  0
 33 34  1  0  0  0  0
 34 35  1  0  0  0  0
 34 71  1  0  0  0  0
 35 40  2  0  0  0  0
 35 36  1  0  0  0  0
 36 37  2  0  0  0  0
 37 73  1  0  0  0  0
 37 38  1  0  0  0  0
 38 74  1  0  0  0  0
 39 75  1  0  0  0  0
 39 38  2  0  0  0  0
 40 39  1  0  0  0  0
 41 77  1  0  0  0  0
 41 32  1  0  0  0  0
 42 41  2  0  0  0  0
 43 44  2  0  0  0  0
 43 26  1  0  0  0  0
 44 79  1  0  0  0  0
 45 80  1  0  0  0  0
 45  3  1  0  0  0  0
 46 45  1  0  0  0  0
 47 83  1  0  0  0  0
 47 46  1  0  0  0  0
 47 81  1  0  0  0  0
 48 46  2  0  0  0  0
 50 84  1  0  0  0  0
 50 51  1  0  0  0  0
 51 87  1  0  0  0  0
 53  4  1  0  0  0  0
 54  7  1  0  0  0  0
 55  7  1  0  0  0  0
 58  9  1  0  0  0  0
 60 10  1  0  0  0  0
 62 14  1  0  0  0  0
 63 18  1  0  0  0  0
 65 18  1  0  0  0  0
 66 19  1  0  0  0  0
 67 22  1  0  0  0  0
 68 27  1  0  0  0  0
 69 29  1  0  0  0  0
 70 34  1  0  0  0  0
 72 36  1  0  0  0  0
 76 40  1  0  0  0  0
 78 42  1  0  0  0  0
 82 47  1  0  0  0  0
 85 51  1  0  0  0  0
 86 51  1  0  0  0  0
 89 11  1  0  0  0  0
M  END
