-1 1
 OpenBabel05232413483D

 89 91  0  0  1  0  0  0  0  0999 V2000
    0.9586    0.7411   -4.1125 O   0  0  0  0  0  0  0  0  0  0  0  0
    1.9558    1.4241   -3.9089 C   0  0  0  0  0  0  0  0  0  0  0  0
    3.2408    1.1794   -4.7267 C   0  0  2  0  0  0  0  0  0  0  0  0
    4.5470    1.7804   -4.1880 C   0  0  0  0  0  0  0  0  0  0  0  0
    4.6365    3.6142   -4.2407 S   0  0  0  0  0  1  0  0  0  0  0  0
    4.4827    2.0383   -0.3426 C   0  0  0  0  0  0  0  0  0  0  0  0
    5.7830    2.6133   -0.8130 C   0  0  0  0  0  0  0  0  0  0  0  0
    6.7258    1.6279   -1.2923 N   0  0  0  0  0  0  0  0  0  0  0  0
    7.3913    0.9175   -0.2294 C   0  0  0  0  0  0  0  0  0  0  0  0
    7.6438    2.1507   -2.2800 C   0  0  0  0  0  0  0  0  0  0  0  0
    4.0321    0.8255   -0.6737 C   0  0  0  0  0  0  0  0  0  0  0  0
    2.6445    0.4105   -0.3649 C   0  0  0  0  0  0  0  0  0  0  0  0
    1.9707    0.8943    0.5305 O   0  0  0  0  0  0  0  0  0  0  0  0
    2.1768   -0.5555   -1.2270 N   0  0  0  0  0  0  0  0  0  0  0  0
    0.8661   -0.9920   -1.3777 C   0  0  0  0  0  0  0  0  0  0  0  0
    0.5965   -1.7467   -2.5701 C   0  0  0  0  0  0  0  0  0  0  0  0
    1.6592   -1.9531   -3.3566 O   0  0  0  0  0  0  0  0  0  0  0  0
    1.4399   -2.2379   -4.7277 C   0  0  0  0  0  0  0  0  0  0  0  0
   -0.6751   -2.2028   -2.8220 C   0  0  0  0  0  0  0  0  0  0  0  0
   -1.7364   -1.9410   -1.9207 C   0  0  0  0  0  0  0  0  0  0  0  0
   -2.9661   -2.4531   -2.2150 N   0  0  0  0  0  0  0  0  0  0  0  0
   -3.9397   -2.1964   -1.3907 C   0  0  0  0  0  0  0  0  0  0  0  0
   -3.8222   -1.4084   -0.2092 C   0  0  0  0  0  0  0  0  0  0  0  0
   -5.0255   -1.1203    0.5084 C   0  0  0  0  0  0  0  0  0  0  0  0
   -6.0350   -0.9172    1.0416 N   0  0  0  0  0  0  0  0  0  0  0  0
   -2.5656   -0.8857    0.1314 C   0  0  0  0  0  0  0  0  0  0  0  0
   -2.3384   -0.0865    1.2234 N   0  0  0  0  0  0  0  0  0  0  0  0
   -3.0060   -0.1100    2.4619 C   0  0  0  0  0  0  0  0  0  0  0  0
   -3.2380    1.0927    3.1363 C   0  0  0  0  0  0  0  0  0  0  0  0
   -3.8615    1.0884    4.3755 C   0  0  0  0  0  0  0  0  0  0  0  0
   -4.1344    2.5969    5.2040 Cl  0  0  0  0  0  0  0  0  0  0  0  0
   -4.2993   -0.1067    4.9681 C   0  0  0  0  0  0  0  0  0  0  0  0
   -4.9268   -0.0078    6.1613 O   0  0  0  0  0  0  0  0  0  0  0  0
   -5.4775   -1.1553    6.7534 C   0  0  0  0  0  0  0  0  0  0  0  0
   -4.4508   -2.0871    7.3626 C   0  0  0  0  0  0  0  0  0  0  0  0
   -4.7478   -3.4424    7.5308 C   0  0  0  0  0  0  0  0  0  0  0  0
   -3.8238   -4.3020    8.1223 C   0  0  0  0  0  0  0  0  0  0  0  0
   -2.5870   -3.8145    8.5428 C   0  0  0  0  0  0  0  0  0  0  0  0
   -2.2828   -2.4646    8.3705 C   0  0  0  0  0  0  0  0  0  0  0  0
   -3.2104   -1.6040    7.7865 C   0  0  0  0  0  0  0  0  0  0  0  0
   -4.0553   -1.3032    4.2892 C   0  0  0  0  0  0  0  0  0  0  0  0
   -3.4048   -1.3058    3.0601 C   0  0  0  0  0  0  0  0  0  0  0  0
   -1.4760   -1.1774   -0.7521 C   0  0  0  0  0  0  0  0  0  0  0  0
   -0.1530   -0.7314   -0.4924 C   0  0  0  0  0  0  0  0  0  0  0  0
    3.0235    1.6195   -6.0866 N   0  0  0  0  0  0  0  0  0  0  0  0
    2.8516    0.7884   -7.1352 C   0  0  0  0  0  0  0  0  0  0  0  0
    2.6941    1.4815   -8.4780 C   0  0  0  0  0  0  0  0  0  0  0  0
    2.8003   -0.4303   -7.0496 O   0  0  0  0  0  0  0  0  0  0  0  0
    3.3303    0.0828   -4.7673 H   0  0  0  0  0  0  0  0  0  0  0  0
    2.0158    2.3978   -2.9794 N   0  0  0  0  0  0  0  0  0  0  0  0
    0.8781    2.7516   -2.1718 C   0  0  0  0  0  0  0  0  0  0  0  0
    4.7038    1.4167   -3.1618 H   0  0  0  0  0  0  0  0  0  0  0  0
    5.3611    1.3523   -4.7954 H   0  0  0  0  0  0  0  0  0  0  0  0
    6.2152    3.2628   -0.0161 H   0  0  0  0  0  0  0  0  0  0  0  0
    5.5212    3.2854   -1.6563 H   0  0  0  0  0  0  0  0  0  0  0  0
    8.0725    1.5703    0.3664 H   0  0  0  0  0  0  0  0  0  0  0  0
    7.9951    0.0935   -0.6418 H   0  0  0  0  0  0  0  0  0  0  0  0
    6.6539    0.4824    0.4622 H   0  0  0  0  0  0  0  0  0  0  0  0
    8.3699    2.8788   -1.8494 H   0  0  0  0  0  0  0  0  0  0  0  0
    7.0826    2.6571   -3.0808 H   0  0  0  0  0  0  0  0  0  0  0  0
    8.2232    1.3255   -2.7241 H   0  0  0  0  0  0  0  0  0  0  0  0
    2.7734   -0.8095   -2.0075 H   0  0  0  0  0  0  0  0  0  0  0  0
    0.7360   -1.5065   -5.1478 H   0  0  0  0  0  0  0  0  0  0  0  0
    1.0731   -3.2701   -4.8574 H   0  0  0  0  0  0  0  0  0  0  0  0
    2.3961   -2.1064   -5.2450 H   0  0  0  0  0  0  0  0  0  0  0  0
   -0.9126   -2.7705   -3.7198 H   0  0  0  0  0  0  0  0  0  0  0  0
   -4.9288   -2.6020   -1.6352 H   0  0  0  0  0  0  0  0  0  0  0  0
   -1.4994    0.4784    1.1851 H   0  0  0  0  0  0  0  0  0  0  0  0
   -2.9424    2.0408    2.6855 H   0  0  0  0  0  0  0  0  0  0  0  0
   -6.1134   -1.7002    6.0326 H   0  0  0  0  0  0  0  0  0  0  0  0
   -6.1398   -0.7709    7.5441 H   0  0  0  0  0  0  0  0  0  0  0  0
   -5.7107   -3.8329    7.1884 H   0  0  0  0  0  0  0  0  0  0  0  0
   -4.0670   -5.3598    8.2451 H   0  0  0  0  0  0  0  0  0  0  0  0
   -1.8573   -4.4882    8.9973 H   0  0  0  0  0  0  0  0  0  0  0  0
   -1.3127   -2.0775    8.6898 H   0  0  0  0  0  0  0  0  0  0  0  0
   -2.9710   -0.5480    7.6442 H   0  0  0  0  0  0  0  0  0  0  0  0
   -4.3498   -2.2553    4.7289 H   0  0  0  0  0  0  0  0  0  0  0  0
   -3.2107   -2.2543    2.5569 H   0  0  0  0  0  0  0  0  0  0  0  0
    0.1061   -0.1609    0.3957 H   0  0  0  0  0  0  0  0  0  0  0  0
    3.2069    2.6134   -6.2212 H   0  0  0  0  0  0  0  0  0  0  0  0
    2.9875    2.5401   -8.4597 H   0  0  0  0  0  0  0  0  0  0  0  0
    1.6398    1.4101   -8.7847 H   0  0  0  0  0  0  0  0  0  0  0  0
    3.2948    0.9433   -9.2233 H   0  0  0  0  0  0  0  0  0  0  0  0
    2.8184    3.0446   -3.0537 H   0  0  0  0  0  0  0  0  0  0  0  0
    0.1313    1.9505   -2.2555 H   0  0  0  0  0  0  0  0  0  0  0  0
    0.4166    3.6956   -2.5092 H   0  0  0  0  0  0  0  0  0  0  0  0
    1.1681    2.8569   -1.1154 H   0  0  0  0  0  0  0  0  0  0  0  0
    3.8233    2.6967    0.2336 H   0  0  0  0  0  0  0  0  0  0  0  0
    4.6608    0.1751   -1.2898 H   0  0  0  0  0  0  0  0  0  0  0  0
  1  2  2  0  0  0  0
  2 50  1  0  0  0  0
  3 49  1  6  0  0  0
  3  4  1  0  0  0  0
  3  2  1  0  0  0  0
  4 52  1  0  0  0  0
  5  4  1  0  0  0  0
  6 88  1  0  0  0  0
  7  6  1  0  0  0  0
  7 54  1  0  0  0  0
  8  7  1  0  0  0  0
  8  9  1  0  0  0  0
  9 56  1  0  0  0  0
  9 58  1  0  0  0  0
 10 59  1  0  0  0  0
 10  8  1  0  0  0  0
 11 12  1  0  0  0  0
 11  6  2  0  0  0  0
 12 13  2  0  0  0  0
 14 12  1  0  0  0  0
 15 14  1  0  0  0  0
 15 44  1  0  0  0  0
 16 15  2  0  0  0  0
 17 16  1  0  0  0  0
 18 17  1  0  0  0  0
 19 16  1  0  0  0  0
 19 20  2  0  0  0  0
 20 43  1  0  0  0  0
 21 20  1  0  0  0  0
 21 22  2  0  0  0  0
 22 23  1  0  0  0  0
 23 26  2  0  0  0  0
 23 24  1  0  0  0  0
 24 25  3  0  0  0  0
 26 27  1  0  0  0  0
 27 28  1  0  0  0  0
 28 42  2  0  0  0  0
 28 29  1  0  0  0  0
 29 30  2  0  0  0  0
 30 32  1  0  0  0  0
 30 31  1  0  0  0  0
 32 33  1  0  0  0  0
 33 34  1  0  0  0  0
 34 35  1  0  0  0  0
 34 71  1  0  0  0  0
 35 36  2  0  0  0  0
 35 40  1  0  0  0  0
 36 37  1  0  0  0  0
 37 73  1  0  0  0  0
 37 38  2  0  0  0  0
 38 74  1  0  0  0  0
 39 38  1  0  0  0  0
 39 75  1  0  0  0  0
 40 39  2  0  0  0  0
 41 77  1  0  0  0  0
 41 32  2  0  0  0  0
 42 41  1  0  0  0  0
 43 44  2  0  0  0  0
 43 26  1  0  0  0  0
 44 79  1  0  0  0  0
 45  3  1  0  0  0  0
 46 48  2  0  0  0  0
 46 45  1  0  0  0  0
 47 81  1  0  0  0  0
 47 46  1  0  0  0  0
 50 51  1  0  0  0  0
 51 87  1  0  0  0  0
 53  4  1  0  0  0  0
 55  7  1  0  0  0  0
 57  9  1  0  0  0  0
 60 10  1  0  0  0  0
 61 10  1  0  0  0  0
 62 14  1  0  0  0  0
 63 18  1  0  0  0  0
 64 18  1  0  0  0  0
 65 18  1  0  0  0  0
 66 19  1  0  0  0  0
 67 22  1  0  0  0  0
 68 27  1  0  0  0  0
 69 29  1  0  0  0  0
 70 34  1  0  0  0  0
 72 36  1  0  0  0  0
 76 40  1  0  0  0  0
 78 42  1  0  0  0  0
 80 45  1  0  0  0  0
 82 47  1  0  0  0  0
 83 47  1  0  0  0  0
 84 50  1  0  0  0  0
 85 51  1  0  0  0  0
 86 51  1  0  0  0  0
 89 11  1  0  0  0  0
M  END
