92
-1 1
O         1.734037    1.296888  -11.349440
C         0.852281    1.894599  -10.743174
C        -0.620214    1.782531  -11.192488
C        -1.695156    1.753827  -10.094163
S        -1.977183    3.365069   -9.262394
C        -1.331915    5.343433  -10.513324
C        -2.422617    5.327336  -11.558442
N        -2.284226    4.260165  -12.531315
C        -3.479383    3.510326  -12.811403
C        -1.524491    4.623862  -13.695529
C        -1.270165    6.362980   -9.576330
C        -0.086288    6.535833   -8.793965
O         0.989218    5.962146   -8.955651
N        -0.129974    7.468821   -7.723245
C        -1.164281    8.314741   -7.332440
C        -2.451767    7.820236   -6.897732
O        -2.776028    6.532313   -6.801688
C        -1.859868    5.537333   -6.325807
C        -2.675991    4.443137   -5.680426
C        -3.452004    8.729272   -6.599982
C        -3.237081   10.122381   -6.601923
N        -4.290424   10.943074   -6.317457
C        -4.085622   12.227597   -6.325155
C        -2.816748   12.829432   -6.558579
C        -2.660470   14.248816   -6.493212
N        -2.497124   15.396590   -6.456155
C        -1.709463   12.016905   -6.822254
N        -0.468535   12.592295   -7.044888
C         0.754370   12.161943   -6.511418
C         0.823755   11.342482   -5.378803
C         2.060952   10.919709   -4.911359
Cl         2.133018    9.879740   -3.519490
C         3.262238   11.318288   -5.514226
O         4.461048   10.933856   -5.024664
C         4.978240    9.724908   -5.554470
C         6.362786    9.479636   -5.015794
C         6.957812    8.233182   -5.236275
C         8.244438    8.005219   -4.770390
F         8.807887    6.814448   -4.983801
C         8.962440    8.978075   -4.083709
C         8.358481   10.213399   -3.866364
C         7.067151   10.469749   -4.328201
C         3.165265   12.170771   -6.621620
Cl         4.630777   12.706359   -7.392706
C         1.938064   12.582491   -7.126664
C        -1.929288   10.609658   -6.898411
C        -0.945931    9.678594   -7.309876
N        -0.739423    0.672908  -12.128124
C        -0.528446   -0.623564  -11.744201
C        -0.148212   -1.553183  -12.884773
O        -0.631328   -1.020898  -10.602012
H        -0.837307    2.690611  -11.779225
N         1.087888    2.743365   -9.727556
C         2.416188    3.074567   -9.281718
H        -2.625349    1.426355  -10.581895
H        -1.441495    0.995729   -9.341409
H        -2.423145    6.316615  -12.067524
H        -3.393150    5.245986  -11.049744
H        -3.223929    2.595556  -13.371885
H        -4.235787    4.074215  -13.406492
H        -3.942563    3.197151  -11.864402
H        -1.283534    3.727457  -14.290942
H        -0.571396    5.086830  -13.396228
H        -2.053446    5.342131  -14.366483
H         0.805302    7.742082   -7.445286
H        -1.160626    6.002663   -5.611881
H        -1.292306    5.120290   -7.169109
H        -3.283779    4.831311   -4.848951
H        -2.001346    3.662956   -5.298732
H        -3.329747    3.976570   -6.431033
H        -4.434721    8.353182   -6.316634
H        -4.940748   12.881204   -6.116668
H        -0.491451   13.572741   -7.305414
H        -0.082467   11.018374   -4.868426
H         5.014733    9.790034   -6.657350
H         4.313894    8.883977   -5.288460
H         6.433640    7.433381   -5.764446
H         9.970495    8.754707   -3.731514
H         8.903899   10.990678   -3.326773
H         6.594746   11.436211   -4.154459
H         1.902794   13.215379   -8.013978
H         0.019399   10.032048   -7.671439
H        -0.373981    0.888572  -13.046842
H        -0.695096   -1.323418  -13.811427
H        -0.341364   -2.589580  -12.583706
H         0.929191   -1.429904  -13.075600
H         0.281576    3.203195   -9.287758
H         2.759453    2.406613   -8.471802
H         2.411984    4.112740   -8.924963
H         3.118848    2.968444  -10.120315
H        -0.378825    4.890751  -10.801014
H        -2.162940    6.951155   -9.354921
