-1 1
 OpenBabel05192410563D

 92 95  0  0  1  0  0  0  0  0999 V2000
   -0.3826   -6.6205   -0.8074 O   0  0  0  0  0  0  0  0  0  0  0  0
   -0.3849   -5.4596   -1.1935 C   0  0  0  0  0  0  0  0  0  0  0  0
   -0.7019   -5.1002   -2.6585 C   0  0  2  0  0  0  0  0  0  0  0  0
   -2.2038   -5.1842   -2.9652 C   0  0  0  0  0  0  0  0  0  0  0  0
   -3.1602   -3.8810   -2.1433 S   0  0  0  0  0  0  0  0  0  0  0  0
   -2.5832   -2.3465   -3.0408 C   0  0  1  0  0  0  0  0  0  0  0  0
   -3.5396   -1.9985   -4.1791 C   0  0  0  0  0  0  0  0  0  0  0  0
   -3.6314   -3.0045   -5.2221 N   0  0  0  0  0  0  0  0  0  0  0  0
   -4.8405   -2.9015   -5.9964 C   0  0  0  0  0  0  0  0  0  0  0  0
   -2.4568   -3.0737   -6.0547 C   0  0  0  0  0  0  0  0  0  0  0  0
   -2.3667   -1.2234   -2.0921 C   0  0  0  0  0  3  0  0  0  0  0  0
   -1.1900   -1.1855   -1.3861 C   0  0  0  0  0  0  0  0  0  0  0  0
   -0.1671   -1.9187   -1.5506 O   0  0  0  0  0  0  0  0  0  0  0  0
   -1.0450   -0.2314   -0.3156 N   0  0  0  0  0  0  0  0  0  0  0  0
   -2.0122    0.5788    0.2334 C   0  0  0  0  0  0  0  0  0  0  0  0
   -3.2608    0.0551    0.7577 C   0  0  0  0  0  0  0  0  0  0  0  0
   -3.5820   -1.2410    0.7972 O   0  0  0  0  0  0  0  0  0  0  0  0
   -2.6326   -2.2425    1.1677 C   0  0  0  0  0  0  0  0  0  0  0  0
   -3.4065   -3.4238    1.7036 C   0  0  0  0  0  0  0  0  0  0  0  0
   -4.2154    0.9339    1.2292 C   0  0  0  0  0  0  0  0  0  0  0  0
   -3.9922    2.3254    1.3248 C   0  0  0  0  0  0  0  0  0  0  0  0
   -5.0012    3.1176    1.7838 N   0  0  0  0  0  0  0  0  0  0  0  0
   -4.7869    4.3994    1.8712 C   0  0  0  0  0  0  0  0  0  0  0  0
   -3.5415    5.0143    1.5657 C   0  0  0  0  0  0  0  0  0  0  0  0
   -3.3623    6.4224    1.7375 C   0  0  0  0  0  0  0  0  0  0  0  0
   -3.1849    7.5625    1.8567 N   0  0  0  0  0  0  0  0  0  0  0  0
   -2.4766    4.2246    1.1193 C   0  0  0  0  0  0  0  0  0  0  0  0
   -1.2551    4.8158    0.8206 N   0  0  0  0  0  0  0  0  0  0  0  0
    0.0034    4.3595    1.2257 C   0  0  0  0  0  0  0  0  0  0  0  0
    0.1615    3.4259    2.2575 C   0  0  0  0  0  0  0  0  0  0  0  0
    1.4332    2.9834    2.5956 C   0  0  0  0  0  0  0  0  0  0  0  0
    1.6132    1.8057    3.8634 Cl  0  0  0  0  0  0  0  0  0  0  0  0
    2.5856    3.4664    1.9611 C   0  0  0  0  0  0  0  0  0  0  0  0
    3.8218    3.0569    2.3248 O   0  0  0  0  0  0  0  0  0  0  0  0
    4.3112    1.9162    1.6414 C   0  0  0  0  0  0  0  0  0  0  0  0
    5.7579    1.6909    1.9933 C   0  0  0  0  0  0  0  0  0  0  0  0
    6.3434    0.4581    1.6885 C   0  0  0  0  0  0  0  0  0  0  0  0
    7.6867    0.2574    1.9724 C   0  0  0  0  0  0  0  0  0  0  0  0
    8.2405   -0.9214    1.6783 F   0  0  0  0  0  0  0  0  0  0  0  0
    8.4710    1.2438    2.5593 C   0  0  0  0  0  0  0  0  0  0  0  0
    7.8760    2.4655    2.8639 C   0  0  0  0  0  0  0  0  0  0  0  0
    6.5290    2.6946    2.5836 C   0  0  0  0  0  0  0  0  0  0  0  0
    2.4019    4.4272    0.9586 C   0  0  0  0  0  0  0  0  0  0  0  0
    3.8062    5.0672    0.1508 Cl  0  0  0  0  0  0  0  0  0  0  0  0
    1.1389    4.8659    0.5824 C   0  0  0  0  0  0  0  0  0  0  0  0
   -2.7142    2.8313    0.9408 C   0  0  0  0  0  0  0  0  0  0  0  0
   -1.7836    1.9403    0.3560 C   0  0  0  0  0  0  0  0  0  0  0  0
    0.1091   -5.9349   -3.5380 N   0  0  0  0  0  0  0  0  0  0  0  0
   -0.1647   -7.2137   -3.9366 C   0  0  0  0  0  0  0  0  0  0  0  0
    1.0632   -7.9750   -4.4186 C   0  0  0  0  0  0  0  0  0  0  0  0
   -1.2635   -7.7269   -3.9371 O   0  0  0  0  0  0  0  0  0  0  0  0
   -0.3738   -4.0623   -2.8244 H   0  0  0  0  0  0  0  0  0  0  0  0
   -0.0849   -4.4052   -0.4142 N   0  0  0  0  0  0  0  0  0  0  0  0
    0.1890   -4.5795    0.9854 C   0  0  0  0  0  0  0  0  0  0  0  0
   -2.3730   -5.1298   -4.0485 H   0  0  0  0  0  0  0  0  0  0  0  0
   -2.6068   -6.1448   -2.6228 H   0  0  0  0  0  0  0  0  0  0  0  0
   -3.2257   -1.0133   -4.5981 H   0  0  0  0  0  0  0  0  0  0  0  0
   -4.5450   -1.8530   -3.7527 H   0  0  0  0  0  0  0  0  0  0  0  0
   -4.9037   -3.7353   -6.7139 H   0  0  0  0  0  0  0  0  0  0  0  0
   -4.9136   -1.9516   -6.5788 H   0  0  0  0  0  0  0  0  0  0  0  0
   -5.7185   -2.9607   -5.3359 H   0  0  0  0  0  0  0  0  0  0  0  0
   -2.5465   -3.9099   -6.7658 H   0  0  0  0  0  0  0  0  0  0  0  0
   -1.5592   -3.2576   -5.4468 H   0  0  0  0  0  0  0  0  0  0  0  0
   -2.2828   -2.1402   -6.6412 H   0  0  0  0  0  0  0  0  0  0  0  0
   -0.0955    0.1205   -0.2711 H   0  0  0  0  0  0  0  0  0  0  0  0
   -1.9479   -1.8279    1.9276 H   0  0  0  0  0  0  0  0  0  0  0  0
   -2.0504   -2.5507    0.2902 H   0  0  0  0  0  0  0  0  0  0  0  0
   -4.0119   -3.1462    2.5796 H   0  0  0  0  0  0  0  0  0  0  0  0
   -2.7059   -4.2215    1.9899 H   0  0  0  0  0  0  0  0  0  0  0  0
   -4.0659   -3.8221    0.9193 H   0  0  0  0  0  0  0  0  0  0  0  0
   -5.1648    0.5333    1.5840 H   0  0  0  0  0  0  0  0  0  0  0  0
   -5.6107    5.0324    2.2208 H   0  0  0  0  0  0  0  0  0  0  0  0
   -1.2973    5.8091    0.6189 H   0  0  0  0  0  0  0  0  0  0  0  0
   -0.7037    3.0311    2.7886 H   0  0  0  0  0  0  0  0  0  0  0  0
    4.2160    2.0698    0.5506 H   0  0  0  0  0  0  0  0  0  0  0  0
    3.7105    1.0296    1.9099 H   0  0  0  0  0  0  0  0  0  0  0  0
    5.7682   -0.3522    1.2349 H   0  0  0  0  0  0  0  0  0  0  0  0
    9.5221    1.0416    2.7699 H   0  0  0  0  0  0  0  0  0  0  0  0
    8.4733    3.2529    3.3285 H   0  0  0  0  0  0  0  0  0  0  0  0
    6.0633    3.6497    2.8257 H   0  0  0  0  0  0  0  0  0  0  0  0
    1.0365    5.5885   -0.2279 H   0  0  0  0  0  0  0  0  0  0  0  0
   -0.8577    2.3304   -0.0671 H   0  0  0  0  0  0  0  0  0  0  0  0
    1.0919   -5.6945   -3.5222 H   0  0  0  0  0  0  0  0  0  0  0  0
    1.7702   -7.3359   -4.9686 H   0  0  0  0  0  0  0  0  0  0  0  0
    0.7366   -8.8026   -5.0592 H   0  0  0  0  0  0  0  0  0  0  0  0
    1.5822   -8.3918   -3.5414 H   0  0  0  0  0  0  0  0  0  0  0  0
   -0.1064   -3.4443   -0.8167 H   0  0  0  0  0  0  0  0  0  0  0  0
   -0.5263   -5.2838    1.4388 H   0  0  0  0  0  0  0  0  0  0  0  0
    0.1095   -3.6057    1.4889 H   0  0  0  0  0  0  0  0  0  0  0  0
    1.2007   -4.9841    1.1680 H   0  0  0  0  0  0  0  0  0  0  0  0
   -1.6024   -2.6236   -3.4530 H   0  0  0  0  0  0  0  0  0  0  0  0
   -3.1777   -0.5200   -1.8941 H   0  0  0  0  0  0  0  0  0  0  0  0
  2  1  2  0  0  0  0
  2 53  1  0  0  0  0
  3 52  1  6  0  0  0
  3  2  1  0  0  0  0
  4  3  1  0  0  0  0
  4 56  1  0  0  0  0
  4  5  1  0  0  0  0
  6 91  1  6  0  0  0
  6  5  1  0  0  0  0
  6 11  1  0  0  0  0
  7 58  1  0  0  0  0
  7  6  1  0  0  0  0
  8  7  1  0  0  0  0
  9 61  1  0  0  0  0
  9  8  1  0  0  0  0
 10 63  1  0  0  0  0
 10  8  1  0  0  0  0
 11 92  1  0  0  0  0
 11 12  1  0  0  0  0
 12 14  1  0  0  0  0
 13 12  2  0  0  0  0
 14 65  1  0  0  0  0
 14 15  1  0  0  0  0
 15 47  2  0  0  0  0
 15 16  1  0  0  0  0
 16 17  1  0  0  0  0
 16 20  2  0  0  0  0
 17 18  1  0  0  0  0
 18 19  1  0  0  0  0
 18 66  1  0  0  0  0
 19 69  1  0  0  0  0
 19 68  1  0  0  0  0
 20 21  1  0  0  0  0
 20 71  1  0  0  0  0
 21 22  1  0  0  0  0
 22 23  2  0  0  0  0
 23 72  1  0  0  0  0
 24 25  1  0  0  0  0
 24 23  1  0  0  0  0
 25 26  3  0  0  0  0
 27 24  2  0  0  0  0
 28 27  1  0  0  0  0
 28 29  1  0  0  0  0
 29 30  1  0  0  0  0
 30 31  2  0  0  0  0
 30 74  1  0  0  0  0
 31 32  1  0  0  0  0
 33 34  1  0  0  0  0
 33 31  1  0  0  0  0
 35 76  1  0  0  0  0
 35 36  1  0  0  0  0
 35 34  1  0  0  0  0
 36 42  1  0  0  0  0
 37 38  1  0  0  0  0
 37 36  2  0  0  0  0
 38 40  2  0  0  0  0
 39 38  1  0  0  0  0
 40 78  1  0  0  0  0
 40 41  1  0  0  0  0
 41 79  1  0  0  0  0
 42 80  1  0  0  0  0
 42 41  2  0  0  0  0
 43 33  2  0  0  0  0
 44 43  1  0  0  0  0
 45 43  1  0  0  0  0
 45 29  2  0  0  0  0
 46 27  1  0  0  0  0
 46 21  2  0  0  0  0
 47 46  1  0  0  0  0
 48 83  1  0  0  0  0
 48  3  1  0  0  0  0
 49 48  1  0  0  0  0
 50 49  1  0  0  0  0
 50 86  1  0  0  0  0
 51 49  2  0  0  0  0
 53 54  1  0  0  0  0
 54 90  1  0  0  0  0
 54 88  1  0  0  0  0
 54 89  1  0  0  0  0
 55  4  1  0  0  0  0
 57  7  1  0  0  0  0
 59  9  1  0  0  0  0
 60  9  1  0  0  0  0
 62 10  1  0  0  0  0
 64 10  1  0  0  0  0
 67 18  1  0  0  0  0
 70 19  1  0  0  0  0
 73 28  1  0  0  0  0
 75 35  1  0  0  0  0
 77 37  1  0  0  0  0
 81 45  1  0  0  0  0
 82 47  1  0  0  0  0
 84 50  1  0  0  0  0
 85 50  1  0  0  0  0
 87 53  1  0  0  0  0
M  END
