-1 1
 OpenBabel05232414493D

 66 67  0  0  1  0  0  0  0  0999 V2000
   -2.9115    2.0967    2.4954 O   0  0  0  0  0  0  0  0  0  0  0  0
   -2.5438    2.3478    1.3604 C   0  0  0  0  0  0  0  0  0  0  0  0
   -1.8170    1.3390    0.4573 C   0  0  2  0  0  0  0  0  0  0  0  0
   -2.5640    1.0942   -0.8798 C   0  0  0  0  0  0  0  0  0  0  0  0
   -2.1973    2.2760   -2.1969 S   0  0  0  0  0  1  0  0  0  0  0  0
   -0.3357    1.0209   -3.0870 C   0  0  0  0  0  3  0  0  0  0  0  0
   -0.4394   -0.3133   -2.7107 C   0  0  2  0  0  3  0  0  0  0  0  0
   -1.3930   -1.5963   -3.4865 S   0  0  0  0  0  0  0  0  0  0  0  0
    0.0650   -0.7593   -1.4353 C   0  0  0  0  0  0  0  0  0  0  0  0
    0.7651   -0.1297   -0.6475 O   0  0  0  0  0  0  0  0  0  0  0  0
   -0.3961   -2.0542   -1.1499 N   0  0  0  0  0  0  0  0  0  0  0  0
   -1.2004   -2.6779   -2.0705 C   0  0  0  0  0  0  0  0  0  0  0  0
   -1.6987   -3.7704   -1.9792 O   0  0  0  0  0  0  0  0  0  0  0  0
   -0.4563    1.5091   -4.4831 C   0  0  0  0  0  0  0  0  0  0  0  0
   -1.5081    1.1063   -5.3126 C   0  0  0  0  0  0  0  0  0  0  0  0
   -1.5754    1.5599   -6.6285 C   0  0  0  0  0  0  0  0  0  0  0  0
   -2.5619    1.2611   -7.4956 O   0  0  0  0  0  0  0  0  0  0  0  0
   -3.6182    0.4493   -7.0478 C   0  0  0  0  0  0  0  0  0  0  0  0
   -0.5786    2.4163   -7.1147 C   0  0  0  0  0  0  0  0  0  0  0  0
   -0.6252    2.8424   -8.4240 O   0  0  0  0  0  0  0  0  0  0  0  0
   -1.3192    3.9472   -8.7306 C   0  0  0  0  0  0  0  0  0  0  0  0
   -2.0070    4.7159   -7.7824 C   0  0  0  0  0  0  0  0  0  0  0  0
   -2.7003    5.8504   -8.1794 C   0  0  0  0  0  0  0  0  0  0  0  0
   -3.4365    6.6690   -7.1384 C   0  0  0  0  0  0  0  0  0  0  0  0
   -3.3009    6.1579   -5.9166 F   0  0  0  0  0  0  0  0  0  0  0  0
   -2.9797    7.9249   -7.1004 F   0  0  0  0  0  0  0  0  0  0  0  0
   -4.7440    6.7295   -7.4064 F   0  0  0  0  0  0  0  0  0  0  0  0
   -2.7211    6.2389   -9.5322 C   0  0  0  0  0  0  0  0  0  0  0  0
   -3.4226    7.4042   -9.9949 C   0  0  0  0  0  0  0  0  0  0  0  0
   -3.9716    8.3329  -10.4147 N   0  0  0  0  0  0  0  0  0  0  0  0
   -2.0286    5.4576  -10.4694 C   0  0  0  0  0  0  0  0  0  0  0  0
   -1.3350    4.3255  -10.0775 C   0  0  0  0  0  0  0  0  0  0  0  0
    0.4565    2.8531   -6.2833 C   0  0  0  0  0  0  0  0  0  0  0  0
    1.3259    3.7235   -6.8390 O   0  0  0  0  0  0  0  0  0  0  0  0
    2.3552    4.2433   -6.0428 C   0  0  0  0  0  0  0  0  0  0  0  0
    0.5192    2.3879   -4.9663 C   0  0  0  0  0  0  0  0  0  0  0  0
   -1.4162    0.1281    1.1469 N   0  0  0  0  0  0  0  0  0  0  0  0
   -2.1358   -0.9847    1.4485 C   0  0  0  0  0  0  0  0  0  0  0  0
   -3.6409   -0.8706    1.5148 C   0  0  0  0  0  0  0  0  0  0  0  0
   -1.5672   -2.0531    1.6484 O   0  0  0  0  0  0  0  0  0  0  0  0
   -0.8632    1.8089    0.1738 H   0  0  0  0  0  0  0  0  0  0  0  0
   -2.7316    3.5513    0.7608 N   0  0  0  0  0  0  0  0  0  0  0  0
   -3.4576    4.6243    1.3849 C   0  0  0  0  0  0  0  0  0  0  0  0
   -2.2602    0.0996   -1.2475 H   0  0  0  0  0  0  0  0  0  0  0  0
   -3.6535    1.0527   -0.7281 H   0  0  0  0  0  0  0  0  0  0  0  0
    0.3918    1.5601   -2.4770 H   0  0  0  0  0  0  0  0  0  0  0  0
   -0.3561   -2.4104   -0.1920 H   0  0  0  0  0  0  0  0  0  0  0  0
   -2.3019    0.4907   -4.8943 H   0  0  0  0  0  0  0  0  0  0  0  0
   -4.3027    0.3341   -7.8970 H   0  0  0  0  0  0  0  0  0  0  0  0
   -4.1592    0.9144   -6.2067 H   0  0  0  0  0  0  0  0  0  0  0  0
   -3.2607   -0.5457   -6.7333 H   0  0  0  0  0  0  0  0  0  0  0  0
   -1.9968    4.4202   -6.7336 H   0  0  0  0  0  0  0  0  0  0  0  0
   -2.0420    5.7539  -11.5195 H   0  0  0  0  0  0  0  0  0  0  0  0
   -0.7936    3.7115  -10.7980 H   0  0  0  0  0  0  0  0  0  0  0  0
    1.9603    4.7908   -5.1696 H   0  0  0  0  0  0  0  0  0  0  0  0
    2.9189    4.9398   -6.6757 H   0  0  0  0  0  0  0  0  0  0  0  0
    3.0369    3.4517   -5.6866 H   0  0  0  0  0  0  0  0  0  0  0  0
    1.3207    2.7041   -4.2997 H   0  0  0  0  0  0  0  0  0  0  0  0
   -0.4292   -0.0838    1.0079 H   0  0  0  0  0  0  0  0  0  0  0  0
   -4.0191   -1.7177    2.0993 H   0  0  0  0  0  0  0  0  0  0  0  0
   -4.0539   -0.9454    0.4972 H   0  0  0  0  0  0  0  0  0  0  0  0
   -3.9507    0.0819    1.9625 H   0  0  0  0  0  0  0  0  0  0  0  0
   -2.4548    3.6309   -0.2202 H   0  0  0  0  0  0  0  0  0  0  0  0
   -2.8525    5.5443    1.4335 H   0  0  0  0  0  0  0  0  0  0  0  0
   -3.7105    4.3136    2.4068 H   0  0  0  0  0  0  0  0  0  0  0  0
   -4.3904    4.8534    0.8432 H   0  0  0  0  0  0  0  0  0  0  0  0
  2  1  2  0  0  0  0
  3 41  1  6  0  0  0
  3 37  1  0  0  0  0
  3  2  1  0  0  0  0
  4 45  1  0  0  0  0
  4  3  1  0  0  0  0
  5  4  1  0  0  0  0
  6 46  1  0  0  0  0
  7  6  1  1  0  0  0
  7  9  1  0  0  0  0
  8  7  1  0  0  0  0
  8 12  1  0  0  0  0
  9 11  1  0  0  0  0
  9 10  2  0  0  0  0
 11 47  1  0  0  0  0
 12 13  2  0  0  0  0
 12 11  1  0  0  0  0
 14  6  1  0  0  0  0
 15 48  1  0  0  0  0
 15 14  2  0  0  0  0
 16 15  1  0  0  0  0
 17 18  1  0  0  0  0
 17 16  1  0  0  0  0
 18 51  1  0  0  0  0
 18 50  1  0  0  0  0
 19 16  2  0  0  0  0
 19 33  1  0  0  0  0
 20 19  1  0  0  0  0
 21 20  1  0  0  0  0
 21 22  1  0  0  0  0
 22 52  1  0  0  0  0
 23 22  2  0  0  0  0
 23 24  1  0  0  0  0
 24 26  1  0  0  0  0
 24 25  1  0  0  0  0
 27 24  1  0  0  0  0
 28 23  1  0  0  0  0
 29 28  1  0  0  0  0
 30 29  3  0  0  0  0
 31 32  1  0  0  0  0
 31 28  2  0  0  0  0
 32 21  2  0  0  0  0
 33 36  2  0  0  0  0
 34 33  1  0  0  0  0
 34 35  1  0  0  0  0
 35 57  1  0  0  0  0
 35 55  1  0  0  0  0
 36 14  1  0  0  0  0
 36 58  1  0  0  0  0
 37 38  1  0  0  0  0
 38 39  1  0  0  0  0
 38 40  2  0  0  0  0
 39 62  1  0  0  0  0
 39 60  1  0  0  0  0
 42  2  1  0  0  0  0
 42 43  1  0  0  0  0
 43 64  1  0  0  0  0
 43 65  1  0  0  0  0
 44  4  1  0  0  0  0
 49 18  1  0  0  0  0
 53 31  1  0  0  0  0
 54 32  1  0  0  0  0
 56 35  1  0  0  0  0
 59 37  1  0  0  0  0
 61 39  1  0  0  0  0
 63 42  1  0  0  0  0
 66 43  1  0  0  0  0
M  END
