-1 1
 OpenBabel05192410563D

 66 68  0  0  1  0  0  0  0  0999 V2000
   -0.6237   -0.0704    6.6002 O   0  0  0  0  0  0  0  0  0  0  0  0
   -0.5839   -0.0664    5.3838 C   0  0  0  0  0  0  0  0  0  0  0  0
   -0.1040   -1.2684    4.5486 C   0  0  2  0  0  0  0  0  0  0  0  0
   -1.1111   -1.7208    3.4623 C   0  0  0  0  0  0  0  0  0  0  0  0
   -1.1141   -0.7506    1.9304 S   0  0  0  0  0  0  0  0  0  0  0  0
    0.6410   -1.1833    1.2766 C   0  0  1  0  0  0  0  0  0  0  0  0
    1.0439   -2.5768    1.4735 C   0  0  2  0  0  3  0  0  0  0  0  0
    0.3698   -3.9604    0.5845 S   0  0  0  0  0  0  0  0  0  0  0  0
    1.8989   -2.9873    2.5035 C   0  0  0  0  0  0  0  0  0  0  0  0
    2.5068   -2.3183    3.3625 O   0  0  0  0  0  0  0  0  0  0  0  0
    1.9972   -4.4051    2.5019 N   0  0  0  0  0  0  0  0  0  0  0  0
    1.2780   -5.1238    1.5920 C   0  0  0  0  0  0  0  0  0  0  0  0
    1.2520   -6.3273    1.4621 O   0  0  0  0  0  0  0  0  0  0  0  0
    0.6922   -0.6865   -0.1520 C   0  0  0  0  0  0  0  0  0  0  0  0
   -0.2589   -1.1036   -1.0863 C   0  0  0  0  0  0  0  0  0  0  0  0
   -0.1559   -0.7019   -2.4200 C   0  0  0  0  0  0  0  0  0  0  0  0
   -1.0232   -1.0384   -3.3935 O   0  0  0  0  0  0  0  0  0  0  0  0
   -2.0852   -1.9000   -3.0716 C   0  0  0  0  0  0  0  0  0  0  0  0
    0.9067    0.1220   -2.8072 C   0  0  0  0  0  0  0  0  0  0  0  0
    1.0358    0.4894   -4.1291 O   0  0  0  0  0  0  0  0  0  0  0  0
    0.4935    1.6400   -4.5485 C   0  0  0  0  0  0  0  0  0  0  0  0
   -0.2296    2.5027   -3.7144 C   0  0  0  0  0  0  0  0  0  0  0  0
   -0.7585    3.6802   -4.2233 C   0  0  0  0  0  0  0  0  0  0  0  0
   -1.5330    4.6007   -3.3030 C   0  0  0  0  0  0  0  0  0  0  0  0
   -1.6110    4.1145   -2.0640 F   0  0  0  0  0  0  0  0  0  0  0  0
   -0.9567    5.8038   -3.2238 F   0  0  0  0  0  0  0  0  0  0  0  0
   -2.7821    4.7855   -3.7389 F   0  0  0  0  0  0  0  0  0  0  0  0
   -0.5766    4.0191   -5.5773 C   0  0  0  0  0  0  0  0  0  0  0  0
   -1.1011    5.2271   -6.1514 C   0  0  0  0  0  0  0  0  0  0  0  0
   -1.5040    6.1881   -6.6555 N   0  0  0  0  0  0  0  0  0  0  0  0
    0.1473    3.1432   -6.4004 C   0  0  0  0  0  0  0  0  0  0  0  0
    0.6771    1.9678   -5.8964 C   0  0  0  0  0  0  0  0  0  0  0  0
    1.8473    0.5671   -1.8716 C   0  0  0  0  0  0  0  0  0  0  0  0
    2.7970    1.3969   -2.3508 O   0  0  0  0  0  0  0  0  0  0  0  0
    3.7701    1.8844   -1.4670 C   0  0  0  0  0  0  0  0  0  0  0  0
    1.7395    0.1530   -0.5415 C   0  0  0  0  0  0  0  0  0  0  0  0
    0.3972   -2.3554    5.3498 N   0  0  0  0  0  0  0  0  0  0  0  0
   -0.2461   -3.2142    6.1889 C   0  0  0  0  0  0  0  0  0  0  0  0
   -1.7411   -3.0335    6.3771 C   0  0  0  0  0  0  0  0  0  0  0  0
    0.3546   -4.1178    6.7434 O   0  0  0  0  0  0  0  0  0  0  0  0
    0.7972   -0.9265    4.0176 H   0  0  0  0  0  0  0  0  0  0  0  0
   -0.9389    1.0126    4.6344 N   0  0  0  0  0  0  0  0  0  0  0  0
   -1.4168    2.2375    5.2193 C   0  0  0  0  0  0  0  0  0  0  0  0
   -0.8640   -2.7557    3.1857 H   0  0  0  0  0  0  0  0  0  0  0  0
   -2.1498   -1.7002    3.8240 H   0  0  0  0  0  0  0  0  0  0  0  0
    1.3306   -0.5829    1.8851 H   0  0  0  0  0  0  0  0  0  0  0  0
    2.5627   -4.8773    3.1970 H   0  0  0  0  0  0  0  0  0  0  0  0
   -1.0785   -1.7401   -0.7545 H   0  0  0  0  0  0  0  0  0  0  0  0
   -2.6417   -2.0679   -4.0017 H   0  0  0  0  0  0  0  0  0  0  0  0
   -2.7611   -1.4520   -2.3236 H   0  0  0  0  0  0  0  0  0  0  0  0
   -1.7204   -2.8672   -2.6874 H   0  0  0  0  0  0  0  0  0  0  0  0
   -0.3746    2.2454   -2.6658 H   0  0  0  0  0  0  0  0  0  0  0  0
    0.2906    3.4005   -7.4510 H   0  0  0  0  0  0  0  0  0  0  0  0
    1.2419    1.2811   -6.5277 H   0  0  0  0  0  0  0  0  0  0  0  0
    3.3213    2.4783   -0.6522 H   0  0  0  0  0  0  0  0  0  0  0  0
    4.4318    2.5308   -2.0566 H   0  0  0  0  0  0  0  0  0  0  0  0
    4.3657    1.0678   -1.0248 H   0  0  0  0  0  0  0  0  0  0  0  0
    2.4715    0.4646    0.2030 H   0  0  0  0  0  0  0  0  0  0  0  0
    1.3670   -2.5921    5.1396 H   0  0  0  0  0  0  0  0  0  0  0  0
   -2.0457   -3.6524    7.2292 H   0  0  0  0  0  0  0  0  0  0  0  0
   -2.2757   -3.3858    5.4816 H   0  0  0  0  0  0  0  0  0  0  0  0
   -2.0025   -1.9847    6.5647 H   0  0  0  0  0  0  0  0  0  0  0  0
   -0.9079    0.9176    3.6202 H   0  0  0  0  0  0  0  0  0  0  0  0
   -0.7651    3.0892    4.9638 H   0  0  0  0  0  0  0  0  0  0  0  0
   -1.4191    2.1116    6.3095 H   0  0  0  0  0  0  0  0  0  0  0  0
   -2.4407    2.4734    4.8863 H   0  0  0  0  0  0  0  0  0  0  0  0
  2  1  2  0  0  0  0
  3 41  1  6  0  0  0
  3 37  1  0  0  0  0
  3  2  1  0  0  0  0
  4 45  1  0  0  0  0
  4  3  1  0  0  0  0
  5  4  1  0  0  0  0
  6 46  1  1  0  0  0
  6  5  1  0  0  0  0
  7  6  1  1  0  0  0
  7  9  1  0  0  0  0
  8  7  1  0  0  0  0
  8 12  1  0  0  0  0
  9 10  2  0  0  0  0
 11  9  1  0  0  0  0
 11 47  1  0  0  0  0
 12 11  1  0  0  0  0
 13 12  2  0  0  0  0
 14  6  1  0  0  0  0
 15 48  1  0  0  0  0
 15 14  2  0  0  0  0
 16 15  1  0  0  0  0
 17 18  1  0  0  0  0
 17 16  1  0  0  0  0
 18 51  1  0  0  0  0
 18 50  1  0  0  0  0
 19 16  2  0  0  0  0
 19 33  1  0  0  0  0
 20 19  1  0  0  0  0
 21 20  1  0  0  0  0
 21 22  1  0  0  0  0
 22 52  1  0  0  0  0
 23 22  2  0  0  0  0
 23 24  1  0  0  0  0
 24 26  1  0  0  0  0
 24 25  1  0  0  0  0
 27 24  1  0  0  0  0
 28 23  1  0  0  0  0
 29 28  1  0  0  0  0
 30 29  3  0  0  0  0
 31 32  1  0  0  0  0
 31 28  2  0  0  0  0
 32 21  2  0  0  0  0
 33 36  2  0  0  0  0
 34 33  1  0  0  0  0
 34 35  1  0  0  0  0
 35 57  1  0  0  0  0
 35 55  1  0  0  0  0
 36 14  1  0  0  0  0
 36 58  1  0  0  0  0
 37 38  1  0  0  0  0
 38 39  1  0  0  0  0
 38 40  2  0  0  0  0
 39 62  1  0  0  0  0
 39 60  1  0  0  0  0
 42 43  1  0  0  0  0
 42  2  1  0  0  0  0
 43 65  1  0  0  0  0
 44  4  1  0  0  0  0
 49 18  1  0  0  0  0
 53 31  1  0  0  0  0
 54 32  1  0  0  0  0
 56 35  1  0  0  0  0
 59 37  1  0  0  0  0
 61 39  1  0  0  0  0
 63 42  1  0  0  0  0
 64 43  1  0  0  0  0
 66 43  1  0  0  0  0
M  END
