66
-1 1
O        -1.697384   -0.695372    6.760601
C        -1.724269   -0.436122    5.565889
C        -0.746940   -1.073119    4.557592
C        -1.443102   -1.678416    3.312437
S        -1.920486   -0.445827    2.050138
C         2.145631   -1.039799    0.907498
C         1.872676   -2.207406    1.504753
S         1.012103   -3.596382    0.842901
C         2.283455   -2.473699    2.918182
O         2.838471   -1.680152    3.644316
N         1.905460   -3.744762    3.293809
C         1.194400   -4.503511    2.386273
O         0.744795   -5.598555    2.567481
C         1.715511   -0.650684   -0.447340
C         0.372104   -0.788023   -0.802621
C        -0.039329   -0.430313   -2.092794
O        -1.301110   -0.482199   -2.531209
C        -2.292221   -1.003935   -1.662864
C         0.913394    0.034475   -3.008911
O         0.526434    0.324925   -4.296993
C         0.206190    1.584303   -4.627492
C         0.208888    2.647193   -3.715626
C        -0.119068    3.926807   -4.140709
C        -0.094852    5.066706   -3.143054
F         0.241659    4.651757   -1.922703
F         0.790105    6.002711   -3.503960
F        -1.286713    5.660005   -3.052593
C        -0.462674    4.167524   -5.484209
C        -0.801208    5.474188   -5.976550
N        -1.076129    6.507561   -6.419777
C        -0.471225    3.089893   -6.382393
C        -0.140883    1.812591   -5.963162
C         2.253655    0.207697   -2.639919
O         3.057687    0.719906   -3.595906
C         4.396763    0.979369   -3.278373
C         2.658161   -0.135692   -1.349031
N         0.188399   -1.981915    5.203331
C         0.008368   -3.234921    5.671668
C        -1.393152   -3.754472    5.862479
O         0.984582   -3.958222    5.897515
H        -0.122715   -0.251521    4.171673
N        -2.586306    0.431930    4.996702
C        -3.613042    1.101495    5.746356
H        -0.733817   -2.397221    2.872782
H        -2.325688   -2.258722    3.626867
H         2.743322   -0.335201    1.495775
H         1.868434   -3.994834    4.302893
H        -0.356739   -1.069291   -0.032350
H        -3.240609   -0.932595   -2.207818
H        -2.356646   -0.446167   -0.715427
H        -2.084838   -2.059194   -1.420648
H         0.466947    2.466673   -2.672503
H        -0.740733    3.270396   -7.424172
H        -0.141869    0.968563   -6.653501
H         4.487632    1.700224   -2.447260
H         4.853897    1.412255   -4.176618
H         4.939951    0.056619   -3.009777
H         3.695139   -0.021539   -1.034500
H         1.168415   -1.721705    5.138090
H        -1.343638   -4.596161    6.563376
H        -1.767895   -4.131101    4.898846
H        -2.067233   -2.976659    6.239723
H        -2.569877    0.492269    3.963552
H        -3.560159    2.193788    5.607260
H        -3.471582    0.871210    6.810554
H        -4.619631    0.767373    5.443012
