92
-1 1
O         4.041015    3.323835   -1.479102
C         3.197272    2.455489   -1.279319
C         2.007039    2.723336   -0.336805
C         1.579470    1.540490    0.548318
S         0.728632    0.187405   -0.331091
C        -0.179464   -0.226794   -3.286612
C        -1.466578    0.536712   -3.279698
N        -1.271905    1.965858   -3.140216
C        -0.616650    2.577358   -4.277938
C        -2.494980    2.661120   -2.816318
C        -0.032147   -1.537294   -3.058318
C         1.348302   -2.056032   -3.040232
O         2.236363   -1.574017   -3.725398
N         1.692263   -3.124079   -2.227809
C         1.157673   -3.770445   -1.124868
C         2.123139   -4.550774   -0.395351
O         3.432789   -4.418686   -0.742556
C         4.205760   -3.530950    0.078111
C         3.941478   -2.060538   -0.190841
C         1.737651   -5.435121    0.576292
C         0.375175   -5.556926    0.943014
N         0.024504   -6.546118    1.813872
C        -1.234901   -6.669523    2.118242
C        -2.248945   -5.778798    1.665077
C        -3.595200   -5.923696    2.127409
N        -4.693963   -6.026938    2.483488
C        -1.909583   -4.717783    0.821391
N        -2.836055   -3.765776    0.439358
C        -2.587911   -2.390528    0.755076
C        -1.872899   -2.049901    1.907291
C        -1.650958   -0.720941    2.219323
Cl        -0.720121   -0.310357    3.629740
C        -2.141393    0.308314    1.402027
O        -1.878181    1.567283    1.778195
C        -1.939306    2.600836    0.827834
C        -1.387157    3.863634    1.435491
C        -0.675004    3.829237    2.635820
C        -0.159511    5.015546    3.140924
F         0.520806    4.989013    4.289904
C        -0.324497    6.236051    2.499467
C        -1.039126    6.232665    1.306564
F        -1.201812    7.389347    0.662103
C        -1.578664    5.075880    0.766079
C        -2.887294   -0.043193    0.275287
C        -3.093621   -1.379529   -0.056187
C        -0.553958   -4.650990    0.363469
C        -0.147843   -3.775303   -0.677396
N         0.886989    3.254086   -1.101446
C         0.660621    4.554386   -1.397197
C         1.613532    5.577741   -0.813810
O        -0.287993    4.910564   -2.093607
H         2.372233    3.515927    0.329943
N         3.211708    1.255775   -1.886961
C         4.239277    0.892563   -2.827302
H         2.485237    1.167968    1.057004
H         0.924473    1.945182    1.336248
H        -2.041549    0.294976   -4.208673
H        -2.073702    0.182595   -2.433009
H        -0.447679    3.639905   -4.056048
H        -1.222087    2.488145   -5.209897
H         0.362120    2.114099   -4.464717
H        -2.254427    3.711107   -2.597416
H        -2.957347    2.216047   -1.922608
H        -3.246364    2.620990   -3.639237
H         2.681162   -3.332345   -2.336787
H         5.251307   -3.791365   -0.141533
H         4.012755   -3.776438    1.137296
H         2.897978   -1.759932    0.005812
H         4.176678   -1.794480   -1.232478
H         4.586272   -1.452462    0.461731
H         2.475272   -6.070163    1.067490
H        -1.519660   -7.486145    2.791824
H        -3.795549   -4.039181    0.635301
H        -1.470113   -2.824441    2.561025
H        -2.982664    2.780648    0.508951
H        -1.341746    2.315938   -0.058428
H        -0.522414    2.891208    3.168708
H         0.092769    7.155548    2.908602
H        -2.087694    5.126852   -0.196702
H        -3.275908    0.736020   -0.378802
H        -3.647633   -1.641681   -0.960034
H        -0.894278   -3.133205   -1.133137
H         0.273220    2.564755   -1.556243
H         1.304752    6.566738   -1.170426
H         2.650363    5.354655   -1.105416
H         1.563574    5.562412    0.286241
H         2.462164    0.590246   -1.628012
H         5.206640    0.705138   -2.328082
H         4.402104    1.704266   -3.553371
H         3.922202   -0.015648   -3.355716
H         0.734551    0.337451   -3.485472
H        -0.875513   -2.178582   -2.798687
