-1 1
 OpenBabel05192410563D

 92 95  0  0  1  0  0  0  0  0999 V2000
    2.8529    3.7935   -3.1301 O   0  0  0  0  0  0  0  0  0  0  0  0
    2.7457    2.8884   -2.3096 C   0  0  0  0  0  0  0  0  0  0  0  0
    2.0006    3.1765   -0.9795 C   0  0  2  0  0  0  0  0  0  0  0  0
    1.7950    1.9882   -0.0274 C   0  0  0  0  0  0  0  0  0  0  0  0
    0.2736    1.0157   -0.2026 S   0  0  0  0  0  0  0  0  0  0  0  0
    0.2482    0.3918   -1.9670 C   0  0  2  0  0  0  0  0  0  0  0  0
   -1.0891    0.7885   -2.5975 C   0  0  0  0  0  0  0  0  0  0  0  0
   -1.2217    2.2229   -2.7917 N   0  0  0  0  0  0  0  0  0  0  0  0
   -0.5075    2.7179   -3.9519 C   0  0  0  0  0  0  0  0  0  0  0  0
   -2.5742    2.7257   -2.7627 C   0  0  0  0  0  0  0  0  0  0  0  0
    0.5337   -1.0655   -2.0396 C   0  0  0  0  0  3  0  0  0  0  0  0
    1.7844   -1.5108   -1.6922 C   0  0  0  0  0  0  0  0  0  0  0  0
    2.8130   -0.8020   -1.4478 O   0  0  0  0  0  0  0  0  0  0  0  0
    2.0298   -2.9203   -1.5610 N   0  0  0  0  0  0  0  0  0  0  0  0
    1.3653   -3.8347   -0.7968 C   0  0  0  0  0  0  0  0  0  0  0  0
    2.1570   -4.9286   -0.2874 C   0  0  0  0  0  0  0  0  0  0  0  0
    3.4973   -4.8868   -0.5393 O   0  0  0  0  0  0  0  0  0  0  0  0
    4.3221   -4.4978    0.5564 C   0  0  0  0  0  0  0  0  0  0  0  0
    4.0180   -3.1069    1.0874 C   0  0  0  0  0  0  0  0  0  0  0  0
    1.5945   -5.9605    0.4118 C   0  0  0  0  0  0  0  0  0  0  0  0
    0.2054   -5.9745    0.7024 C   0  0  0  0  0  0  0  0  0  0  0  0
   -0.3081   -7.0731    1.3213 N   0  0  0  0  0  0  0  0  0  0  0  0
   -1.5900   -7.1023    1.5500 C   0  0  0  0  0  0  0  0  0  0  0  0
   -2.4675   -6.0286    1.2350 C   0  0  0  0  0  0  0  0  0  0  0  0
   -3.8575   -6.1207    1.5610 C   0  0  0  0  0  0  0  0  0  0  0  0
   -4.9893   -6.1778    1.8086 N   0  0  0  0  0  0  0  0  0  0  0  0
   -1.9663   -4.8704    0.6301 C   0  0  0  0  0  0  0  0  0  0  0  0
   -2.8184   -3.8271    0.3134 N   0  0  0  0  0  0  0  0  0  0  0  0
   -2.6227   -2.4782    0.6990 C   0  0  0  0  0  0  0  0  0  0  0  0
   -1.7800   -2.1251    1.7587 C   0  0  0  0  0  0  0  0  0  0  0  0
   -1.6676   -0.7979    2.1431 C   0  0  0  0  0  0  0  0  0  0  0  0
   -0.5890   -0.3723    3.4397 Cl  0  0  0  0  0  0  0  0  0  0  0  0
   -2.4009    0.2172    1.5074 C   0  0  0  0  0  0  0  0  0  0  0  0
   -2.2444    1.4771    1.9507 O   0  0  0  0  0  0  0  0  0  0  0  0
   -2.4919    2.5523    1.0779 C   0  0  0  0  0  0  0  0  0  0  0  0
   -1.6281    3.7280    1.4499 C   0  0  0  0  0  0  0  0  0  0  0  0
   -0.4771    3.5401    2.2156 C   0  0  0  0  0  0  0  0  0  0  0  0
    0.3656    4.6208    2.4224 C   0  0  0  0  0  0  0  0  0  0  0  0
    1.4935    4.4369    3.1180 F   0  0  0  0  0  0  0  0  0  0  0  0
    0.0983    5.8873    1.9197 C   0  0  0  0  0  0  0  0  0  0  0  0
   -1.0657    6.0429    1.1771 C   0  0  0  0  0  0  0  0  0  0  0  0
   -1.3502    7.2488    0.6899 F   0  0  0  0  0  0  0  0  0  0  0  0
   -1.9328    4.9880    0.9318 C   0  0  0  0  0  0  0  0  0  0  0  0
   -3.2469   -0.1491    0.4590 C   0  0  0  0  0  0  0  0  0  0  0  0
   -3.3421   -1.4768    0.0476 C   0  0  0  0  0  0  0  0  0  0  0  0
   -0.5715   -4.8476    0.3014 C   0  0  0  0  0  0  0  0  0  0  0  0
    0.0193   -3.8043   -0.4516 C   0  0  0  0  0  0  0  0  0  0  0  0
    0.7555    3.8619   -1.2261 N   0  0  0  0  0  0  0  0  0  0  0  0
    0.5656    5.1695   -1.5342 C   0  0  0  0  0  0  0  0  0  0  0  0
    1.7102    6.1275   -1.2814 C   0  0  0  0  0  0  0  0  0  0  0  0
   -0.5083    5.5633   -1.9733 O   0  0  0  0  0  0  0  0  0  0  0  0
    2.6867    3.8678   -0.4618 H   0  0  0  0  0  0  0  0  0  0  0  0
    3.2975    1.6763   -2.4929 N   0  0  0  0  0  0  0  0  0  0  0  0
    3.9854    1.3909   -3.7280 C   0  0  0  0  0  0  0  0  0  0  0  0
    2.6604    1.3141   -0.0479 H   0  0  0  0  0  0  0  0  0  0  0  0
    1.7105    2.3824    0.9948 H   0  0  0  0  0  0  0  0  0  0  0  0
   -1.1927    0.2389   -3.5584 H   0  0  0  0  0  0  0  0  0  0  0  0
   -1.9083    0.4373   -1.9495 H   0  0  0  0  0  0  0  0  0  0  0  0
   -0.5070    3.8177   -3.9386 H   0  0  0  0  0  0  0  0  0  0  0  0
   -0.9632    2.3667   -4.9046 H   0  0  0  0  0  0  0  0  0  0  0  0
    0.5417    2.3932   -3.9363 H   0  0  0  0  0  0  0  0  0  0  0  0
   -2.5439    3.8253   -2.7121 H   0  0  0  0  0  0  0  0  0  0  0  0
   -3.1004    2.3563   -1.8694 H   0  0  0  0  0  0  0  0  0  0  0  0
   -3.1734    2.4255   -3.6525 H   0  0  0  0  0  0  0  0  0  0  0  0
    3.0248   -3.1090   -1.6060 H   0  0  0  0  0  0  0  0  0  0  0  0
    5.3486   -4.5537    0.1661 H   0  0  0  0  0  0  0  0  0  0  0  0
    4.2313   -5.2482    1.3639 H   0  0  0  0  0  0  0  0  0  0  0  0
    3.0105   -3.0608    1.5280 H   0  0  0  0  0  0  0  0  0  0  0  0
    4.0661   -2.3384    0.3004 H   0  0  0  0  0  0  0  0  0  0  0  0
    4.7407   -2.8526    1.8777 H   0  0  0  0  0  0  0  0  0  0  0  0
    2.2061   -6.7949    0.7574 H   0  0  0  0  0  0  0  0  0  0  0  0
   -2.0052   -7.9958    2.0302 H   0  0  0  0  0  0  0  0  0  0  0  0
   -3.7988   -4.0904    0.3101 H   0  0  0  0  0  0  0  0  0  0  0  0
   -1.2014   -2.8845    2.2852 H   0  0  0  0  0  0  0  0  0  0  0  0
   -3.5610    2.8317    1.0978 H   0  0  0  0  0  0  0  0  0  0  0  0
   -2.2115    2.2655    0.0502 H   0  0  0  0  0  0  0  0  0  0  0  0
   -0.2329    2.5584    2.6211 H   0  0  0  0  0  0  0  0  0  0  0  0
    0.7744    6.7239    2.0928 H   0  0  0  0  0  0  0  0  0  0  0  0
   -2.8088    5.1573    0.3046 H   0  0  0  0  0  0  0  0  0  0  0  0
   -3.8318    0.6136   -0.0561 H   0  0  0  0  0  0  0  0  0  0  0  0
   -3.9901   -1.7408   -0.7906 H   0  0  0  0  0  0  0  0  0  0  0  0
   -0.5822   -2.9602   -0.7756 H   0  0  0  0  0  0  0  0  0  0  0  0
   -0.0364    3.2576   -1.4872 H   0  0  0  0  0  0  0  0  0  0  0  0
    1.3358    7.1487   -1.4171 H   0  0  0  0  0  0  0  0  0  0  0  0
    2.5170    5.9139   -1.9962 H   0  0  0  0  0  0  0  0  0  0  0  0
    2.1085    6.0143   -0.2615 H   0  0  0  0  0  0  0  0  0  0  0  0
    3.0545    0.8278   -1.9355 H   0  0  0  0  0  0  0  0  0  0  0  0
    4.8754    2.0287   -3.8500 H   0  0  0  0  0  0  0  0  0  0  0  0
    3.3383    1.5638   -4.6044 H   0  0  0  0  0  0  0  0  0  0  0  0
    4.2890    0.3364   -3.7077 H   0  0  0  0  0  0  0  0  0  0  0  0
    1.0373    0.9618   -2.4697 H   0  0  0  0  0  0  0  0  0  0  0  0
   -0.2612   -1.7552   -2.3235 H   0  0  0  0  0  0  0  0  0  0  0  0
  1  2  2  0  0  0  0
  2  3  1  0  0  0  0
  3 52  1  1  0  0  0
  3  4  1  0  0  0  0
  4 56  1  0  0  0  0
  5  4  1  0  0  0  0
  6 91  1  6  0  0  0
  6  5  1  0  0  0  0
  7  6  1  0  0  0  0
  7 58  1  0  0  0  0
  8 10  1  0  0  0  0
  8  7  1  0  0  0  0
  9 59  1  0  0  0  0
  9 61  1  0  0  0  0
  9  8  1  0  0  0  0
 10 62  1  0  0  0  0
 10 63  1  0  0  0  0
 11  6  1  0  0  0  0
 11 12  1  0  0  0  0
 12 14  1  0  0  0  0
 12 13  2  0  0  0  0
 14 15  1  0  0  0  0
 15 47  2  0  0  0  0
 15 16  1  0  0  0  0
 16 20  2  0  0  0  0
 17 16  1  0  0  0  0
 17 18  1  0  0  0  0
 18 19  1  0  0  0  0
 18 67  1  0  0  0  0
 19 68  1  0  0  0  0
 19 70  1  0  0  0  0
 20 21  1  0  0  0  0
 20 71  1  0  0  0  0
 21 22  1  0  0  0  0
 22 23  2  0  0  0  0
 23 72  1  0  0  0  0
 24 23  1  0  0  0  0
 24 25  1  0  0  0  0
 25 26  3  0  0  0  0
 27 24  2  0  0  0  0
 28 27  1  0  0  0  0
 28 29  1  0  0  0  0
 29 30  1  0  0  0  0
 30 31  2  0  0  0  0
 30 74  1  0  0  0  0
 31 32  1  0  0  0  0
 33 34  1  0  0  0  0
 33 31  1  0  0  0  0
 35 75  1  0  0  0  0
 35 36  1  0  0  0  0
 35 34  1  0  0  0  0
 36 37  1  0  0  0  0
 37 38  2  0  0  0  0
 37 77  1  0  0  0  0
 38 39  1  0  0  0  0
 40 78  1  0  0  0  0
 40 38  1  0  0  0  0
 41 40  2  0  0  0  0
 42 41  1  0  0  0  0
 43 41  1  0  0  0  0
 43 36  2  0  0  0  0
 44 33  2  0  0  0  0
 45 44  1  0  0  0  0
 45 29  2  0  0  0  0
 46 27  1  0  0  0  0
 46 21  2  0  0  0  0
 47 46  1  0  0  0  0
 48  3  1  0  0  0  0
 49 50  1  0  0  0  0
 49 48  1  0  0  0  0
 50 86  1  0  0  0  0
 51 49  2  0  0  0  0
 53  2  1  0  0  0  0
 53 87  1  0  0  0  0
 54 90  1  0  0  0  0
 54 53  1  0  0  0  0
 55  4  1  0  0  0  0
 57  7  1  0  0  0  0
 60  9  1  0  0  0  0
 64 10  1  0  0  0  0
 65 14  1  0  0  0  0
 66 18  1  0  0  0  0
 69 19  1  0  0  0  0
 73 28  1  0  0  0  0
 76 35  1  0  0  0  0
 79 43  1  0  0  0  0
 80 44  1  0  0  0  0
 81 45  1  0  0  0  0
 82 47  1  0  0  0  0
 83 48  1  0  0  0  0
 84 50  1  0  0  0  0
 85 50  1  0  0  0  0
 88 54  1  0  0  0  0
 89 54  1  0  0  0  0
 92 11  1  0  0  0  0
M  END
