-1 1
 OpenBabel05232414493D

 92 94  0  0  1  0  0  0  0  0999 V2000
    3.4947   -1.5330    7.6111 O   0  0  0  0  0  0  0  0  0  0  0  0
    3.2583   -2.3377    8.5044 C   0  0  0  0  0  0  0  0  0  0  0  0
    2.4472   -1.8816    9.7368 C   0  0  2  0  0  0  0  0  0  0  0  0
    2.3834   -2.8437   10.9219 C   0  0  0  0  0  0  0  0  0  0  0  0
    1.4456   -4.4130   10.7127 S   0  0  0  0  0  1  0  0  0  0  0  0
    0.8399   -5.3612    8.7021 C   0  0  0  0  0  3  0  0  0  0  0  0
   -0.5429   -4.8344    8.4052 C   0  0  0  0  0  0  0  0  0  0  0  0
   -0.6448   -3.4204    8.1067 N   0  0  0  0  0  0  0  0  0  0  0  0
   -0.0052   -3.0510    6.8582 C   0  0  0  0  0  0  0  0  0  0  0  0
   -2.0075   -2.9358    8.1556 C   0  0  0  0  0  0  0  0  0  0  0  0
    0.9526   -6.7208    9.0128 C   0  0  0  0  0  3  0  0  0  0  0  0
    2.2452   -7.3055    9.0231 C   0  0  0  0  0  0  0  0  0  0  0  0
    3.2870   -6.7243    8.6917 O   0  0  0  0  0  0  0  0  0  0  0  0
    2.4426   -8.6518    9.4303 N   0  0  0  0  0  0  0  0  0  0  0  0
    1.7378   -9.5608   10.1735 C   0  0  0  0  0  0  0  0  0  0  0  0
    2.5323  -10.5974   10.7901 C   0  0  0  0  0  0  0  0  0  0  0  0
    3.8834  -10.5232   10.6281 O   0  0  0  0  0  0  0  0  0  0  0  0
    4.6205  -10.0391   11.7493 C   0  0  0  0  0  0  0  0  0  0  0  0
    4.3605   -8.5758   12.0613 C   0  0  0  0  0  0  0  0  0  0  0  0
    1.9587  -11.6357   11.4736 C   0  0  0  0  0  0  0  0  0  0  0  0
    0.5540  -11.6974   11.6636 C   0  0  0  0  0  0  0  0  0  0  0  0
    0.0275  -12.7871   12.2892 N   0  0  0  0  0  0  0  0  0  0  0  0
   -1.2653  -12.8349   12.4421 C   0  0  0  0  0  0  0  0  0  0  0  0
   -2.1456  -11.7819   12.0651 C   0  0  0  0  0  0  0  0  0  0  0  0
   -3.5431  -11.8715   12.3568 C   0  0  0  0  0  0  0  0  0  0  0  0
   -4.6810  -11.9219   12.5752 N   0  0  0  0  0  0  0  0  0  0  0  0
   -1.6299  -10.6321   11.4578 C   0  0  0  0  0  0  0  0  0  0  0  0
   -2.4432   -9.5621   11.1410 N   0  0  0  0  0  0  0  0  0  0  0  0
   -2.1553   -8.2249   11.5331 C   0  0  0  0  0  0  0  0  0  0  0  0
   -1.3155   -7.9480   12.6175 C   0  0  0  0  0  0  0  0  0  0  0  0
   -1.0828   -6.6373   13.0028 C   0  0  0  0  0  0  0  0  0  0  0  0
   -0.0186   -6.3157   14.3384 Cl  0  0  0  0  0  0  0  0  0  0  0  0
   -1.7028   -5.5596   12.3475 C   0  0  0  0  0  0  0  0  0  0  0  0
   -1.4745   -4.3273   12.8199 O   0  0  0  0  0  0  0  0  0  0  0  0
   -1.5633   -3.2191   11.9569 C   0  0  0  0  0  0  0  0  0  0  0  0
   -0.7906   -2.0680   12.5439 C   0  0  0  0  0  0  0  0  0  0  0  0
   -0.0413   -2.2331   13.7091 C   0  0  0  0  0  0  0  0  0  0  0  0
    0.7149   -1.1654   14.1722 C   0  0  0  0  0  0  0  0  0  0  0  0
    1.4405   -1.3179   15.2840 F   0  0  0  0  0  0  0  0  0  0  0  0
    0.7547    0.0600   13.5206 C   0  0  0  0  0  0  0  0  0  0  0  0
   -0.0071    0.1866   12.3644 C   0  0  0  0  0  0  0  0  0  0  0  0
    0.0256    1.3522   11.7125 F   0  0  0  0  0  0  0  0  0  0  0  0
   -0.7809   -0.8477   11.8617 C   0  0  0  0  0  0  0  0  0  0  0  0
   -2.5508   -5.8502   11.2761 C   0  0  0  0  0  0  0  0  0  0  0  0
   -2.7601   -7.1645   10.8607 C   0  0  0  0  0  0  0  0  0  0  0  0
   -0.2281  -10.6202   11.1653 C   0  0  0  0  0  0  0  0  0  0  0  0
    0.3700   -9.6001   10.3867 C   0  0  0  0  0  0  0  0  0  0  0  0
    1.1212   -1.4690    9.3388 N   0  0  0  0  0  0  0  0  0  0  0  0
    0.7181   -0.2488    8.9187 C   0  0  0  0  0  0  0  0  0  0  0  0
    1.7245    0.8809    8.9627 C   0  0  0  0  0  0  0  0  0  0  0  0
   -0.4324   -0.0599    8.5291 O   0  0  0  0  0  0  0  0  0  0  0  0
    2.9949   -0.9918   10.0848 H   0  0  0  0  0  0  0  0  0  0  0  0
    3.6926   -3.6122    8.4632 N   0  0  0  0  0  0  0  0  0  0  0  0
    4.4179   -4.1119    7.3192 C   0  0  0  0  0  0  0  0  0  0  0  0
    3.4153   -3.0939   11.2154 H   0  0  0  0  0  0  0  0  0  0  0  0
    1.9311   -2.2903   11.7587 H   0  0  0  0  0  0  0  0  0  0  0  0
   -0.9395   -5.4369    7.5539 H   0  0  0  0  0  0  0  0  0  0  0  0
   -1.1879   -5.0608    9.2645 H   0  0  0  0  0  0  0  0  0  0  0  0
   -0.0760   -1.9624    6.7235 H   0  0  0  0  0  0  0  0  0  0  0  0
   -0.4771   -3.5518    5.9839 H   0  0  0  0  0  0  0  0  0  0  0  0
    1.0613   -3.3151    6.8710 H   0  0  0  0  0  0  0  0  0  0  0  0
   -1.9981   -1.8404    8.0574 H   0  0  0  0  0  0  0  0  0  0  0  0
   -2.4612   -3.1871    9.1266 H   0  0  0  0  0  0  0  0  0  0  0  0
   -2.6490   -3.3747    7.3581 H   0  0  0  0  0  0  0  0  0  0  0  0
    3.4292   -8.8777    9.3647 H   0  0  0  0  0  0  0  0  0  0  0  0
    5.6749  -10.2031   11.4846 H   0  0  0  0  0  0  0  0  0  0  0  0
    4.3938  -10.6698   12.6284 H   0  0  0  0  0  0  0  0  0  0  0  0
    3.3088   -8.3988   12.3325 H   0  0  0  0  0  0  0  0  0  0  0  0
    4.5983   -7.9260   11.2064 H   0  0  0  0  0  0  0  0  0  0  0  0
    4.9820   -8.2675   12.9154 H   0  0  0  0  0  0  0  0  0  0  0  0
    2.5773  -12.4349   11.8835 H   0  0  0  0  0  0  0  0  0  0  0  0
   -1.6905  -13.7248   12.9202 H   0  0  0  0  0  0  0  0  0  0  0  0
   -3.4356   -9.7758   11.1659 H   0  0  0  0  0  0  0  0  0  0  0  0
   -0.8299   -8.7558   13.1656 H   0  0  0  0  0  0  0  0  0  0  0  0
   -2.6196   -2.9274   11.8045 H   0  0  0  0  0  0  0  0  0  0  0  0
   -1.0985   -3.4686   10.9869 H   0  0  0  0  0  0  0  0  0  0  0  0
   -0.0197   -3.1910   14.2263 H   0  0  0  0  0  0  0  0  0  0  0  0
    1.3591    0.8854   13.8954 H   0  0  0  0  0  0  0  0  0  0  0  0
   -1.3121   -0.7006   10.9181 H   0  0  0  0  0  0  0  0  0  0  0  0
   -3.0510   -5.0360   10.7509 H   0  0  0  0  0  0  0  0  0  0  0  0
   -3.4049   -7.3678   10.0034 H   0  0  0  0  0  0  0  0  0  0  0  0
   -0.2751   -8.8593    9.9310 H   0  0  0  0  0  0  0  0  0  0  0  0
    0.4428   -2.2318    9.1808 H   0  0  0  0  0  0  0  0  0  0  0  0
    1.2329    1.7870    8.5917 H   0  0  0  0  0  0  0  0  0  0  0  0
    2.5944    0.6231    8.3425 H   0  0  0  0  0  0  0  0  0  0  0  0
    2.0665    1.0572    9.9936 H   0  0  0  0  0  0  0  0  0  0  0  0
    3.3608   -4.2979    9.1462 H   0  0  0  0  0  0  0  0  0  0  0  0
    5.4454   -3.7128    7.2877 H   0  0  0  0  0  0  0  0  0  0  0  0
    3.9212   -3.8086    6.3839 H   0  0  0  0  0  0  0  0  0  0  0  0
    4.4383   -5.2052    7.3913 H   0  0  0  0  0  0  0  0  0  0  0  0
    1.6569   -4.9329    8.1209 H   0  0  0  0  0  0  0  0  0  0  0  0
    0.0783   -7.2332    9.4039 H   0  0  0  0  0  0  0  0  0  0  0  0
  1  2  2  0  0  0  0
  2  3  1  0  0  0  0
  3 52  1  1  0  0  0
  3  4  1  0  0  0  0
  4 55  1  0  0  0  0
  4 56  1  0  0  0  0
  5  4  1  0  0  0  0
  6 11  1  0  0  0  0
  7  6  1  0  0  0  0
  7 58  1  0  0  0  0
  8 10  1  0  0  0  0
  8  7  1  0  0  0  0
  9 61  1  0  0  0  0
  9  8  1  0  0  0  0
 10 63  1  0  0  0  0
 11 12  1  0  0  0  0
 11 92  1  0  0  0  0
 12 14  1  0  0  0  0
 13 12  2  0  0  0  0
 14 15  1  0  0  0  0
 15 47  2  0  0  0  0
 15 16  1  0  0  0  0
 16 20  2  0  0  0  0
 17 16  1  0  0  0  0
 17 18  1  0  0  0  0
 18 19  1  0  0  0  0
 18 67  1  0  0  0  0
 19 68  1  0  0  0  0
 19 70  1  0  0  0  0
 20 21  1  0  0  0  0
 20 71  1  0  0  0  0
 21 22  1  0  0  0  0
 22 23  2  0  0  0  0
 23 72  1  0  0  0  0
 24 25  1  0  0  0  0
 24 23  1  0  0  0  0
 25 26  3  0  0  0  0
 27 24  2  0  0  0  0
 28 73  1  0  0  0  0
 28 27  1  0  0  0  0
 28 29  1  0  0  0  0
 29 30  1  0  0  0  0
 30 31  2  0  0  0  0
 30 74  1  0  0  0  0
 31 32  1  0  0  0  0
 33 34  1  0  0  0  0
 33 31  1  0  0  0  0
 35 36  1  0  0  0  0
 35 34  1  0  0  0  0
 36 37  1  0  0  0  0
 37 38  2  0  0  0  0
 37 77  1  0  0  0  0
 38 39  1  0  0  0  0
 40 78  1  0  0  0  0
 40 38  1  0  0  0  0
 41 40  2  0  0  0  0
 42 41  1  0  0  0  0
 43 41  1  0  0  0  0
 43 36  2  0  0  0  0
 44 33  2  0  0  0  0
 45 44  1  0  0  0  0
 45 29  2  0  0  0  0
 46 27  1  0  0  0  0
 46 21  2  0  0  0  0
 47 46  1  0  0  0  0
 48  3  1  0  0  0  0
 49 50  1  0  0  0  0
 49 48  1  0  0  0  0
 50 86  1  0  0  0  0
 51 49  2  0  0  0  0
 53  2  1  0  0  0  0
 53 87  1  0  0  0  0
 54 90  1  0  0  0  0
 54 53  1  0  0  0  0
 57  7  1  0  0  0  0
 59  9  1  0  0  0  0
 60  9  1  0  0  0  0
 62 10  1  0  0  0  0
 64 10  1  0  0  0  0
 65 14  1  0  0  0  0
 66 18  1  0  0  0  0
 69 19  1  0  0  0  0
 75 35  1  0  0  0  0
 76 35  1  0  0  0  0
 79 43  1  0  0  0  0
 80 44  1  0  0  0  0
 81 45  1  0  0  0  0
 82 47  1  0  0  0  0
 83 48  1  0  0  0  0
 84 50  1  0  0  0  0
 85 50  1  0  0  0  0
 88 54  1  0  0  0  0
 89 54  1  0  0  0  0
 91  6  1  0  0  0  0
M  END
