91
-1 1
O         3.940275    4.926559    5.366549
C         3.294974    3.932208    5.059354
C         2.161328    3.368610    5.941059
C         0.823577    3.927089    5.425120
S        -0.662911    3.254555    6.193537
C        -0.784901    1.564326    5.293215
C        -2.082453    0.892270    5.766992
N        -3.276349    1.162729    4.985837
C        -4.340125    0.246722    5.300756
C        -3.720038    2.535509    4.998782
C        -0.620288    1.603170    3.830554
C         0.612080    1.412841    3.247201
O         1.711473    1.139449    3.818110
N         0.740506    1.478884    1.807776
C        -0.269242    1.613773    0.874658
C        -1.079354    2.810370    0.827175
O        -0.788743    3.748260    1.728283
C        -1.668108    4.838454    1.902078
C        -1.229792    5.619572    3.118873
C        -2.053257    2.946541   -0.140090
C        -2.263730    1.958205   -1.132617
N        -3.210507    2.197738   -2.083361
C        -3.398637    1.287156   -2.994634
C        -2.696452    0.049686   -3.059103
C        -3.117283   -0.900737   -4.041781
N        -3.502653   -1.637643   -4.849707
C        -1.701521   -0.214201   -2.107343
N        -0.988825   -1.391474   -2.060975
C        -0.566525   -2.184649   -3.141339
C        -0.493889   -3.573050   -2.981656
C        -0.043285   -4.372642   -4.020727
Cl         0.048971   -6.099383   -3.800421
C         0.321389   -3.822752   -5.260244
O         0.726939   -4.678154   -6.218428
C         1.058569   -4.189891   -7.487970
C         1.429066   -5.341239   -8.388793
N         1.818245   -4.988426   -9.614321
C         2.154869   -5.949463  -10.468934
C         2.123020   -7.306305  -10.148217
C         1.716634   -7.667492   -8.866387
C         1.360491   -6.669644   -7.963071
C         0.243115   -2.436414   -5.410620
C        -0.179262   -1.626823   -4.360526
C        -1.462894    0.785371   -1.112481
C        -0.477258    0.656520   -0.099338
N         2.419856    3.511830    7.356861
C         2.462800    4.595891    8.186841
C         2.017769    5.937711    7.647888
O         2.818852    4.463721    9.346447
H         2.117351    2.288616    5.739850
N         3.445909    3.249872    3.907403
C         4.344747    3.679161    2.872296
H         0.775696    5.018040    5.535728
H         0.753072    3.710814    4.347472
H        -2.246833    1.117861    6.848400
H        -1.905137   -0.193374    5.699401
H        -4.001704   -0.793144    5.169807
H        -5.194474    0.409507    4.624192
H        -4.718055    0.347894    6.346984
H        -2.919165    3.199618    4.650278
H        -4.024615    2.887154    6.012327
H        -4.585307    2.649444    4.325710
H         1.483631    0.845675    1.532610
H        -2.698043    4.459366    2.032889
H        -1.658786    5.473348    0.996041
H        -1.299681    4.995979    4.022204
H        -1.873299    6.502481    3.246895
H        -0.189482    5.957369    3.007896
H        -2.669678    3.840677   -0.212197
H        -4.166670    1.480035   -3.753079
H        -0.608799   -1.637780   -1.157125
H        -0.804733   -4.035550   -2.043875
H         1.912501   -3.489854   -7.438740
H         0.209118   -3.644037   -7.938270
H         2.469346   -5.624990  -11.467151
H         2.410572   -8.056144  -10.887271
H         1.676077   -8.718096   -8.569722
H         1.035180   -6.897792   -6.948184
H         0.522092   -1.969270   -6.354635
H        -0.217844   -0.545053   -4.498135
H         0.162973   -0.227283   -0.057165
H         2.703452    2.668580    7.839457
H         2.477849    6.137851    6.672151
H         2.318375    6.701338    8.374890
H         0.921076    5.952520    7.552682
H         2.858155    2.402404    3.763469
H         4.719598    4.681097    3.121771
H         3.825722    3.715347    1.901082
H         5.211489    3.002717    2.771575
H        -1.510087    1.750244    3.219610
H         0.049565    1.004204    5.737865
