91
-1 1
O         1.421095    4.437333    6.816607
C         1.704766    4.014388    5.707133
C         0.665396    3.494881    4.710053
C        -0.486759    4.473085    4.467511
S        -1.575315    3.960499    3.098684
C         1.419648    0.217512    2.513865
C         0.425191   -0.866107    2.834227
N        -0.854571   -0.797084    2.125065
C        -1.475273   -2.112074    2.059681
C        -1.807825    0.135739    2.739862
C         1.107771    1.421847    2.032288
C         2.096407    2.492811    1.738684
O         3.154983    2.629723    2.337163
N         1.718768    3.391376    0.766405
C         0.500284    3.375603    0.074219
C        -0.265161    4.584439    0.007464
O         0.340512    5.657130    0.526566
C        -0.468056    6.722322    1.015787
C         0.407830    7.610892    1.868340
C        -1.511550    4.580133   -0.582033
C        -2.094128    3.367257   -1.021029
N        -3.351087    3.386669   -1.545449
C        -3.901829    2.248757   -1.866056
C        -3.294690    0.973972   -1.670313
C        -4.062095   -0.210903   -1.906197
N        -4.701540   -1.155646   -2.109353
C        -1.994361    0.921815   -1.165589
N        -1.335253   -0.264426   -0.849930
C        -0.978031   -1.266681   -1.740153
C        -0.200709   -2.336863   -1.264599
C         0.190642   -3.359024   -2.112471
Cl         1.151980   -4.672322   -1.478352
C        -0.160333   -3.365058   -3.470483
O         0.261038   -4.410348   -4.220619
C        -0.074669   -4.459103   -5.575125
C         0.488170   -5.716958   -6.187657
N         0.251505   -5.863100   -7.492050
C         0.716030   -6.951325   -8.098159
C         1.438230   -7.946709   -7.440712
C         1.682513   -7.787643   -6.078938
C         1.200552   -6.652476   -5.433249
C        -0.907715   -2.287631   -3.944977
C        -1.307067   -1.252887   -3.100592
C        -1.354286    2.159062   -0.890708
C        -0.014562    2.215493   -0.439102
N         0.333750    2.116476    5.037952
C        -0.548501    1.553836    5.903210
C        -1.368043    2.467199    6.778188
O        -0.667297    0.333638    5.949266
H         1.166007    3.422357    3.738572
N         2.981746    3.936838    5.239711
C         4.120750    4.300204    6.038922
H        -1.044744    4.647428    5.397447
H        -0.001542    5.438510    4.236118
H         0.264694   -0.878606    3.936531
H         0.900521   -1.828142    2.582477
H        -0.788787   -2.852889    1.623105
H        -2.371276   -2.065150    1.421735
H        -1.783418   -2.482863    3.059265
H        -1.418198    1.157888    2.845089
H        -2.101221   -0.200847    3.752712
H        -2.707161    0.195305    2.108074
H         2.219120    4.273504    0.795154
H        -1.280845    6.275081    1.616395
H        -0.889707    7.285941    0.163361
H         0.808334    7.041270    2.718879
H        -0.184389    8.448214    2.265073
H         1.249048    8.021093    1.288720
H        -2.118129    5.481590   -0.644856
H        -4.915732    2.279777   -2.282247
H        -0.940522   -0.322341    0.104089
H         0.112250   -2.356949   -0.221330
H         0.329462   -3.587734   -6.123671
H        -1.171518   -4.454657   -5.718685
H         0.503453   -7.039871   -9.169582
H         1.797502   -8.821287   -7.986038
H         2.243939   -8.541095   -5.521529
H         1.362752   -6.477502   -4.369733
H        -1.195653   -2.239812   -4.995264
H        -1.880712   -0.426926   -3.520552
H         0.580585    1.304756   -0.420515
H         0.793475    1.428013    4.455997
H        -0.754587    3.280922    7.189155
H        -1.811743    1.865389    7.580076
H        -2.170107    2.904598    6.162483
H         3.135720    3.521114    4.323350
H         3.746482    4.716366    6.983415
H         4.741820    5.058718    5.535216
H         4.756532    3.427936    6.265971
H         0.067401    1.709833    1.885372
H         2.472658   -0.014668    2.714465
