91
-1 1
O        -2.533215    4.043869   -7.232526
C        -3.376792    3.974172   -6.358798
C        -3.945926    2.623420   -5.879687
C        -5.046321    2.729630   -4.801375
S        -5.767862    1.170885   -4.231060
C        -6.556398   -0.060539   -6.115586
C        -8.031734   -0.128322   -5.785812
N        -8.856114    0.881328   -6.426975
C       -10.258354    0.575564   -6.329647
C        -8.564608    2.237360   -6.023052
C        -6.178179    0.341919   -7.397901
C        -4.883756    0.023248   -7.893145
O        -3.958759   -0.472849   -7.241230
N        -4.596020    0.258374   -9.268248
C        -5.514362    0.459364  -10.296526
C        -6.224818    1.708049  -10.401410
O        -5.934234    2.611464   -9.467073
C        -6.630140    3.837308   -9.433764
C        -6.075966    4.644893   -8.284536
C        -7.106528    1.916692  -11.442488
C        -7.306549    0.940203  -12.447533
N        -8.157372    1.244020  -13.470083
C        -8.336331    0.344837  -14.393199
C        -7.722616   -0.940993  -14.408783
C        -8.135771   -1.852992  -15.430557
N        -8.517526   -2.549263  -16.275493
C        -6.829795   -1.276095  -13.380128
N        -6.208674   -2.495809  -13.278598
C        -5.843937   -3.362683  -14.327524
C        -6.028751   -4.740490  -14.175710
C        -5.647276   -5.609300  -15.186361
Cl        -5.877830   -7.324126  -14.981801
C        -5.097219   -5.133156  -16.388117
O        -4.776574   -6.047830  -17.321370
C        -4.266291   -5.630334  -18.557115
C        -4.032227   -6.832792  -19.436723
N        -3.494198   -6.557829  -20.625249
C        -3.263143   -7.566326  -21.459997
C        -3.553525   -8.895790  -21.154892
C        -4.114397   -9.175703  -19.911653
C        -4.361929   -8.127356  -19.029444
C        -4.917437   -3.755070  -16.529522
C        -5.270765   -2.882557  -15.504888
C        -6.600499   -0.289386  -12.367309
C        -5.708569   -0.484959  -11.279631
N        -2.892322    1.678757   -5.598151
C        -1.821842    1.815364   -4.776765
C        -1.598898    3.172588   -4.122678
O        -1.028165    0.908984   -4.589680
H        -4.436700    2.243877   -6.789095
N        -3.906164    5.090567   -5.776947
C        -3.511244    6.418993   -6.157935
H        -4.651902    3.234564   -3.901225
H        -5.847239    3.378306   -5.202975
H        -8.173165   -0.140097   -4.684550
H        -8.381173   -1.108258   -6.162116
H       -10.462236   -0.424032   -6.745492
H       -10.847749    1.305973   -6.907637
H       -10.644159    0.588914   -5.282205
H        -7.502319    2.454941   -6.191292
H        -8.774733    2.432333   -4.948928
H        -9.165079    2.936072   -6.630202
H        -3.750612   -0.240594   -9.521079
H        -7.710963    3.643703   -9.306965
H        -6.492875    4.371965  -10.391889
H        -6.235483    4.114590   -7.335852
H        -6.574785    5.623457   -8.228788
H        -4.995597    4.798472   -8.414598
H        -7.655200    2.849481  -11.558328
H        -9.026400    0.589175  -15.209728
H        -5.882085   -2.751674  -12.356730
H        -6.488423   -5.136702  -13.269430
H        -3.310097   -5.089954  -18.434209
H        -4.970213   -4.947042  -19.066640
H        -2.820858   -7.305515  -22.427951
H        -3.343278   -9.687324  -21.876292
H        -4.358609  -10.202150  -19.628557
H        -4.799466   -8.291747  -18.044870
H        -4.489156   -3.347565  -17.444688
H        -5.111755   -1.810195  -15.630626
H        -5.133278   -1.408111  -11.184067
H        -3.033913    0.747136   -5.997932
H        -1.158471    3.862267   -4.858823
H        -0.887570    3.028654   -3.300995
H        -2.520649    3.628674   -3.737570
H        -4.585548    4.969982   -5.040085
H        -2.773951    6.322992   -6.965490
H        -3.045769    6.963590   -5.319636
H        -4.367371    7.009051   -6.525745
H        -6.900352    0.876326   -8.012308
H        -5.965132   -0.863929   -5.673224
