-1 1
 OpenBabel05232413483D

 91 93  0  0  1  0  0  0  0  0999 V2000
    1.4211    4.4373    6.8166 O   0  0  0  0  0  0  0  0  0  0  0  0
    1.7048    4.0144    5.7071 C   0  0  0  0  0  0  0  0  0  0  0  0
    0.6654    3.4949    4.7101 C   0  0  2  0  0  0  0  0  0  0  0  0
   -0.4868    4.4731    4.4675 C   0  0  0  0  0  0  0  0  0  0  0  0
   -1.5753    3.9605    3.0987 S   0  0  0  0  0  1  0  0  0  0  0  0
    1.4196    0.2175    2.5139 C   0  0  0  0  0  0  0  0  0  0  0  0
    0.4252   -0.8661    2.8342 C   0  0  0  0  0  0  0  0  0  0  0  0
   -0.8546   -0.7971    2.1251 N   0  0  0  0  0  0  0  0  0  0  0  0
   -1.4753   -2.1121    2.0597 C   0  0  0  0  0  0  0  0  0  0  0  0
   -1.8078    0.1357    2.7399 C   0  0  0  0  0  0  0  0  0  0  0  0
    1.1078    1.4218    2.0323 C   0  0  0  0  0  0  0  0  0  0  0  0
    2.0964    2.4928    1.7387 C   0  0  0  0  0  0  0  0  0  0  0  0
    3.1550    2.6297    2.3372 O   0  0  0  0  0  0  0  0  0  0  0  0
    1.7188    3.3914    0.7664 N   0  0  0  0  0  0  0  0  0  0  0  0
    0.5003    3.3756    0.0742 C   0  0  0  0  0  0  0  0  0  0  0  0
   -0.2652    4.5844    0.0075 C   0  0  0  0  0  0  0  0  0  0  0  0
    0.3405    5.6571    0.5266 O   0  0  0  0  0  0  0  0  0  0  0  0
   -0.4681    6.7223    1.0158 C   0  0  0  0  0  0  0  0  0  0  0  0
    0.4078    7.6109    1.8683 C   0  0  0  0  0  0  0  0  0  0  0  0
   -1.5115    4.5801   -0.5820 C   0  0  0  0  0  0  0  0  0  0  0  0
   -2.0941    3.3673   -1.0210 C   0  0  0  0  0  0  0  0  0  0  0  0
   -3.3511    3.3867   -1.5454 N   0  0  0  0  0  0  0  0  0  0  0  0
   -3.9018    2.2488   -1.8661 C   0  0  0  0  0  0  0  0  0  0  0  0
   -3.2947    0.9740   -1.6703 C   0  0  0  0  0  0  0  0  0  0  0  0
   -4.0621   -0.2109   -1.9062 C   0  0  0  0  0  0  0  0  0  0  0  0
   -4.7015   -1.1556   -2.1094 N   0  0  0  0  0  0  0  0  0  0  0  0
   -1.9944    0.9218   -1.1656 C   0  0  0  0  0  0  0  0  0  0  0  0
   -1.3353   -0.2644   -0.8499 N   0  0  0  0  0  0  0  0  0  0  0  0
   -0.9780   -1.2667   -1.7402 C   0  0  0  0  0  0  0  0  0  0  0  0
   -0.2007   -2.3369   -1.2646 C   0  0  0  0  0  0  0  0  0  0  0  0
    0.1906   -3.3590   -2.1125 C   0  0  0  0  0  0  0  0  0  0  0  0
    1.1520   -4.6723   -1.4784 Cl  0  0  0  0  0  0  0  0  0  0  0  0
   -0.1603   -3.3651   -3.4705 C   0  0  0  0  0  0  0  0  0  0  0  0
    0.2610   -4.4103   -4.2206 O   0  0  0  0  0  0  0  0  0  0  0  0
   -0.0747   -4.4591   -5.5751 C   0  0  0  0  0  0  0  0  0  0  0  0
    0.4882   -5.7170   -6.1877 C   0  0  0  0  0  0  0  0  0  0  0  0
    0.2515   -5.8631   -7.4920 N   0  0  0  0  0  0  0  0  0  0  0  0
    0.7160   -6.9513   -8.0982 C   0  0  0  0  0  0  0  0  0  0  0  0
    1.4382   -7.9467   -7.4407 C   0  0  0  0  0  0  0  0  0  0  0  0
    1.6825   -7.7876   -6.0789 C   0  0  0  0  0  0  0  0  0  0  0  0
    1.2006   -6.6525   -5.4332 C   0  0  0  0  0  0  0  0  0  0  0  0
   -0.9077   -2.2876   -3.9450 C   0  0  0  0  0  0  0  0  0  0  0  0
   -1.3071   -1.2529   -3.1006 C   0  0  0  0  0  0  0  0  0  0  0  0
   -1.3543    2.1591   -0.8907 C   0  0  0  0  0  0  0  0  0  0  0  0
   -0.0146    2.2155   -0.4391 C   0  0  0  0  0  0  0  0  0  0  0  0
    0.3337    2.1165    5.0380 N   0  0  0  0  0  0  0  0  0  0  0  0
   -0.5485    1.5538    5.9032 C   0  0  0  0  0  0  0  0  0  0  0  0
   -1.3680    2.4672    6.7782 C   0  0  0  0  0  0  0  0  0  0  0  0
   -0.6673    0.3336    5.9493 O   0  0  0  0  0  0  0  0  0  0  0  0
    1.1660    3.4224    3.7386 H   0  0  0  0  0  0  0  0  0  0  0  0
    2.9817    3.9368    5.2397 N   0  0  0  0  0  0  0  0  0  0  0  0
    4.1208    4.3002    6.0389 C   0  0  0  0  0  0  0  0  0  0  0  0
   -1.0447    4.6474    5.3974 H   0  0  0  0  0  0  0  0  0  0  0  0
   -0.0015    5.4385    4.2361 H   0  0  0  0  0  0  0  0  0  0  0  0
    0.2647   -0.8786    3.9365 H   0  0  0  0  0  0  0  0  0  0  0  0
    0.9005   -1.8281    2.5825 H   0  0  0  0  0  0  0  0  0  0  0  0
   -0.7888   -2.8529    1.6231 H   0  0  0  0  0  0  0  0  0  0  0  0
   -2.3713   -2.0652    1.4217 H   0  0  0  0  0  0  0  0  0  0  0  0
   -1.7834   -2.4829    3.0593 H   0  0  0  0  0  0  0  0  0  0  0  0
   -1.4182    1.1579    2.8451 H   0  0  0  0  0  0  0  0  0  0  0  0
   -2.1012   -0.2008    3.7527 H   0  0  0  0  0  0  0  0  0  0  0  0
   -2.7072    0.1953    2.1081 H   0  0  0  0  0  0  0  0  0  0  0  0
    2.2191    4.2735    0.7952 H   0  0  0  0  0  0  0  0  0  0  0  0
   -1.2808    6.2751    1.6164 H   0  0  0  0  0  0  0  0  0  0  0  0
   -0.8897    7.2859    0.1634 H   0  0  0  0  0  0  0  0  0  0  0  0
    0.8083    7.0413    2.7189 H   0  0  0  0  0  0  0  0  0  0  0  0
   -0.1844    8.4482    2.2651 H   0  0  0  0  0  0  0  0  0  0  0  0
    1.2490    8.0211    1.2887 H   0  0  0  0  0  0  0  0  0  0  0  0
   -2.1181    5.4816   -0.6449 H   0  0  0  0  0  0  0  0  0  0  0  0
   -4.9157    2.2798   -2.2822 H   0  0  0  0  0  0  0  0  0  0  0  0
   -0.9405   -0.3223    0.1041 H   0  0  0  0  0  0  0  0  0  0  0  0
    0.1123   -2.3569   -0.2213 H   0  0  0  0  0  0  0  0  0  0  0  0
    0.3295   -3.5877   -6.1237 H   0  0  0  0  0  0  0  0  0  0  0  0
   -1.1715   -4.4547   -5.7187 H   0  0  0  0  0  0  0  0  0  0  0  0
    0.5035   -7.0399   -9.1696 H   0  0  0  0  0  0  0  0  0  0  0  0
    1.7975   -8.8213   -7.9860 H   0  0  0  0  0  0  0  0  0  0  0  0
    2.2439   -8.5411   -5.5215 H   0  0  0  0  0  0  0  0  0  0  0  0
    1.3628   -6.4775   -4.3697 H   0  0  0  0  0  0  0  0  0  0  0  0
   -1.1957   -2.2398   -4.9953 H   0  0  0  0  0  0  0  0  0  0  0  0
   -1.8807   -0.4269   -3.5206 H   0  0  0  0  0  0  0  0  0  0  0  0
    0.5806    1.3048   -0.4205 H   0  0  0  0  0  0  0  0  0  0  0  0
    0.7935    1.4280    4.4560 H   0  0  0  0  0  0  0  0  0  0  0  0
   -0.7546    3.2809    7.1892 H   0  0  0  0  0  0  0  0  0  0  0  0
   -1.8117    1.8654    7.5801 H   0  0  0  0  0  0  0  0  0  0  0  0
   -2.1701    2.9046    6.1625 H   0  0  0  0  0  0  0  0  0  0  0  0
    3.1357    3.5211    4.3233 H   0  0  0  0  0  0  0  0  0  0  0  0
    3.7465    4.7164    6.9834 H   0  0  0  0  0  0  0  0  0  0  0  0
    4.7418    5.0587    5.5352 H   0  0  0  0  0  0  0  0  0  0  0  0
    4.7565    3.4279    6.2660 H   0  0  0  0  0  0  0  0  0  0  0  0
    0.0674    1.7098    1.8854 H   0  0  0  0  0  0  0  0  0  0  0  0
    2.4727   -0.0147    2.7145 H   0  0  0  0  0  0  0  0  0  0  0  0
  2  1  2  0  0  0  0
  3 50  1  6  0  0  0
  3 46  1  0  0  0  0
  3  2  1  0  0  0  0
  4  3  1  0  0  0  0
  4 53  1  0  0  0  0
  5  4  1  0  0  0  0
  6 91  1  0  0  0  0
  6  7  1  0  0  0  0
  7 55  1  0  0  0  0
  8 10  1  0  0  0  0
  8  7  1  0  0  0  0
  9  8  1  0  0  0  0
  9 59  1  0  0  0  0
 10 60  1  0  0  0  0
 10 61  1  0  0  0  0
 11  6  2  0  0  0  0
 12 11  1  0  0  0  0
 12 13  2  0  0  0  0
 14 63  1  0  0  0  0
 14 12  1  0  0  0  0
 15 14  1  0  0  0  0
 16 15  1  0  0  0  0
 16 17  1  0  0  0  0
 17 18  1  0  0  0  0
 18 64  1  0  0  0  0
 18 19  1  0  0  0  0
 19 67  1  0  0  0  0
 19 66  1  0  0  0  0
 20 16  2  0  0  0  0
 21 44  1  0  0  0  0
 21 20  1  0  0  0  0
 22 21  2  0  0  0  0
 23 24  2  0  0  0  0
 23 22  1  0  0  0  0
 24 27  1  0  0  0  0
 25 24  1  0  0  0  0
 26 25  3  0  0  0  0
 27 44  2  0  0  0  0
 27 28  1  0  0  0  0
 28 71  1  0  0  0  0
 29 30  1  0  0  0  0
 29 28  1  0  0  0  0
 30 72  1  0  0  0  0
 31 32  1  0  0  0  0
 31 30  2  0  0  0  0
 33 31  1  0  0  0  0
 34 33  1  0  0  0  0
 35 34  1  0  0  0  0
 36 35  1  0  0  0  0
 36 41  1  0  0  0  0
 37 36  2  0  0  0  0
 38 37  1  0  0  0  0
 38 39  2  0  0  0  0
 39 40  1  0  0  0  0
 40 77  1  0  0  0  0
 40 41  2  0  0  0  0
 41 78  1  0  0  0  0
 42 33  2  0  0  0  0
 42 43  1  0  0  0  0
 43 29  2  0  0  0  0
 44 45  1  0  0  0  0
 45 81  1  0  0  0  0
 45 15  2  0  0  0  0
 46 47  1  0  0  0  0
 47 49  2  0  0  0  0
 47 48  1  0  0  0  0
 48 83  1  0  0  0  0
 48 84  1  0  0  0  0
 51  2  1  0  0  0  0
 51 52  1  0  0  0  0
 52 89  1  0  0  0  0
 52 87  1  0  0  0  0
 54  4  1  0  0  0  0
 56  7  1  0  0  0  0
 57  9  1  0  0  0  0
 58  9  1  0  0  0  0
 62 10  1  0  0  0  0
 65 18  1  0  0  0  0
 68 19  1  0  0  0  0
 69 20  1  0  0  0  0
 70 23  1  0  0  0  0
 73 35  1  0  0  0  0
 74 35  1  0  0  0  0
 75 38  1  0  0  0  0
 76 39  1  0  0  0  0
 79 42  1  0  0  0  0
 80 43  1  0  0  0  0
 82 46  1  0  0  0  0
 85 48  1  0  0  0  0
 86 51  1  0  0  0  0
 88 52  1  0  0  0  0
 90 11  1  0  0  0  0
M  END
