64
-1 1
O         6.213554    1.864825   -2.869912
C         5.635672    1.332429   -1.938049
C         5.129934   -0.115750   -2.049468
C         3.992767   -0.171050   -3.081023
S         2.579784    0.914635   -2.706138
C         1.311476   -0.379350   -2.107516
C         1.726942   -1.313484   -1.034761
S         1.237934   -1.230185    0.684922
C         2.125365   -2.623754   -1.380687
O         2.463210   -3.074146   -2.484649
N         2.119059   -3.448426   -0.230956
C         1.678926   -2.937346    0.957744
O         1.593205   -3.519617    2.013928
C        -0.006619    0.328845   -1.879705
C        -0.188526    1.368559   -0.903739
C         0.878508    1.873510   -0.105313
C         0.668211    2.856352    0.829792
C        -0.621200    3.403430    1.020513
C        -1.677777    2.946366    0.274153
C        -1.488465    1.920636   -0.691695
C        -2.573253    1.403570   -1.449281
O        -3.845856    1.911135   -1.232311
C        -4.579375    1.428516   -0.213088
C        -4.135969    0.412781    0.644843
C        -4.953187   -0.025305    1.677994
C        -4.455075   -1.121462    2.600941
F        -3.238108   -1.535104    2.267206
F        -4.409279   -0.696306    3.866270
F        -5.268931   -2.181448    2.565138
C        -6.227072    0.540676    1.870827
C        -7.112608    0.123034    2.923041
N        -7.863465   -0.175922    3.751482
C        -6.655639    1.555391    1.002681
C        -5.843564    1.998047   -0.028133
C        -2.392246    0.425762   -2.387734
C        -1.100654   -0.100029   -2.601528
N         4.719371   -0.698568   -0.794299
C         5.539703   -1.303050    0.116783
C         7.035333   -1.163896   -0.117481
O         5.103343   -1.910758    1.074410
H         5.969919   -0.679611   -2.488612
N         5.372165    1.939916   -0.756760
C         5.596834    3.343711   -0.540578
H         4.396311    0.151043   -4.049631
H         3.626088   -1.206942   -3.170030
H         1.205194   -1.001555   -3.006441
H         2.459179   -4.400299   -0.281339
H         1.880056    1.471327   -0.251435
H         1.505159    3.215036    1.432442
H        -0.775756    4.189752    1.762860
H        -2.674650    3.368713    0.410766
H        -3.149481   -0.030504    0.507097
H        -7.642650    1.996865    1.148784
H        -6.166851    2.787532   -0.707548
H        -3.250548    0.054136   -2.950185
H        -0.968856   -0.890861   -3.342657
H         3.712701   -0.918881   -0.701943
H         7.343125   -1.732988   -1.008308
H         7.553531   -1.567886    0.759586
H         7.326048   -0.114703   -0.274026
H         4.795498    1.411812   -0.111225
H         6.079786    3.522055    0.432473
H         4.654899    3.916108   -0.578489
H         6.254638    3.707094   -1.340702
