-1 1
 OpenBabel05232413483D

 99101  0  0  1  0  0  0  0  0999 V2000
   -7.4602   -0.6194    0.6590 O   0  0  0  0  0  0  0  0  0  0  0  0
   -7.7099   -0.3516   -0.5152 C   0  0  0  0  0  0  0  0  0  0  0  0
   -7.0759    0.8650   -1.1972 C   0  0  2  0  0  0  0  0  0  0  0  0
   -8.0542    2.0569   -1.2486 C   0  0  0  0  0  0  0  0  0  0  0  0
   -7.2873    3.6032   -1.8455 S   0  0  0  0  0  1  0  0  0  0  0  0
   -3.8334    2.6193   -1.1725 C   0  0  0  0  0  0  0  0  0  0  0  0
   -4.1797    3.2955    0.1212 C   0  0  0  0  0  0  0  0  0  0  0  0
   -4.9354    2.3698    0.9505 N   0  0  0  0  0  0  0  0  0  0  0  0
   -4.0913    1.4721    1.6994 C   0  0  0  0  0  0  0  0  0  0  0  0
   -4.8633    0.3749    2.4353 C   0  0  0  0  0  0  0  0  0  0  0  0
   -4.0738   -0.7699    2.6752 O   0  0  0  0  0  0  0  0  0  0  0  0
   -3.0006   -0.5839    3.5464 C   0  0  0  0  0  0  0  0  0  0  0  0
   -6.0217    2.9781    1.6861 C   0  0  0  0  0  0  0  0  0  0  0  0
   -2.7090    1.9303   -1.4013 C   0  0  0  0  0  0  0  0  0  0  0  0
   -2.5343    1.1359   -2.6400 C   0  0  0  0  0  0  0  0  0  0  0  0
   -3.1935    1.2832   -3.6500 O   0  0  0  0  0  0  0  0  0  0  0  0
   -1.5242    0.1753   -2.5948 N   0  0  0  0  0  0  0  0  0  0  0  0
   -1.1709   -0.4648   -1.3779 C   0  0  0  0  0  0  0  0  0  0  0  0
   -2.1778   -1.1903   -0.6557 C   0  0  0  0  0  0  0  0  0  0  0  0
   -3.3695   -1.1988   -1.2351 O   0  0  0  0  0  0  0  0  0  0  0  0
   -4.5243   -1.7194   -0.5699 C   0  0  0  0  0  0  0  0  0  0  0  0
   -4.6767   -3.2128   -0.7722 C   0  0  0  0  0  0  0  0  0  0  0  0
   -1.8511   -1.7964    0.5430 C   0  0  0  0  0  0  0  0  0  0  0  0
   -0.5385   -1.7210    1.0585 C   0  0  0  0  0  0  0  0  0  0  0  0
   -0.2827   -2.3700    2.2343 N   0  0  0  0  0  0  0  0  0  0  0  0
    0.9235   -2.3009    2.7132 C   0  0  0  0  0  0  0  0  0  0  0  0
    2.0065   -1.5925    2.1149 C   0  0  0  0  0  0  0  0  0  0  0  0
    3.2336   -1.5342    2.8480 C   0  0  0  0  0  0  0  0  0  0  0  0
    4.1957   -1.5184    3.4948 N   0  0  0  0  0  0  0  0  0  0  0  0
    1.7852   -0.9229    0.9025 C   0  0  0  0  0  0  0  0  0  0  0  0
    2.7405   -0.1892    0.2528 N   0  0  0  0  0  0  0  0  0  0  0  0
    4.1412   -0.3597    0.3209 C   0  0  0  0  0  0  0  0  0  0  0  0
    4.9643    0.7563    0.4960 C   0  0  0  0  0  0  0  0  0  0  0  0
    6.3411    0.6035    0.5431 C   0  0  0  0  0  0  0  0  0  0  0  0
    7.3576    1.9997    0.7585 Cl  0  0  0  0  0  0  0  0  0  0  0  0
    6.9367   -0.6665    0.4452 C   0  0  0  0  0  0  0  0  0  0  0  0
    8.2767   -0.7209    0.5221 O   0  0  0  0  0  0  0  0  0  0  0  0
    8.9227   -1.9664    0.5357 C   0  0  0  0  0  0  0  0  0  0  0  0
   10.4054   -1.7659    0.7288 C   0  0  0  0  0  0  0  0  0  0  0  0
   10.9276   -0.5443    1.1578 C   0  0  0  0  0  0  0  0  0  0  0  0
   12.3011   -0.4012    1.3555 C   0  0  0  0  0  0  0  0  0  0  0  0
   13.1623   -1.4731    1.1310 C   0  0  0  0  0  0  0  0  0  0  0  0
   12.6440   -2.6953    0.7018 C   0  0  0  0  0  0  0  0  0  0  0  0
   11.2738   -2.8383    0.4996 C   0  0  0  0  0  0  0  0  0  0  0  0
    6.1032   -1.7741    0.2680 C   0  0  0  0  0  0  0  0  0  0  0  0
    4.7226   -1.6194    0.1898 C   0  0  0  0  0  0  0  0  0  0  0  0
    0.4636   -0.9998    0.3486 C   0  0  0  0  0  0  0  0  0  0  0  0
    0.1048   -0.3915   -0.8826 C   0  0  0  0  0  0  0  0  0  0  0  0
   -6.4505    0.5739   -2.4916 N   0  0  0  0  0  0  0  0  0  0  0  0
   -7.1067    0.4202   -3.6705 C   0  0  0  0  0  0  0  0  0  0  0  0
   -6.3066    0.7822   -4.8983 C   0  0  0  0  0  0  0  0  0  0  0  0
   -8.2661    0.0244   -3.7605 O   0  0  0  0  0  0  0  0  0  0  0  0
   -8.5791   -1.0655   -1.2605 N   0  0  0  0  0  0  0  0  0  0  0  0
   -9.2777   -2.2108   -0.7482 C   0  0  0  0  0  0  0  0  0  0  0  0
   -6.2516    1.1559   -0.5314 H   0  0  0  0  0  0  0  0  0  0  0  0
   -8.9135    1.7811   -1.8812 H   0  0  0  0  0  0  0  0  0  0  0  0
   -8.4408    2.1757   -0.2213 H   0  0  0  0  0  0  0  0  0  0  0  0
   -3.2699    3.6682    0.6430 H   0  0  0  0  0  0  0  0  0  0  0  0
   -4.8329    4.1465   -0.1176 H   0  0  0  0  0  0  0  0  0  0  0  0
   -3.4381    2.0359    2.4107 H   0  0  0  0  0  0  0  0  0  0  0  0
   -3.4139    0.9605    0.9942 H   0  0  0  0  0  0  0  0  0  0  0  0
   -5.7138    0.0463    1.8171 H   0  0  0  0  0  0  0  0  0  0  0  0
   -5.2673    0.7520    3.3963 H   0  0  0  0  0  0  0  0  0  0  0  0
   -2.2388    0.1111    3.1447 H   0  0  0  0  0  0  0  0  0  0  0  0
   -3.3365   -0.1932    4.5283 H   0  0  0  0  0  0  0  0  0  0  0  0
   -2.5096   -1.5562    3.6931 H   0  0  0  0  0  0  0  0  0  0  0  0
   -6.6194    3.5818    0.9845 H   0  0  0  0  0  0  0  0  0  0  0  0
   -6.6841    2.1999    2.0934 H   0  0  0  0  0  0  0  0  0  0  0  0
   -5.6742    3.6210    2.5276 H   0  0  0  0  0  0  0  0  0  0  0  0
   -1.5678   -0.4280   -3.4121 H   0  0  0  0  0  0  0  0  0  0  0  0
   -4.4912   -1.4507    0.4951 H   0  0  0  0  0  0  0  0  0  0  0  0
   -5.3574   -1.1871   -1.0387 H   0  0  0  0  0  0  0  0  0  0  0  0
   -5.6211   -3.5344   -0.3098 H   0  0  0  0  0  0  0  0  0  0  0  0
   -4.7140   -3.4575   -1.8439 H   0  0  0  0  0  0  0  0  0  0  0  0
   -3.8564   -3.7831   -0.3109 H   0  0  0  0  0  0  0  0  0  0  0  0
   -2.5914   -2.3339    1.1323 H   0  0  0  0  0  0  0  0  0  0  0  0
    1.1179   -2.8153    3.6620 H   0  0  0  0  0  0  0  0  0  0  0  0
    2.4063    0.4750   -0.4316 H   0  0  0  0  0  0  0  0  0  0  0  0
    4.5271    1.7482    0.6163 H   0  0  0  0  0  0  0  0  0  0  0  0
    8.7393   -2.5075   -0.4111 H   0  0  0  0  0  0  0  0  0  0  0  0
    8.5207   -2.5898    1.3571 H   0  0  0  0  0  0  0  0  0  0  0  0
   10.2514    0.2942    1.3291 H   0  0  0  0  0  0  0  0  0  0  0  0
   12.6994    0.5598    1.6886 H   0  0  0  0  0  0  0  0  0  0  0  0
   14.2371   -1.3574    1.2870 H   0  0  0  0  0  0  0  0  0  0  0  0
   13.3111   -3.5406    0.5188 H   0  0  0  0  0  0  0  0  0  0  0  0
   10.8740   -3.7973    0.1569 H   0  0  0  0  0  0  0  0  0  0  0  0
    6.5269   -2.7739    0.1821 H   0  0  0  0  0  0  0  0  0  0  0  0
    4.0872   -2.4951    0.0454 H   0  0  0  0  0  0  0  0  0  0  0  0
    0.8240    0.1648   -1.4864 H   0  0  0  0  0  0  0  0  0  0  0  0
   -5.5335    0.9941   -2.5942 H   0  0  0  0  0  0  0  0  0  0  0  0
   -6.4821    1.8532   -5.0847 H   0  0  0  0  0  0  0  0  0  0  0  0
   -6.6734    0.2043   -5.7557 H   0  0  0  0  0  0  0  0  0  0  0  0
   -5.2262    0.6441   -4.7565 H   0  0  0  0  0  0  0  0  0  0  0  0
   -8.7107   -0.7549   -2.2326 H   0  0  0  0  0  0  0  0  0  0  0  0
   -9.0361   -3.1230   -1.3202 H   0  0  0  0  0  0  0  0  0  0  0  0
   -8.9761   -2.3568    0.2974 H   0  0  0  0  0  0  0  0  0  0  0  0
  -10.3706   -2.0669   -0.7833 H   0  0  0  0  0  0  0  0  0  0  0  0
   -4.6366    2.6689   -1.9218 H   0  0  0  0  0  0  0  0  0  0  0  0
   -1.9204    1.8840   -0.6436 H   0  0  0  0  0  0  0  0  0  0  0  0
  2  1  2  0  0  0  0
  3 55  1  1  0  0  0
  3  2  1  0  0  0  0
  4  3  1  0  0  0  0
  4 57  1  0  0  0  0
  5  4  1  0  0  0  0
  6  7  1  0  0  0  0
  7 58  1  0  0  0  0
  7  8  1  0  0  0  0
  8 13  1  0  0  0  0
  8  9  1  0  0  0  0
  9 60  1  0  0  0  0
  9 10  1  0  0  0  0
 10 11  1  0  0  0  0
 10 63  1  0  0  0  0
 11 12  1  0  0  0  0
 12 66  1  0  0  0  0
 12 65  1  0  0  0  0
 13 68  1  0  0  0  0
 13 69  1  0  0  0  0
 14  6  2  0  0  0  0
 14 99  1  0  0  0  0
 15 17  1  0  0  0  0
 15 14  1  0  0  0  0
 16 15  2  0  0  0  0
 17 18  1  0  0  0  0
 18 48  2  0  0  0  0
 18 19  1  0  0  0  0
 19 23  2  0  0  0  0
 20 19  1  0  0  0  0
 20 21  1  0  0  0  0
 21 71  1  0  0  0  0
 22 21  1  0  0  0  0
 22 75  1  0  0  0  0
 22 73  1  0  0  0  0
 23 24  1  0  0  0  0
 23 76  1  0  0  0  0
 24 25  1  0  0  0  0
 25 26  2  0  0  0  0
 26 77  1  0  0  0  0
 27 26  1  0  0  0  0
 27 28  1  0  0  0  0
 28 29  3  0  0  0  0
 30 27  2  0  0  0  0
 31 32  1  0  0  0  0
 31 30  1  0  0  0  0
 32 33  1  0  0  0  0
 33 34  2  0  0  0  0
 33 79  1  0  0  0  0
 34 35  1  0  0  0  0
 36 37  1  0  0  0  0
 36 34  1  0  0  0  0
 37 38  1  0  0  0  0
 38 39  1  0  0  0  0
 38 81  1  0  0  0  0
 39 40  1  0  0  0  0
 40 82  1  0  0  0  0
 40 41  2  0  0  0  0
 41 83  1  0  0  0  0
 42 84  1  0  0  0  0
 42 41  1  0  0  0  0
 43 42  2  0  0  0  0
 44 43  1  0  0  0  0
 44 39  2  0  0  0  0
 45 36  2  0  0  0  0
 46 45  1  0  0  0  0
 46 32  2  0  0  0  0
 47 30  1  0  0  0  0
 47 24  2  0  0  0  0
 48 47  1  0  0  0  0
 49  3  1  0  0  0  0
 50 49  1  0  0  0  0
 51 93  1  0  0  0  0
 51 50  1  0  0  0  0
 52 50  2  0  0  0  0
 53 54  1  0  0  0  0
 53  2  1  0  0  0  0
 54 96  1  0  0  0  0
 56  4  1  0  0  0  0
 59  7  1  0  0  0  0
 61  9  1  0  0  0  0
 62 10  1  0  0  0  0
 64 12  1  0  0  0  0
 67 13  1  0  0  0  0
 70 17  1  0  0  0  0
 72 21  1  0  0  0  0
 74 22  1  0  0  0  0
 78 31  1  0  0  0  0
 80 38  1  0  0  0  0
 85 43  1  0  0  0  0
 86 44  1  0  0  0  0
 87 45  1  0  0  0  0
 88 46  1  0  0  0  0
 89 48  1  0  0  0  0
 90 49  1  0  0  0  0
 91 51  1  0  0  0  0
 92 51  1  0  0  0  0
 94 53  1  0  0  0  0
 95 54  1  0  0  0  0
 97 54  1  0  0  0  0
 98  6  1  0  0  0  0
M  END
