-1 1
 OpenBabel05232414493D

 96 99  0  0  1  0  0  0  0  0999 V2000
   -8.3138   -6.8239  -12.8975 O   0  0  0  0  0  0  0  0  0  0  0  0
   -9.2505   -6.5400  -12.1679 C   0  0  0  0  0  0  0  0  0  0  0  0
   -9.0370   -5.6601  -10.9386 C   0  0  2  0  0  0  0  0  0  0  0  0
   -8.2088   -6.4565   -9.8804 C   0  0  0  0  0  0  0  0  0  0  0  0
   -8.9812   -6.8150   -8.2741 S   0  0  0  0  0  0  0  0  0  0  0  0
   -8.1682   -4.9720   -7.2779 C   0  0  2  0  0  0  0  0  0  0  0  0
   -8.8218   -5.1532   -5.9170 C   0  0  0  0  0  0  0  0  0  0  0  0
   -8.3242   -4.2674   -4.8734 N   0  0  0  0  0  0  0  0  0  0  0  0
   -8.7945   -2.8994   -4.9288 C   0  0  0  0  0  0  0  0  0  0  0  0
   -8.9327   -2.2888   -3.5412 C   0  0  0  0  0  0  0  0  0  0  0  0
   -9.4673   -0.9934   -3.6818 O   0  0  0  0  0  0  0  0  0  0  0  0
   -6.8981   -4.3805   -4.6575 C   0  0  0  0  0  0  0  0  0  0  0  0
   -8.3978   -3.7993   -8.0137 C   0  0  0  0  0  3  0  0  0  0  0  0
   -7.5046   -3.3760   -9.0471 C   0  0  0  0  0  0  0  0  0  0  0  0
   -6.4075   -3.8769   -9.3194 O   0  0  0  0  0  0  0  0  0  0  0  0
   -7.9983   -2.3021   -9.8172 N   0  0  0  0  0  0  0  0  0  0  0  0
   -7.7264   -2.0452  -11.1485 C   0  0  0  0  0  0  0  0  0  0  0  0
   -8.7101   -1.2702  -11.8501 C   0  0  0  0  0  0  0  0  0  0  0  0
   -9.7475   -0.8587  -11.0870 O   0  0  0  0  0  0  0  0  0  0  0  0
  -10.9242   -0.3731  -11.7000 C   0  0  0  0  0  0  0  0  0  0  0  0
  -10.8640    1.1212  -11.9696 C   0  0  0  0  0  0  0  0  0  0  0  0
   -8.5652   -1.0124  -13.1884 C   0  0  0  0  0  0  0  0  0  0  0  0
   -7.4581   -1.5091  -13.9183 C   0  0  0  0  0  0  0  0  0  0  0  0
   -7.3964   -1.1686  -15.2394 N   0  0  0  0  0  0  0  0  0  0  0  0
   -6.3737   -1.5971  -15.9194 C   0  0  0  0  0  0  0  0  0  0  0  0
   -5.3444   -2.4070  -15.3778 C   0  0  0  0  0  0  0  0  0  0  0  0
   -4.2734   -2.8426  -16.2144 C   0  0  0  0  0  0  0  0  0  0  0  0
   -3.3863   -3.2042  -16.8709 N   0  0  0  0  0  0  0  0  0  0  0  0
   -5.3820   -2.7926  -14.0210 C   0  0  0  0  0  0  0  0  0  0  0  0
   -4.3597   -3.5572  -13.5422 N   0  0  0  0  0  0  0  0  0  0  0  0
   -4.3093   -4.4007  -12.3981 C   0  0  0  0  0  0  0  0  0  0  0  0
   -3.2984   -4.1826  -11.4615 C   0  0  0  0  0  0  0  0  0  0  0  0
   -3.1848   -5.0119  -10.3557 C   0  0  0  0  0  0  0  0  0  0  0  0
   -1.9355   -4.7065   -9.1770 Cl  0  0  0  0  0  0  0  0  0  0  0  0
   -4.0777   -6.0737  -10.1525 C   0  0  0  0  0  0  0  0  0  0  0  0
   -3.9104   -6.8165   -9.0401 O   0  0  0  0  0  0  0  0  0  0  0  0
   -4.9981   -7.5583   -8.5333 C   0  0  0  0  0  0  0  0  0  0  0  0
   -5.1931   -8.9028   -9.1983 C   0  0  0  0  0  0  0  0  0  0  0  0
   -4.1504   -9.5267   -9.8870 C   0  0  0  0  0  0  0  0  0  0  0  0
   -4.3435  -10.7760  -10.4749 C   0  0  0  0  0  0  0  0  0  0  0  0
   -5.5789  -11.4148  -10.3756 C   0  0  0  0  0  0  0  0  0  0  0  0
   -6.6221  -10.7947   -9.6878 C   0  0  0  0  0  0  0  0  0  0  0  0
   -6.4330   -9.5440   -9.1028 C   0  0  0  0  0  0  0  0  0  0  0  0
   -5.0677   -6.2952  -11.1145 C   0  0  0  0  0  0  0  0  0  0  0  0
   -5.1918   -5.4671  -12.2239 C   0  0  0  0  0  0  0  0  0  0  0  0
   -6.4845   -2.2978  -13.2404 C   0  0  0  0  0  0  0  0  0  0  0  0
   -6.6330   -2.5233  -11.8438 C   0  0  0  0  0  0  0  0  0  0  0  0
  -10.2450   -5.1305  -10.3582 N   0  0  0  0  0  0  0  0  0  0  0  0
  -10.8720   -4.0310  -10.8458 C   0  0  0  0  0  0  0  0  0  0  0  0
  -11.8567   -3.3834   -9.8915 C   0  0  0  0  0  0  0  0  0  0  0  0
  -10.6610   -3.5803  -11.9589 O   0  0  0  0  0  0  0  0  0  0  0  0
   -8.4158   -4.8274  -11.3084 H   0  0  0  0  0  0  0  0  0  0  0  0
  -10.5066   -7.0161  -12.3382 N   0  0  0  0  0  0  0  0  0  0  0  0
  -10.8842   -7.8408  -13.4530 C   0  0  0  0  0  0  0  0  0  0  0  0
   -7.9015   -7.4123  -10.3270 H   0  0  0  0  0  0  0  0  0  0  0  0
   -7.3036   -5.8741   -9.6836 H   0  0  0  0  0  0  0  0  0  0  0  0
   -8.6763   -6.1944   -5.5817 H   0  0  0  0  0  0  0  0  0  0  0  0
   -9.9092   -4.9996   -6.0092 H   0  0  0  0  0  0  0  0  0  0  0  0
   -9.7919   -2.8822   -5.3937 H   0  0  0  0  0  0  0  0  0  0  0  0
   -8.1543   -2.2460   -5.5560 H   0  0  0  0  0  0  0  0  0  0  0  0
   -7.9457   -2.2603   -3.0389 H   0  0  0  0  0  0  0  0  0  0  0  0
   -9.5866   -2.9468   -2.9358 H   0  0  0  0  0  0  0  0  0  0  0  0
   -9.5079   -0.5882   -2.8133 H   0  0  0  0  0  0  0  0  0  0  0  0
   -6.6087   -3.9076   -3.7056 H   0  0  0  0  0  0  0  0  0  0  0  0
   -6.2911   -3.9162   -5.4626 H   0  0  0  0  0  0  0  0  0  0  0  0
   -6.6161   -5.4431   -4.5919 H   0  0  0  0  0  0  0  0  0  0  0  0
   -8.8859   -1.9217   -9.5167 H   0  0  0  0  0  0  0  0  0  0  0  0
  -11.7321   -0.5910  -10.9860 H   0  0  0  0  0  0  0  0  0  0  0  0
  -11.1316   -0.9617  -12.6076 H   0  0  0  0  0  0  0  0  0  0  0  0
  -11.8241    1.4671  -12.3818 H   0  0  0  0  0  0  0  0  0  0  0  0
  -10.0711    1.3767  -12.6864 H   0  0  0  0  0  0  0  0  0  0  0  0
  -10.6686    1.6701  -11.0366 H   0  0  0  0  0  0  0  0  0  0  0  0
   -9.2916   -0.4324  -13.7543 H   0  0  0  0  0  0  0  0  0  0  0  0
   -6.3133   -1.3206  -16.9791 H   0  0  0  0  0  0  0  0  0  0  0  0
   -3.6106   -3.7189  -14.2075 H   0  0  0  0  0  0  0  0  0  0  0  0
   -2.6145   -3.3424  -11.5839 H   0  0  0  0  0  0  0  0  0  0  0  0
   -5.9246   -6.9653   -8.5818 H   0  0  0  0  0  0  0  0  0  0  0  0
   -4.7673   -7.7080   -7.4675 H   0  0  0  0  0  0  0  0  0  0  0  0
   -3.1879   -9.0174   -9.9716 H   0  0  0  0  0  0  0  0  0  0  0  0
   -3.5237  -11.2508  -11.0197 H   0  0  0  0  0  0  0  0  0  0  0  0
   -5.7316  -12.3909  -10.8424 H   0  0  0  0  0  0  0  0  0  0  0  0
   -7.5979  -11.2805   -9.6151 H   0  0  0  0  0  0  0  0  0  0  0  0
   -7.2588   -9.0464   -8.5818 H   0  0  0  0  0  0  0  0  0  0  0  0
   -5.7607   -7.1272  -11.0069 H   0  0  0  0  0  0  0  0  0  0  0  0
   -6.0027   -5.6563  -12.9317 H   0  0  0  0  0  0  0  0  0  0  0  0
   -5.9144   -3.1010  -11.2731 H   0  0  0  0  0  0  0  0  0  0  0  0
  -10.3703   -5.4056   -9.3789 H   0  0  0  0  0  0  0  0  0  0  0  0
  -12.1766   -4.0510   -9.0798 H   0  0  0  0  0  0  0  0  0  0  0  0
  -12.7299   -3.0297  -10.4553 H   0  0  0  0  0  0  0  0  0  0  0  0
  -11.3612   -2.5072   -9.4459 H   0  0  0  0  0  0  0  0  0  0  0  0
  -11.2048   -6.6792  -11.6877 H   0  0  0  0  0  0  0  0  0  0  0  0
  -11.3450   -8.7841  -13.1186 H   0  0  0  0  0  0  0  0  0  0  0  0
   -9.9706   -8.0722  -14.0160 H   0  0  0  0  0  0  0  0  0  0  0  0
  -11.5887   -7.3225  -14.1244 H   0  0  0  0  0  0  0  0  0  0  0  0
   -9.3676   -3.2985   -7.9217 H   0  0  0  0  0  0  0  0  0  0  0  0
   -7.1312   -5.3225   -7.3277 H   0  0  0  0  0  0  0  0  0  0  0  0
  1  2  2  0  0  0  0
  2  3  1  0  0  0  0
  3 52  1  6  0  0  0
  3 48  1  0  0  0  0
  3  4  1  0  0  0  0
  4 56  1  0  0  0  0
  4  5  1  0  0  0  0
  5  6  1  0  0  0  0
  6 96  1  1  0  0  0
  6  7  1  0  0  0  0
  7 57  1  0  0  0  0
  7  8  1  0  0  0  0
  8 12  1  0  0  0  0
  9  8  1  0  0  0  0
  9 10  1  0  0  0  0
 10 61  1  0  0  0  0
 10 62  1  0  0  0  0
 11 10  1  0  0  0  0
 11 63  1  0  0  0  0
 12 66  1  0  0  0  0
 12 64  1  0  0  0  0
 13 95  1  0  0  0  0
 13  6  1  0  0  0  0
 14 13  1  0  0  0  0
 15 14  2  0  0  0  0
 16 67  1  0  0  0  0
 16 14  1  0  0  0  0
 17 16  1  0  0  0  0
 18 17  2  0  0  0  0
 18 19  1  0  0  0  0
 20 19  1  0  0  0  0
 20 68  1  0  0  0  0
 21 20  1  0  0  0  0
 21 72  1  0  0  0  0
 22 18  1  0  0  0  0
 23 46  1  0  0  0  0
 23 22  2  0  0  0  0
 24 23  1  0  0  0  0
 25 26  1  0  0  0  0
 25 24  2  0  0  0  0
 26 29  2  0  0  0  0
 27 26  1  0  0  0  0
 28 27  3  0  0  0  0
 29 30  1  0  0  0  0
 29 46  1  0  0  0  0
 30 31  1  0  0  0  0
 31 45  2  0  0  0  0
 31 32  1  0  0  0  0
 32 33  2  0  0  0  0
 33 35  1  0  0  0  0
 33 34  1  0  0  0  0
 35 36  1  0  0  0  0
 36 37  1  0  0  0  0
 37 78  1  0  0  0  0
 38 43  1  0  0  0  0
 38 37  1  0  0  0  0
 39 38  2  0  0  0  0
 40 41  2  0  0  0  0
 40 39  1  0  0  0  0
 41 42  1  0  0  0  0
 42 82  1  0  0  0  0
 42 43  2  0  0  0  0
 43 83  1  0  0  0  0
 44 84  1  0  0  0  0
 44 35  2  0  0  0  0
 45 44  1  0  0  0  0
 46 47  2  0  0  0  0
 47 86  1  0  0  0  0
 47 17  1  0  0  0  0
 48 87  1  0  0  0  0
 49 48  1  0  0  0  0
 49 50  1  0  0  0  0
 50 90  1  0  0  0  0
 50 88  1  0  0  0  0
 51 49  2  0  0  0  0
 53  2  1  0  0  0  0
 53 91  1  0  0  0  0
 54 92  1  0  0  0  0
 54 53  1  0  0  0  0
 55  4  1  0  0  0  0
 58  7  1  0  0  0  0
 59  9  1  0  0  0  0
 60  9  1  0  0  0  0
 65 12  1  0  0  0  0
 69 20  1  0  0  0  0
 70 21  1  0  0  0  0
 71 21  1  0  0  0  0
 73 22  1  0  0  0  0
 74 25  1  0  0  0  0
 75 30  1  0  0  0  0
 76 32  1  0  0  0  0
 77 37  1  0  0  0  0
 79 39  1  0  0  0  0
 80 40  1  0  0  0  0
 81 41  1  0  0  0  0
 85 45  1  0  0  0  0
 89 50  1  0  0  0  0
 93 54  1  0  0  0  0
 94 54  1  0  0  0  0
M  END
