96
-1 1
O        -8.313787   -6.823897  -12.897461
C        -9.250479   -6.540013  -12.167919
C        -9.036954   -5.660063  -10.938644
C        -8.208755   -6.456534   -9.880396
S        -8.981204   -6.814966   -8.274095
C        -8.168229   -4.972035   -7.277902
C        -8.821810   -5.153231   -5.916972
N        -8.324199   -4.267376   -4.873447
C        -8.794496   -2.899389   -4.928819
C        -8.932668   -2.288831   -3.541231
O        -9.467265   -0.993445   -3.681764
C        -6.898056   -4.380504   -4.657471
C        -8.397837   -3.799253   -8.013679
C        -7.504636   -3.376025   -9.047134
O        -6.407472   -3.876864   -9.319379
N        -7.998297   -2.302100   -9.817212
C        -7.726412   -2.045236  -11.148549
C        -8.710059   -1.270197  -11.850057
O        -9.747487   -0.858713  -11.087042
C       -10.924244   -0.373059  -11.699963
C       -10.863988    1.121150  -11.969554
C        -8.565240   -1.012356  -13.188396
C        -7.458053   -1.509140  -13.918340
N        -7.396368   -1.168603  -15.239430
C        -6.373715   -1.597126  -15.919413
C        -5.344423   -2.407005  -15.377844
C        -4.273404   -2.842588  -16.214395
N        -3.386335   -3.204175  -16.870860
C        -5.381959   -2.792632  -14.020952
N        -4.359735   -3.557164  -13.542201
C        -4.309270   -4.400741  -12.398120
C        -3.298366   -4.182643  -11.461480
C        -3.184819   -5.011942  -10.355677
Cl        -1.935462   -4.706463   -9.176974
C        -4.077677   -6.073716  -10.152498
O        -3.910420   -6.816544   -9.040065
C        -4.998124   -7.558250   -8.533288
C        -5.193085   -8.902815   -9.198279
C        -4.150351   -9.526692   -9.887035
C        -4.343508  -10.776044  -10.474908
C        -5.578868  -11.414777  -10.375638
C        -6.622069  -10.794652   -9.687849
C        -6.433043   -9.543964   -9.102801
C        -5.067653   -6.295153  -11.114456
C        -5.191848   -5.467124  -12.223944
C        -6.484512   -2.297804  -13.240420
C        -6.632985   -2.523264  -11.843849
N       -10.245035   -5.130519  -10.358193
C       -10.872043   -4.030959  -10.845769
C       -11.856728   -3.383380   -9.891468
O       -10.660954   -3.580260  -11.958916
H        -8.415842   -4.827406  -11.308356
N       -10.506631   -7.016076  -12.338154
C       -10.884233   -7.840752  -13.452970
H        -7.901506   -7.412277  -10.326994
H        -7.303585   -5.874109   -9.683564
H        -8.676281   -6.194361   -5.581652
H        -9.909150   -4.999648   -6.009207
H        -9.791852   -2.882243   -5.393699
H        -8.154267   -2.246003   -5.556044
H        -7.945702   -2.260270   -3.038896
H        -9.586594   -2.946788   -2.935839
H        -9.507878   -0.588214   -2.813325
H        -6.608713   -3.907588   -3.705628
H        -6.291110   -3.916166   -5.462633
H        -6.616068   -5.443101   -4.591906
H        -8.885875   -1.921727   -9.516741
H       -11.732124   -0.591025  -10.986041
H       -11.131613   -0.961697  -12.607608
H       -11.824120    1.467117  -12.381788
H       -10.071063    1.376661  -12.686395
H       -10.668629    1.670073  -11.036641
H        -9.291618   -0.432387  -13.754314
H        -6.313263   -1.320593  -16.979118
H        -3.610605   -3.718895  -14.207550
H        -2.614508   -3.342358  -11.583909
H        -5.924604   -6.965275   -8.581838
H        -4.767346   -7.708001   -7.467515
H        -3.187943   -9.017367   -9.971568
H        -3.523739  -11.250770  -11.019664
H        -5.731584  -12.390877  -10.842396
H        -7.597924  -11.280500   -9.615072
H        -7.258780   -9.046405   -8.581786
H        -5.760663   -7.127167  -11.006903
H        -6.002677   -5.656326  -12.931749
H        -5.914445   -3.100990  -11.273089
H       -10.370250   -5.405603   -9.378904
H       -12.176616   -4.051008   -9.079764
H       -12.729863   -3.029726  -10.455337
H       -11.361167   -2.507157   -9.445910
H       -11.204766   -6.679209  -11.687692
H       -11.344951   -8.784122  -13.118626
H        -9.970606   -8.072249  -14.016002
H       -11.588725   -7.322454  -14.124357
H        -9.367629   -3.298546   -7.921684
H        -7.131215   -5.322532   -7.327676
