96
-1 1
O        -1.134239   -1.784998   -2.253613
C        -1.985414   -1.752008   -1.377600
C        -1.884347   -0.781328   -0.197642
C        -1.419647   -1.569987    1.055964
S        -2.750290   -2.357900    2.030304
C        -1.040437    1.022277    3.317509
C        -1.923393    0.476825    4.404756
N        -1.241036   -0.100816    5.545659
C        -0.469538    0.855738    6.305522
C        -0.147426    0.370490    7.709780
O         0.437344    1.439644    8.414521
C        -0.529633   -1.322672    5.224383
C        -1.421983    1.866096    2.354715
C        -0.543844    2.082282    1.174888
O         0.590881    1.643543    1.100816
N        -1.159199    2.764483    0.153633
C        -0.775748    2.824444   -1.186194
C        -1.746040    3.388311   -2.074849
O        -2.864406    3.841255   -1.471204
C        -4.036569    4.057394   -2.236457
C        -4.115778    5.472020   -2.783706
C        -1.494875    3.436267   -3.421699
C        -0.290898    2.921760   -3.961517
N        -0.118217    3.055709   -5.308866
C         0.995425    2.611881   -5.815172
C         2.013218    1.973646   -5.063827
C         3.186182    1.493851   -5.721075
N         4.155408    1.103550   -6.226938
C         1.860452    1.793932   -3.673616
N         2.860101    1.175138   -2.983828
C         2.806074    0.450718   -1.762092
C         3.816425    0.673984   -0.825252
C         3.843254   -0.052816    0.355951
Cl         5.112652    0.243060    1.516185
C         2.853832   -1.004506    0.646249
O         2.957359   -1.653688    1.822058
C         1.870858   -2.409773    2.309418
C         1.718020   -3.771320    1.667719
C         2.791523   -4.386087    1.018707
C         2.638387   -5.648141    0.446882
C         1.412256   -6.307844    0.522216
C         0.339455   -5.697634    1.171705
C         0.488218   -4.435126    1.743068
C         1.849621   -1.214894   -0.304178
C         1.824388   -0.505562   -1.500051
C         0.664702    2.332985   -3.086182
C         0.407418    2.334811   -1.688030
N        -3.111396   -0.099918    0.132156
C        -3.794249    0.698301   -0.709197
C        -5.078414    1.269680   -0.129738
O        -3.409758    0.996497   -1.830658
H        -1.109032   -0.057677   -0.493327
N        -3.035136   -2.607456   -1.306651
C        -3.157587   -3.721456   -2.209370
H        -0.715556   -2.338647    0.706609
H        -0.849527   -0.873500    1.687694
H        -2.526689   -0.322131    3.927956
H        -2.631008    1.251047    4.749243
H        -1.058589    1.781345    6.409961
H         0.483439    1.143328    5.804716
H         0.536980   -0.498328    7.664577
H        -1.089504    0.024091    8.178649
H         0.725367    1.115066    9.270034
H        -0.367201   -1.935767    6.125047
H         0.467472   -1.138937    4.765629
H        -1.124610   -1.918527    4.513699
H        -2.113373    3.069092    0.304014
H        -4.870840    3.875807   -1.543812
H        -4.100492    3.287721   -3.020936
H        -5.071960    5.616124   -3.309156
H        -3.301711    5.686274   -3.490292
H        -4.056729    6.204395   -1.965090
H        -2.201312    3.858755   -4.133302
H         1.145016    2.728814   -6.895322
H         3.690471    0.984252   -3.535632
H         4.579142    1.430748   -1.012134
H         0.934401   -1.837214    2.219671
H         2.076339   -2.531201    3.383741
H         3.747364   -3.861805    0.951644
H         3.481710   -6.115424   -0.067452
H         1.290267   -7.293118    0.065726
H        -0.631520   -6.195088    1.225437
H        -0.375479   -3.961136    2.224694
H         1.072533   -1.957170   -0.132107
H         1.005937   -0.701165   -2.199187
H         1.118603    1.926732   -0.978873
H        -3.547287   -0.475824    0.984084
H        -5.497267    0.649782    0.675365
H        -5.814384    1.379943   -0.936585
H        -4.867273    2.270415    0.279606
H        -3.474389   -2.674292   -0.383836
H        -2.717560   -4.644003   -1.791625
H        -2.620704   -3.477329   -3.134952
H        -4.215104   -3.914520   -2.445497
H        -2.430551    2.294163    2.348552
H        -0.025723    0.614434    3.228659
