-1 1
 OpenBabel05192410563D

 96 99  0  0  1  0  0  0  0  0999 V2000
   -1.0070   -2.2587   -2.3771 O   0  0  0  0  0  0  0  0  0  0  0  0
   -2.0062   -1.9681   -1.7391 C   0  0  0  0  0  0  0  0  0  0  0  0
   -1.8973   -1.1189   -0.4743 C   0  0  2  0  0  0  0  0  0  0  0  0
   -1.1063   -1.9286    0.6010 C   0  0  0  0  0  0  0  0  0  0  0  0
   -1.8503   -2.1590    2.2430 S   0  0  0  0  0  0  0  0  0  0  0  0
   -1.0989   -0.5914    3.1192 C   0  0  2  0  0  0  0  0  0  0  0  0
   -1.6410   -0.6653    4.5512 C   0  0  0  0  0  0  0  0  0  0  0  0
   -1.0902    0.3080    5.4773 N   0  0  0  0  0  0  0  0  0  0  0  0
   -1.6552    1.6412    5.4296 C   0  0  0  0  0  0  0  0  0  0  0  0
   -1.7706    2.2482    6.8213 C   0  0  0  0  0  0  0  0  0  0  0  0
   -2.3668    3.5190    6.7046 O   0  0  0  0  0  0  0  0  0  0  0  0
    0.3551    0.2945    5.5411 C   0  0  0  0  0  0  0  0  0  0  0  0
   -1.3225    0.6546    2.3961 C   0  0  0  0  0  3  0  0  0  0  0  0
   -0.4078    1.0903    1.4289 C   0  0  0  0  0  0  0  0  0  0  0  0
    0.6808    0.5550    1.1265 O   0  0  0  0  0  0  0  0  0  0  0  0
   -0.8256    2.2523    0.7087 N   0  0  0  0  0  0  0  0  0  0  0  0
   -0.5866    2.5035   -0.6253 C   0  0  0  0  0  0  0  0  0  0  0  0
   -1.5814    3.2745   -1.3184 C   0  0  0  0  0  0  0  0  0  0  0  0
   -2.6214    3.6696   -0.5469 O   0  0  0  0  0  0  0  0  0  0  0  0
   -3.7827    4.1999   -1.1478 C   0  0  0  0  0  0  0  0  0  0  0  0
   -3.6822    5.6966   -1.3926 C   0  0  0  0  0  0  0  0  0  0  0  0
   -1.4513    3.5414   -2.6563 C   0  0  0  0  0  0  0  0  0  0  0  0
   -0.3484    3.0573   -3.4005 C   0  0  0  0  0  0  0  0  0  0  0  0
   -0.3054    3.4050   -4.7206 N   0  0  0  0  0  0  0  0  0  0  0  0
    0.7137    2.9923   -5.4150 C   0  0  0  0  0  0  0  0  0  0  0  0
    1.7599    2.1951   -4.8864 C   0  0  0  0  0  0  0  0  0  0  0  0
    2.8292    1.7802   -5.7354 C   0  0  0  0  0  0  0  0  0  0  0  0
    3.7148    1.4359   -6.4033 N   0  0  0  0  0  0  0  0  0  0  0  0
    1.7428    1.8050   -3.5305 C   0  0  0  0  0  0  0  0  0  0  0  0
    2.7897    1.0635   -3.0659 N   0  0  0  0  0  0  0  0  0  0  0  0
    2.8726    0.2178   -1.9275 C   0  0  0  0  0  0  0  0  0  0  0  0
    3.9024    0.4419   -1.0134 C   0  0  0  0  0  0  0  0  0  0  0  0
    4.0402   -0.3834    0.0927 C   0  0  0  0  0  0  0  0  0  0  0  0
    5.3129   -0.0716    1.2456 Cl  0  0  0  0  0  0  0  0  0  0  0  0
    3.1514   -1.4427    0.3187 C   0  0  0  0  0  0  0  0  0  0  0  0
    3.3345   -2.1787    1.4357 O   0  0  0  0  0  0  0  0  0  0  0  0
    2.2307   -2.8520    1.9947 C   0  0  0  0  0  0  0  0  0  0  0  0
    1.9856   -4.2250    1.4083 C   0  0  0  0  0  0  0  0  0  0  0  0
    2.9754   -4.8882    0.6799 C   0  0  0  0  0  0  0  0  0  0  0  0
    2.7372   -6.1624    0.1657 C   0  0  0  0  0  0  0  0  0  0  0  0
    1.5100   -6.7879    0.3792 C   0  0  0  0  0  0  0  0  0  0  0  0
    0.5193   -6.1293    1.1081 C   0  0  0  0  0  0  0  0  0  0  0  0
    0.7541   -4.8545    1.6190 C   0  0  0  0  0  0  0  0  0  0  0  0
    2.1447   -1.6732   -0.6228 C   0  0  0  0  0  0  0  0  0  0  0  0
    1.9989   -0.8524   -1.7341 C   0  0  0  0  0  0  0  0  0  0  0  0
    0.6390    2.2738   -2.7350 C   0  0  0  0  0  0  0  0  0  0  0  0
    0.5039    2.0375   -1.3389 C   0  0  0  0  0  0  0  0  0  0  0  0
   -3.1587   -0.6349    0.0350 N   0  0  0  0  0  0  0  0  0  0  0  0
   -3.7501    0.4858   -0.4659 C   0  0  0  0  0  0  0  0  0  0  0  0
   -4.7453    1.1482    0.4646 C   0  0  0  0  0  0  0  0  0  0  0  0
   -3.4972    0.9319   -1.5700 O   0  0  0  0  0  0  0  0  0  0  0  0
   -1.2740   -0.2608   -0.7757 H   0  0  0  0  0  0  0  0  0  0  0  0
   -3.2486   -2.4082   -2.0481 N   0  0  0  0  0  0  0  0  0  0  0  0
   -3.5332   -3.1629   -3.2383 C   0  0  0  0  0  0  0  0  0  0  0  0
   -0.8845   -2.9332    0.2160 H   0  0  0  0  0  0  0  0  0  0  0  0
   -0.1601   -1.3981    0.7589 H   0  0  0  0  0  0  0  0  0  0  0  0
   -1.4479   -1.6763    4.9572 H   0  0  0  0  0  0  0  0  0  0  0  0
   -2.7369   -0.5408    4.5350 H   0  0  0  0  0  0  0  0  0  0  0  0
   -2.6690    1.5914    5.0052 H   0  0  0  0  0  0  0  0  0  0  0  0
   -1.0855    2.3263    4.7718 H   0  0  0  0  0  0  0  0  0  0  0  0
   -0.7667    2.3179    7.2851 H   0  0  0  0  0  0  0  0  0  0  0  0
   -2.3710    1.5628    7.4515 H   0  0  0  0  0  0  0  0  0  0  0  0
   -2.3916    3.9213    7.5749 H   0  0  0  0  0  0  0  0  0  0  0  0
    0.7081    0.8639    6.4154 H   0  0  0  0  0  0  0  0  0  0  0  0
    0.8392    0.7227    4.6393 H   0  0  0  0  0  0  0  0  0  0  0  0
    0.7133   -0.7406    5.6615 H   0  0  0  0  0  0  0  0  0  0  0  0
   -1.6938    2.6561    1.0334 H   0  0  0  0  0  0  0  0  0  0  0  0
   -4.5951    3.9950   -0.4348 H   0  0  0  0  0  0  0  0  0  0  0  0
   -4.0102    3.6348   -2.0662 H   0  0  0  0  0  0  0  0  0  0  0  0
   -4.6324    6.0757   -1.7988 H   0  0  0  0  0  0  0  0  0  0  0  0
   -2.8820    5.9422   -2.1047 H   0  0  0  0  0  0  0  0  0  0  0  0
   -3.4722    6.2233   -0.4502 H   0  0  0  0  0  0  0  0  0  0  0  0
   -2.1889    4.1152   -3.2139 H   0  0  0  0  0  0  0  0  0  0  0  0
    0.7585    3.2733   -6.4744 H   0  0  0  0  0  0  0  0  0  0  0  0
    3.5401    0.9310   -3.7359 H   0  0  0  0  0  0  0  0  0  0  0  0
    4.5799    1.2850   -1.1515 H   0  0  0  0  0  0  0  0  0  0  0  0
    1.3284   -2.2250    1.9169 H   0  0  0  0  0  0  0  0  0  0  0  0
    2.4642   -2.9509    3.0662 H   0  0  0  0  0  0  0  0  0  0  0  0
    3.9316   -4.3901    0.5068 H   0  0  0  0  0  0  0  0  0  0  0  0
    3.5160   -6.6670   -0.4112 H   0  0  0  0  0  0  0  0  0  0  0  0
    1.3219   -7.7836   -0.0296 H   0  0  0  0  0  0  0  0  0  0  0  0
   -0.4504   -6.6053    1.2719 H   0  0  0  0  0  0  0  0  0  0  0  0
   -0.0325   -4.3293    2.1710 H   0  0  0  0  0  0  0  0  0  0  0  0
    1.4509   -2.5027   -0.4953 H   0  0  0  0  0  0  0  0  0  0  0  0
    1.1760   -1.0473   -2.4257 H   0  0  0  0  0  0  0  0  0  0  0  0
    1.2286    1.4613   -0.7734 H   0  0  0  0  0  0  0  0  0  0  0  0
   -3.2963   -0.8531    1.0235 H   0  0  0  0  0  0  0  0  0  0  0  0
   -5.1421    0.4663    1.2292 H   0  0  0  0  0  0  0  0  0  0  0  0
   -5.5671    1.5750   -0.1245 H   0  0  0  0  0  0  0  0  0  0  0  0
   -4.2197    1.9714    0.9722 H   0  0  0  0  0  0  0  0  0  0  0  0
   -4.0025   -2.0517   -1.4748 H   0  0  0  0  0  0  0  0  0  0  0  0
   -4.0839   -4.0879   -3.0047 H   0  0  0  0  0  0  0  0  0  0  0  0
   -2.5733   -3.4277   -3.7004 H   0  0  0  0  0  0  0  0  0  0  0  0
   -4.1205   -2.5753   -3.9631 H   0  0  0  0  0  0  0  0  0  0  0  0
   -2.2930    1.1516    2.4956 H   0  0  0  0  0  0  0  0  0  0  0  0
   -0.0260   -0.8315    3.1076 H   0  0  0  0  0  0  0  0  0  0  0  0
  1  2  2  0  0  0  0
  2  3  1  0  0  0  0
  3 52  1  6  0  0  0
  3 48  1  0  0  0  0
  3  4  1  0  0  0  0
  4 56  1  0  0  0  0
  4  5  1  0  0  0  0
  5  6  1  0  0  0  0
  6 96  1  1  0  0  0
  6  7  1  0  0  0  0
  7 57  1  0  0  0  0
  7  8  1  0  0  0  0
  8 12  1  0  0  0  0
  9  8  1  0  0  0  0
  9 10  1  0  0  0  0
 10 61  1  0  0  0  0
 10 62  1  0  0  0  0
 11 10  1  0  0  0  0
 11 63  1  0  0  0  0
 12 66  1  0  0  0  0
 12 64  1  0  0  0  0
 13 95  1  0  0  0  0
 13  6  1  0  0  0  0
 14 13  1  0  0  0  0
 15 14  2  0  0  0  0
 16 67  1  0  0  0  0
 16 14  1  0  0  0  0
 17 16  1  0  0  0  0
 18 17  1  0  0  0  0
 18 19  1  0  0  0  0
 20 19  1  0  0  0  0
 20 68  1  0  0  0  0
 21 20  1  0  0  0  0
 21 72  1  0  0  0  0
 22 18  2  0  0  0  0
 23 46  1  0  0  0  0
 23 22  1  0  0  0  0
 24 23  2  0  0  0  0
 25 26  2  0  0  0  0
 25 24  1  0  0  0  0
 26 29  1  0  0  0  0
 27 26  1  0  0  0  0
 28 27  3  0  0  0  0
 29 30  1  0  0  0  0
 29 46  2  0  0  0  0
 30 31  1  0  0  0  0
 31 45  2  0  0  0  0
 31 32  1  0  0  0  0
 32 33  2  0  0  0  0
 33 35  1  0  0  0  0
 33 34  1  0  0  0  0
 35 36  1  0  0  0  0
 36 37  1  0  0  0  0
 37 78  1  0  0  0  0
 38 43  1  0  0  0  0
 38 37  1  0  0  0  0
 39 38  2  0  0  0  0
 40 41  2  0  0  0  0
 40 39  1  0  0  0  0
 41 42  1  0  0  0  0
 42 82  1  0  0  0  0
 42 43  2  0  0  0  0
 43 83  1  0  0  0  0
 44 84  1  0  0  0  0
 44 35  2  0  0  0  0
 45 44  1  0  0  0  0
 46 47  1  0  0  0  0
 47 86  1  0  0  0  0
 47 17  2  0  0  0  0
 48 87  1  0  0  0  0
 49 48  1  0  0  0  0
 49 50  1  0  0  0  0
 50 90  1  0  0  0  0
 50 88  1  0  0  0  0
 51 49  2  0  0  0  0
 53  2  1  0  0  0  0
 53 91  1  0  0  0  0
 54 92  1  0  0  0  0
 54 53  1  0  0  0  0
 55  4  1  0  0  0  0
 58  7  1  0  0  0  0
 59  9  1  0  0  0  0
 60  9  1  0  0  0  0
 65 12  1  0  0  0  0
 69 20  1  0  0  0  0
 70 21  1  0  0  0  0
 71 21  1  0  0  0  0
 73 22  1  0  0  0  0
 74 25  1  0  0  0  0
 75 30  1  0  0  0  0
 76 32  1  0  0  0  0
 77 37  1  0  0  0  0
 79 39  1  0  0  0  0
 80 40  1  0  0  0  0
 81 41  1  0  0  0  0
 85 45  1  0  0  0  0
 89 50  1  0  0  0  0
 93 54  1  0  0  0  0
 94 54  1  0  0  0  0
M  END
