92
-1 1
O         4.761200   -0.028746    1.203159
C         4.574906    1.048353    1.728017
C         4.146596    1.159103    3.201375
C         2.633912    1.424937    3.358819
S         1.512364    0.676819    2.143766
C         1.110749   -1.088408    2.705885
C         2.406231   -1.801007    3.099626
N         2.256806   -3.224837    3.320502
C         3.519488   -3.845181    3.616141
C         1.227136   -3.565776    4.268065
C         0.374111   -1.722304    1.601558
C        -0.996457   -1.511313    1.455949
O        -1.763699   -0.869247    2.190932
N        -1.546166   -2.090830    0.233516
C        -2.855380   -1.875414   -0.129980
C        -3.921987   -2.305694    0.742747
O        -3.543555   -3.003892    1.815738
C        -4.342437   -3.025097    2.978583
C        -4.446113   -1.659591    3.635255
C        -5.234991   -2.074573    0.392863
C        -5.583538   -1.471127   -0.840275
N        -6.908985   -1.358424   -1.143233
C        -7.231874   -0.841921   -2.294599
C        -6.287166   -0.338546   -3.229029
C        -6.725517    0.277419   -4.441045
N        -7.049879    0.777840   -5.436937
C        -4.916598   -0.417375   -2.938382
N        -3.989235    0.083139   -3.832250
C        -2.859053    0.854624   -3.464096
C        -2.889193    1.701318   -2.350284
C        -1.757901    2.415294   -1.987444
Cl        -1.798834    3.427917   -0.576609
C        -0.571444    2.332634   -2.737447
O         0.472898    3.071842   -2.312577
C         1.745031    2.878637   -2.877018
C         2.358314    1.529901   -2.571421
C         1.995542    0.819151   -1.425723
C         2.594947   -0.399631   -1.119338
C         3.571916   -0.902894   -1.971811
Cl         4.339532   -2.427239   -1.600555
C         3.956168   -0.210334   -3.118715
C         3.338678    1.002442   -3.415914
C        -0.558945    1.503052   -3.861394
C        -1.688646    0.767541   -4.214929
C        -4.539744   -1.060664   -1.720752
C        -3.194480   -1.300464   -1.338331
N         4.847559    2.223407    3.907394
C         6.196810    2.211767    4.115328
C         6.715851    3.304485    5.034898
O         6.929872    1.387082    3.613031
H         4.413033    0.183333    3.632746
N         4.674514    2.237133    1.076338
C         5.044126    2.339099   -0.310873
H         2.322225    1.144543    4.378995
H         2.462384    2.510721    3.258176
H         3.155073   -1.650208    2.305002
H         2.819791   -1.313570    4.019040
H         4.249122   -3.613387    2.825014
H         3.406079   -4.940379    3.667372
H         3.961558   -3.507004    4.586130
H         1.415274   -3.146437    5.287129
H         1.160447   -4.661070    4.366563
H         0.252890   -3.201470    3.911172
H        -0.893055   -2.028029   -0.537618
H        -3.827560   -3.730773    3.645759
H        -5.338875   -3.455350    2.760678
H        -3.436859   -1.232237    3.718368
H        -4.916684   -1.754174    4.626307
H        -5.049532   -0.967989    3.029546
H        -6.058968   -2.402862    1.025779
H        -8.298023   -0.772299   -2.541644
H        -4.366411    0.311488   -4.746532
H        -3.789402    1.779602   -1.739753
H         2.360721    3.677429   -2.435650
H         1.723526    3.056397   -3.968512
H         1.241110    1.211205   -0.739990
H         2.298758   -0.929516   -0.212531
H         4.724876   -0.622490   -3.773914
H         3.630790    1.542788   -4.321567
H         0.352465    1.389814   -4.447860
H        -1.650478    0.088714   -5.068846
H        -2.379155   -0.993354   -1.990915
H         4.282402    2.861499    4.452827
H         6.833543    2.891098    6.048154
H         6.052271    4.179427    5.088525
H         7.707335    3.615025    4.682645
H         4.590499    3.076951    1.631992
H         4.362565    3.015158   -0.848988
H         4.964272    1.340293   -0.758748
H         6.079616    2.698086   -0.438809
H         0.908602   -2.404113    0.936659
H         0.453214   -0.933807    3.575714
