-1 1
 OpenBabel05232414493D

 92 95  0  0  1  0  0  0  0  0999 V2000
    9.8249    9.8892   -7.7297 O   0  0  0  0  0  0  0  0  0  0  0  0
    9.7496   11.0016   -7.2492 C   0  0  0  0  0  0  0  0  0  0  0  0
    9.3603   11.2181   -5.7790 C   0  0  2  0  0  0  0  0  0  0  0  0
    7.8982   11.6773   -5.5934 C   0  0  0  0  0  0  0  0  0  0  0  0
    6.6201   10.9337   -6.6458 S   0  0  0  0  0  0  0  0  0  0  0  0
    6.1175    8.8031   -6.1536 C   0  0  2  0  0  0  0  0  0  0  0  0
    7.4767    8.2714   -5.7393 C   0  0  0  0  0  0  0  0  0  0  0  0
    7.5016    6.8354   -5.5182 N   0  0  0  0  0  0  0  0  0  0  0  0
    8.8382    6.3715   -5.2561 C   0  0  0  0  0  0  0  0  0  0  0  0
    6.5531    6.3869   -4.5326 C   0  0  0  0  0  0  0  0  0  0  0  0
    5.4818    8.2442   -7.2710 C   0  0  0  0  0  3  0  0  0  0  0  0
    4.0852    8.4283   -7.4805 C   0  0  0  0  0  0  0  0  0  0  0  0
    3.2777    8.9531   -6.7165 O   0  0  0  0  0  0  0  0  0  0  0  0
    3.6291    7.9543   -8.7557 N   0  0  0  0  0  0  0  0  0  0  0  0
    2.3190    8.1154   -9.1716 C   0  0  0  0  0  0  0  0  0  0  0  0
    1.2502    7.5558   -8.3837 C   0  0  0  0  0  0  0  0  0  0  0  0
    1.6263    6.8048   -7.3467 O   0  0  0  0  0  0  0  0  0  0  0  0
    0.7718    6.6295   -6.2365 C   0  0  0  0  0  0  0  0  0  0  0  0
    0.5400    7.9218   -5.4734 C   0  0  0  0  0  0  0  0  0  0  0  0
   -0.0584    7.7411   -8.7751 C   0  0  0  0  0  0  0  0  0  0  0  0
   -0.3882    8.4063   -9.9799 C   0  0  0  0  0  0  0  0  0  0  0  0
   -1.7073    8.4587  -10.3286 N   0  0  0  0  0  0  0  0  0  0  0  0
   -2.0149    9.0145  -11.4645 C   0  0  0  0  0  0  0  0  0  0  0  0
   -1.0665    9.6087  -12.3389 C   0  0  0  0  0  0  0  0  0  0  0  0
   -1.4956   10.2418  -13.5452 C   0  0  0  0  0  0  0  0  0  0  0  0
   -1.8118   10.7585  -14.5353 N   0  0  0  0  0  0  0  0  0  0  0  0
    0.2962    9.5984  -11.9992 C   0  0  0  0  0  0  0  0  0  0  0  0
    1.2130   10.1711  -12.8530 N   0  0  0  0  0  0  0  0  0  0  0  0
    2.3330   10.9464  -12.4599 C   0  0  0  0  0  0  0  0  0  0  0  0
    2.2732   11.8037  -11.3560 C   0  0  0  0  0  0  0  0  0  0  0  0
    3.3904   12.5353  -10.9820 C   0  0  0  0  0  0  0  0  0  0  0  0
    3.3134   13.5660   -9.5871 Cl  0  0  0  0  0  0  0  0  0  0  0  0
    4.5907   12.4584  -11.7120 C   0  0  0  0  0  0  0  0  0  0  0  0
    5.6183   13.2148  -11.2844 O   0  0  0  0  0  0  0  0  0  0  0  0
    6.9163   12.9782  -11.7808 C   0  0  0  0  0  0  0  0  0  0  0  0
    7.4535   11.6063  -11.4431 C   0  0  0  0  0  0  0  0  0  0  0  0
    7.1628   11.0198  -10.2088 C   0  0  0  0  0  0  0  0  0  0  0  0
    7.6613    9.7635   -9.8798 C   0  0  0  0  0  0  0  0  0  0  0  0
    8.4613    9.0932  -10.8003 C   0  0  0  0  0  0  0  0  0  0  0  0
    9.0909    7.5135  -10.4023 Cl  0  0  0  0  0  0  0  0  0  0  0  0
    8.7783    9.6621  -12.0320 C   0  0  0  0  0  0  0  0  0  0  0  0
    8.2642   10.9184  -12.3487 C   0  0  0  0  0  0  0  0  0  0  0  0
    4.6296   11.6176  -12.8278 C   0  0  0  0  0  0  0  0  0  0  0  0
    3.5155   10.8648  -13.1913 C   0  0  0  0  0  0  0  0  0  0  0  0
    0.6624    8.9333  -10.7870 C   0  0  0  0  0  0  0  0  0  0  0  0
    2.0030    8.7563  -10.3503 C   0  0  0  0  0  0  0  0  0  0  0  0
   10.2049   12.2122   -5.1277 N   0  0  0  0  0  0  0  0  0  0  0  0
   11.5450   12.0495   -4.9389 C   0  0  0  0  0  0  0  0  0  0  0  0
   12.2081   13.1134   -4.0785 C   0  0  0  0  0  0  0  0  0  0  0  0
   12.1694   11.1226   -5.4104 O   0  0  0  0  0  0  0  0  0  0  0  0
    9.5153   10.2350   -5.3118 H   0  0  0  0  0  0  0  0  0  0  0  0
    9.9727   12.1437   -7.9519 N   0  0  0  0  0  0  0  0  0  0  0  0
   10.3657   12.1536   -9.3356 C   0  0  0  0  0  0  0  0  0  0  0  0
    7.6437   11.5444   -4.5270 H   0  0  0  0  0  0  0  0  0  0  0  0
    7.8619   12.7646   -5.7910 H   0  0  0  0  0  0  0  0  0  0  0  0
    8.2117    8.5052   -6.5245 H   0  0  0  0  0  0  0  0  0  0  0  0
    7.8084    8.8128   -4.8194 H   0  0  0  0  0  0  0  0  0  0  0  0
    9.5139    6.6929   -6.0632 H   0  0  0  0  0  0  0  0  0  0  0  0
    8.8592    5.2704   -5.2060 H   0  0  0  0  0  0  0  0  0  0  0  0
    9.2582    6.7598   -4.2956 H   0  0  0  0  0  0  0  0  0  0  0  0
    6.7421    6.8156   -3.5176 H   0  0  0  0  0  0  0  0  0  0  0  0
    6.5941    5.2892   -4.4429 H   0  0  0  0  0  0  0  0  0  0  0  0
    5.5332    6.6619   -4.8384 H   0  0  0  0  0  0  0  0  0  0  0  0
    4.3261    8.0181   -9.4871 H   0  0  0  0  0  0  0  0  0  0  0  0
    1.2984    5.9015   -5.6038 H   0  0  0  0  0  0  0  0  0  0  0  0
   -0.1800    6.1590   -6.5480 H   0  0  0  0  0  0  0  0  0  0  0  0
    1.5100    8.3953   -5.2691 H   0  0  0  0  0  0  0  0  0  0  0  0
    0.0066    7.7115   -4.5335 H   0  0  0  0  0  0  0  0  0  0  0  0
   -0.0599    8.6326   -6.0599 H   0  0  0  0  0  0  0  0  0  0  0  0
   -0.8891    7.3262   -8.2053 H   0  0  0  0  0  0  0  0  0  0  0  0
   -3.0734    9.0393  -11.7499 H   0  0  0  0  0  0  0  0  0  0  0  0
    0.8387   10.4191  -13.7635 H   0  0  0  0  0  0  0  0  0  0  0  0
    1.3603   11.8797  -10.7641 H   0  0  0  0  0  0  0  0  0  0  0  0
    7.5301   13.7572  -11.3045 H   0  0  0  0  0  0  0  0  0  0  0  0
    6.9572   13.1543  -12.8719 H   0  0  0  0  0  0  0  0  0  0  0  0
    6.5524   11.5371   -9.4635 H   0  0  0  0  0  0  0  0  0  0  0  0
    7.4410    9.3437   -8.8977 H   0  0  0  0  0  0  0  0  0  0  0  0
    9.4112    9.1217  -12.7373 H   0  0  0  0  0  0  0  0  0  0  0  0
    8.4972   11.3612  -13.3221 H   0  0  0  0  0  0  0  0  0  0  0  0
    5.5490   11.5132  -13.4023 H   0  0  0  0  0  0  0  0  0  0  0  0
    3.5733   10.1810  -14.0401 H   0  0  0  0  0  0  0  0  0  0  0  0
    2.8273    9.1572  -10.9372 H   0  0  0  0  0  0  0  0  0  0  0  0
    9.7304   12.9430   -4.6131 H   0  0  0  0  0  0  0  0  0  0  0  0
   12.3241   12.7222   -3.0563 H   0  0  0  0  0  0  0  0  0  0  0  0
   11.6406   14.0539   -4.0319 H   0  0  0  0  0  0  0  0  0  0  0  0
   13.2116   13.3085   -4.4772 H   0  0  0  0  0  0  0  0  0  0  0  0
    9.9549   13.0118   -7.4353 H   0  0  0  0  0  0  0  0  0  0  0  0
    9.7297   12.8331   -9.9235 H   0  0  0  0  0  0  0  0  0  0  0  0
   10.2405   11.1379   -9.7320 H   0  0  0  0  0  0  0  0  0  0  0  0
   11.4206   12.4515   -9.4629 H   0  0  0  0  0  0  0  0  0  0  0  0
    6.0713    7.6983   -8.0123 H   0  0  0  0  0  0  0  0  0  0  0  0
    5.4418    9.0809   -5.3401 H   0  0  0  0  0  0  0  0  0  0  0  0
  1  2  2  0  0  0  0
  2  3  1  0  0  0  0
  3  4  1  0  0  0  0
  3 51  1  1  0  0  0
  3 47  1  0  0  0  0
  4 54  1  0  0  0  0
  5  6  1  0  0  0  0
  5  4  1  0  0  0  0
  6  7  1  0  0  0  0
  6 92  1  1  0  0  0
  7  8  1  0  0  0  0
  7 57  1  0  0  0  0
  8  9  1  0  0  0  0
  8 10  1  0  0  0  0
  9 59  1  0  0  0  0
  9 60  1  0  0  0  0
 10 62  1  0  0  0  0
 10 61  1  0  0  0  0
 11  6  1  0  0  0  0
 12 11  1  0  0  0  0
 12 13  2  0  0  0  0
 14 12  1  0  0  0  0
 15 14  1  0  0  0  0
 15 16  1  0  0  0  0
 16 17  1  0  0  0  0
 17 18  1  0  0  0  0
 18 65  1  0  0  0  0
 18 19  1  0  0  0  0
 19 67  1  0  0  0  0
 19 68  1  0  0  0  0
 20 16  2  0  0  0  0
 20 70  1  0  0  0  0
 21 20  1  0  0  0  0
 22 21  1  0  0  0  0
 23 22  2  0  0  0  0
 24 27  2  0  0  0  0
 24 23  1  0  0  0  0
 25 24  1  0  0  0  0
 26 25  3  0  0  0  0
 27 45  1  0  0  0  0
 28 29  1  0  0  0  0
 28 27  1  0  0  0  0
 29 30  1  0  0  0  0
 30 31  2  0  0  0  0
 30 73  1  0  0  0  0
 31 32  1  0  0  0  0
 33 34  1  0  0  0  0
 33 31  1  0  0  0  0
 35 36  1  0  0  0  0
 35 74  1  0  0  0  0
 35 34  1  0  0  0  0
 36 37  1  0  0  0  0
 37 38  2  0  0  0  0
 37 76  1  0  0  0  0
 38 77  1  0  0  0  0
 39 40  1  0  0  0  0
 39 38  1  0  0  0  0
 41 39  2  0  0  0  0
 42 41  1  0  0  0  0
 42 36  2  0  0  0  0
 43 33  2  0  0  0  0
 44 43  1  0  0  0  0
 44 29  2  0  0  0  0
 45 46  1  0  0  0  0
 45 21  2  0  0  0  0
 46 15  2  0  0  0  0
 47 48  1  0  0  0  0
 47 83  1  0  0  0  0
 48 49  1  0  0  0  0
 49 85  1  0  0  0  0
 49 84  1  0  0  0  0
 50 48  2  0  0  0  0
 52 87  1  0  0  0  0
 52  2  1  0  0  0  0
 53 52  1  0  0  0  0
 55  4  1  0  0  0  0
 56  7  1  0  0  0  0
 58  9  1  0  0  0  0
 63 10  1  0  0  0  0
 64 14  1  0  0  0  0
 66 18  1  0  0  0  0
 69 19  1  0  0  0  0
 71 23  1  0  0  0  0
 72 28  1  0  0  0  0
 75 35  1  0  0  0  0
 78 41  1  0  0  0  0
 79 42  1  0  0  0  0
 80 43  1  0  0  0  0
 81 44  1  0  0  0  0
 82 46  1  0  0  0  0
 86 49  1  0  0  0  0
 88 53  1  0  0  0  0
 89 53  1  0  0  0  0
 90 53  1  0  0  0  0
 91 11  1  0  0  0  0
M  END
