-1 1
 OpenBabel05192410563D

 92 95  0  0  1  0  0  0  0  0999 V2000
    4.7612   -0.0287    1.2032 O   0  0  0  0  0  0  0  0  0  0  0  0
    4.5749    1.0484    1.7280 C   0  0  0  0  0  0  0  0  0  0  0  0
    4.1466    1.1591    3.2014 C   0  0  2  0  0  0  0  0  0  0  0  0
    2.6339    1.4249    3.3588 C   0  0  0  0  0  0  0  0  0  0  0  0
    1.5124    0.6768    2.1438 S   0  0  0  0  0  0  0  0  0  0  0  0
    1.1107   -1.0884    2.7059 C   0  0  2  0  0  0  0  0  0  0  0  0
    2.4062   -1.8010    3.0996 C   0  0  0  0  0  0  0  0  0  0  0  0
    2.2568   -3.2248    3.3205 N   0  0  0  0  0  0  0  0  0  0  0  0
    3.5195   -3.8452    3.6161 C   0  0  0  0  0  0  0  0  0  0  0  0
    1.2271   -3.5658    4.2681 C   0  0  0  0  0  0  0  0  0  0  0  0
    0.3741   -1.7223    1.6016 C   0  0  0  0  0  3  0  0  0  0  0  0
   -0.9965   -1.5113    1.4559 C   0  0  0  0  0  0  0  0  0  0  0  0
   -1.7637   -0.8692    2.1909 O   0  0  0  0  0  0  0  0  0  0  0  0
   -1.5462   -2.0908    0.2335 N   0  0  0  0  0  0  0  0  0  0  0  0
   -2.8554   -1.8754   -0.1300 C   0  0  0  0  0  0  0  0  0  0  0  0
   -3.9220   -2.3057    0.7427 C   0  0  0  0  0  0  0  0  0  0  0  0
   -3.5436   -3.0039    1.8157 O   0  0  0  0  0  0  0  0  0  0  0  0
   -4.3424   -3.0251    2.9786 C   0  0  0  0  0  0  0  0  0  0  0  0
   -4.4461   -1.6596    3.6353 C   0  0  0  0  0  0  0  0  0  0  0  0
   -5.2350   -2.0746    0.3929 C   0  0  0  0  0  0  0  0  0  0  0  0
   -5.5835   -1.4711   -0.8403 C   0  0  0  0  0  0  0  0  0  0  0  0
   -6.9090   -1.3584   -1.1432 N   0  0  0  0  0  0  0  0  0  0  0  0
   -7.2319   -0.8419   -2.2946 C   0  0  0  0  0  0  0  0  0  0  0  0
   -6.2872   -0.3385   -3.2290 C   0  0  0  0  0  0  0  0  0  0  0  0
   -6.7255    0.2774   -4.4410 C   0  0  0  0  0  0  0  0  0  0  0  0
   -7.0499    0.7778   -5.4369 N   0  0  0  0  0  0  0  0  0  0  0  0
   -4.9166   -0.4174   -2.9384 C   0  0  0  0  0  0  0  0  0  0  0  0
   -3.9892    0.0831   -3.8323 N   0  0  0  0  0  0  0  0  0  0  0  0
   -2.8591    0.8546   -3.4641 C   0  0  0  0  0  0  0  0  0  0  0  0
   -2.8892    1.7013   -2.3503 C   0  0  0  0  0  0  0  0  0  0  0  0
   -1.7579    2.4153   -1.9874 C   0  0  0  0  0  0  0  0  0  0  0  0
   -1.7988    3.4279   -0.5766 Cl  0  0  0  0  0  0  0  0  0  0  0  0
   -0.5714    2.3326   -2.7374 C   0  0  0  0  0  0  0  0  0  0  0  0
    0.4729    3.0718   -2.3126 O   0  0  0  0  0  0  0  0  0  0  0  0
    1.7450    2.8786   -2.8770 C   0  0  0  0  0  0  0  0  0  0  0  0
    2.3583    1.5299   -2.5714 C   0  0  0  0  0  0  0  0  0  0  0  0
    1.9955    0.8192   -1.4257 C   0  0  0  0  0  0  0  0  0  0  0  0
    2.5949   -0.3996   -1.1193 C   0  0  0  0  0  0  0  0  0  0  0  0
    3.5719   -0.9029   -1.9718 C   0  0  0  0  0  0  0  0  0  0  0  0
    4.3395   -2.4272   -1.6006 Cl  0  0  0  0  0  0  0  0  0  0  0  0
    3.9562   -0.2103   -3.1187 C   0  0  0  0  0  0  0  0  0  0  0  0
    3.3387    1.0024   -3.4159 C   0  0  0  0  0  0  0  0  0  0  0  0
   -0.5589    1.5031   -3.8614 C   0  0  0  0  0  0  0  0  0  0  0  0
   -1.6886    0.7675   -4.2149 C   0  0  0  0  0  0  0  0  0  0  0  0
   -4.5397   -1.0607   -1.7208 C   0  0  0  0  0  0  0  0  0  0  0  0
   -3.1945   -1.3005   -1.3383 C   0  0  0  0  0  0  0  0  0  0  0  0
    4.8476    2.2234    3.9074 N   0  0  0  0  0  0  0  0  0  0  0  0
    6.1968    2.2118    4.1153 C   0  0  0  0  0  0  0  0  0  0  0  0
    6.7159    3.3045    5.0349 C   0  0  0  0  0  0  0  0  0  0  0  0
    6.9299    1.3871    3.6130 O   0  0  0  0  0  0  0  0  0  0  0  0
    4.4130    0.1833    3.6327 H   0  0  0  0  0  0  0  0  0  0  0  0
    4.6745    2.2371    1.0763 N   0  0  0  0  0  0  0  0  0  0  0  0
    5.0441    2.3391   -0.3109 C   0  0  0  0  0  0  0  0  0  0  0  0
    2.3222    1.1445    4.3790 H   0  0  0  0  0  0  0  0  0  0  0  0
    2.4624    2.5107    3.2582 H   0  0  0  0  0  0  0  0  0  0  0  0
    3.1551   -1.6502    2.3050 H   0  0  0  0  0  0  0  0  0  0  0  0
    2.8198   -1.3136    4.0190 H   0  0  0  0  0  0  0  0  0  0  0  0
    4.2491   -3.6134    2.8250 H   0  0  0  0  0  0  0  0  0  0  0  0
    3.4061   -4.9404    3.6674 H   0  0  0  0  0  0  0  0  0  0  0  0
    3.9616   -3.5070    4.5861 H   0  0  0  0  0  0  0  0  0  0  0  0
    1.4153   -3.1464    5.2871 H   0  0  0  0  0  0  0  0  0  0  0  0
    1.1604   -4.6611    4.3666 H   0  0  0  0  0  0  0  0  0  0  0  0
    0.2529   -3.2015    3.9112 H   0  0  0  0  0  0  0  0  0  0  0  0
   -0.8931   -2.0280   -0.5376 H   0  0  0  0  0  0  0  0  0  0  0  0
   -3.8276   -3.7308    3.6458 H   0  0  0  0  0  0  0  0  0  0  0  0
   -5.3389   -3.4554    2.7607 H   0  0  0  0  0  0  0  0  0  0  0  0
   -3.4369   -1.2322    3.7184 H   0  0  0  0  0  0  0  0  0  0  0  0
   -4.9167   -1.7542    4.6263 H   0  0  0  0  0  0  0  0  0  0  0  0
   -5.0495   -0.9680    3.0295 H   0  0  0  0  0  0  0  0  0  0  0  0
   -6.0590   -2.4029    1.0258 H   0  0  0  0  0  0  0  0  0  0  0  0
   -8.2980   -0.7723   -2.5416 H   0  0  0  0  0  0  0  0  0  0  0  0
   -4.3664    0.3115   -4.7465 H   0  0  0  0  0  0  0  0  0  0  0  0
   -3.7894    1.7796   -1.7398 H   0  0  0  0  0  0  0  0  0  0  0  0
    2.3607    3.6774   -2.4356 H   0  0  0  0  0  0  0  0  0  0  0  0
    1.7235    3.0564   -3.9685 H   0  0  0  0  0  0  0  0  0  0  0  0
    1.2411    1.2112   -0.7400 H   0  0  0  0  0  0  0  0  0  0  0  0
    2.2988   -0.9295   -0.2125 H   0  0  0  0  0  0  0  0  0  0  0  0
    4.7249   -0.6225   -3.7739 H   0  0  0  0  0  0  0  0  0  0  0  0
    3.6308    1.5428   -4.3216 H   0  0  0  0  0  0  0  0  0  0  0  0
    0.3525    1.3898   -4.4479 H   0  0  0  0  0  0  0  0  0  0  0  0
   -1.6505    0.0887   -5.0688 H   0  0  0  0  0  0  0  0  0  0  0  0
   -2.3792   -0.9934   -1.9909 H   0  0  0  0  0  0  0  0  0  0  0  0
    4.2824    2.8615    4.4528 H   0  0  0  0  0  0  0  0  0  0  0  0
    6.8335    2.8911    6.0482 H   0  0  0  0  0  0  0  0  0  0  0  0
    6.0523    4.1794    5.0885 H   0  0  0  0  0  0  0  0  0  0  0  0
    7.7073    3.6150    4.6826 H   0  0  0  0  0  0  0  0  0  0  0  0
    4.5905    3.0770    1.6320 H   0  0  0  0  0  0  0  0  0  0  0  0
    4.3626    3.0152   -0.8490 H   0  0  0  0  0  0  0  0  0  0  0  0
    4.9643    1.3403   -0.7587 H   0  0  0  0  0  0  0  0  0  0  0  0
    6.0796    2.6981   -0.4388 H   0  0  0  0  0  0  0  0  0  0  0  0
    0.9086   -2.4041    0.9367 H   0  0  0  0  0  0  0  0  0  0  0  0
    0.4532   -0.9338    3.5757 H   0  0  0  0  0  0  0  0  0  0  0  0
  1  2  2  0  0  0  0
  2  3  1  0  0  0  0
  3  4  1  0  0  0  0
  3 51  1  1  0  0  0
  3 47  1  0  0  0  0
  4 54  1  0  0  0  0
  5  6  1  0  0  0  0
  5  4  1  0  0  0  0
  6  7  1  0  0  0  0
  6 92  1  1  0  0  0
  7  8  1  0  0  0  0
  7 57  1  0  0  0  0
  8  9  1  0  0  0  0
  8 10  1  0  0  0  0
  9 59  1  0  0  0  0
  9 60  1  0  0  0  0
 10 62  1  0  0  0  0
 10 61  1  0  0  0  0
 11  6  1  0  0  0  0
 12 11  1  0  0  0  0
 12 13  2  0  0  0  0
 14 12  1  0  0  0  0
 15 14  1  0  0  0  0
 15 16  1  0  0  0  0
 16 17  1  0  0  0  0
 17 18  1  0  0  0  0
 18 19  1  0  0  0  0
 18 65  1  0  0  0  0
 19 67  1  0  0  0  0
 19 68  1  0  0  0  0
 20 16  2  0  0  0  0
 20 70  1  0  0  0  0
 21 20  1  0  0  0  0
 22 21  1  0  0  0  0
 23 22  2  0  0  0  0
 24 27  2  0  0  0  0
 24 23  1  0  0  0  0
 25 24  1  0  0  0  0
 26 25  3  0  0  0  0
 27 45  1  0  0  0  0
 28 29  1  0  0  0  0
 28 27  1  0  0  0  0
 29 30  1  0  0  0  0
 30 31  2  0  0  0  0
 30 73  1  0  0  0  0
 31 32  1  0  0  0  0
 33 34  1  0  0  0  0
 33 31  1  0  0  0  0
 35 36  1  0  0  0  0
 35 74  1  0  0  0  0
 35 34  1  0  0  0  0
 36 37  1  0  0  0  0
 37 38  2  0  0  0  0
 37 76  1  0  0  0  0
 38 77  1  0  0  0  0
 39 40  1  0  0  0  0
 39 38  1  0  0  0  0
 41 39  2  0  0  0  0
 42 41  1  0  0  0  0
 42 36  2  0  0  0  0
 43 33  2  0  0  0  0
 44 43  1  0  0  0  0
 44 29  2  0  0  0  0
 45 46  1  0  0  0  0
 45 21  2  0  0  0  0
 46 15  2  0  0  0  0
 47 48  1  0  0  0  0
 47 83  1  0  0  0  0
 48 49  1  0  0  0  0
 49 85  1  0  0  0  0
 49 84  1  0  0  0  0
 50 48  2  0  0  0  0
 52 87  1  0  0  0  0
 52  2  1  0  0  0  0
 53 52  1  0  0  0  0
 55  4  1  0  0  0  0
 56  7  1  0  0  0  0
 58  9  1  0  0  0  0
 63 10  1  0  0  0  0
 64 14  1  0  0  0  0
 66 18  1  0  0  0  0
 69 19  1  0  0  0  0
 71 23  1  0  0  0  0
 72 28  1  0  0  0  0
 75 35  1  0  0  0  0
 78 41  1  0  0  0  0
 79 42  1  0  0  0  0
 80 43  1  0  0  0  0
 81 44  1  0  0  0  0
 82 46  1  0  0  0  0
 86 49  1  0  0  0  0
 88 53  1  0  0  0  0
 89 53  1  0  0  0  0
 90 53  1  0  0  0  0
 91 11  1  0  0  0  0
M  END
