92
-1 1
O         9.824915    9.889206   -7.729668
C         9.749574   11.001592   -7.249198
C         9.360264   11.218114   -5.779031
C         7.898213   11.677289   -5.593384
S         6.620143   10.933665   -6.645794
C         6.117547    8.803060   -6.153641
C         7.476699    8.271356   -5.739325
N         7.501591    6.835409   -5.518241
C         8.838183    6.371480   -5.256079
C         6.553053    6.386852   -4.532565
C         5.481801    8.244229   -7.271008
C         4.085237    8.428287   -7.480494
O         3.277727    8.953124   -6.716490
N         3.629092    7.954272   -8.755715
C         2.318969    8.115449   -9.171603
C         1.250243    7.555830   -8.383720
O         1.626261    6.804849   -7.346739
C         0.771792    6.629514   -6.236463
C         0.540021    7.921793   -5.473353
C        -0.058400    7.741120   -8.775104
C        -0.388242    8.406302   -9.979854
N        -1.707258    8.458654  -10.328594
C        -2.014863    9.014460  -11.464507
C        -1.066482    9.608654  -12.338930
C        -1.495557   10.241819  -13.545204
N        -1.811786   10.758470  -14.535346
C         0.296240    9.598423  -11.999185
N         1.212987   10.171072  -12.852966
C         2.333048   10.946412  -12.459944
C         2.273174   11.803675  -11.356037
C         3.390354   12.535270  -10.982030
Cl         3.313351   13.566027   -9.587146
C         4.590659   12.458383  -11.711992
O         5.618338   13.214848  -11.284375
C         6.916335   12.978193  -11.780848
C         7.453489   11.606274  -11.443140
C         7.162784   11.019766  -10.208780
C         7.661342    9.763500   -9.879850
C         8.461318    9.093228  -10.800321
Cl         9.090926    7.513491  -10.402304
C         8.778280    9.662107  -12.031997
C         8.264181   10.918382  -12.348743
C         4.629582   11.617600  -12.827807
C         3.515541   10.864775  -13.191274
C         0.662369    8.933277  -10.786976
C         2.002975    8.756252  -10.350325
N        10.204939   12.212204   -5.127708
C        11.545017   12.049500   -4.938916
C        12.208098   13.113390   -4.078467
O        12.169434   11.122554   -5.410398
H         9.515251   10.234980   -5.311828
N         9.972664   12.143677   -7.951906
C        10.365708   12.153553   -9.335624
H         7.643678   11.544450   -4.527014
H         7.861913   12.764604   -5.791017
H         8.211717    8.505158   -6.524476
H         7.808414    8.812810   -4.819396
H         9.513868    6.692901   -6.063170
H         8.859192    5.270381   -5.206020
H         9.258164    6.759792   -4.295604
H         6.742127    6.815593   -3.517595
H         6.594070    5.289235   -4.442921
H         5.533250    6.661864   -4.838446
H         4.326147    8.018109   -9.487082
H         1.298418    5.901453   -5.603836
H        -0.180002    6.159001   -6.548021
H         1.510034    8.395265   -5.269131
H         0.006598    7.711491   -4.533549
H        -0.059886    8.632576   -6.059933
H        -0.889115    7.326228   -8.205348
H        -3.073423    9.039318  -11.749888
H         0.838732   10.419131  -13.763505
H         1.360267   11.879705  -10.764051
H         7.530121   13.757219  -11.304486
H         6.957219   13.154291  -12.871867
H         6.552371   11.537097   -9.463507
H         7.441005    9.343704   -8.897666
H         9.411208    9.121702  -12.737311
H         8.497194   11.361223  -13.322082
H         5.548968   11.513184  -13.402335
H         3.573278   10.181000  -14.040055
H         2.827277    9.157217  -10.937193
H         9.730377   12.943032   -4.613065
H        12.324064   12.722238   -3.056283
H        11.640558   14.053888   -4.031865
H        13.211563   13.308479   -4.477183
H         9.954903   13.011800   -7.435329
H         9.729657   12.833138   -9.923519
H        10.240517   11.137851   -9.732032
H        11.420624   12.451473   -9.462902
H         6.071350    7.698292   -8.012346
H         5.441817    9.080912   -5.340055
