92
-1 1
O         3.550080    0.566372    3.151897
C         3.492743    1.323217    2.202293
C         2.495059    2.485921    2.130251
C         1.329643    2.193484    1.167289
S         0.293074    0.764636    1.543630
C         0.213663   -2.235235    3.859379
C         1.650651   -2.202878    4.284143
N         2.541878   -3.004461    3.469290
C         3.926820   -2.632704    3.661736
C         2.336616   -4.421893    3.648124
C        -0.190455   -2.486335    2.614313
C        -1.595276   -2.266224    2.185942
O        -2.574957   -2.497470    2.866089
N        -1.649222   -1.715112    0.914454
C        -2.828630   -1.289406    0.300755
C        -3.912159   -2.208832    0.106606
O        -3.673820   -3.474511    0.467757
C        -4.739717   -4.339531    0.798154
C        -5.436965   -3.930855    2.083945
C        -5.089458   -1.758687   -0.454164
C        -5.205542   -0.442682   -0.961922
N        -6.409510   -0.077644   -1.492069
C        -6.516827    1.126348   -1.975466
C        -5.445983    2.055670   -2.043469
C        -5.637520    3.322881   -2.674158
N        -5.763273    4.361260   -3.177008
C        -4.183344    1.704881   -1.533121
N        -3.148769    2.601918   -1.647422
C        -1.780071    2.360333   -1.882320
C        -0.877846    3.395607   -1.616895
C         0.476888    3.217421   -1.848502
Cl         1.572375    4.551796   -1.577678
C         0.990758    1.982453   -2.268356
O         2.333210    1.862017   -2.346478
C         2.911777    0.758573   -2.996279
C         3.146870   -0.464335   -2.130994
C         2.544660   -0.663981   -0.887178
C         2.823201   -1.809193   -0.135426
C         3.686597   -2.764819   -0.656507
Cl         4.038972   -4.223046    0.247725
C         4.296257   -2.592159   -1.898698
C         4.027675   -1.436860   -2.622030
C         0.079115    0.965247   -2.554570
C        -1.289251    1.162818   -2.404935
C        -4.077069    0.427501   -0.896535
C        -2.928842   -0.005957   -0.182719
N         3.131756    3.703938    1.642545
C         4.177382    4.318164    2.252109
C         4.643337    5.606098    1.589568
O         4.732901    3.872228    3.236905
H         2.124509    2.620333    3.157176
N         4.277931    1.193593    1.099085
C         5.286981    0.178150    0.965424
H         0.712565    3.109721    1.138962
H         1.783633    2.098754    0.165596
H         1.971329   -1.147438    4.205260
H         1.727081   -2.477755    5.363351
H         4.046731   -1.552350    3.499328
H         4.560947   -3.175521    2.943164
H         4.292221   -2.876164    4.687349
H         2.591143   -4.761840    4.680179
H         2.965602   -4.984713    2.941793
H         1.287586   -4.687143    3.453665
H        -0.826022   -1.144716    0.684714
H        -4.265169   -5.323575    0.916547
H        -5.450110   -4.421690   -0.045193
H        -4.687648   -3.796354    2.875524
H        -6.164046   -4.702506    2.379511
H        -5.973537   -2.978585    1.964865
H        -5.961228   -2.402121   -0.565312
H        -7.490728    1.426682   -2.380343
H        -3.441948    3.543190   -1.886569
H        -1.232125    4.348738   -1.221709
H         3.883162    1.120640   -3.365577
H         2.315078    0.489301   -3.887334
H         1.840081    0.048273   -0.443384
H         2.382290   -1.926601    0.859413
H         4.978132   -3.350845   -2.285048
H         4.517284   -1.290419   -3.589889
H         0.435865   -0.013433   -2.876485
H        -1.971036    0.350086   -2.652097
H        -2.091545    0.665627    0.031128
H         2.674500    4.166526    0.865219
H         4.727540    6.384524    2.359986
H         3.981721    5.957800    0.785381
H         5.649644    5.441555    1.177375
H         4.186008    1.896826    0.378559
H         5.372831   -0.132901   -0.086570
H         4.994055   -0.697630    1.558643
H         6.274909    0.519321    1.321792
H         0.549315   -2.720314    1.844757
H        -0.531651   -1.927890    4.600665
