-1 1
 OpenBabel05232413483D

 82 84  0  0  1  0  0  0  0  0999 V2000
    3.3724   -0.1217    2.4120 O   0  0  0  0  0  0  0  0  0  0  0  0
    2.6685   -0.8608    1.7365 C   0  0  0  0  0  0  0  0  0  0  0  0
    2.9797   -2.3607    1.5497 C   0  0  2  0  0  0  0  0  0  0  0  0
    1.8035   -3.3312    1.8200 C   0  0  0  0  0  0  0  0  0  0  0  0
    0.4102   -3.2646    0.6309 S   0  0  0  0  0  1  0  0  0  0  0  0
   -0.8335   -1.3157    3.3908 C   0  0  0  0  0  0  0  0  0  0  0  0
   -0.4007   -1.8605    4.7204 C   0  0  0  0  0  0  0  0  0  0  0  0
   -0.1600   -3.2847    4.7360 N   0  0  0  0  0  0  0  0  0  0  0  0
    0.2486   -3.7375    6.0398 C   0  0  0  0  0  0  0  0  0  0  0  0
   -1.2269   -4.0786    4.1672 C   0  0  0  0  0  0  0  0  0  0  0  0
   -1.5073   -0.1642    3.2828 C   0  0  0  0  0  0  0  0  0  0  0  0
   -1.8287    0.4171    1.9582 C   0  0  0  0  0  0  0  0  0  0  0  0
   -1.8643   -0.2103    0.9218 O   0  0  0  0  0  0  0  0  0  0  0  0
   -2.0582    1.7857    2.0070 N   0  0  0  0  0  0  0  0  0  0  0  0
   -2.2189    2.6473    0.9330 C   0  0  0  0  0  0  0  0  0  0  0  0
   -2.3811    4.0378    1.2631 C   0  0  0  0  0  0  0  0  0  0  0  0
   -2.3194    4.3049    2.5848 O   0  0  0  0  0  0  0  0  0  0  0  0
   -2.4407    5.6345    3.0167 C   0  0  0  0  0  0  0  0  0  0  0  0
   -2.5976    4.9732    0.2830 C   0  0  0  0  0  0  0  0  0  0  0  0
   -2.6484    4.5906   -1.0835 C   0  0  0  0  0  0  0  0  0  0  0  0
   -2.9549    5.5539   -1.9955 N   0  0  0  0  0  0  0  0  0  0  0  0
   -3.0559    5.1941   -3.2444 C   0  0  0  0  0  0  0  0  0  0  0  0
   -2.8099    3.8763   -3.7122 C   0  0  0  0  0  0  0  0  0  0  0  0
   -2.8975    3.5851   -5.1101 C   0  0  0  0  0  0  0  0  0  0  0  0
   -2.9727    3.3263   -6.2378 N   0  0  0  0  0  0  0  0  0  0  0  0
   -2.4466    2.8721   -2.8046 C   0  0  0  0  0  0  0  0  0  0  0  0
   -2.1967    1.5916   -3.2481 N   0  0  0  0  0  0  0  0  0  0  0  0
   -1.0581    0.8051   -2.9531 C   0  0  0  0  0  0  0  0  0  0  0  0
   -1.0985   -0.5472   -3.3007 C   0  0  0  0  0  0  0  0  0  0  0  0
    0.0369   -1.3406   -3.1836 C   0  0  0  0  0  0  0  0  0  0  0  0
   -0.0459   -2.9836   -3.7368 Cl  0  0  0  0  0  0  0  0  0  0  0  0
    1.2298   -0.8138   -2.6690 C   0  0  0  0  0  0  0  0  0  0  0  0
    2.4346   -1.5507   -2.6396 N   0  0  0  0  0  0  0  0  0  0  0  0
    3.5930   -1.1770   -3.2759 C   0  0  0  0  0  0  0  0  0  0  0  0
    4.5514   -2.0429   -3.0985 N   0  0  0  0  0  0  0  0  0  0  0  0
    4.0046   -3.0276   -2.3110 C   0  0  0  0  0  0  0  0  0  0  0  0
    2.6935   -2.7535   -2.0165 C   0  0  0  0  0  0  0  0  0  0  0  0
    1.2323    0.5207   -2.2596 C   0  0  0  0  0  0  0  0  0  0  0  0
    0.1170    1.3358   -2.4141 C   0  0  0  0  0  0  0  0  0  0  0  0
   -2.4144    3.2301   -1.4203 C   0  0  0  0  0  0  0  0  0  0  0  0
   -2.2299    2.2688   -0.3919 C   0  0  0  0  0  0  0  0  0  0  0  0
    4.2024   -2.7323    2.2422 N   0  0  0  0  0  0  0  0  0  0  0  0
    4.5147   -2.7142    3.5696 C   0  0  0  0  0  0  0  0  0  0  0  0
    3.4041   -2.4302    4.5590 C   0  0  0  0  0  0  0  0  0  0  0  0
    5.6550   -2.9415    3.9420 O   0  0  0  0  0  0  0  0  0  0  0  0
    3.2174   -2.4669    0.4808 H   0  0  0  0  0  0  0  0  0  0  0  0
    1.5931   -0.4091    1.0540 N   0  0  0  0  0  0  0  0  0  0  0  0
    1.2129    0.9727    1.1571 C   0  0  0  0  0  0  0  0  0  0  0  0
    2.2489   -4.3382    1.8136 H   0  0  0  0  0  0  0  0  0  0  0  0
    1.4098   -3.1732    2.8346 H   0  0  0  0  0  0  0  0  0  0  0  0
   -1.1452   -1.5563    5.4979 H   0  0  0  0  0  0  0  0  0  0  0  0
    0.5469   -1.3586    4.9928 H   0  0  0  0  0  0  0  0  0  0  0  0
    0.5435   -4.7969    5.9973 H   0  0  0  0  0  0  0  0  0  0  0  0
   -0.5546   -3.6365    6.8086 H   0  0  0  0  0  0  0  0  0  0  0  0
    1.1193   -3.1601    6.3878 H   0  0  0  0  0  0  0  0  0  0  0  0
   -1.3784   -3.8158    3.1098 H   0  0  0  0  0  0  0  0  0  0  0  0
   -2.1893   -3.9682    4.7194 H   0  0  0  0  0  0  0  0  0  0  0  0
   -0.9400   -5.1402    4.1916 H   0  0  0  0  0  0  0  0  0  0  0  0
   -1.9875    2.2440    2.9064 H   0  0  0  0  0  0  0  0  0  0  0  0
   -1.6494    6.2701    2.5850 H   0  0  0  0  0  0  0  0  0  0  0  0
   -2.3378    5.6215    4.1082 H   0  0  0  0  0  0  0  0  0  0  0  0
   -3.4247    6.0558    2.7500 H   0  0  0  0  0  0  0  0  0  0  0  0
   -2.7582    6.0270    0.5040 H   0  0  0  0  0  0  0  0  0  0  0  0
   -3.3254    5.9651   -3.9753 H   0  0  0  0  0  0  0  0  0  0  0  0
   -2.5727    1.3964   -4.1707 H   0  0  0  0  0  0  0  0  0  0  0  0
   -2.0163   -0.9842   -3.6957 H   0  0  0  0  0  0  0  0  0  0  0  0
    3.6433   -0.2611   -3.8656 H   0  0  0  0  0  0  0  0  0  0  0  0
    4.5852   -3.8892   -1.9851 H   0  0  0  0  0  0  0  0  0  0  0  0
    1.9404   -3.2329   -1.3785 H   0  0  0  0  0  0  0  0  0  0  0  0
    2.1474    0.9226   -1.8222 H   0  0  0  0  0  0  0  0  0  0  0  0
    0.1683    2.3852   -2.1213 H   0  0  0  0  0  0  0  0  0  0  0  0
   -2.1152    1.2131   -0.6236 H   0  0  0  0  0  0  0  0  0  0  0  0
    5.0282   -2.8449    1.6670 H   0  0  0  0  0  0  0  0  0  0  0  0
    3.0000   -1.4251    4.3741 H   0  0  0  0  0  0  0  0  0  0  0  0
    3.8359   -2.4803    5.5657 H   0  0  0  0  0  0  0  0  0  0  0  0
    2.5834   -3.1545    4.4650 H   0  0  0  0  0  0  0  0  0  0  0  0
    0.9468   -1.1231    0.6636 H   0  0  0  0  0  0  0  0  0  0  0  0
    0.8570    1.2349    2.1700 H   0  0  0  0  0  0  0  0  0  0  0  0
    0.4097    1.1776    0.4386 H   0  0  0  0  0  0  0  0  0  0  0  0
    2.0715    1.6282    0.9412 H   0  0  0  0  0  0  0  0  0  0  0  0
   -1.7835    0.4100    4.1766 H   0  0  0  0  0  0  0  0  0  0  0  0
   -0.5490   -1.8619    2.4695 H   0  0  0  0  0  0  0  0  0  0  0  0
  2  1  2  0  0  0  0
  3 46  1  6  0  0  0
  3  2  1  0  0  0  0
  3  4  1  0  0  0  0
  3 42  1  0  0  0  0
  4 50  1  0  0  0  0
  5  4  1  0  0  0  0
  6  7  1  0  0  0  0
  7  8  1  0  0  0  0
  7 52  1  0  0  0  0
  7 51  1  0  0  0  0
  8  9  1  0  0  0  0
  9 55  1  0  0  0  0
  9 54  1  0  0  0  0
 10 58  1  0  0  0  0
 10 57  1  0  0  0  0
 10  8  1  0  0  0  0
 11  6  2  0  0  0  0
 11 81  1  0  0  0  0
 12 14  1  0  0  0  0
 12 11  1  0  0  0  0
 13 12  2  0  0  0  0
 14 59  1  0  0  0  0
 15 16  1  0  0  0  0
 15 14  1  0  0  0  0
 16 17  1  0  0  0  0
 17 18  1  0  0  0  0
 18 61  1  0  0  0  0
 19 63  1  0  0  0  0
 19 16  2  0  0  0  0
 20 19  1  0  0  0  0
 21 20  2  0  0  0  0
 22 21  1  0  0  0  0
 23 22  2  0  0  0  0
 23 26  1  0  0  0  0
 24 23  1  0  0  0  0
 25 24  3  0  0  0  0
 26 40  2  0  0  0  0
 27 28  1  0  0  0  0
 27 26  1  0  0  0  0
 28 39  1  0  0  0  0
 29 30  1  0  0  0  0
 29 28  2  0  0  0  0
 30 32  2  0  0  0  0
 31 30  1  0  0  0  0
 32 33  1  0  0  0  0
 32 38  1  0  0  0  0
 33 37  1  0  0  0  0
 34 35  2  0  0  0  0
 34 33  1  0  0  0  0
 35 36  1  0  0  0  0
 36 37  2  0  0  0  0
 36 68  1  0  0  0  0
 37 69  1  0  0  0  0
 38 70  1  0  0  0  0
 39 38  2  0  0  0  0
 39 71  1  0  0  0  0
 40 20  1  0  0  0  0
 40 41  1  0  0  0  0
 41 15  2  0  0  0  0
 42 43  1  0  0  0  0
 43 45  2  0  0  0  0
 43 44  1  0  0  0  0
 44 75  1  0  0  0  0
 47 48  1  0  0  0  0
 47  2  1  0  0  0  0
 48 78  1  0  0  0  0
 49  4  1  0  0  0  0
 53  9  1  0  0  0  0
 56 10  1  0  0  0  0
 60 18  1  0  0  0  0
 62 18  1  0  0  0  0
 64 22  1  0  0  0  0
 65 27  1  0  0  0  0
 66 29  1  0  0  0  0
 67 34  1  0  0  0  0
 72 41  1  0  0  0  0
 73 42  1  0  0  0  0
 74 44  1  0  0  0  0
 76 44  1  0  0  0  0
 77 47  1  0  0  0  0
 79 48  1  0  0  0  0
 80 48  1  0  0  0  0
 82  6  1  0  0  0  0
M  END
