101
-1 1
C         2.061424   -4.288371    2.472628
C         3.202520   -3.428630    1.951659
O         2.744371   -2.298306    1.241683
C         2.332804   -2.511331   -0.057333
O         2.422535   -3.636805   -0.541097
C         1.834617   -1.311320   -0.634103
C         1.307252   -1.112866   -1.929934
S         0.831340   -2.499273   -2.969493
C        -0.216303   -3.576702   -1.949818
C        -1.709069   -3.187959   -1.878537
H        -1.768104   -2.088708   -1.779817
N        -2.376759   -3.829907   -0.774697
C        -2.418520   -3.424061    0.530982
C        -1.581482   -2.220925    0.893237
O        -3.116207   -4.009681    1.339684
C        -2.485504   -3.585119   -3.149884
N        -1.956519   -3.142392   -4.319050
C        -2.531376   -3.469618   -5.598004
O        -3.504934   -4.251878   -3.099932
C         1.262981    0.121833   -2.557493
N         2.237666    1.080703   -2.132305
C         2.096906    2.331058   -1.631056
C         0.668029    2.717208   -1.202422
H         0.003060    2.526153   -2.055736
N         0.185933    1.845622   -0.145422
C         0.612809    1.889648    1.129644
C        -0.031559    0.880069    2.088348
H        -0.310690   -0.042418    1.557206
C        -1.305689    1.508768    2.723780
C        -2.458560    1.552723    1.719923
C        -1.737559    0.781841    3.996417
N         0.999829    0.552980    3.045633
C         1.126183   -0.658298    3.617281
C         2.370202   -0.836486    4.435784
N         3.262738    0.107823    4.581139
O         4.232821   -0.409774    5.380586
C         3.921845   -1.671586    5.721682
C         4.893627   -2.394762    6.582441
C         2.731807   -2.008429    5.155990
O         0.317330   -1.566183    3.536633
O         1.419450    2.702786    1.560917
C         0.594987    4.215214   -0.878661
C        -0.786619    4.644867   -0.464091
C        -1.133263    4.739275    0.888532
C        -2.427078    5.072236    1.283681
C        -3.386177    5.314678    0.310168
F        -4.633265    5.630328    0.679253
C        -3.078273    5.246423   -1.043425
C        -1.775808    4.915774   -1.417106
O         3.027984    3.109792   -1.521627
C         0.502733    0.479981   -3.819681
C        -1.037763    0.286370   -3.860404
H        -1.259642   -0.781893   -3.938638
C        -1.683773    1.099676   -4.993478
C        -2.097580    2.416586   -4.314794
N        -2.352903    1.986723   -2.957360
C        -1.764144    0.805709   -2.628680
O        -1.823408    0.286186   -1.527271
H         2.447404   -5.075055    3.142026
H         1.543751   -4.772284    1.633049
H         1.334378   -3.669740    3.019189
H         3.869014   -4.028498    1.311389
H         3.792561   -3.021279    2.787646
H         1.960028   -0.415712   -0.024058
H         0.222928   -3.600136   -0.948402
H        -0.091618   -4.590829   -2.358607
H        -3.058350   -4.537937   -1.032611
H        -0.520529   -2.345678    0.629412
H        -1.648096   -2.053793    1.973086
H        -1.935944   -1.335828    0.342504
H        -1.036491   -2.704353   -4.278764
H        -3.567771   -3.793584   -5.439329
H        -1.988552   -4.287483   -6.101540
H        -2.524695   -2.589743   -6.259233
H         3.214507    0.806015   -2.221626
H        -0.400453    1.063188   -0.435047
H        -1.037921    2.544355    3.002434
H        -2.771678    0.532936    1.448547
H        -2.189856    2.076280    0.793382
H        -3.326835    2.069324    2.157152
H        -1.957971   -0.275680    3.792022
H        -2.642303    1.255143    4.409245
H        -0.955626    0.818051    4.767862
H         1.750347    1.235275    3.137966
H         4.516791   -3.399627    6.808726
H         5.057545   -1.855623    7.527278
H         5.865271   -2.489370    6.074977
H         2.183678   -2.943613    5.205119
H         0.911599    4.756553   -1.782297
H         1.331101    4.435617   -0.097694
H        -0.369459    4.526825    1.640438
H        -2.703192    5.132626    2.337656
H        -3.852536    5.463411   -1.781872
H        -1.519079    4.871485   -2.479933
H         0.883290   -0.053507   -4.713360
H         0.712994    1.543856   -4.022842
H        -2.581932    0.586073   -5.369594
H        -1.005348    1.260780   -5.843346
H        -2.993258    2.865618   -4.769639
H        -1.286984    3.168829   -4.355775
H        -2.759427    2.577374   -2.239859
