101
-1 1
C         2.245016   -5.589704    0.873429
C         2.950117   -4.465497    0.150541
O         2.271091   -3.255308    0.469839
C         2.667671   -2.159371   -0.186395
O         3.687665   -2.081296   -0.819481
C         1.681863   -1.060222    0.021044
C         1.765138    0.053313   -0.661236
S         0.617112   -3.492841   -2.563156
C        -0.665261   -3.947388   -1.338097
C        -2.096282   -3.500212   -1.719752
H        -2.012295   -2.484465   -2.140160
N        -3.024260   -3.494961   -0.612727
C        -3.184631   -2.533152    0.334521
C        -2.181199   -1.400671    0.367414
O        -4.102892   -2.572450    1.138218
C        -2.714733   -4.387978   -2.813856
N        -1.982286   -4.477204   -3.944493
C        -2.364620   -5.372952   -5.003595
O        -3.792243   -4.947871   -2.659071
C         1.822033    1.101501   -1.448254
N         2.655044    2.209369   -1.116975
C         2.324705    3.522592   -0.913562
C         0.830517    3.866018   -0.722066
H         0.360314    3.804787   -1.717813
N         0.131042    2.893102    0.083157
C         0.435054    2.680190    1.373112
C        -0.342922    1.556557    2.069495
H        -0.601693    0.771513    1.340475
C        -1.658080    2.073685    2.703820
C        -2.634993    2.560374    1.631891
C        -2.310318    0.998438    3.572711
N         0.592403    0.994574    3.023504
C         0.756098   -0.329673    3.192723
C         2.022826   -0.743476    3.873055
N         2.703003    0.034542    4.674474
O         3.799125   -0.683451    5.042278
C         3.780613   -1.890590    4.451186
C         4.925718   -2.795824    4.728246
C         2.658982   -2.001571    3.688991
O        -0.005009   -1.187035    2.775086
O         1.276417    3.324051    1.988581
C         0.707952    5.315726   -0.212483
C        -0.675165    5.654429    0.279984
C        -0.919608    5.802389    1.649911
C        -2.195412    6.088976    2.131796
C        -3.239345    6.218072    1.226752
F        -4.470254    6.484639    1.679183
C        -3.037198    6.071924   -0.139888
C        -1.752946    5.793264   -0.601976
O         3.179285    4.383314   -0.883801
C         1.172805    1.109743   -2.819709
C         0.054928    0.096559   -3.009451
H         0.307454   -0.858675   -2.496750
C        -0.277738   -0.284171   -4.455372
C        -1.732379   -0.768038   -4.375663
N        -2.241977   -0.029568   -3.229290
C        -1.288505    0.528382   -2.452633
O        -1.508278    1.244554   -1.482504
H         2.731658   -6.548544    0.641333
H         1.195642   -5.646149    0.551777
H         2.267078   -5.444486    1.964648
H         2.900644   -4.599288   -0.941455
H         4.009030   -4.378607    0.446512
H         0.864495   -1.244495    0.725673
H        -0.424773   -3.482334   -0.369210
H        -0.679250   -5.037394   -1.160838
H        -3.770775   -4.183160   -0.680536
H        -1.654300   -1.431316    1.331533
H        -2.732381   -0.451527    0.317451
H        -1.429225   -1.413854   -0.430234
H        -0.994127   -4.160969   -3.858553
H        -3.451872   -5.326113   -5.157724
H        -2.105597   -6.423581   -4.782287
H        -1.855050   -5.079893   -5.932398
H         3.656865    2.045973   -1.117745
H        -0.504005    2.247943   -0.403021
H        -1.383509    2.929261    3.348015
H        -2.862701    1.754402    0.916760
H        -2.240789    3.407755    1.057102
H        -3.579388    2.881244    2.096538
H        -2.610012    0.128054    2.969799
H        -3.212927    1.403350    4.055747
H        -1.633059    0.646315    4.363175
H         1.324237    1.631686    3.333289
H         4.792101   -3.740074    4.186580
H         5.003111   -3.011342    5.804303
H         5.871328   -2.335412    4.405950
H         2.328422   -2.811748    3.044722
H         1.006315    5.987060   -1.031103
H         1.437629    5.457567    0.592263
H        -0.094508    5.661584    2.351643
H        -2.392203    6.196632    3.199626
H        -3.882905    6.173071   -0.821854
H        -1.589753    5.674476   -1.676745
H         1.971182    0.908893   -3.554866
H         0.809917    2.127733   -3.042441
H         0.391235   -1.070674   -4.828863
H        -0.202786    0.598012   -5.114650
H        -1.779420   -1.855879   -4.209495
H        -2.311429   -0.528601   -5.280575
H        -3.215251   -0.005793   -2.953052
