101
-1 1
C         4.736614  -12.850469    4.241774
C         5.879483  -12.069590    3.624513
O         5.341397  -10.896896    3.040959
C         5.752690  -10.517404    1.803245
O         6.655384  -11.052864    1.212400
C         4.919331   -9.396555    1.364202
C         4.808697   -8.899799    0.133597
S         4.295641  -11.043901   -1.455860
C         3.291621  -11.866385   -0.185402
C         1.770806  -11.564619   -0.174447
H         1.650750  -10.467817   -0.143104
N         1.103206  -12.164452    0.957238
C         0.975159  -11.704110    2.233780
C         1.744507  -10.458017    2.611946
O         0.277611  -12.295221    3.042289
C         1.025653  -12.067366   -1.427979
N         1.476253  -11.572447   -2.604957
C         0.960194  -12.089218   -3.846768
O         0.083564  -12.842295   -1.348322
C         4.755127   -7.843830   -0.668335
N         5.687803   -6.787882   -0.389178
C         5.456203   -5.576163    0.186554
C         4.015036   -5.321525    0.677562
H         3.350961   -5.533888   -0.176100
N         3.588611   -6.245381    1.709652
C         4.017894   -6.224425    2.982918
C         3.318083   -7.202658    3.941042
H         2.931096   -8.085425    3.407324
C         2.108124   -6.497785    4.617512
C         0.927441   -6.432220    3.647923
C         1.695602   -7.180712    5.920012
N         4.348331   -7.650514    4.850135
C         4.386412   -8.887946    5.383015
C         5.652956   -9.211414    6.118407
N         6.648396   -8.368980    6.215321
O         7.610859   -9.003624    6.934800
C         7.194652  -10.234704    7.274374
C         8.141215  -11.074208    8.053590
C         5.939542  -10.433054    6.787761
O         3.495456   -9.715248    5.314743
O         4.879064   -5.468194    3.409401
C         3.853394   -3.844781    1.060921
C         2.490637   -3.542729    1.626072
C         2.334043   -3.221120    2.977793
C         1.075140   -2.975550    3.523215
C        -0.039273   -3.062986    2.702094
F        -1.254230   -2.845105    3.219347
C         0.075467   -3.379296    1.353905
C         1.342994   -3.614618    0.827091
O         6.322815   -4.729709    0.275274
C         3.945977   -7.703834   -1.938250
C         2.489403   -8.191909   -1.891451
H         2.543758   -9.255102   -1.625371
C         1.735731   -7.969838   -3.210456
C         0.961468   -6.655944   -3.003925
N         0.814057   -6.609744   -1.562763
C         1.617191   -7.467868   -0.882172
O         1.600652   -7.604175    0.331912
H         5.119212  -13.712729    4.809880
H         4.056075  -13.223253    3.461887
H         4.151917  -12.200477    4.909766
H         6.415050  -12.645158    2.855133
H         6.613648  -11.766458    4.390881
H         4.258062   -8.978036    2.124837
H         3.662795  -11.548353    0.804414
H         3.430422  -12.958739   -0.231154
H         0.481648  -12.932280    0.713855
H         2.788425  -10.716090    2.845283
H         1.303171  -10.054080    3.530100
H         1.750018   -9.693591    1.820887
H         2.453916  -11.224053   -2.573870
H        -0.138851  -12.095025   -3.825353
H         1.291896  -13.123627   -4.045831
H         1.299608  -11.449520   -4.673784
H         6.664322   -6.952654   -0.613027
H         2.893581   -6.936716    1.423104
H         2.428997   -5.468863    4.858609
H         0.578964   -7.447213    3.398037
H         1.182913   -5.930193    2.705060
H         0.086853   -5.884758    4.100670
H         1.421994   -8.231392    5.745406
H         0.830256   -6.659300    6.358166
H         2.509435   -7.165008    6.659026
H         5.156630   -7.037745    4.941120
H         7.679738  -12.041907    8.284866
H         8.418979  -10.578930    8.995732
H         9.063654  -11.251455    7.480831
H         5.300464  -11.306741    6.864425
H         4.041338   -3.242994    0.158757
H         4.639186   -3.590327    1.781350
H         3.218894   -3.189514    3.617771
H         0.946936   -2.737327    4.580318
H        -0.825064   -3.437942    0.739940
H         1.442471   -3.869995   -0.232106
H         4.439248   -8.293003   -2.731981
H         3.988750   -6.647294   -2.254973
H         1.030858   -8.800951   -3.362569
H         2.402194   -7.930749   -4.083050
H        -0.018771   -6.662187   -3.504195
H         1.521989   -5.779781   -3.376754
H         0.152804   -6.025104   -1.067269
