-1 1
 OpenBabel05232413483D

 95 98  0  0  1  0  0  0  0  0999 V2000
    2.9848    0.6530    0.5581 O   0  0  0  0  0  0  0  0  0  0  0  0
    2.3588   -0.0193    1.3752 C   0  0  0  0  0  0  0  0  0  0  0  0
    2.3043   -1.5517    1.2622 C   0  0  2  0  0  0  0  0  0  0  0  0
    2.9716   -2.3125    2.4381 C   0  0  0  0  0  0  0  0  0  0  0  0
    2.3406   -2.0193    4.1313 S   0  0  0  0  0  1  0  0  0  0  0  0
   -0.2548   -4.5886    1.2857 C   0  0  0  0  0  0  0  0  0  0  0  0
    0.7037   -5.7024    0.9667 C   0  0  0  0  0  0  0  0  0  0  0  0
    0.1924   -6.7585    0.1110 N   0  0  0  0  0  0  0  0  0  0  0  0
   -0.8492   -7.5451    0.7224 C   0  0  0  0  0  0  0  0  0  0  0  0
   -0.1453   -6.3237   -1.2260 C   0  0  0  0  0  0  0  0  0  0  0  0
   -0.2912   -3.9216    2.4417 C   0  0  0  0  0  0  0  0  0  0  0  0
   -1.1568   -2.7206    2.5772 C   0  0  0  0  0  0  0  0  0  0  0  0
   -2.0427   -2.4449    1.7793 O   0  0  0  0  0  0  0  0  0  0  0  0
   -0.8359   -1.9485    3.6683 N   0  0  0  0  0  0  0  0  0  0  0  0
   -1.2382   -0.6376    3.8758 C   0  0  0  0  0  0  0  0  0  0  0  0
   -0.8370   -0.0126    5.1133 C   0  0  0  0  0  0  0  0  0  0  0  0
   -0.1961   -0.8229    5.9600 O   0  0  0  0  0  0  0  0  0  0  0  0
    0.7054   -0.3069    6.9240 C   0  0  0  0  0  0  0  0  0  0  0  0
    0.0472   -0.1374    8.2814 C   0  0  0  0  0  0  0  0  0  0  0  0
   -1.1109    1.3192    5.3448 C   0  0  0  0  0  0  0  0  0  0  0  0
   -1.7579    2.1122    4.3624 C   0  0  0  0  0  0  0  0  0  0  0  0
   -1.9540    3.4364    4.5993 N   0  0  0  0  0  0  0  0  0  0  0  0
   -2.4660    4.1684    3.6464 C   0  0  0  0  0  0  0  0  0  0  0  0
   -2.8083    3.6694    2.3554 C   0  0  0  0  0  0  0  0  0  0  0  0
   -3.3172    4.5657    1.3581 C   0  0  0  0  0  0  0  0  0  0  0  0
   -3.7234    5.3259    0.5847 N   0  0  0  0  0  0  0  0  0  0  0  0
   -2.6287    2.3189    2.0934 C   0  0  0  0  0  0  0  0  0  0  0  0
   -2.8471    1.7750    0.7970 N   0  0  0  0  0  0  0  0  0  0  0  0
   -1.6748    1.5438    0.0343 C   0  0  0  0  0  0  0  0  0  0  0  0
   -0.7976    2.5994   -0.2309 C   0  0  0  0  0  0  0  0  0  0  0  0
    0.3762    2.3664   -0.9380 C   0  0  0  0  0  0  0  0  0  0  0  0
    1.4210    3.7245   -1.2459 Cl  0  0  0  0  0  0  0  0  0  0  0  0
    0.7042    1.0856   -1.3955 C   0  0  0  0  0  0  0  0  0  0  0  0
    2.2175    0.7536   -2.2617 S   0  0  0  0  0  0  0  0  0  0  0  0
    1.6314    0.9121   -3.9145 C   0  0  0  0  0  0  0  0  0  0  0  0
    2.6855    0.4577   -5.2375 S   0  0  0  0  0  0  0  0  0  0  0  0
    1.4369    0.9085   -6.3425 C   0  0  0  0  0  0  0  0  0  0  0  0
    0.3364    1.3513   -5.6585 C   0  0  0  0  0  0  0  0  0  0  0  0
   -0.9373    1.8273   -6.2410 C   0  0  0  0  0  0  0  0  0  0  0  0
   -1.9395    2.3194   -5.3938 C   0  0  0  0  0  0  0  0  0  0  0  0
   -3.1456    2.7785   -5.9174 C   0  0  0  0  0  0  0  0  0  0  0  0
   -3.3724    2.7529   -7.2927 C   0  0  0  0  0  0  0  0  0  0  0  0
   -2.3815    2.2623   -8.1435 C   0  0  0  0  0  0  0  0  0  0  0  0
   -1.1754    1.8032   -7.6223 C   0  0  0  0  0  0  0  0  0  0  0  0
    0.4743    1.3439   -4.2894 N   0  0  0  0  0  0  0  0  0  0  0  0
   -0.1817    0.0395   -1.1297 C   0  0  0  0  0  0  0  0  0  0  0  0
   -1.3611    0.2604   -0.4303 C   0  0  0  0  0  0  0  0  0  0  0  0
   -2.1348    1.4966    3.1375 C   0  0  0  0  0  0  0  0  0  0  0  0
   -1.9055    0.1155    2.9417 C   0  0  0  0  0  0  0  0  0  0  0  0
    2.9505   -1.8974    0.0111 N   0  0  0  0  0  0  0  0  0  0  0  0
    2.3898   -2.6249   -0.9776 C   0  0  0  0  0  0  0  0  0  0  0  0
    3.2044   -2.7352   -2.2517 C   0  0  0  0  0  0  0  0  0  0  0  0
    1.3049   -3.1863   -0.8831 O   0  0  0  0  0  0  0  0  0  0  0  0
    1.2497   -1.8596    1.1904 H   0  0  0  0  0  0  0  0  0  0  0  0
    1.6490    0.4967    2.3917 N   0  0  0  0  0  0  0  0  0  0  0  0
    1.6321    1.9093    2.6734 C   0  0  0  0  0  0  0  0  0  0  0  0
    2.8724   -3.3806    2.1847 H   0  0  0  0  0  0  0  0  0  0  0  0
    4.0499   -2.0806    2.4067 H   0  0  0  0  0  0  0  0  0  0  0  0
    1.0897   -6.1482    1.8991 H   0  0  0  0  0  0  0  0  0  0  0  0
    1.5616   -5.2368    0.4537 H   0  0  0  0  0  0  0  0  0  0  0  0
   -0.5140   -7.9245    1.7007 H   0  0  0  0  0  0  0  0  0  0  0  0
   -1.0857   -8.4146    0.0869 H   0  0  0  0  0  0  0  0  0  0  0  0
   -1.7971   -6.9840    0.8876 H   0  0  0  0  0  0  0  0  0  0  0  0
    0.6183   -5.6260   -1.5983 H   0  0  0  0  0  0  0  0  0  0  0  0
   -1.1208   -5.7930   -1.2900 H   0  0  0  0  0  0  0  0  0  0  0  0
   -0.2003   -7.1927   -1.9038 H   0  0  0  0  0  0  0  0  0  0  0  0
    0.0817   -2.1754    4.1069 H   0  0  0  0  0  0  0  0  0  0  0  0
    1.1365    0.6387    6.5563 H   0  0  0  0  0  0  0  0  0  0  0  0
    1.5238   -1.0393    6.9692 H   0  0  0  0  0  0  0  0  0  0  0  0
   -0.7614    0.6080    8.2561 H   0  0  0  0  0  0  0  0  0  0  0  0
    0.7932    0.1896    9.0212 H   0  0  0  0  0  0  0  0  0  0  0  0
   -0.3795   -1.0927    8.6198 H   0  0  0  0  0  0  0  0  0  0  0  0
   -0.8270    1.8101    6.2747 H   0  0  0  0  0  0  0  0  0  0  0  0
   -2.6214    5.2331    3.8539 H   0  0  0  0  0  0  0  0  0  0  0  0
   -3.4082    0.9302    0.8490 H   0  0  0  0  0  0  0  0  0  0  0  0
   -1.0295    3.6104    0.1030 H   0  0  0  0  0  0  0  0  0  0  0  0
    1.5884    0.8275   -7.4159 H   0  0  0  0  0  0  0  0  0  0  0  0
   -1.7540    2.3355   -4.3188 H   0  0  0  0  0  0  0  0  0  0  0  0
   -3.9139    3.1604   -5.2414 H   0  0  0  0  0  0  0  0  0  0  0  0
   -4.3191    3.1133   -7.7018 H   0  0  0  0  0  0  0  0  0  0  0  0
   -2.5496    2.2349   -9.2227 H   0  0  0  0  0  0  0  0  0  0  0  0
   -0.4139    1.4179   -8.3038 H   0  0  0  0  0  0  0  0  0  0  0  0
    0.0739   -0.9761   -1.4414 H   0  0  0  0  0  0  0  0  0  0  0  0
   -2.0058   -0.5904   -0.1972 H   0  0  0  0  0  0  0  0  0  0  0  0
   -2.1905   -0.3800    2.0219 H   0  0  0  0  0  0  0  0  0  0  0  0
    3.7197   -1.2821   -0.2328 H   0  0  0  0  0  0  0  0  0  0  0  0
    4.1588   -2.1929   -2.2119 H   0  0  0  0  0  0  0  0  0  0  0  0
    2.6016   -2.3396   -3.0813 H   0  0  0  0  0  0  0  0  0  0  0  0
    3.3975   -3.7986   -2.4524 H   0  0  0  0  0  0  0  0  0  0  0  0
    1.4923   -0.1684    3.1675 H   0  0  0  0  0  0  0  0  0  0  0  0
    0.6338    2.2101    3.0228 H   0  0  0  0  0  0  0  0  0  0  0  0
    1.8704    2.4610    1.7547 H   0  0  0  0  0  0  0  0  0  0  0  0
    2.3711    2.1837    3.4453 H   0  0  0  0  0  0  0  0  0  0  0  0
   -0.9158   -4.2440    0.4838 H   0  0  0  0  0  0  0  0  0  0  0  0
    0.3892   -4.1587    3.2666 H   0  0  0  0  0  0  0  0  0  0  0  0
  1  2  2  0  0  0  0
  2 55  1  0  0  0  0
  3 54  1  6  0  0  0
  3  2  1  0  0  0  0
  3  4  1  0  0  0  0
  4  5  1  0  0  0  0
  6 11  2  0  0  0  0
  7  6  1  0  0  0  0
  7 59  1  0  0  0  0
  8  9  1  0  0  0  0
  8  7  1  0  0  0  0
  9 63  1  0  0  0  0
  9 61  1  0  0  0  0
 10  8  1  0  0  0  0
 11 12  1  0  0  0  0
 11 95  1  0  0  0  0
 12 14  1  0  0  0  0
 13 12  2  0  0  0  0
 14 15  1  0  0  0  0
 14 67  1  0  0  0  0
 15 16  1  0  0  0  0
 16 20  2  0  0  0  0
 16 17  1  0  0  0  0
 17 18  1  0  0  0  0
 18 69  1  0  0  0  0
 18 19  1  0  0  0  0
 19 72  1  0  0  0  0
 19 71  1  0  0  0  0
 20 73  1  0  0  0  0
 21 22  1  0  0  0  0
 21 20  1  0  0  0  0
 23 74  1  0  0  0  0
 23 22  2  0  0  0  0
 24 23  1  0  0  0  0
 25 24  1  0  0  0  0
 26 25  3  0  0  0  0
 27 24  2  0  0  0  0
 27 48  1  0  0  0  0
 28 75  1  0  0  0  0
 28 27  1  0  0  0  0
 29 28  1  0  0  0  0
 30 29  1  0  0  0  0
 30 76  1  0  0  0  0
 31 30  2  0  0  0  0
 32 31  1  0  0  0  0
 33 46  2  0  0  0  0
 33 31  1  0  0  0  0
 34 33  1  0  0  0  0
 35 34  1  0  0  0  0
 36 35  1  0  0  0  0
 37 38  2  0  0  0  0
 37 36  1  0  0  0  0
 38 45  1  0  0  0  0
 39 38  1  0  0  0  0
 39 40  1  0  0  0  0
 40 78  1  0  0  0  0
 41 40  2  0  0  0  0
 41 79  1  0  0  0  0
 42 41  1  0  0  0  0
 43 44  1  0  0  0  0
 43 42  2  0  0  0  0
 44 39  2  0  0  0  0
 45 35  2  0  0  0  0
 46 47  1  0  0  0  0
 47 84  1  0  0  0  0
 47 29  2  0  0  0  0
 48 21  2  0  0  0  0
 49 48  1  0  0  0  0
 49 15  2  0  0  0  0
 50  3  1  0  0  0  0
 51 53  2  0  0  0  0
 51 50  1  0  0  0  0
 52 87  1  0  0  0  0
 52 51  1  0  0  0  0
 55 56  1  0  0  0  0
 55 90  1  0  0  0  0
 56 91  1  0  0  0  0
 56 93  1  0  0  0  0
 57  4  1  0  0  0  0
 58  4  1  0  0  0  0
 60  7  1  0  0  0  0
 62  9  1  0  0  0  0
 64 10  1  0  0  0  0
 65 10  1  0  0  0  0
 66 10  1  0  0  0  0
 68 18  1  0  0  0  0
 70 19  1  0  0  0  0
 77 37  1  0  0  0  0
 80 42  1  0  0  0  0
 81 43  1  0  0  0  0
 82 44  1  0  0  0  0
 83 46  1  0  0  0  0
 85 49  1  0  0  0  0
 86 50  1  0  0  0  0
 88 52  1  0  0  0  0
 89 52  1  0  0  0  0
 92 56  1  0  0  0  0
 94  6  1  0  0  0  0
M  END
