95
-1 1
O         8.527745    7.397331  -11.367903
C         7.614723    6.697866  -10.940366
C         7.580668    5.202807  -11.241334
C         8.481408    4.423517  -10.253240
S         8.017893    4.492646   -8.498629
C         5.997847    2.837839   -8.795084
C         6.642642    1.513221   -8.464710
N         6.301433    0.453496   -9.403749
C         4.891573    0.154665   -9.480568
C         6.924053    0.595906  -10.703453
C         4.967679    3.392163   -8.079948
C         4.436693    4.633302   -8.570057
O         4.534010    5.033462   -9.730907
N         3.863681    5.470441   -7.595097
C         3.568165    6.805216   -7.790556
C         3.770294    7.706214   -6.688794
O         4.319276    7.202691   -5.552437
C         5.747937    7.027699   -5.603363
C         6.496906    8.336212   -5.461474
C         3.430230    9.033090   -6.788830
C         2.961408    9.571655   -8.015702
N         2.698104   10.903253   -8.102039
C         2.374488   11.400231   -9.264251
C         2.298350   10.629256  -10.462492
C         1.971990   11.260387  -11.709574
N         1.710857   11.793993  -12.702969
C         2.555633    9.268438  -10.400506
N         2.586016    8.470932  -11.563374
C         3.810925    8.293400  -12.233756
C         4.756211    9.321241  -12.301869
C         5.942052    9.129244  -12.997154
Cl         7.069354   10.450231  -13.043318
C         6.206806    7.925805  -13.659575
S         7.623003    7.720122  -14.706097
C         7.025612    8.649112  -16.084087
S         7.930130    8.757557  -17.574891
C         6.705383    9.808842  -18.201241
C         5.722513    9.998827  -17.266430
C         4.517964   10.850670  -17.375281
C         3.747258   11.088190  -16.227861
C         2.618422   11.901746  -16.284469
C         2.240024   12.485444  -17.493465
C         2.995832   12.249772  -18.642900
C         4.126152   11.438467  -18.585300
N         5.930032    9.327442  -16.086750
C         5.274971    6.892418  -13.548132
C         4.097039    7.063054  -12.836311
C         2.861070    8.698072   -9.134739
C         3.137208    7.320031   -8.995490
N         8.068534    5.026762  -12.594499
C         7.597713    4.096669  -13.454025
C         8.274866    4.065853  -14.812999
O         6.669167    3.345997  -13.193949
H         6.549703    4.824153  -11.191731
N         6.595902    7.153601  -10.189359
C         6.627103    8.448516   -9.564176
H         8.476013    3.374341  -10.599295
H         9.510642    4.796794  -10.386420
H         6.349303    1.198440   -7.447804
H         7.734231    1.639197   -8.463513
H         4.484801    0.009907   -8.466733
H         4.739885   -0.782005  -10.043134
H         4.283382    0.945484   -9.969760
H         8.011625    0.718476  -10.580115
H         6.558596    1.452872  -11.307412
H         6.755500   -0.319951  -11.293954
H         4.015263    5.206522   -6.629449
H         6.040067    6.515854   -6.537742
H         5.978011    6.350886   -4.769037
H         6.273272    9.015721   -6.297049
H         7.578622    8.138018   -5.474880
H         6.238471    8.841236   -4.518559
H         3.574286    9.699369   -5.938350
H         2.163146   12.474095   -9.316596
H         2.099400    7.589895  -11.441159
H         4.583627   10.281221  -11.818485
H         6.794362   10.234275  -19.197969
H         4.048284   10.627114  -15.285733
H         2.043773   12.074624  -15.371057
H         1.354408   13.123517  -17.541285
H         2.701229   12.699334  -19.594325
H         4.701949   11.255800  -19.495819
H         5.480062    5.929785  -14.019596
H         3.401634    6.227204  -12.738290
H         3.076041    6.644781   -9.843030
H         8.837050    5.636805  -12.852772
H         9.252607    4.567140  -14.821195
H         7.623774    4.570061  -15.542697
H         8.388619    3.019099  -15.123268
H         5.921586    6.459926   -9.864996
H         5.601845    8.804394   -9.388732
H         7.145824    9.159793  -10.220824
H         7.162689    8.417669   -8.598803
H         6.098657    3.162280   -9.832284
H         4.778263    3.092416   -7.044042
