-1 1
 OpenBabel05232413483D

 97100  0  0  1  0  0  0  0  0999 V2000
   -0.0729    4.1987   -9.4508 O   0  0  0  0  0  0  0  0  0  0  0  0
    0.5154    3.2897   -8.8942 C   0  0  0  0  0  0  0  0  0  0  0  0
    0.5837    3.1949   -7.3682 C   0  0  2  0  0  0  0  0  0  0  0  0
    1.5484    4.2819   -6.8501 C   0  0  0  0  0  0  0  0  0  0  0  0
    1.7905    4.3010   -5.0435 S   0  0  0  0  0  1  0  0  0  0  0  0
    2.6137    0.8130   -3.5034 C   0  0  0  0  0  0  0  0  0  0  0  0
    3.7656    1.5604   -4.0876 C   0  0  0  0  0  0  0  0  0  0  0  0
    3.8815    1.3000   -5.5103 N   0  0  0  0  0  0  0  0  0  0  0  0
    4.3952   -0.0148   -5.8320 C   0  0  0  0  0  0  0  0  0  0  0  0
    4.3783   -0.2167   -7.3409 C   0  0  0  0  0  0  0  0  0  0  0  0
    5.1136    0.7759   -8.0022 O   0  0  0  0  0  0  0  0  0  0  0  0
    4.6156    2.0639   -7.7034 C   0  0  0  0  0  0  0  0  0  0  0  0
    4.6220    2.3391   -6.2103 C   0  0  0  0  0  0  0  0  0  0  0  0
    2.6941   -0.1144   -2.5425 C   0  0  0  0  0  0  0  0  0  0  0  0
    1.4861   -0.8166   -2.0457 C   0  0  0  0  0  0  0  0  0  0  0  0
    0.4026   -0.7986   -2.5913 O   0  0  0  0  0  0  0  0  0  0  0  0
    1.6960   -1.5251   -0.8697 N   0  0  0  0  0  0  0  0  0  0  0  0
    0.6954   -2.2982   -0.2616 C   0  0  0  0  0  0  0  0  0  0  0  0
    0.0710   -3.3426   -1.0205 C   0  0  0  0  0  0  0  0  0  0  0  0
    0.5863   -3.5665   -2.2279 O   0  0  0  0  0  0  0  0  0  0  0  0
   -0.2275   -4.1173   -3.2474 C   0  0  0  0  0  0  0  0  0  0  0  0
    0.4834   -3.9073   -4.5644 C   0  0  0  0  0  0  0  0  0  0  0  0
   -0.9861   -4.0394   -0.4744 C   0  0  0  0  0  0  0  0  0  0  0  0
   -1.4095   -3.8073    0.8563 C   0  0  0  0  0  0  0  0  0  0  0  0
   -2.4616   -4.5400    1.3230 N   0  0  0  0  0  0  0  0  0  0  0  0
   -2.8427   -4.3310    2.5489 C   0  0  0  0  0  0  0  0  0  0  0  0
   -2.2376   -3.4073    3.4494 C   0  0  0  0  0  0  0  0  0  0  0  0
   -2.7242   -3.3931    4.7956 C   0  0  0  0  0  0  0  0  0  0  0  0
   -3.1573   -3.4439    5.8698 N   0  0  0  0  0  0  0  0  0  0  0  0
   -1.1555   -2.6354    3.0009 C   0  0  0  0  0  0  0  0  0  0  0  0
   -0.4839   -1.7412    3.7869 N   0  0  0  0  0  0  0  0  0  0  0  0
   -0.9964   -1.0678    4.9225 C   0  0  0  0  0  0  0  0  0  0  0  0
   -0.3002   -1.1196    6.1323 C   0  0  0  0  0  0  0  0  0  0  0  0
   -0.7941   -0.4579    7.2452 C   0  0  0  0  0  0  0  0  0  0  0  0
    0.0771   -0.5293    8.7500 Cl  0  0  0  0  0  0  0  0  0  0  0  0
   -2.0058    0.2546    7.1897 C   0  0  0  0  0  0  0  0  0  0  0  0
   -2.4156    0.8495    8.3204 O   0  0  0  0  0  0  0  0  0  0  0  0
   -3.6562    1.5070    8.3513 C   0  0  0  0  0  0  0  0  0  0  0  0
   -3.9263    2.0151    9.7456 C   0  0  0  0  0  0  0  0  0  0  0  0
   -4.9370    2.9619    9.9416 C   0  0  0  0  0  0  0  0  0  0  0  0
   -5.2362    3.4234   11.2209 C   0  0  0  0  0  0  0  0  0  0  0  0
   -4.5214    2.9464   12.3198 C   0  0  0  0  0  0  0  0  0  0  0  0
   -3.5100    2.0074   12.1280 C   0  0  0  0  0  0  0  0  0  0  0  0
   -3.2127    1.5402   10.8477 C   0  0  0  0  0  0  0  0  0  0  0  0
   -2.6905    0.3015    5.9718 C   0  0  0  0  0  0  0  0  0  0  0  0
   -2.1825   -0.3410    4.8471 C   0  0  0  0  0  0  0  0  0  0  0  0
   -0.7331   -2.8366    1.6433 C   0  0  0  0  0  0  0  0  0  0  0  0
    0.2940   -2.0703    1.0316 C   0  0  0  0  0  0  0  0  0  0  0  0
    0.9886    1.8830   -6.9025 N   0  0  0  0  0  0  0  0  0  0  0  0
    0.1165    0.8384   -6.9147 C   0  0  0  0  0  0  0  0  0  0  0  0
    0.5475   -0.3802   -6.1207 C   0  0  0  0  0  0  0  0  0  0  0  0
   -0.9365    0.8622   -7.5284 O   0  0  0  0  0  0  0  0  0  0  0  0
   -0.4327    3.4194   -7.0080 H   0  0  0  0  0  0  0  0  0  0  0  0
    1.2307    2.3453   -9.5714 N   0  0  0  0  0  0  0  0  0  0  0  0
    1.2418    2.2668  -11.0047 C   0  0  0  0  0  0  0  0  0  0  0  0
    2.5145    4.1501   -7.3754 H   0  0  0  0  0  0  0  0  0  0  0  0
    1.1402    5.2399   -7.2031 H   0  0  0  0  0  0  0  0  0  0  0  0
    4.7111    1.3338   -3.5444 H   0  0  0  0  0  0  0  0  0  0  0  0
    3.5237    2.6354   -3.9913 H   0  0  0  0  0  0  0  0  0  0  0  0
    3.7772   -0.7872   -5.3452 H   0  0  0  0  0  0  0  0  0  0  0  0
    5.4394   -0.1446   -5.4612 H   0  0  0  0  0  0  0  0  0  0  0  0
    3.3244   -0.2143   -7.6883 H   0  0  0  0  0  0  0  0  0  0  0  0
    4.8261   -1.1867   -7.6045 H   0  0  0  0  0  0  0  0  0  0  0  0
    3.5860    2.1735   -8.0921 H   0  0  0  0  0  0  0  0  0  0  0  0
    5.2560    2.7860   -8.2290 H   0  0  0  0  0  0  0  0  0  0  0  0
    4.1365    3.3060   -5.9927 H   0  0  0  0  0  0  0  0  0  0  0  0
    5.6769    2.3806   -5.8529 H   0  0  0  0  0  0  0  0  0  0  0  0
    2.5392   -1.3359   -0.3452 H   0  0  0  0  0  0  0  0  0  0  0  0
   -1.2047   -3.6052   -3.2411 H   0  0  0  0  0  0  0  0  0  0  0  0
   -0.4010   -5.1916   -3.0524 H   0  0  0  0  0  0  0  0  0  0  0  0
    0.6412   -2.8339   -4.7337 H   0  0  0  0  0  0  0  0  0  0  0  0
   -0.1201   -4.3102   -5.3903 H   0  0  0  0  0  0  0  0  0  0  0  0
    1.4597   -4.4134   -4.5641 H   0  0  0  0  0  0  0  0  0  0  0  0
   -1.5118   -4.8144   -1.0307 H   0  0  0  0  0  0  0  0  0  0  0  0
   -3.6859   -4.9243    2.9223 H   0  0  0  0  0  0  0  0  0  0  0  0
    0.4177   -1.4322    3.4512 H   0  0  0  0  0  0  0  0  0  0  0  0
    0.6201   -1.6991    6.2118 H   0  0  0  0  0  0  0  0  0  0  0  0
   -4.4586    0.8080    8.0473 H   0  0  0  0  0  0  0  0  0  0  0  0
   -3.6631    2.3513    7.6377 H   0  0  0  0  0  0  0  0  0  0  0  0
   -5.4956    3.3458    9.0830 H   0  0  0  0  0  0  0  0  0  0  0  0
   -6.0272    4.1637   11.3596 H   0  0  0  0  0  0  0  0  0  0  0  0
   -4.7512    3.3102   13.3237 H   0  0  0  0  0  0  0  0  0  0  0  0
   -2.9431    1.6321   12.9829 H   0  0  0  0  0  0  0  0  0  0  0  0
   -2.4180    0.8087   10.6951 H   0  0  0  0  0  0  0  0  0  0  0  0
   -3.6280    0.8496    5.8876 H   0  0  0  0  0  0  0  0  0  0  0  0
   -2.7259   -0.2918    3.9017 H   0  0  0  0  0  0  0  0  0  0  0  0
    0.7550   -1.2286    1.5530 H   0  0  0  0  0  0  0  0  0  0  0  0
    1.7576    1.8763   -6.2263 H   0  0  0  0  0  0  0  0  0  0  0  0
    0.1225   -0.3315   -5.1052 H   0  0  0  0  0  0  0  0  0  0  0  0
    1.6386   -0.4490   -6.0192 H   0  0  0  0  0  0  0  0  0  0  0  0
    0.1537   -1.2768   -6.6168 H   0  0  0  0  0  0  0  0  0  0  0  0
    1.5785    1.5721   -9.0198 H   0  0  0  0  0  0  0  0  0  0  0  0
    0.6308    1.4276  -11.3805 H   0  0  0  0  0  0  0  0  0  0  0  0
    2.2674    2.1536  -11.3916 H   0  0  0  0  0  0  0  0  0  0  0  0
    0.8150    3.2024  -11.3901 H   0  0  0  0  0  0  0  0  0  0  0  0
    1.6317    1.0771   -3.9107 H   0  0  0  0  0  0  0  0  0  0  0  0
    3.6649   -0.3780   -2.1063 H   0  0  0  0  0  0  0  0  0  0  0  0
  1  2  2  0  0  0  0
  2  3  1  0  0  0  0
  3 53  1  1  0  0  0
  3 49  1  0  0  0  0
  3  4  1  0  0  0  0
  4  5  1  0  0  0  0
  6 14  2  0  0  0  0
  7 59  1  0  0  0  0
  7 58  1  0  0  0  0
  7  6  1  0  0  0  0
  8  7  1  0  0  0  0
  9  8  1  0  0  0  0
  9 61  1  0  0  0  0
  9 60  1  0  0  0  0
 10  9  1  0  0  0  0
 11 12  1  0  0  0  0
 11 10  1  0  0  0  0
 12 13  1  0  0  0  0
 13 66  1  0  0  0  0
 13 67  1  0  0  0  0
 13  8  1  0  0  0  0
 14 97  1  0  0  0  0
 14 15  1  0  0  0  0
 15 17  1  0  0  0  0
 16 15  2  0  0  0  0
 17 68  1  0  0  0  0
 17 18  1  0  0  0  0
 18 48  1  0  0  0  0
 19 23  1  0  0  0  0
 19 18  2  0  0  0  0
 20 19  1  0  0  0  0
 21 69  1  0  0  0  0
 21 70  1  0  0  0  0
 21 20  1  0  0  0  0
 22 73  1  0  0  0  0
 22 21  1  0  0  0  0
 23 24  2  0  0  0  0
 24 25  1  0  0  0  0
 24 47  1  0  0  0  0
 25 26  2  0  0  0  0
 26 75  1  0  0  0  0
 26 27  1  0  0  0  0
 27 28  1  0  0  0  0
 28 29  3  0  0  0  0
 30 27  2  0  0  0  0
 30 31  1  0  0  0  0
 31 32  1  0  0  0  0
 32 33  1  0  0  0  0
 33 77  1  0  0  0  0
 33 34  2  0  0  0  0
 34 35  1  0  0  0  0
 36 34  1  0  0  0  0
 36 37  1  0  0  0  0
 37 38  1  0  0  0  0
 38 39  1  0  0  0  0
 39 40  2  0  0  0  0
 39 44  1  0  0  0  0
 40 41  1  0  0  0  0
 41 81  1  0  0  0  0
 41 42  2  0  0  0  0
 42 82  1  0  0  0  0
 43 42  1  0  0  0  0
 43 83  1  0  0  0  0
 44 43  2  0  0  0  0
 45 36  2  0  0  0  0
 46 32  2  0  0  0  0
 46 45  1  0  0  0  0
 47 30  1  0  0  0  0
 48 87  1  0  0  0  0
 48 47  2  0  0  0  0
 49 88  1  0  0  0  0
 50 49  1  0  0  0  0
 50 51  1  0  0  0  0
 51 90  1  0  0  0  0
 51 89  1  0  0  0  0
 52 50  2  0  0  0  0
 54 92  1  0  0  0  0
 54  2  1  0  0  0  0
 55 54  1  0  0  0  0
 56  4  1  0  0  0  0
 57  4  1  0  0  0  0
 62 10  1  0  0  0  0
 63 10  1  0  0  0  0
 64 12  1  0  0  0  0
 65 12  1  0  0  0  0
 71 22  1  0  0  0  0
 72 22  1  0  0  0  0
 74 23  1  0  0  0  0
 76 31  1  0  0  0  0
 78 38  1  0  0  0  0
 79 38  1  0  0  0  0
 80 40  1  0  0  0  0
 84 44  1  0  0  0  0
 85 45  1  0  0  0  0
 86 46  1  0  0  0  0
 91 51  1  0  0  0  0
 93 55  1  0  0  0  0
 94 55  1  0  0  0  0
 95 55  1  0  0  0  0
 96  6  1  0  0  0  0
M  END
