-1 1
 OpenBabel05232414493D

 97100  0  0  1  0  0  0  0  0999 V2000
    2.2546   -1.6117    3.9767 O   0  0  0  0  0  0  0  0  0  0  0  0
    2.0665   -2.8155    3.9698 C   0  0  0  0  0  0  0  0  0  0  0  0
    1.8824   -3.6187    5.2635 C   0  0  2  0  0  0  0  0  0  0  0  0
    2.9658   -3.2315    6.2859 C   0  0  0  0  0  0  0  0  0  0  0  0
    2.8535   -4.0817    7.8889 S   0  0  0  0  0  1  0  0  0  0  0  0
    3.9086   -6.4098    7.5089 C   0  0  0  0  0  3  0  0  0  0  0  0
    5.0662   -5.9363    6.6677 C   0  0  0  0  0  0  0  0  0  0  0  0
    4.7710   -6.0921    5.2488 N   0  0  0  0  0  0  0  0  0  0  0  0
    4.7408   -7.4803    4.8216 C   0  0  0  0  0  0  0  0  0  0  0  0
    4.3182   -7.5638    3.3628 C   0  0  0  0  0  0  0  0  0  0  0  0
    5.1633   -6.8060    2.5361 O   0  0  0  0  0  0  0  0  0  0  0  0
    5.1990   -5.4578    2.9389 C   0  0  0  0  0  0  0  0  0  0  0  0
    5.6437   -5.3173    4.3863 C   0  0  0  0  0  0  0  0  0  0  0  0
    4.0543   -7.0864    8.6928 C   0  0  0  0  0  3  0  0  0  0  0  0
    2.9330   -7.8225    9.2216 C   0  0  0  0  0  0  0  0  0  0  0  0
    1.8604   -8.0066    8.6563 O   0  0  0  0  0  0  0  0  0  0  0  0
    3.1485   -8.3873   10.4990 N   0  0  0  0  0  0  0  0  0  0  0  0
    2.2204   -9.2249   11.1037 C   0  0  0  0  0  0  0  0  0  0  0  0
    1.7416  -10.3712   10.3796 C   0  0  0  0  0  0  0  0  0  0  0  0
    2.3389  -10.6352    9.2116 O   0  0  0  0  0  0  0  0  0  0  0  0
    1.5349  -10.9619    8.0902 C   0  0  0  0  0  0  0  0  0  0  0  0
    2.3380  -10.6722    6.8415 C   0  0  0  0  0  0  0  0  0  0  0  0
    0.7353  -11.1451   10.9115 C   0  0  0  0  0  0  0  0  0  0  0  0
    0.2287  -10.9074   12.2123 C   0  0  0  0  0  0  0  0  0  0  0  0
   -0.7658  -11.7211   12.6709 N   0  0  0  0  0  0  0  0  0  0  0  0
   -1.2129  -11.5086   13.8739 C   0  0  0  0  0  0  0  0  0  0  0  0
   -0.7283  -10.5002   14.7568 C   0  0  0  0  0  0  0  0  0  0  0  0
   -1.2501  -10.4854   16.0890 C   0  0  0  0  0  0  0  0  0  0  0  0
   -1.7010  -10.5317   17.1563 N   0  0  0  0  0  0  0  0  0  0  0  0
    0.2890   -9.6437   14.3127 C   0  0  0  0  0  0  0  0  0  0  0  0
    0.8504   -8.6651   15.0918 N   0  0  0  0  0  0  0  0  0  0  0  0
    0.2186   -7.9383   16.1249 C   0  0  0  0  0  0  0  0  0  0  0  0
    0.8962   -7.7201   17.3276 C   0  0  0  0  0  0  0  0  0  0  0  0
    0.2972   -6.9867   18.3400 C   0  0  0  0  0  0  0  0  0  0  0  0
    1.1534   -6.7176   19.8329 Cl  0  0  0  0  0  0  0  0  0  0  0  0
   -1.0026   -6.4719   18.1958 C   0  0  0  0  0  0  0  0  0  0  0  0
   -1.5094   -5.7879   19.2360 O   0  0  0  0  0  0  0  0  0  0  0  0
   -2.8196   -5.2932   19.1689 C   0  0  0  0  0  0  0  0  0  0  0  0
   -3.1733   -4.6107   20.4671 C   0  0  0  0  0  0  0  0  0  0  0  0
   -4.3815   -3.9108   20.5577 C   0  0  0  0  0  0  0  0  0  0  0  0
   -4.7496   -3.2848   21.7453 C   0  0  0  0  0  0  0  0  0  0  0  0
   -3.9097   -3.3490   22.8578 C   0  0  0  0  0  0  0  0  0  0  0  0
   -2.7047   -4.0424   22.7704 C   0  0  0  0  0  0  0  0  0  0  0  0
   -2.3355   -4.6727   21.5816 C   0  0  0  0  0  0  0  0  0  0  0  0
   -1.6709   -6.6990   16.9895 C   0  0  0  0  0  0  0  0  0  0  0  0
   -1.0608   -7.4099   15.9608 C   0  0  0  0  0  0  0  0  0  0  0  0
    0.7791   -9.8458   12.9804 C   0  0  0  0  0  0  0  0  0  0  0  0
    1.7462   -8.9992   12.3772 C   0  0  0  0  0  0  0  0  0  0  0  0
    1.8405   -5.0499    5.0383 N   0  0  0  0  0  0  0  0  0  0  0  0
    0.6853   -5.7611    5.2365 C   0  0  0  0  0  0  0  0  0  0  0  0
    0.8725   -7.2473    5.4576 C   0  0  0  0  0  0  0  0  0  0  0  0
   -0.4140   -5.2418    5.2366 O   0  0  0  0  0  0  0  0  0  0  0  0
    0.8965   -3.3282    5.6607 H   0  0  0  0  0  0  0  0  0  0  0  0
    2.0071   -3.5487    2.8222 N   0  0  0  0  0  0  0  0  0  0  0  0
    2.0873   -2.9591    1.5152 C   0  0  0  0  0  0  0  0  0  0  0  0
    3.9555   -3.4109    5.8229 H   0  0  0  0  0  0  0  0  0  0  0  0
    2.8996   -2.1437    6.4259 H   0  0  0  0  0  0  0  0  0  0  0  0
    5.9882   -6.4964    6.9422 H   0  0  0  0  0  0  0  0  0  0  0  0
    5.2618   -4.8737    6.8669 H   0  0  0  0  0  0  0  0  0  0  0  0
    4.0359   -8.0440    5.4527 H   0  0  0  0  0  0  0  0  0  0  0  0
    5.7402   -7.9572    4.9411 H   0  0  0  0  0  0  0  0  0  0  0  0
    3.2715   -7.2085    3.2671 H   0  0  0  0  0  0  0  0  0  0  0  0
    4.3617   -8.6037    3.0079 H   0  0  0  0  0  0  0  0  0  0  0  0
    4.2005   -4.9914    2.8276 H   0  0  0  0  0  0  0  0  0  0  0  0
    5.8996   -4.9391    2.2690 H   0  0  0  0  0  0  0  0  0  0  0  0
    5.5961   -4.2573    4.6808 H   0  0  0  0  0  0  0  0  0  0  0  0
    6.7031   -5.6480    4.4803 H   0  0  0  0  0  0  0  0  0  0  0  0
    3.7998   -7.9008   11.1001 H   0  0  0  0  0  0  0  0  0  0  0  0
    0.6246  -10.3417    8.1145 H   0  0  0  0  0  0  0  0  0  0  0  0
    1.2391  -12.0269    8.1344 H   0  0  0  0  0  0  0  0  0  0  0  0
    2.5851   -9.6016    6.8147 H   0  0  0  0  0  0  0  0  0  0  0  0
    1.7522  -10.9283    5.9462 H   0  0  0  0  0  0  0  0  0  0  0  0
    3.2697  -11.2571    6.8314 H   0  0  0  0  0  0  0  0  0  0  0  0
    0.3290  -11.9960   10.3647 H   0  0  0  0  0  0  0  0  0  0  0  0
   -2.0097  -12.1665   14.2410 H   0  0  0  0  0  0  0  0  0  0  0  0
    1.7471   -8.3139   14.7848 H   0  0  0  0  0  0  0  0  0  0  0  0
    1.8904   -8.1408   17.4813 H   0  0  0  0  0  0  0  0  0  0  0  0
   -3.5285   -6.1215   18.9791 H   0  0  0  0  0  0  0  0  0  0  0  0
   -2.9183   -4.5756   18.3330 H   0  0  0  0  0  0  0  0  0  0  0  0
   -5.0420   -3.8533   19.6874 H   0  0  0  0  0  0  0  0  0  0  0  0
   -5.6953   -2.7411   21.8019 H   0  0  0  0  0  0  0  0  0  0  0  0
   -4.1950   -2.8564   23.7900 H   0  0  0  0  0  0  0  0  0  0  0  0
   -2.0404   -4.0953   23.6360 H   0  0  0  0  0  0  0  0  0  0  0  0
   -1.3914   -5.2140   21.5093 H   0  0  0  0  0  0  0  0  0  0  0  0
   -2.6770   -6.3109   16.8354 H   0  0  0  0  0  0  0  0  0  0  0  0
   -1.5935   -7.5670   15.0212 H   0  0  0  0  0  0  0  0  0  0  0  0
    2.0831   -8.0901   12.8806 H   0  0  0  0  0  0  0  0  0  0  0  0
    2.7403   -5.5223    5.1622 H   0  0  0  0  0  0  0  0  0  0  0  0
    1.0410   -7.4251    6.5344 H   0  0  0  0  0  0  0  0  0  0  0  0
    1.7368   -7.6495    4.9089 H   0  0  0  0  0  0  0  0  0  0  0  0
   -0.0404   -7.7735    5.1523 H   0  0  0  0  0  0  0  0  0  0  0  0
    1.7878   -4.5303    2.9390 H   0  0  0  0  0  0  0  0  0  0  0  0
    1.1334   -3.0382    0.9668 H   0  0  0  0  0  0  0  0  0  0  0  0
    2.8781   -3.4295    0.9077 H   0  0  0  0  0  0  0  0  0  0  0  0
    2.3259   -1.8953    1.6479 H   0  0  0  0  0  0  0  0  0  0  0  0
    2.9798   -6.5982    6.9760 H   0  0  0  0  0  0  0  0  0  0  0  0
    4.9888   -7.0487    9.2599 H   0  0  0  0  0  0  0  0  0  0  0  0
  2  1  2  0  0  0  0
  2  3  1  0  0  0  0
  3 53  1  1  0  0  0
  3  4  1  0  0  0  0
  4 57  1  0  0  0  0
  4  5  1  0  0  0  0
  6 14  1  0  0  0  0
  7 59  1  0  0  0  0
  7 58  1  0  0  0  0
  7  6  1  0  0  0  0
  8  7  1  0  0  0  0
  9 61  1  0  0  0  0
  9  8  1  0  0  0  0
  9 60  1  0  0  0  0
 10  9  1  0  0  0  0
 11 12  1  0  0  0  0
 11 10  1  0  0  0  0
 12 13  1  0  0  0  0
 13 67  1  0  0  0  0
 13 66  1  0  0  0  0
 13  8  1  0  0  0  0
 14 15  1  0  0  0  0
 14 97  1  0  0  0  0
 15 17  1  0  0  0  0
 16 15  2  0  0  0  0
 17 68  1  0  0  0  0
 17 18  1  0  0  0  0
 18 48  1  0  0  0  0
 19 23  1  0  0  0  0
 19 18  2  0  0  0  0
 20 19  1  0  0  0  0
 21 69  1  0  0  0  0
 21 70  1  0  0  0  0
 21 20  1  0  0  0  0
 22 21  1  0  0  0  0
 23 24  2  0  0  0  0
 24 25  1  0  0  0  0
 24 47  1  0  0  0  0
 25 26  2  0  0  0  0
 26 75  1  0  0  0  0
 26 27  1  0  0  0  0
 27 28  1  0  0  0  0
 28 29  3  0  0  0  0
 30 27  2  0  0  0  0
 30 31  1  0  0  0  0
 31 32  1  0  0  0  0
 32 33  1  0  0  0  0
 33 77  1  0  0  0  0
 33 34  2  0  0  0  0
 34 35  1  0  0  0  0
 36 34  1  0  0  0  0
 36 37  1  0  0  0  0
 38 37  1  0  0  0  0
 38 39  1  0  0  0  0
 39 40  2  0  0  0  0
 39 44  1  0  0  0  0
 40 41  1  0  0  0  0
 41 81  1  0  0  0  0
 41 42  2  0  0  0  0
 42 82  1  0  0  0  0
 43 42  1  0  0  0  0
 43 83  1  0  0  0  0
 44 43  2  0  0  0  0
 45 36  2  0  0  0  0
 46 32  2  0  0  0  0
 46 45  1  0  0  0  0
 47 30  1  0  0  0  0
 48 87  1  0  0  0  0
 48 47  2  0  0  0  0
 49 88  1  0  0  0  0
 49 50  1  0  0  0  0
 49  3  1  0  0  0  0
 50 52  2  0  0  0  0
 50 51  1  0  0  0  0
 51 89  1  0  0  0  0
 54 92  1  0  0  0  0
 54  2  1  0  0  0  0
 55 95  1  0  0  0  0
 55 54  1  0  0  0  0
 56  4  1  0  0  0  0
 62 10  1  0  0  0  0
 63 10  1  0  0  0  0
 64 12  1  0  0  0  0
 65 12  1  0  0  0  0
 71 22  1  0  0  0  0
 72 22  1  0  0  0  0
 73 22  1  0  0  0  0
 74 23  1  0  0  0  0
 76 31  1  0  0  0  0
 78 38  1  0  0  0  0
 79 38  1  0  0  0  0
 80 40  1  0  0  0  0
 84 44  1  0  0  0  0
 85 45  1  0  0  0  0
 86 46  1  0  0  0  0
 90 51  1  0  0  0  0
 91 51  1  0  0  0  0
 93 55  1  0  0  0  0
 94 55  1  0  0  0  0
 96  6  1  0  0  0  0
M  END
