97
-1 1
O         2.254569   -1.611715    3.976696
C         2.066453   -2.815540    3.969778
C         1.882370   -3.618715    5.263473
C         2.965793   -3.231545    6.285903
S         2.853521   -4.081722    7.888949
C         3.908641   -6.409822    7.508866
C         5.066157   -5.936327    6.667667
N         4.771048   -6.092061    5.248848
C         4.740760   -7.480341    4.821636
C         4.318162   -7.563840    3.362803
O         5.163341   -6.806044    2.536111
C         5.198993   -5.457846    2.938948
C         5.643678   -5.317339    4.386344
C         4.054251   -7.086403    8.692835
C         2.933031   -7.822465    9.221634
O         1.860443   -8.006566    8.656346
N         3.148451   -8.387257   10.499001
C         2.220380   -9.224892   11.103724
C         1.741648  -10.371179   10.379604
O         2.338882  -10.635248    9.211587
C         1.534926  -10.961897    8.090236
C         2.338048  -10.672210    6.841541
C         0.735323  -11.145112   10.911479
C         0.228713  -10.907438   12.212265
N        -0.765842  -11.721058   12.670934
C        -1.212873  -11.508580   13.873890
C        -0.728280  -10.500160   14.756763
C        -1.250135  -10.485422   16.089039
N        -1.700952  -10.531722   17.156290
C         0.288983   -9.643730   14.312672
N         0.850352   -8.665060   15.091848
C         0.218590   -7.938331   16.124945
C         0.896159   -7.720080   17.327635
C         0.297247   -6.986716   18.340031
Cl         1.153434   -6.717610   19.832879
C        -1.002595   -6.471870   18.195751
O        -1.509364   -5.787868   19.236022
C        -2.819602   -5.293235   19.168859
C        -3.173342   -4.610667   20.467050
C        -4.381485   -3.910815   20.557667
C        -4.749588   -3.284829   21.745292
C        -3.909674   -3.348981   22.857769
C        -2.704695   -4.042353   22.770442
C        -2.335464   -4.672722   21.581550
C        -1.670927   -6.698982   16.989461
C        -1.060787   -7.409946   15.960827
C         0.779055   -9.845773   12.980360
C         1.746240   -8.999163   12.377158
N         1.840490   -5.049920    5.038272
C         0.685268   -5.761060    5.236518
C         0.872543   -7.247290    5.457585
O        -0.414038   -5.241815    5.236648
H         0.896528   -3.328232    5.660684
N         2.007123   -3.548726    2.822179
C         2.087272   -2.959115    1.515246
H         3.955485   -3.410900    5.822933
H         2.899618   -2.143716    6.425868
H         5.988191   -6.496429    6.942159
H         5.261787   -4.873687    6.866871
H         4.035899   -8.043952    5.452736
H         5.740224   -7.957180    4.941117
H         3.271481   -7.208544    3.267078
H         4.361742   -8.603709    3.007886
H         4.200509   -4.991424    2.827607
H         5.899606   -4.939136    2.269042
H         5.596146   -4.257268    4.680752
H         6.703053   -5.648015    4.480263
H         3.799773   -7.900813   11.100134
H         0.624567  -10.341732    8.114523
H         1.239071  -12.026884    8.134385
H         2.585082   -9.601633    6.814690
H         1.752171  -10.928275    5.946216
H         3.269674  -11.257074    6.831440
H         0.328963  -11.995966   10.364705
H        -2.009668  -12.166480   14.241020
H         1.747132   -8.313915   14.784811
H         1.890450   -8.140761   17.481303
H        -3.528529   -6.121491   18.979094
H        -2.918265   -4.575634   18.332985
H        -5.041980   -3.853281   19.687384
H        -5.695264   -2.741062   21.801908
H        -4.195022   -2.856355   23.789953
H        -2.040396   -4.095302   23.635989
H        -1.391374   -5.214015   21.509250
H        -2.677030   -6.310905   16.835360
H        -1.593531   -7.567029   15.021214
H         2.083064   -8.090087   12.880584
H         2.740298   -5.522295    5.162165
H         1.040959   -7.425108    6.534373
H         1.736767   -7.649491    4.908911
H        -0.040391   -7.773456    5.152261
H         1.787845   -4.530262    2.938960
H         1.133439   -3.038188    0.966777
H         2.878115   -3.429522    0.907691
H         2.325924   -1.895272    1.647895
H         2.979802   -6.598166    6.975981
H         4.988828   -7.048706    9.259918
