-1 1
 OpenBabel05232413483D

 97100  0  0  1  0  0  0  0  0999 V2000
   -1.6113   -4.8385    2.0709 O   0  0  0  0  0  0  0  0  0  0  0  0
   -0.6419   -4.5824    2.7782 C   0  0  0  0  0  0  0  0  0  0  0  0
   -0.4658   -3.1852    3.4016 C   0  0  2  0  0  0  0  0  0  0  0  0
    0.9796   -2.6490    3.4059 C   0  0  0  0  0  0  0  0  0  0  0  0
    2.0538   -3.4223    4.6810 S   0  0  0  0  0  1  0  0  0  0  0  0
    0.0602    1.4574    4.9968 C   0  0  0  0  0  0  0  0  0  0  0  0
    0.0750    1.5204    6.4935 C   0  0  0  0  0  0  0  0  0  0  0  0
    1.2930    0.9776    7.0534 N   0  0  0  0  0  0  0  0  0  0  0  0
    1.4434    1.2842    8.4600 C   0  0  0  0  0  0  0  0  0  0  0  0
    2.7678    0.7371    8.9760 C   0  0  0  0  0  0  0  0  0  0  0  0
    2.8741   -0.6397    8.7630 O   0  0  0  0  0  0  0  0  0  0  0  0
    2.7493   -0.9563    7.3907 C   0  0  0  0  0  0  0  0  0  0  0  0
    1.4361   -0.4539    6.8218 C   0  0  0  0  0  0  0  0  0  0  0  0
   -0.8965    0.8630    4.2812 C   0  0  0  0  0  0  0  0  0  0  0  0
   -0.8269    0.8260    2.7929 C   0  0  0  0  0  0  0  0  0  0  0  0
   -0.0745    1.5453    2.1536 O   0  0  0  0  0  0  0  0  0  0  0  0
   -1.6757   -0.0941    2.2300 N   0  0  0  0  0  0  0  0  0  0  0  0
   -1.7667   -0.4134    0.8764 C   0  0  0  0  0  0  0  0  0  0  0  0
   -2.6649   -1.4820    0.5293 C   0  0  0  0  0  0  0  0  0  0  0  0
   -3.3037   -2.0213    1.5662 O   0  0  0  0  0  0  0  0  0  0  0  0
   -4.1057   -3.1765    1.3840 C   0  0  0  0  0  0  0  0  0  0  0  0
   -4.5577   -3.6517    2.7440 C   0  0  0  0  0  0  0  0  0  0  0  0
   -2.8185   -1.8613   -0.7856 C   0  0  0  0  0  0  0  0  0  0  0  0
   -2.1018   -1.2152   -1.8218 C   0  0  0  0  0  0  0  0  0  0  0  0
   -2.3269   -1.6240   -3.1055 N   0  0  0  0  0  0  0  0  0  0  0  0
   -1.6627   -1.0236   -4.0479 C   0  0  0  0  0  0  0  0  0  0  0  0
   -0.7088    0.0189   -3.8495 C   0  0  0  0  0  0  0  0  0  0  0  0
   -0.0350    0.4878   -5.0226 C   0  0  0  0  0  0  0  0  0  0  0  0
    0.4602    0.7892   -6.0279 N   0  0  0  0  0  0  0  0  0  0  0  0
   -0.4577    0.4617   -2.5380 C   0  0  0  0  0  0  0  0  0  0  0  0
    0.4439    1.4318   -2.2135 N   0  0  0  0  0  0  0  0  0  0  0  0
    1.0471    2.3271   -3.1309 C   0  0  0  0  0  0  0  0  0  0  0  0
    2.3905    2.1787   -3.4798 C   0  0  0  0  0  0  0  0  0  0  0  0
    2.9444    2.9947   -4.4537 C   0  0  0  0  0  0  0  0  0  0  0  0
    4.6069    2.7756   -4.9204 Cl  0  0  0  0  0  0  0  0  0  0  0  0
    2.1718    3.9696   -5.1088 C   0  0  0  0  0  0  0  0  0  0  0  0
    2.7730    4.6559   -6.0987 O   0  0  0  0  0  0  0  0  0  0  0  0
    2.0411    5.5700   -6.8747 C   0  0  0  0  0  0  0  0  0  0  0  0
    0.9861    4.9478   -7.7680 C   0  0  0  0  0  0  0  0  0  0  0  0
    0.0775    5.7878   -8.4219 C   0  0  0  0  0  0  0  0  0  0  0  0
   -0.9027    5.2580   -9.2572 C   0  0  0  0  0  0  0  0  0  0  0  0
   -0.9958    3.8767   -9.4345 C   0  0  0  0  0  0  0  0  0  0  0  0
   -0.1000    3.0363   -8.7780 C   0  0  0  0  0  0  0  0  0  0  0  0
    0.8943    3.5679   -7.9573 C   0  0  0  0  0  0  0  0  0  0  0  0
    0.8434    4.1452   -4.7114 C   0  0  0  0  0  0  0  0  0  0  0  0
    0.2909    3.3341   -3.7271 C   0  0  0  0  0  0  0  0  0  0  0  0
   -1.2008   -0.1743   -1.4853 C   0  0  0  0  0  0  0  0  0  0  0  0
   -1.0635    0.2160   -0.1274 C   0  0  0  0  0  0  0  0  0  0  0  0
   -0.9709   -3.1831    4.7634 N   0  0  0  0  0  0  0  0  0  0  0  0
   -1.9426   -2.3802    5.2224 C   0  0  0  0  0  0  0  0  0  0  0  0
   -2.1349   -2.3856    6.7250 C   0  0  0  0  0  0  0  0  0  0  0  0
   -2.6540   -1.6644    4.5160 O   0  0  0  0  0  0  0  0  0  0  0  0
   -1.1172   -2.5396    2.8038 H   0  0  0  0  0  0  0  0  0  0  0  0
    0.3176   -5.4750    3.0842 N   0  0  0  0  0  0  0  0  0  0  0  0
    0.3089   -6.8238    2.5891 C   0  0  0  0  0  0  0  0  0  0  0  0
    1.4046   -2.7829    2.3982 H   0  0  0  0  0  0  0  0  0  0  0  0
    0.9150   -1.5611    3.5804 H   0  0  0  0  0  0  0  0  0  0  0  0
   -0.8338    1.0166    6.8997 H   0  0  0  0  0  0  0  0  0  0  0  0
    0.0082    2.5810    6.7968 H   0  0  0  0  0  0  0  0  0  0  0  0
    0.6151    0.8460    9.0668 H   0  0  0  0  0  0  0  0  0  0  0  0
    1.4155    2.3776    8.6049 H   0  0  0  0  0  0  0  0  0  0  0  0
    2.8560    0.9131   10.0592 H   0  0  0  0  0  0  0  0  0  0  0  0
    3.5947    1.2758    8.4673 H   0  0  0  0  0  0  0  0  0  0  0  0
    2.8040   -2.0458    7.2795 H   0  0  0  0  0  0  0  0  0  0  0  0
    3.5873   -0.5086    6.8214 H   0  0  0  0  0  0  0  0  0  0  0  0
    0.5986   -1.0178    7.2939 H   0  0  0  0  0  0  0  0  0  0  0  0
    1.4111   -0.6835    5.7472 H   0  0  0  0  0  0  0  0  0  0  0  0
   -2.2047   -0.6977    2.8758 H   0  0  0  0  0  0  0  0  0  0  0  0
   -3.4996   -3.9548    0.8957 H   0  0  0  0  0  0  0  0  0  0  0  0
   -4.9641   -2.9157    0.7368 H   0  0  0  0  0  0  0  0  0  0  0  0
   -5.0577   -2.8453    3.2985 H   0  0  0  0  0  0  0  0  0  0  0  0
   -5.2520   -4.4971    2.6259 H   0  0  0  0  0  0  0  0  0  0  0  0
   -3.6836   -3.9897    3.3144 H   0  0  0  0  0  0  0  0  0  0  0  0
   -3.4914   -2.6658   -1.0753 H   0  0  0  0  0  0  0  0  0  0  0  0
   -1.8420   -1.3527   -5.0788 H   0  0  0  0  0  0  0  0  0  0  0  0
    0.6570    1.5482   -1.2312 H   0  0  0  0  0  0  0  0  0  0  0  0
    2.9905    1.3919   -3.0220 H   0  0  0  0  0  0  0  0  0  0  0  0
    2.7985    6.0745   -7.4928 H   0  0  0  0  0  0  0  0  0  0  0  0
    1.5835    6.3444   -6.2312 H   0  0  0  0  0  0  0  0  0  0  0  0
    0.1347    6.8705   -8.2724 H   0  0  0  0  0  0  0  0  0  0  0  0
   -1.6049    5.9254   -9.7623 H   0  0  0  0  0  0  0  0  0  0  0  0
   -1.7748    3.4575  -10.0754 H   0  0  0  0  0  0  0  0  0  0  0  0
   -0.1744    1.9519   -8.8788 H   0  0  0  0  0  0  0  0  0  0  0  0
    1.5679    2.8846   -7.4384 H   0  0  0  0  0  0  0  0  0  0  0  0
    0.2168    4.8878   -5.2043 H   0  0  0  0  0  0  0  0  0  0  0  0
   -0.7573    3.4508   -3.4468 H   0  0  0  0  0  0  0  0  0  0  0  0
   -0.4088    1.0254    0.1838 H   0  0  0  0  0  0  0  0  0  0  0  0
   -0.2623   -3.5387    5.4168 H   0  0  0  0  0  0  0  0  0  0  0  0
   -1.5273   -3.1414    7.2397 H   0  0  0  0  0  0  0  0  0  0  0  0
   -3.1992   -2.5504    6.9420 H   0  0  0  0  0  0  0  0  0  0  0  0
   -1.8665   -1.3905    7.1103 H   0  0  0  0  0  0  0  0  0  0  0  0
    1.0991   -5.1315    3.6727 H   0  0  0  0  0  0  0  0  0  0  0  0
   -0.6167   -6.9780    2.0192 H   0  0  0  0  0  0  0  0  0  0  0  0
    0.3465   -7.5516    3.4163 H   0  0  0  0  0  0  0  0  0  0  0  0
    1.1689   -7.0159    1.9261 H   0  0  0  0  0  0  0  0  0  0  0  0
   -1.7277    0.3415    4.7634 H   0  0  0  0  0  0  0  0  0  0  0  0
    0.9022    1.9224    4.4722 H   0  0  0  0  0  0  0  0  0  0  0  0
  1  2  2  0  0  0  0
  2 54  1  0  0  0  0
  2  3  1  0  0  0  0
  3 53  1  6  0  0  0
  3  4  1  0  0  0  0
  3 49  1  0  0  0  0
  4 57  1  0  0  0  0
  4  5  1  0  0  0  0
  6  7  1  0  0  0  0
  7 59  1  0  0  0  0
  7 58  1  0  0  0  0
  7  8  1  0  0  0  0
  8  9  1  0  0  0  0
  9 61  1  0  0  0  0
  9 10  1  0  0  0  0
  9 60  1  0  0  0  0
 10 62  1  0  0  0  0
 11 10  1  0  0  0  0
 12 11  1  0  0  0  0
 13  8  1  0  0  0  0
 13 66  1  0  0  0  0
 13 12  1  0  0  0  0
 14 96  1  0  0  0  0
 14  6  2  0  0  0  0
 15 14  1  0  0  0  0
 16 15  2  0  0  0  0
 17 15  1  0  0  0  0
 17 68  1  0  0  0  0
 18 17  1  0  0  0  0
 19 18  1  0  0  0  0
 19 20  1  0  0  0  0
 21 20  1  0  0  0  0
 21 22  1  0  0  0  0
 22 71  1  0  0  0  0
 22 73  1  0  0  0  0
 23 19  2  0  0  0  0
 24 47  1  0  0  0  0
 24 23  1  0  0  0  0
 25 24  2  0  0  0  0
 26 27  2  0  0  0  0
 26 25  1  0  0  0  0
 27 30  1  0  0  0  0
 28 27  1  0  0  0  0
 29 28  3  0  0  0  0
 30 31  1  0  0  0  0
 30 47  2  0  0  0  0
 31 76  1  0  0  0  0
 32 31  1  0  0  0  0
 33 32  1  0  0  0  0
 33 77  1  0  0  0  0
 34 33  2  0  0  0  0
 35 34  1  0  0  0  0
 36 45  2  0  0  0  0
 36 34  1  0  0  0  0
 37 36  1  0  0  0  0
 38 79  1  0  0  0  0
 38 37  1  0  0  0  0
 39 38  1  0  0  0  0
 40 80  1  0  0  0  0
 40 39  2  0  0  0  0
 41 40  1  0  0  0  0
 42 41  2  0  0  0  0
 42 43  1  0  0  0  0
 43 44  2  0  0  0  0
 44 39  1  0  0  0  0
 44 84  1  0  0  0  0
 45 46  1  0  0  0  0
 46 86  1  0  0  0  0
 46 32  2  0  0  0  0
 47 48  1  0  0  0  0
 48 87  1  0  0  0  0
 48 18  2  0  0  0  0
 49 50  1  0  0  0  0
 49 88  1  0  0  0  0
 50 51  1  0  0  0  0
 51 90  1  0  0  0  0
 51 91  1  0  0  0  0
 51 89  1  0  0  0  0
 52 50  2  0  0  0  0
 54 92  1  0  0  0  0
 55 54  1  0  0  0  0
 55 94  1  0  0  0  0
 56  4  1  0  0  0  0
 63 10  1  0  0  0  0
 64 12  1  0  0  0  0
 65 12  1  0  0  0  0
 67 13  1  0  0  0  0
 69 21  1  0  0  0  0
 70 21  1  0  0  0  0
 72 22  1  0  0  0  0
 74 23  1  0  0  0  0
 75 26  1  0  0  0  0
 78 38  1  0  0  0  0
 81 41  1  0  0  0  0
 82 42  1  0  0  0  0
 83 43  1  0  0  0  0
 85 45  1  0  0  0  0
 93 55  1  0  0  0  0
 95 55  1  0  0  0  0
 97  6  1  0  0  0  0
M  END
