-1 1
 OpenBabel05232414493D

 97101  0  0  1  0  0  0  0  0999 V2000
    2.3731    5.2081   -2.8412 O   0  0  0  0  0  0  0  0  0  0  0  0
    2.5119    6.2834   -2.2861 C   0  0  0  0  0  0  0  0  0  0  0  0
    1.8018    7.5501   -2.7909 C   0  0  2  0  0  0  0  0  0  0  0  0
    2.7596    8.6680   -3.2465 C   0  0  0  0  0  0  0  0  0  0  0  0
    3.5971    9.5666   -1.9180 S   0  0  0  0  0  0  0  0  0  0  0  0
    2.4363   11.4181   -1.8850 C   0  0  2  0  0  0  0  0  0  0  0  0
    2.3278   11.7307   -0.3944 C   0  0  0  0  0  0  0  0  0  0  0  0
    3.4265   12.5103    0.1468 N   0  0  0  0  0  0  0  0  0  0  0  0
    3.1258   13.0413    1.4584 C   0  0  0  0  0  0  0  0  0  0  0  0
    4.2459   13.9592    1.9261 C   0  0  0  0  0  0  0  0  0  0  0  0
    5.4854   13.3025    1.9325 O   0  0  0  0  0  0  0  0  0  0  0  0
    5.7901   12.7847    0.6592 C   0  0  0  0  0  0  0  0  0  0  0  0
    4.7118   11.8370    0.1598 C   0  0  0  0  0  0  0  0  0  0  0  0
    1.2243   11.3013   -2.6053 C   0  0  0  0  0  3  0  0  0  0  0  0
    1.1640   11.5607   -4.0011 C   0  0  0  0  0  0  0  0  0  0  0  0
    2.0793   11.9934   -4.7114 O   0  0  0  0  0  0  0  0  0  0  0  0
   -0.1005   11.2669   -4.5707 N   0  0  0  0  0  0  0  0  0  0  0  0
   -0.4723   11.3239   -5.8887 C   0  0  0  0  0  0  0  0  0  0  0  0
   -1.7630   10.7714   -6.2120 C   0  0  0  0  0  0  0  0  0  0  0  0
   -2.4241   10.2707   -5.1508 O   0  0  0  0  0  0  0  0  0  0  0  0
   -3.5629    9.4601   -5.3466 C   0  0  0  0  0  0  0  0  0  0  0  0
   -3.9715    8.9002   -4.0022 C   0  0  0  0  0  0  0  0  0  0  0  0
   -2.2308   10.7769   -7.5031 C   0  0  0  0  0  0  0  0  0  0  0  0
   -1.4571   11.3303   -8.5567 C   0  0  0  0  0  0  0  0  0  0  0  0
   -1.9923   11.3240   -9.8130 N   0  0  0  0  0  0  0  0  0  0  0  0
   -1.2732   11.8302  -10.7705 C   0  0  0  0  0  0  0  0  0  0  0  0
    0.0349   12.3809  -10.6127 C   0  0  0  0  0  0  0  0  0  0  0  0
    0.6743   12.8277  -11.8135 C   0  0  0  0  0  0  0  0  0  0  0  0
    1.1037   13.1491  -12.8428 N   0  0  0  0  0  0  0  0  0  0  0  0
    0.6094   12.4008   -9.3290 C   0  0  0  0  0  0  0  0  0  0  0  0
    1.8543   12.8780   -9.0453 N   0  0  0  0  0  0  0  0  0  0  0  0
    2.6661   13.6236   -9.9351 C   0  0  0  0  0  0  0  0  0  0  0  0
    3.7354   13.0114  -10.5916 C   0  0  0  0  0  0  0  0  0  0  0  0
    4.4582   13.7172  -11.5402 C   0  0  0  0  0  0  0  0  0  0  0  0
    5.7586   12.9347  -12.3939 Cl  0  0  0  0  0  0  0  0  0  0  0  0
    4.1305   15.0460  -11.8607 C   0  0  0  0  0  0  0  0  0  0  0  0
    4.8364   15.6228  -12.8520 O   0  0  0  0  0  0  0  0  0  0  0  0
    4.5047   16.9106  -13.3034 C   0  0  0  0  0  0  0  0  0  0  0  0
    3.1767   17.0108  -14.0277 C   0  0  0  0  0  0  0  0  0  0  0  0
    2.6813   18.2789  -14.3523 C   0  0  0  0  0  0  0  0  0  0  0  0
    1.4689   18.4156  -15.0235 C   0  0  0  0  0  0  0  0  0  0  0  0
    0.7283   17.2825  -15.3636 C   0  0  0  0  0  0  0  0  0  0  0  0
    1.2128   16.0189  -15.0339 C   0  0  0  0  0  0  0  0  0  0  0  0
    2.4364   15.8808  -14.3793 C   0  0  0  0  0  0  0  0  0  0  0  0
    3.0950   15.6660  -11.1560 C   0  0  0  0  0  0  0  0  0  0  0  0
    2.3743   14.9599  -10.1997 C   0  0  0  0  0  0  0  0  0  0  0  0
   -0.1802   11.8639   -8.2524 C   0  0  0  0  0  0  0  0  0  0  0  0
    0.2853   11.8608   -6.9132 C   0  0  0  0  0  0  0  0  0  0  0  0
    0.8731    8.0672   -1.8068 N   0  0  0  0  0  0  0  0  0  0  0  0
   -0.4626    8.1454   -2.0203 C   0  0  0  0  0  0  0  0  0  0  0  0
   -1.2407    8.9266   -0.9774 C   0  0  0  0  0  0  0  0  0  0  0  0
   -1.0303    7.6228   -2.9661 O   0  0  0  0  0  0  0  0  0  0  0  0
    1.2040    7.2152   -3.6485 H   0  0  0  0  0  0  0  0  0  0  0  0
    3.2847    6.4632   -1.1813 N   0  0  0  0  0  0  0  0  0  0  0  0
    4.0741    5.4027   -0.6143 C   0  0  0  0  0  0  0  0  0  0  0  0
    3.5037    8.2644   -3.9473 H   0  0  0  0  0  0  0  0  0  0  0  0
    2.1510    9.4117   -3.7858 H   0  0  0  0  0  0  0  0  0  0  0  0
    2.1715   10.7913    0.1854 H   0  0  0  0  0  0  0  0  0  0  0  0
    1.4191   12.3388   -0.2605 H   0  0  0  0  0  0  0  0  0  0  0  0
    2.9876   12.2293    2.2123 H   0  0  0  0  0  0  0  0  0  0  0  0
    2.1834   13.6119    1.4160 H   0  0  0  0  0  0  0  0  0  0  0  0
    4.0565   14.3069    2.9527 H   0  0  0  0  0  0  0  0  0  0  0  0
    4.2832   14.8440    1.2577 H   0  0  0  0  0  0  0  0  0  0  0  0
    6.7517   12.2591    0.7468 H   0  0  0  0  0  0  0  0  0  0  0  0
    5.9081   13.6126   -0.0690 H   0  0  0  0  0  0  0  0  0  0  0  0
    4.6898   10.9323    0.8103 H   0  0  0  0  0  0  0  0  0  0  0  0
    4.9704   11.5005   -0.8540 H   0  0  0  0  0  0  0  0  0  0  0  0
   -0.7652   10.7896   -3.9756 H   0  0  0  0  0  0  0  0  0  0  0  0
   -3.3141    8.6480   -6.0529 H   0  0  0  0  0  0  0  0  0  0  0  0
   -4.3746   10.0598   -5.7990 H   0  0  0  0  0  0  0  0  0  0  0  0
   -4.2500    9.7144   -3.3159 H   0  0  0  0  0  0  0  0  0  0  0  0
   -4.8399    8.2353   -4.1196 H   0  0  0  0  0  0  0  0  0  0  0  0
   -3.1354    8.3329   -3.5646 H   0  0  0  0  0  0  0  0  0  0  0  0
   -3.2041   10.3665   -7.7686 H   0  0  0  0  0  0  0  0  0  0  0  0
   -1.7005   11.8258  -11.7807 H   0  0  0  0  0  0  0  0  0  0  0  0
    2.1950   12.7264   -8.1041 H   0  0  0  0  0  0  0  0  0  0  0  0
    3.9712   11.9660  -10.3919 H   0  0  0  0  0  0  0  0  0  0  0  0
    5.3209   17.1807  -13.9899 H   0  0  0  0  0  0  0  0  0  0  0  0
    4.5357   17.6340  -12.4673 H   0  0  0  0  0  0  0  0  0  0  0  0
    3.2496   19.1715  -14.0726 H   0  0  0  0  0  0  0  0  0  0  0  0
    1.0945   19.4117  -15.2714 H   0  0  0  0  0  0  0  0  0  0  0  0
   -0.2314   17.3877  -15.8747 H   0  0  0  0  0  0  0  0  0  0  0  0
    0.6357   15.1212  -15.2635 H   0  0  0  0  0  0  0  0  0  0  0  0
    2.7791   14.8800  -14.1129 H   0  0  0  0  0  0  0  0  0  0  0  0
    2.8122   16.6928  -11.3855 H   0  0  0  0  0  0  0  0  0  0  0  0
    1.5412   15.4358   -9.6799 H   0  0  0  0  0  0  0  0  0  0  0  0
    1.2525   12.2567   -6.6082 H   0  0  0  0  0  0  0  0  0  0  0  0
    1.2949    8.6878   -1.1200 H   0  0  0  0  0  0  0  0  0  0  0  0
   -0.6138    9.3337   -0.1722 H   0  0  0  0  0  0  0  0  0  0  0  0
   -2.0078    8.2680   -0.5461 H   0  0  0  0  0  0  0  0  0  0  0  0
   -1.7611    9.7551   -1.4792 H   0  0  0  0  0  0  0  0  0  0  0  0
    3.4684    7.4273   -0.9000 H   0  0  0  0  0  0  0  0  0  0  0  0
    3.7634    4.4610   -1.0850 H   0  0  0  0  0  0  0  0  0  0  0  0
    3.9184    5.3281    0.4740 H   0  0  0  0  0  0  0  0  0  0  0  0
    5.1518    5.5467   -0.8010 H   0  0  0  0  0  0  0  0  0  0  0  0
    0.3281   10.9359   -2.0964 H   0  0  0  0  0  0  0  0  0  0  0  0
    3.1832   12.0302   -2.4010 H   0  0  0  0  0  0  0  0  0  0  0  0
  1  2  2  0  0  0  0
  2 54  1  0  0  0  0
  3 53  1  6  0  0  0
  3  2  1  0  0  0  0
  3 49  1  0  0  0  0
  4  3  1  0  0  0  0
  4  5  1  0  0  0  0
  5  6  1  0  0  0  0
  6 97  1  6  0  0  0
  6  7  1  0  0  0  0
  7 59  1  0  0  0  0
  7  8  1  0  0  0  0
  7 58  1  0  0  0  0
  8 13  1  0  0  0  0
  8  9  1  0  0  0  0
  9 10  1  0  0  0  0
  9 60  1  0  0  0  0
 10 11  1  0  0  0  0
 10 62  1  0  0  0  0
 12 64  1  0  0  0  0
 12 11  1  0  0  0  0
 13 12  1  0  0  0  0
 13 66  1  0  0  0  0
 14 96  1  0  0  0  0
 14  6  1  0  0  0  0
 15 14  1  0  0  0  0
 16 15  2  0  0  0  0
 17 15  1  0  0  0  0
 17 68  1  0  0  0  0
 18 17  1  0  0  0  0
 19 18  1  0  0  0  0
 19 20  1  0  0  0  0
 21 20  1  0  0  0  0
 21 22  1  0  0  0  0
 22 73  1  0  0  0  0
 22 71  1  0  0  0  0
 23 19  2  0  0  0  0
 24 47  1  0  0  0  0
 24 23  1  0  0  0  0
 25 24  2  0  0  0  0
 26 27  2  0  0  0  0
 26 25  1  0  0  0  0
 27 30  1  0  0  0  0
 28 27  1  0  0  0  0
 29 28  3  0  0  0  0
 30 31  1  0  0  0  0
 30 47  2  0  0  0  0
 31 76  1  0  0  0  0
 32 31  1  0  0  0  0
 33 77  1  0  0  0  0
 33 32  2  0  0  0  0
 34 33  1  0  0  0  0
 35 34  1  0  0  0  0
 36 34  2  0  0  0  0
 36 45  1  0  0  0  0
 37 36  1  0  0  0  0
 38 37  1  0  0  0  0
 38 79  1  0  0  0  0
 39 38  1  0  0  0  0
 40 80  1  0  0  0  0
 40 39  1  0  0  0  0
 41 40  2  0  0  0  0
 42 43  2  0  0  0  0
 42 41  1  0  0  0  0
 43 44  1  0  0  0  0
 44 84  1  0  0  0  0
 44 39  2  0  0  0  0
 45 46  2  0  0  0  0
 46 32  1  0  0  0  0
 46 86  1  0  0  0  0
 47 48  1  0  0  0  0
 48 87  1  0  0  0  0
 48 18  2  0  0  0  0
 49 88  1  0  0  0  0
 50 49  1  0  0  0  0
 50 51  1  0  0  0  0
 51 90  1  0  0  0  0
 51 89  1  0  0  0  0
 52 50  2  0  0  0  0
 54 92  1  0  0  0  0
 54 55  1  0  0  0  0
 55 94  1  0  0  0  0
 56  4  1  0  0  0  0
 57  4  1  0  0  0  0
 61  9  1  0  0  0  0
 63 10  1  0  0  0  0
 65 12  1  0  0  0  0
 67 13  1  0  0  0  0
 69 21  1  0  0  0  0
 70 21  1  0  0  0  0
 72 22  1  0  0  0  0
 74 23  1  0  0  0  0
 75 26  1  0  0  0  0
 78 38  1  0  0  0  0
 81 41  1  0  0  0  0
 82 42  1  0  0  0  0
 83 43  1  0  0  0  0
 85 45  1  0  0  0  0
 91 51  1  0  0  0  0
 93 55  1  0  0  0  0
 95 55  1  0  0  0  0
M  END
