-1 1
 OpenBabel05192410563D

 61 63  0  0  1  0  0  0  0  0999 V2000
    0.4055    3.6850   -5.2438 O   0  0  0  0  0  0  0  0  0  0  0  0
    0.6601    3.2913   -4.1165 C   0  0  0  0  0  0  0  0  0  0  0  0
    2.1203    3.0472   -3.6865 C   0  0  2  0  0  0  0  0  0  0  0  0
    2.4003    1.6269   -3.1752 C   0  0  0  0  0  0  0  0  0  0  0  0
    1.9027    1.2605   -1.4704 S   0  0  0  0  0  0  0  0  0  0  0  0
    0.4258   -0.0064   -1.7289 C   0  0  1  0  0  0  0  0  0  0  0  0
    0.5731   -0.8514   -2.8973 C   0  0  2  0  0  3  0  0  0  0  0  0
    1.9069   -1.9983   -3.1794 S   0  0  0  0  0  0  0  0  0  0  0  0
   -0.2375   -0.6975   -4.0404 C   0  0  0  0  0  0  0  0  0  0  0  0
   -1.2191    0.0256   -4.2375 O   0  0  0  0  0  0  0  0  0  0  0  0
    0.2397   -1.5601   -5.0694 N   0  0  0  0  0  0  0  0  0  0  0  0
    1.3457   -2.3264   -4.8442 C   0  0  0  0  0  0  0  0  0  0  0  0
    1.8684   -3.1000   -5.6156 O   0  0  0  0  0  0  0  0  0  0  0  0
    0.2552   -0.6349   -0.3580 C   0  0  0  0  0  0  0  0  0  0  0  0
    0.1808   -2.0181   -0.1974 C   0  0  0  0  0  0  0  0  0  0  0  0
   -0.0342   -2.5692    1.0669 C   0  0  0  0  0  0  0  0  0  0  0  0
   -0.1798   -1.7431    2.1666 C   0  0  0  0  0  0  0  0  0  0  0  0
   -0.3560   -2.2939    3.4253 O   0  0  0  0  0  0  0  0  0  0  0  0
   -1.5246   -2.1641    4.0462 C   0  0  0  0  0  0  0  0  0  0  0  0
   -1.6199   -2.5100    5.4090 C   0  0  0  0  0  0  0  0  0  0  0  0
   -0.4698   -3.0483    6.1450 N   0  0  0  0  0  0  0  0  0  0  0  0
    0.2919   -3.7745    5.5532 O   0  0  0  0  0  0  0  0  0  0  0  0
   -0.3844   -2.7494    7.3195 O   0  0  0  0  0  0  0  0  0  0  0  0
   -2.8020   -2.3549    6.1190 C   0  0  0  0  0  0  0  0  0  0  0  0
   -3.9463   -1.8851    5.4735 C   0  0  0  0  0  0  0  0  0  0  0  0
   -5.1793   -1.7407    6.1960 C   0  0  0  0  0  0  0  0  0  0  0  0
   -6.1749   -1.6239    6.7753 N   0  0  0  0  0  0  0  0  0  0  0  0
   -3.8730   -1.5564    4.1091 C   0  0  0  0  0  0  0  0  0  0  0  0
   -2.6851   -1.6861    3.4132 C   0  0  0  0  0  0  0  0  0  0  0  0
   -0.1072   -0.3465    2.0343 C   0  0  0  0  0  0  0  0  0  0  0  0
   -0.2794    0.3663    3.1679 O   0  0  0  0  0  0  0  0  0  0  0  0
   -0.2079    1.7661    3.1006 C   0  0  0  0  0  0  0  0  0  0  0  0
    0.1034    0.1918    0.7678 C   0  0  0  0  0  0  0  0  0  0  0  0
    2.5861    4.0371   -2.7338 N   0  0  0  0  0  0  0  0  0  0  0  0
    2.9123    5.3402   -2.9862 C   0  0  0  0  0  0  0  0  0  0  0  0
    3.0311    5.7371   -4.4445 C   0  0  0  0  0  0  0  0  0  0  0  0
    3.1213    6.1241   -2.0789 O   0  0  0  0  0  0  0  0  0  0  0  0
    2.6858    3.1577   -4.6223 H   0  0  0  0  0  0  0  0  0  0  0  0
   -0.2675    3.0897   -3.1564 N   0  0  0  0  0  0  0  0  0  0  0  0
   -1.6855    3.0948   -3.4353 C   0  0  0  0  0  0  0  0  0  0  0  0
    1.8958    0.8819   -3.8137 H   0  0  0  0  0  0  0  0  0  0  0  0
    3.4806    1.4362   -3.2349 H   0  0  0  0  0  0  0  0  0  0  0  0
   -0.4615    0.6124   -1.9345 H   0  0  0  0  0  0  0  0  0  0  0  0
   -0.2289   -1.5871   -5.9666 H   0  0  0  0  0  0  0  0  0  0  0  0
    0.2814   -2.6635   -1.0703 H   0  0  0  0  0  0  0  0  0  0  0  0
   -0.0907   -3.6493    1.2124 H   0  0  0  0  0  0  0  0  0  0  0  0
   -2.8109   -2.6051    7.1796 H   0  0  0  0  0  0  0  0  0  0  0  0
   -4.7623   -1.1903    3.5936 H   0  0  0  0  0  0  0  0  0  0  0  0
   -2.6329   -1.4166    2.3581 H   0  0  0  0  0  0  0  0  0  0  0  0
   -0.3521    2.1358    4.1229 H   0  0  0  0  0  0  0  0  0  0  0  0
   -0.9976    2.1839    2.4526 H   0  0  0  0  0  0  0  0  0  0  0  0
    0.7736    2.1051    2.7288 H   0  0  0  0  0  0  0  0  0  0  0  0
    0.1588    1.2732    0.6372 H   0  0  0  0  0  0  0  0  0  0  0  0
    2.4448    3.8221   -1.7496 H   0  0  0  0  0  0  0  0  0  0  0  0
    2.1202    5.4896   -5.0091 H   0  0  0  0  0  0  0  0  0  0  0  0
    3.8669    5.1982   -4.9179 H   0  0  0  0  0  0  0  0  0  0  0  0
    3.2284    6.8141   -4.4875 H   0  0  0  0  0  0  0  0  0  0  0  0
    0.0610    2.6687   -2.2919 H   0  0  0  0  0  0  0  0  0  0  0  0
   -1.8510    3.6904   -4.3417 H   0  0  0  0  0  0  0  0  0  0  0  0
   -2.2363    3.5516   -2.5991 H   0  0  0  0  0  0  0  0  0  0  0  0
   -2.0379    2.0670   -3.6166 H   0  0  0  0  0  0  0  0  0  0  0  0
  1  2  2  0  0  0  0
  2  3  1  0  0  0  0
  2 39  1  0  0  0  0
  3 38  1  6  0  0  0
  3  4  1  0  0  0  0
  3 34  1  0  0  0  0
  4  5  1  0  0  0  0
  6 43  1  6  0  0  0
  6  5  1  0  0  0  0
  6 14  1  0  0  0  0
  7  6  1  6  0  0  0
  8  7  1  0  0  0  0
  9  7  1  0  0  0  0
 10  9  2  0  0  0  0
 11 12  1  0  0  0  0
 11  9  1  0  0  0  0
 12  8  1  0  0  0  0
 13 12  2  0  0  0  0
 14 15  2  0  0  0  0
 14 33  1  0  0  0  0
 15 16  1  0  0  0  0
 16 46  1  0  0  0  0
 16 17  2  0  0  0  0
 17 18  1  0  0  0  0
 18 19  1  0  0  0  0
 19 20  1  0  0  0  0
 20 24  2  0  0  0  0
 20 21  1  0  0  0  0
 21 23  2  0  0  0  0
 22 21  2  0  0  0  0
 24 47  1  0  0  0  0
 25 24  1  0  0  0  0
 25 26  1  0  0  0  0
 26 27  3  0  0  0  0
 28 25  2  0  0  0  0
 29 19  2  0  0  0  0
 29 28  1  0  0  0  0
 30 17  1  0  0  0  0
 30 31  1  0  0  0  0
 32 31  1  0  0  0  0
 32 50  1  0  0  0  0
 33 30  2  0  0  0  0
 34 54  1  0  0  0  0
 35 34  1  0  0  0  0
 35 37  2  0  0  0  0
 36 35  1  0  0  0  0
 39 58  1  0  0  0  0
 40 39  1  0  0  0  0
 40 60  1  0  0  0  0
 41  4  1  0  0  0  0
 42  4  1  0  0  0  0
 44 11  1  0  0  0  0
 45 15  1  0  0  0  0
 48 28  1  0  0  0  0
 49 29  1  0  0  0  0
 51 32  1  0  0  0  0
 52 32  1  0  0  0  0
 53 33  1  0  0  0  0
 55 36  1  0  0  0  0
 56 36  1  0  0  0  0
 57 36  1  0  0  0  0
 59 40  1  0  0  0  0
 61 40  1  0  0  0  0
M  END
