-1 1
 OpenBabel05192410563D

 93 96  0  0  1  0  0  0  0  0999 V2000
    7.4131    2.3022   -3.9387 O   0  0  0  0  0  0  0  0  0  0  0  0
    7.3224    1.2695   -4.5767 C   0  0  0  0  0  0  0  0  0  0  0  0
    5.9769    0.8402   -5.1832 C   0  0  2  0  0  0  0  0  0  0  0  0
    4.8828    0.8463   -4.1030 C   0  0  0  0  0  0  0  0  0  0  0  0
    4.9068   -0.6283   -3.0170 S   0  0  0  0  0  0  0  0  0  0  0  0
    3.2512   -1.4678   -3.3404 C   0  0  1  0  0  0  0  0  0  0  0  0
    3.1964   -1.9679   -4.7891 C   0  0  0  0  0  0  0  0  0  0  0  0
    1.9648   -2.6502   -5.1311 N   0  0  0  0  0  0  0  0  0  0  0  0
    1.9849   -3.1165   -6.4891 C   0  0  0  0  0  0  0  0  0  0  0  0
    0.7657   -1.9070   -4.8154 C   0  0  0  0  0  0  0  0  0  0  0  0
    3.0180   -2.5025   -2.3191 C   0  0  0  0  0  3  0  0  0  0  0  0
    1.9671   -2.3453   -1.4231 C   0  0  0  0  0  0  0  0  0  0  0  0
    1.1474   -1.4002   -1.3599 O   0  0  0  0  0  0  0  0  0  0  0  0
    1.8084   -3.4463   -0.5085 N   0  0  0  0  0  0  0  0  0  0  0  0
    0.7964   -3.6725    0.3718 C   0  0  0  0  0  0  0  0  0  0  0  0
    0.7031   -4.9789    0.9700 C   0  0  0  0  0  0  0  0  0  0  0  0
    1.6166   -5.9250    0.5936 O   0  0  0  0  0  0  0  0  0  0  0  0
    1.3300   -6.5897   -0.6333 C   0  0  0  0  0  0  0  0  0  0  0  0
    0.2360   -7.6323   -0.4942 C   0  0  0  0  0  0  0  0  0  0  0  0
   -0.2520   -5.2680    1.9101 C   0  0  0  0  0  0  0  0  0  0  0  0
   -1.2241   -4.3088    2.2897 C   0  0  0  0  0  0  0  0  0  0  0  0
   -2.1573   -4.6572    3.2214 N   0  0  0  0  0  0  0  0  0  0  0  0
   -3.0662   -3.7781    3.5243 C   0  0  0  0  0  0  0  0  0  0  0  0
   -3.1567   -2.4744    2.9452 C   0  0  0  0  0  0  0  0  0  0  0  0
   -4.3020   -1.6858    3.2799 C   0  0  0  0  0  0  0  0  0  0  0  0
   -5.2516   -1.0877    3.5725 N   0  0  0  0  0  0  0  0  0  0  0  0
   -2.1881   -2.0738    2.0180 C   0  0  0  0  0  0  0  0  0  0  0  0
   -2.1761   -0.8558    1.3814 N   0  0  0  0  0  0  0  0  0  0  0  0
   -2.6080    0.3859    1.8606 C   0  0  0  0  0  0  0  0  0  0  0  0
   -2.5514    0.7079    3.2218 C   0  0  0  0  0  0  0  0  0  0  0  0
   -2.9976    1.9479    3.6564 C   0  0  0  0  0  0  0  0  0  0  0  0
   -2.9493    2.3272    5.3586 Cl  0  0  0  0  0  0  0  0  0  0  0  0
   -3.4742    2.9073    2.7559 C   0  0  0  0  0  0  0  0  0  0  0  0
   -3.8976    4.1312    3.1826 O   0  0  0  0  0  0  0  0  0  0  0  0
   -5.2373    4.1854    3.6171 C   0  0  0  0  0  0  0  0  0  0  0  0
   -5.4719    5.4634    4.3805 C   0  0  0  0  0  0  0  0  0  0  0  0
   -6.7716    5.9387    4.5562 C   0  0  0  0  0  0  0  0  0  0  0  0
   -7.0036    7.1019    5.3008 C   0  0  0  0  0  0  0  0  0  0  0  0
   -8.3486    7.5851    5.4750 C   0  0  0  0  0  0  0  0  0  0  0  0
   -9.4285    7.9773    5.6168 N   0  0  0  0  0  0  0  0  0  0  0  0
   -5.9307    7.8026    5.8692 C   0  0  0  0  0  0  0  0  0  0  0  0
   -4.6370    7.3280    5.6851 C   0  0  0  0  0  0  0  0  0  0  0  0
   -4.4064    6.1674    4.9476 C   0  0  0  0  0  0  0  0  0  0  0  0
   -3.4803    2.5951    1.3977 C   0  0  0  0  0  0  0  0  0  0  0  0
   -3.0605    1.3490    0.9502 C   0  0  0  0  0  0  0  0  0  0  0  0
   -1.1739   -3.0311    1.6666 C   0  0  0  0  0  0  0  0  0  0  0  0
   -0.1522   -2.7245    0.7443 C   0  0  0  0  0  0  0  0  0  0  0  0
    6.0217   -0.4268   -5.8750 N   0  0  0  0  0  0  0  0  0  0  0  0
    5.8610   -0.5376   -7.2283 C   0  0  0  0  0  0  0  0  0  0  0  0
    5.5951   -1.9481   -7.7145 C   0  0  0  0  0  0  0  0  0  0  0  0
    5.9100    0.4135   -7.9826 O   0  0  0  0  0  0  0  0  0  0  0  0
    5.7472    1.6123   -5.9347 H   0  0  0  0  0  0  0  0  0  0  0  0
    8.3631    0.4371   -4.8200 N   0  0  0  0  0  0  0  0  0  0  0  0
    9.6914    0.6875   -4.3293 C   0  0  0  0  0  0  0  0  0  0  0  0
    5.0132    1.7469   -3.4892 H   0  0  0  0  0  0  0  0  0  0  0  0
    3.8917    0.8975   -4.5762 H   0  0  0  0  0  0  0  0  0  0  0  0
    4.0297   -2.6790   -4.9447 H   0  0  0  0  0  0  0  0  0  0  0  0
    3.3739   -1.1140   -5.4894 H   0  0  0  0  0  0  0  0  0  0  0  0
    2.8634   -3.7608   -6.6598 H   0  0  0  0  0  0  0  0  0  0  0  0
    2.0240   -2.2910   -7.2437 H   0  0  0  0  0  0  0  0  0  0  0  0
    1.0846   -3.7142   -6.7043 H   0  0  0  0  0  0  0  0  0  0  0  0
    0.7052   -1.6924   -3.7380 H   0  0  0  0  0  0  0  0  0  0  0  0
   -0.1166   -2.5073   -5.0882 H   0  0  0  0  0  0  0  0  0  0  0  0
    0.6981   -0.9412   -5.3725 H   0  0  0  0  0  0  0  0  0  0  0  0
    2.5158   -4.1675   -0.5497 H   0  0  0  0  0  0  0  0  0  0  0  0
    2.2769   -7.0620   -0.9341 H   0  0  0  0  0  0  0  0  0  0  0  0
    1.0668   -5.8505   -1.4104 H   0  0  0  0  0  0  0  0  0  0  0  0
    0.0902   -8.1534   -1.4526 H   0  0  0  0  0  0  0  0  0  0  0  0
   -0.7203   -7.1691   -0.2100 H   0  0  0  0  0  0  0  0  0  0  0  0
    0.5025   -8.3758    0.2719 H   0  0  0  0  0  0  0  0  0  0  0  0
   -0.2869   -6.2578    2.3660 H   0  0  0  0  0  0  0  0  0  0  0  0
   -3.8255   -4.0629    4.2623 H   0  0  0  0  0  0  0  0  0  0  0  0
   -1.6355   -0.8296    0.5239 H   0  0  0  0  0  0  0  0  0  0  0  0
   -2.1640   -0.0085    3.9463 H   0  0  0  0  0  0  0  0  0  0  0  0
   -5.4630    3.3231    4.2715 H   0  0  0  0  0  0  0  0  0  0  0  0
   -5.9231    4.1264    2.7516 H   0  0  0  0  0  0  0  0  0  0  0  0
   -7.6175    5.4076    4.1133 H   0  0  0  0  0  0  0  0  0  0  0  0
   -6.1190    8.7103    6.4447 H   0  0  0  0  0  0  0  0  0  0  0  0
   -3.7947    7.8684    6.1215 H   0  0  0  0  0  0  0  0  0  0  0  0
   -3.3930    5.7933    4.7974 H   0  0  0  0  0  0  0  0  0  0  0  0
   -3.8345    3.3519    0.6955 H   0  0  0  0  0  0  0  0  0  0  0  0
   -3.0916    1.1081   -0.1140 H   0  0  0  0  0  0  0  0  0  0  0  0
   -0.0288   -1.7495    0.2739 H   0  0  0  0  0  0  0  0  0  0  0  0
    5.8001   -1.2240   -5.2783 H   0  0  0  0  0  0  0  0  0  0  0  0
    6.0635   -2.7117   -7.0775 H   0  0  0  0  0  0  0  0  0  0  0  0
    5.9528   -2.0452   -8.7466 H   0  0  0  0  0  0  0  0  0  0  0  0
    4.5077   -2.1198   -7.7053 H   0  0  0  0  0  0  0  0  0  0  0  0
    8.1605   -0.3963   -5.3559 H   0  0  0  0  0  0  0  0  0  0  0  0
   10.4172    0.7848   -5.1531 H   0  0  0  0  0  0  0  0  0  0  0  0
   10.0304   -0.1141   -3.6538 H   0  0  0  0  0  0  0  0  0  0  0  0
    9.6639    1.6312   -3.7691 H   0  0  0  0  0  0  0  0  0  0  0  0
    2.5142   -0.6679   -3.1793 H   0  0  0  0  0  0  0  0  0  0  0  0
    3.5825   -3.4384   -2.3678 H   0  0  0  0  0  0  0  0  0  0  0  0
  2  1  2  0  0  0  0
  3 52  1  6  0  0  0
  3  2  1  0  0  0  0
  3  4  1  0  0  0  0
  4 55  1  0  0  0  0
  4  5  1  0  0  0  0
  6 92  1  1  0  0  0
  6  5  1  0  0  0  0
  6 11  1  0  0  0  0
  7  6  1  0  0  0  0
  8 10  1  0  0  0  0
  8  7  1  0  0  0  0
  9  8  1  0  0  0  0
 10 62  1  0  0  0  0
 11 12  1  0  0  0  0
 12 13  2  0  0  0  0
 12 14  1  0  0  0  0
 14 15  1  0  0  0  0
 15 47  2  0  0  0  0
 15 16  1  0  0  0  0
 16 20  2  0  0  0  0
 17 16  1  0  0  0  0
 18 19  1  0  0  0  0
 18 17  1  0  0  0  0
 19 69  1  0  0  0  0
 19 70  1  0  0  0  0
 20 21  1  0  0  0  0
 20 71  1  0  0  0  0
 21 22  1  0  0  0  0
 22 23  2  0  0  0  0
 23 72  1  0  0  0  0
 24 25  1  0  0  0  0
 24 23  1  0  0  0  0
 25 26  3  0  0  0  0
 27 24  2  0  0  0  0
 28 29  1  0  0  0  0
 28 27  1  0  0  0  0
 29 30  1  0  0  0  0
 30 31  2  0  0  0  0
 30 74  1  0  0  0  0
 31 32  1  0  0  0  0
 33 34  1  0  0  0  0
 33 31  1  0  0  0  0
 34 35  1  0  0  0  0
 35 75  1  0  0  0  0
 35 36  1  0  0  0  0
 36 37  2  0  0  0  0
 36 43  1  0  0  0  0
 37 38  1  0  0  0  0
 38 39  1  0  0  0  0
 38 41  2  0  0  0  0
 39 40  3  0  0  0  0
 41 78  1  0  0  0  0
 42 41  1  0  0  0  0
 42 79  1  0  0  0  0
 43 42  2  0  0  0  0
 44 33  2  0  0  0  0
 45 44  1  0  0  0  0
 45 29  2  0  0  0  0
 46 27  1  0  0  0  0
 46 21  2  0  0  0  0
 47 46  1  0  0  0  0
 48 84  1  0  0  0  0
 48  3  1  0  0  0  0
 49 48  1  0  0  0  0
 50 87  1  0  0  0  0
 50 49  1  0  0  0  0
 50 85  1  0  0  0  0
 51 49  2  0  0  0  0
 53  2  1  0  0  0  0
 53 54  1  0  0  0  0
 54 91  1  0  0  0  0
 54 90  1  0  0  0  0
 56  4  1  0  0  0  0
 57  7  1  0  0  0  0
 58  7  1  0  0  0  0
 59  9  1  0  0  0  0
 60  9  1  0  0  0  0
 61  9  1  0  0  0  0
 63 10  1  0  0  0  0
 64 10  1  0  0  0  0
 65 14  1  0  0  0  0
 66 18  1  0  0  0  0
 67 18  1  0  0  0  0
 68 19  1  0  0  0  0
 73 28  1  0  0  0  0
 76 35  1  0  0  0  0
 77 37  1  0  0  0  0
 80 43  1  0  0  0  0
 81 44  1  0  0  0  0
 82 45  1  0  0  0  0
 83 47  1  0  0  0  0
 86 50  1  0  0  0  0
 88 53  1  0  0  0  0
 89 54  1  0  0  0  0
 93 11  1  0  0  0  0
M  END
