93
-1 1
O         7.413124    2.302210   -3.938702
C         7.322362    1.269488   -4.576651
C         5.976909    0.840157   -5.183150
C         4.882766    0.846329   -4.103014
S         4.906833   -0.628303   -3.017012
C         3.251211   -1.467779   -3.340437
C         3.196400   -1.967878   -4.789078
N         1.964819   -2.650198   -5.131054
C         1.984918   -3.116508   -6.489100
C         0.765716   -1.906993   -4.815384
C         3.017962   -2.502532   -2.319094
C         1.967078   -2.345331   -1.423141
O         1.147423   -1.400225   -1.359916
N         1.808370   -3.446280   -0.508480
C         0.796419   -3.672516    0.371804
C         0.703122   -4.978946    0.969967
O         1.616618   -5.925008    0.593626
C         1.330017   -6.589680   -0.633260
C         0.236033   -7.632283   -0.494177
C        -0.252017   -5.268019    1.910136
C        -1.224061   -4.308844    2.289669
N        -2.157265   -4.657202    3.221393
C        -3.066234   -3.778146    3.524264
C        -3.156686   -2.474373    2.945244
C        -4.301993   -1.685812    3.279860
N        -5.251598   -1.087715    3.572451
C        -2.188052   -2.073752    2.017979
N        -2.176053   -0.855819    1.381437
C        -2.607951    0.385940    1.860625
C        -2.551450    0.707867    3.221775
C        -2.997636    1.947948    3.656443
Cl        -2.949317    2.327195    5.358618
C        -3.474224    2.907321    2.755858
O        -3.897624    4.131151    3.182573
C        -5.237308    4.185434    3.617056
C        -5.471886    5.463404    4.380472
C        -6.771563    5.938742    4.556173
C        -7.003648    7.101874    5.300755
C        -8.348647    7.585104    5.475035
N        -9.428482    7.977332    5.616783
C        -5.930671    7.802567    5.869239
C        -4.636969    7.328028    5.685113
C        -4.406432    6.167400    4.947619
C        -3.480262    2.595084    1.397707
C        -3.060532    1.348951    0.950227
C        -1.173856   -3.031096    1.666640
C        -0.152221   -2.724462    0.744312
N         6.021704   -0.426799   -5.875030
C         5.861027   -0.537617   -7.228255
C         5.595100   -1.948106   -7.714507
O         5.909952    0.413549   -7.982625
H         5.747199    1.612274   -5.934744
N         8.363067    0.437147   -4.820040
C         9.691358    0.687472   -4.329304
H         5.013189    1.746922   -3.489222
H         3.891704    0.897530   -4.576167
H         4.029710   -2.679032   -4.944690
H         3.373885   -1.114037   -5.489357
H         2.863418   -3.760785   -6.659782
H         2.024046   -2.290991   -7.243714
H         1.084640   -3.714193   -6.704277
H         0.705184   -1.692416   -3.738015
H        -0.116647   -2.507301   -5.088244
H         0.698067   -0.941225   -5.372451
H         2.515780   -4.167473   -0.549726
H         2.276898   -7.062025   -0.934112
H         1.066801   -5.850467   -1.410393
H         0.090219   -8.153374   -1.452598
H        -0.720257   -7.169141   -0.210026
H         0.502518   -8.375753    0.271928
H        -0.286873   -6.257848    2.366003
H        -3.825547   -4.062894    4.262266
H        -1.635487   -0.829621    0.523862
H        -2.164009   -0.008547    3.946250
H        -5.462981    3.323057    4.271497
H        -5.923078    4.126357    2.751596
H        -7.617534    5.407631    4.113273
H        -6.119003    8.710261    6.444658
H        -3.794691    7.868419    6.121451
H        -3.393014    5.793283    4.797389
H        -3.834509    3.351886    0.695530
H        -3.091599    1.108121   -0.114013
H        -0.028823   -1.749487    0.273915
H         5.800128   -1.223998   -5.278296
H         6.063457   -2.711740   -7.077482
H         5.952813   -2.045190   -8.746606
H         4.507657   -2.119842   -7.705312
H         8.160530   -0.396283   -5.355857
H        10.417161    0.784752   -5.153131
H        10.030409   -0.114142   -3.653802
H         9.663919    1.631198   -3.769103
H         2.514156   -0.667889   -3.179326
H         3.582516   -3.438448   -2.367796
