93
-1 1
O         4.109769   -0.011873   -8.815198
C         4.232527    0.392373   -7.669310
C         4.463024   -0.569308   -6.489533
C         3.454575   -0.340718   -5.335428
S         3.904388    1.030741   -4.200307
C         4.006474   -2.146372   -2.298799
C         5.267203   -2.494735   -3.029062
N         5.328043   -3.864721   -3.503883
C         6.680949   -4.334526   -3.714422
C         4.518419   -4.072673   -4.693985
C         3.139341   -3.054552   -1.835350
C         1.900666   -2.654933   -1.136508
O         1.642619   -1.527285   -0.763256
N         1.019264   -3.714817   -0.952416
C        -0.259041   -3.671892   -0.418674
C        -1.044636   -4.863672   -0.534055
O        -0.490336   -5.930141   -1.179573
C        -0.672300   -5.957191   -2.596831
C        -2.065760   -6.389674   -3.008718
C        -2.295439   -4.933899    0.024336
C        -2.869392   -3.814452    0.677359
N        -4.117297   -3.950701    1.212187
C        -4.642483   -2.903866    1.776250
C        -4.019023   -1.622298    1.866594
C        -4.810257   -0.558358    2.406569
N        -5.505676    0.259452    2.844619
C        -2.726338   -1.456909    1.349729
N        -2.030881   -0.280890    1.354897
C        -2.231038    0.828766    2.199554
C        -2.355029    0.649371    3.580043
C        -2.597422    1.745082    4.396097
Cl        -2.794565    1.514968    6.111408
C        -2.682094    3.037091    3.862140
O        -2.919657    4.112671    4.660167
C        -4.281552    4.363659    4.933843
C        -4.402016    5.346006    6.069911
C        -5.629027    5.963169    6.316923
C        -5.768363    6.852405    7.388945
C        -7.038430    7.484060    7.635988
N        -8.057672    7.994026    7.838006
C        -4.674261    7.135501    8.219107
C        -3.453428    6.521984    7.964811
C        -3.315464    5.632541    6.899296
C        -2.495976    3.208636    2.491483
C        -2.279330    2.116253    1.660237
C        -2.119442   -2.611883    0.738147
C        -0.805619   -2.571468    0.213660
N         5.813562   -0.441570   -5.981952
C         6.800382   -1.347927   -6.129084
C         8.064623   -1.023158   -5.349129
O         6.711237   -2.377037   -6.785435
H         4.354410   -1.575287   -6.917174
N         4.188151    1.700520   -7.317692
C         3.933126    2.744777   -8.269664
H         2.460834   -0.167794   -5.779385
H         3.375677   -1.282133   -4.766989
H         6.098475   -2.321591   -2.321438
H         5.411009   -1.742716   -3.831260
H         7.281456   -4.186748   -2.802979
H         7.188387   -3.832758   -4.564947
H         6.667903   -5.414707   -3.933068
H         3.494340   -3.709415   -4.523654
H         4.460712   -5.150351   -4.917967
H         4.932910   -3.558120   -5.584125
H         1.317442   -4.631635   -1.261884
H         0.078964   -6.669591   -2.966594
H        -0.430786   -4.966200   -3.021317
H        -2.122447   -6.460713   -4.105100
H        -2.825767   -5.667316   -2.677497
H        -2.308017   -7.373997   -2.581841
H        -2.874203   -5.855437   -0.035602
H        -5.648888   -3.008146    2.198579
H        -1.268475   -0.207774    0.691861
H        -2.287074   -0.348304    4.015274
H        -4.796729    3.423587    5.203929
H        -4.781767    4.761277    4.031667
H        -6.489321    5.756768    5.675619
H        -4.789771    7.832512    9.050498
H        -2.595237    6.737993    8.604050
H        -2.358429    5.151139    6.695636
H        -2.543937    4.220903    2.086755
H        -2.168790    2.255313    0.583418
H        -0.170599   -1.692358    0.289960
H         5.878997    0.291126   -5.264384
H         8.025091   -1.547016   -4.381084
H         8.183269    0.051775   -5.154649
H         8.930494   -1.403777   -5.905694
H         4.167503    1.904048   -6.306473
H         4.689861    3.543746   -8.199843
H         2.939602    3.202702   -8.121930
H         3.968050    2.307313   -9.276372
H         3.804269   -1.073703   -2.173051
H         3.340636   -4.117706   -2.006085
