-1 1
 OpenBabel05192410563D

 91 94  0  0  1  0  0  0  0  0999 V2000
    1.6526   -0.8960    0.0328 O   0  0  0  0  0  0  0  0  0  0  0  0
    1.7507   -1.9186   -0.6433 C   0  0  0  0  0  0  0  0  0  0  0  0
    2.5241   -1.9439   -1.9807 C   0  0  2  0  0  0  0  0  0  0  0  0
    3.2401   -0.6073   -2.1916 C   0  0  0  0  0  0  0  0  0  0  0  0
    4.1198   -0.4435   -3.7778 S   0  0  0  0  0  0  0  0  0  0  0  0
    2.9256    0.7097   -4.7073 C   0  0  1  0  0  0  0  0  0  0  0  0
    3.6315    0.9883   -6.0356 C   0  0  0  0  0  0  0  0  0  0  0  0
    2.8742    1.8366   -6.9365 N   0  0  0  0  0  0  0  0  0  0  0  0
    2.4670    3.0922   -6.3535 C   0  0  0  0  0  0  0  0  0  0  0  0
    3.5489    2.0069   -8.1949 C   0  0  0  0  0  0  0  0  0  0  0  0
    1.5402    0.2095   -4.8294 C   0  0  0  0  0  3  0  0  0  0  0  0
    0.5715    0.6115   -3.9046 C   0  0  0  0  0  0  0  0  0  0  0  0
    0.7449    1.3148   -2.8912 O   0  0  0  0  0  0  0  0  0  0  0  0
   -0.7370    0.0499   -4.1260 N   0  0  0  0  0  0  0  0  0  0  0  0
   -1.5003   -0.5252   -3.1398 C   0  0  0  0  0  0  0  0  0  0  0  0
   -2.5200   -1.4507   -3.5551 C   0  0  0  0  0  0  0  0  0  0  0  0
   -2.5669   -1.6586   -4.8940 O   0  0  0  0  0  0  0  0  0  0  0  0
   -3.3846   -2.6839   -5.4043 C   0  0  0  0  0  0  0  0  0  0  0  0
   -3.1213   -2.7993   -6.8896 C   0  0  0  0  0  0  0  0  0  0  0  0
   -3.3440   -2.0646   -2.6440 C   0  0  0  0  0  0  0  0  0  0  0  0
   -3.1893   -1.8306   -1.2541 C   0  0  0  0  0  0  0  0  0  0  0  0
   -4.0556   -2.4519   -0.4016 N   0  0  0  0  0  0  0  0  0  0  0  0
   -3.8846   -2.2549    0.8729 C   0  0  0  0  0  0  0  0  0  0  0  0
   -2.8457   -1.4585    1.4415 C   0  0  0  0  0  0  0  0  0  0  0  0
   -2.6984   -1.5275    2.8625 C   0  0  0  0  0  0  0  0  0  0  0  0
   -2.6275   -1.6519    4.0136 N   0  0  0  0  0  0  0  0  0  0  0  0
   -1.9544   -0.7875    0.5891 C   0  0  0  0  0  0  0  0  0  0  0  0
   -0.8835   -0.0413    0.9986 N   0  0  0  0  0  0  0  0  0  0  0  0
   -0.6753    0.5731    2.2368 C   0  0  0  0  0  0  0  0  0  0  0  0
   -1.6997    1.2640    2.8971 C   0  0  0  0  0  0  0  0  0  0  0  0
   -1.4499    1.8761    4.1141 C   0  0  0  0  0  0  0  0  0  0  0  0
   -2.7470    2.6954    4.9454 Cl  0  0  0  0  0  0  0  0  0  0  0  0
   -0.1741    1.8554    4.6972 C   0  0  0  0  0  0  0  0  0  0  0  0
   -0.0272    2.4844    5.8864 O   0  0  0  0  0  0  0  0  0  0  0  0
    1.1942    2.4043    6.5587 C   0  0  0  0  0  0  0  0  0  0  0  0
    1.0648    3.0895    7.8949 C   0  0  0  0  0  0  0  0  0  0  0  0
    2.2024    3.3379    8.6707 C   0  0  0  0  0  0  0  0  0  0  0  0
    2.1760    3.9133    9.8683 N   0  0  0  0  0  0  0  0  0  0  0  0
    0.9900    4.2790   10.3529 C   0  0  0  0  0  0  0  0  0  0  0  0
   -0.2061    4.0871    9.6651 C   0  0  0  0  0  0  0  0  0  0  0  0
   -0.1697    3.4796    8.4121 C   0  0  0  0  0  0  0  0  0  0  0  0
    0.8509    1.2017    4.0107 C   0  0  0  0  0  0  0  0  0  0  0  0
    0.6036    0.5608    2.7996 C   0  0  0  0  0  0  0  0  0  0  0  0
   -2.1497   -0.9655   -0.8260 C   0  0  0  0  0  0  0  0  0  0  0  0
   -1.3406   -0.3034   -1.7810 C   0  0  0  0  0  0  0  0  0  0  0  0
    1.6266   -2.2184   -3.0850 N   0  0  0  0  0  0  0  0  0  0  0  0
    1.1983   -3.4445   -3.4221 C   0  0  0  0  0  0  0  0  0  0  0  0
    0.4513   -3.5154   -4.7378 C   0  0  0  0  0  0  0  0  0  0  0  0
    1.3913   -4.4487   -2.7335 O   0  0  0  0  0  0  0  0  0  0  0  0
    3.2551   -2.7702   -1.9192 H   0  0  0  0  0  0  0  0  0  0  0  0
    1.2169   -3.1017   -0.2965 N   0  0  0  0  0  0  0  0  0  0  0  0
    0.3620   -3.2851    0.8495 C   0  0  0  0  0  0  0  0  0  0  0  0
    2.5079    0.2116   -2.1208 H   0  0  0  0  0  0  0  0  0  0  0  0
    3.9674   -0.4672   -1.3815 H   0  0  0  0  0  0  0  0  0  0  0  0
    3.8070    0.0273   -6.5516 H   0  0  0  0  0  0  0  0  0  0  0  0
    4.6383    1.4230   -5.8243 H   0  0  0  0  0  0  0  0  0  0  0  0
    1.8273    2.9185   -5.4769 H   0  0  0  0  0  0  0  0  0  0  0  0
    1.8793    3.6665   -7.0871 H   0  0  0  0  0  0  0  0  0  0  0  0
    3.3293    3.7273   -6.0394 H   0  0  0  0  0  0  0  0  0  0  0  0
    3.7676    1.0257   -8.6456 H   0  0  0  0  0  0  0  0  0  0  0  0
    4.5179    2.5566   -8.1093 H   0  0  0  0  0  0  0  0  0  0  0  0
    2.9114    2.5668   -8.8983 H   0  0  0  0  0  0  0  0  0  0  0  0
   -0.8999   -0.3335   -5.0477 H   0  0  0  0  0  0  0  0  0  0  0  0
   -4.4476   -2.4507   -5.2101 H   0  0  0  0  0  0  0  0  0  0  0  0
   -3.1548   -3.6338   -4.8876 H   0  0  0  0  0  0  0  0  0  0  0  0
   -3.3399   -1.8482   -7.3961 H   0  0  0  0  0  0  0  0  0  0  0  0
   -3.7553   -3.5834   -7.3282 H   0  0  0  0  0  0  0  0  0  0  0  0
   -2.0685   -3.0565   -7.0762 H   0  0  0  0  0  0  0  0  0  0  0  0
   -4.1334   -2.7535   -2.9408 H   0  0  0  0  0  0  0  0  0  0  0  0
   -4.5723   -2.7614    1.5610 H   0  0  0  0  0  0  0  0  0  0  0  0
   -0.0361   -0.1372    0.4281 H   0  0  0  0  0  0  0  0  0  0  0  0
   -2.6999    1.3173    2.4663 H   0  0  0  0  0  0  0  0  0  0  0  0
    2.0018    2.8812    5.9712 H   0  0  0  0  0  0  0  0  0  0  0  0
    1.4829    1.3461    6.7109 H   0  0  0  0  0  0  0  0  0  0  0  0
    3.1921    3.0518    8.2914 H   0  0  0  0  0  0  0  0  0  0  0  0
    0.9910    4.7527   11.3410 H   0  0  0  0  0  0  0  0  0  0  0  0
   -1.1527    4.4086   10.1036 H   0  0  0  0  0  0  0  0  0  0  0  0
   -1.0773    3.3095    7.8305 H   0  0  0  0  0  0  0  0  0  0  0  0
    1.8607    1.1757    4.4206 H   0  0  0  0  0  0  0  0  0  0  0  0
    1.4059    0.0471    2.2662 H   0  0  0  0  0  0  0  0  0  0  0  0
   -0.5733    0.4143   -1.4945 H   0  0  0  0  0  0  0  0  0  0  0  0
    1.4979   -1.4304   -3.7513 H   0  0  0  0  0  0  0  0  0  0  0  0
   -0.2815   -2.7009   -4.8215 H   0  0  0  0  0  0  0  0  0  0  0  0
   -0.0546   -4.4858   -4.8074 H   0  0  0  0  0  0  0  0  0  0  0  0
    1.1627   -3.4146   -5.5714 H   0  0  0  0  0  0  0  0  0  0  0  0
    1.2953   -3.8496   -0.9960 H   0  0  0  0  0  0  0  0  0  0  0  0
    0.6206   -4.2162    1.3749 H   0  0  0  0  0  0  0  0  0  0  0  0
   -0.7013   -3.3314    0.5615 H   0  0  0  0  0  0  0  0  0  0  0  0
    0.4919   -2.4425    1.5404 H   0  0  0  0  0  0  0  0  0  0  0  0
    1.2634   -0.3663   -5.7179 H   0  0  0  0  0  0  0  0  0  0  0  0
    2.9281    1.6095   -4.0750 H   0  0  0  0  0  0  0  0  0  0  0  0
  2 51  1  0  0  0  0
  2  1  2  0  0  0  0
  3 50  1  1  0  0  0
  3  2  1  0  0  0  0
  4 53  1  0  0  0  0
  4  3  1  0  0  0  0
  4 54  1  0  0  0  0
  5  4  1  0  0  0  0
  6 91  1  1  0  0  0
  6  5  1  0  0  0  0
  7 56  1  0  0  0  0
  7  6  1  0  0  0  0
  8  9  1  0  0  0  0
  8  7  1  0  0  0  0
  9 59  1  0  0  0  0
  9 57  1  0  0  0  0
 10 61  1  0  0  0  0
 10  8  1  0  0  0  0
 11  6  1  0  0  0  0
 11 12  1  0  0  0  0
 12 13  2  0  0  0  0
 14 12  1  0  0  0  0
 14 15  1  0  0  0  0
 15 45  1  0  0  0  0
 16 15  2  0  0  0  0
 16 20  1  0  0  0  0
 17 16  1  0  0  0  0
 18 64  1  0  0  0  0
 18 17  1  0  0  0  0
 18 65  1  0  0  0  0
 19 18  1  0  0  0  0
 20 21  2  0  0  0  0
 21 44  1  0  0  0  0
 21 22  1  0  0  0  0
 22 23  2  0  0  0  0
 23 24  1  0  0  0  0
 23 70  1  0  0  0  0
 24 25  1  0  0  0  0
 25 26  3  0  0  0  0
 27 28  1  0  0  0  0
 27 24  2  0  0  0  0
 28 29  1  0  0  0  0
 29 43  2  0  0  0  0
 29 30  1  0  0  0  0
 30 31  2  0  0  0  0
 31 33  1  0  0  0  0
 31 32  1  0  0  0  0
 33 34  1  0  0  0  0
 34 35  1  0  0  0  0
 35 74  1  0  0  0  0
 35 36  1  0  0  0  0
 36 41  2  0  0  0  0
 36 37  1  0  0  0  0
 37 38  2  0  0  0  0
 38 39  1  0  0  0  0
 39 76  1  0  0  0  0
 40 77  1  0  0  0  0
 40 39  2  0  0  0  0
 41 40  1  0  0  0  0
 42 79  1  0  0  0  0
 42 33  2  0  0  0  0
 43 42  1  0  0  0  0
 44 27  1  0  0  0  0
 45 81  1  0  0  0  0
 45 44  2  0  0  0  0
 46  3  1  0  0  0  0
 47 46  1  0  0  0  0
 47 49  2  0  0  0  0
 48 47  1  0  0  0  0
 51 52  1  0  0  0  0
 52 87  1  0  0  0  0
 52 89  1  0  0  0  0
 55  7  1  0  0  0  0
 58  9  1  0  0  0  0
 60 10  1  0  0  0  0
 62 10  1  0  0  0  0
 63 14  1  0  0  0  0
 66 19  1  0  0  0  0
 67 19  1  0  0  0  0
 68 19  1  0  0  0  0
 69 20  1  0  0  0  0
 71 28  1  0  0  0  0
 72 30  1  0  0  0  0
 73 35  1  0  0  0  0
 75 37  1  0  0  0  0
 78 41  1  0  0  0  0
 80 43  1  0  0  0  0
 82 46  1  0  0  0  0
 83 48  1  0  0  0  0
 84 48  1  0  0  0  0
 85 48  1  0  0  0  0
 86 51  1  0  0  0  0
 88 52  1  0  0  0  0
 90 11  1  0  0  0  0
M  END
