91
-1 1
O         5.430925   -6.324561    8.872152
C         5.594671   -7.323244    8.170919
C         6.502133   -7.313264    6.920604
C         7.288371   -6.002361    6.814446
S         8.233951   -5.817357    5.267170
C         6.598602   -4.358719    4.072865
C         7.488889   -4.229238    2.858704
N         6.888526   -3.436658    1.791462
C         6.559943   -2.093213    2.202258
C         7.696494   -3.457240    0.600209
C         5.326474   -4.885723    3.953364
C         4.379818   -4.779598    5.038748
O         4.553230   -4.150621    6.076796
N         3.208426   -5.536617    4.852643
C         2.406431   -6.064405    5.845736
C         1.391044   -6.989291    5.428286
O         1.379595   -7.238954    4.096472
C         0.505108   -8.217502    3.582899
C         0.777045   -8.359800    2.101764
C         0.527738   -7.553721    6.335797
C         0.647631   -7.271764    7.720261
N        -0.254464   -7.844353    8.570077
C        -0.107832   -7.607339    9.841100
C         0.938770   -6.824117   10.413260
C         1.044311   -6.853408   11.839369
N         1.074827   -6.941385   12.995442
C         1.872970   -6.208617    9.563764
N         2.968924   -5.501457    9.965947
C         3.196397   -4.865752   11.190766
C         2.197821   -4.124567   11.834912
C         2.471210   -3.491613   13.036329
Cl         1.205300   -2.607467   13.847844
C         3.747064   -3.541911   13.617569
O         3.917955   -2.890175   14.790226
C         5.139786   -2.989722   15.460376
C         5.035054   -2.270312   16.780535
C         6.182196   -2.037100   17.546972
N         6.176309   -1.433403   18.730866
C         5.003183   -1.022253   19.210184
C         3.799613   -1.195310   18.530486
C         3.814194   -1.832699   17.292005
C         4.748183   -4.245743   12.944935
C         4.476028   -4.906531   11.750160
C         1.692110   -6.416539    8.149823
C         2.534640   -5.795811    7.195160
N         5.713915   -7.509297    5.713751
C         5.254107   -8.695550    5.280079
C         4.643343   -8.676740    3.894464
O         5.273514   -9.725393    5.954488
H         7.198982   -8.165199    7.014199
N         5.032314   -8.515739    8.431988
C         4.111243   -8.748708    9.514669
H         6.579052   -5.169607    6.917232
H         7.967100   -5.948069    7.677589
H         7.685399   -5.235631    2.456455
H         8.471725   -3.815252    3.173615
H         5.865743   -2.116658    3.054400
H         6.061917   -1.558629    1.377429
H         7.454686   -1.497539    2.501634
H         7.868095   -4.495426    0.275059
H         8.697120   -2.980953    0.735400
H         7.183646   -2.925989   -0.218184
H         3.069873   -5.946527    3.938687
H        -0.542133   -7.914617    3.764237
H         0.669940   -9.175152    4.109224
H         0.622410   -7.401160    1.586064
H         0.099462   -9.106108    1.662678
H         1.812784   -8.684878    1.926450
H        -0.266709   -8.237333    6.040803
H        -0.826332   -8.071828   10.527330
H         3.819322   -5.646572    9.402184
H         1.199314   -4.045165   11.404299
H         5.957869   -2.550018   14.858782
H         5.398233   -4.052033   15.635876
H         7.161900   -2.360341   17.171810
H         5.021376   -0.525821   20.186845
H         2.864249   -0.836236   18.963897
H         2.899975   -1.989752   16.717063
H         5.758162   -4.293820   13.352026
H         5.262303   -5.453631   11.226014
H         3.302001   -5.083625    7.488839
H         5.819346   -6.760393    5.025918
H         3.605854   -8.315782    3.964634
H         4.637520   -9.698867    3.497397
H         5.193081   -8.009400    3.215767
H         5.147338   -9.230453    7.703078
H         4.313678   -9.723947    9.981195
H         3.062694   -8.739266    9.173515
H         4.230923   -7.964921   10.273612
H         5.058701   -5.457089    3.058485
H         6.758141   -3.658252    4.895142
