92
-1 1
O        -1.646045   -6.699185    2.172343
C        -1.827541   -5.510358    1.972690
C        -1.551938   -4.908725    0.577853
C        -0.431889   -3.855386    0.508523
S         1.024408   -4.116915    1.523315
C         0.826498   -2.599576    2.831942
C         0.884215   -3.320023    4.176784
N         0.711333   -2.449007    5.326604
C         0.748466   -3.192659    6.556867
C         1.602404   -1.313956    5.341043
C        -0.323855   -1.756349    2.591573
C        -0.222528   -0.576667    1.841048
O         0.812437    0.016710    1.491745
N        -1.505619   -0.055630    1.425872
C        -1.760957    1.113739    0.775980
C        -3.119352    1.376627    0.361470
O        -4.073188    0.434278    0.622393
C        -4.681090    0.537186    1.904074
C        -5.722784   -0.549331    2.035289
C        -3.465428    2.524643   -0.300619
C        -2.497941    3.517538   -0.599887
N        -2.882814    4.637849   -1.263707
C        -1.979923    5.539637   -1.537143
C        -0.607103    5.412531   -1.173765
C         0.306029    6.474511   -1.485247
N         1.008017    7.353297   -1.761166
C        -0.185666    4.270670   -0.508931
N         1.170045    4.086959   -0.153481
C         2.012063    3.399095   -1.047899
C         1.946972    3.610429   -2.427846
C         2.726852    2.834277   -3.274978
Cl         2.598965    3.091902   -4.998569
C         3.585022    1.832825   -2.808365
O         4.233529    0.980184   -3.632535
C         3.439233   -0.076795   -4.221912
C         2.262813   -0.477116   -3.370322
C         1.002311    0.087327   -3.594372
C        -0.044376   -0.137440   -2.700889
C         0.161113   -0.928797   -1.573264
C         1.406003   -1.518314   -1.351140
C         2.443225   -1.301400   -2.253368
C         3.708032    1.722136   -1.415640
Cl         4.834172    0.573962   -0.756634
C         2.928952    2.470371   -0.545141
C        -1.152604    3.271787   -0.193509
C        -0.803086    2.076069    0.469398
N        -2.754775   -4.386326   -0.094682
C        -3.430429   -3.259462    0.223747
C        -4.490126   -2.802562   -0.753968
O        -3.241306   -2.629159    1.260825
H        -1.257315   -5.791581   -0.003237
N        -2.255238   -4.643841    2.913944
C        -2.478205   -5.030256    4.280476
H        -0.142149   -3.745159   -0.547189
H        -0.820623   -2.877303    0.854078
H         1.847719   -3.882053    4.240992
H         0.087195   -4.078762    4.201510
H         0.006844   -4.007281    6.530618
H         0.503680   -2.538061    7.409457
H         1.742759   -3.658050    6.764705
H         1.453672   -0.701008    4.440870
H         2.678587   -1.606334    5.393063
H         1.386143   -0.683726    6.218731
H        -2.273721   -0.722564    1.462778
H        -5.133680    1.540985    2.006287
H        -3.911613    0.437974    2.690803
H        -5.241486   -1.532735    1.948707
H        -6.483747   -0.450320    1.246355
H        -6.221741   -0.477801    3.012973
H        -4.500301    2.685689   -0.605020
H        -2.302311    6.441242   -2.069866
H         1.249423    3.697840    0.780681
H         1.276613    4.353952   -2.855413
H         4.143131   -0.910355   -4.350923
H         3.101988    0.256656   -5.216471
H         0.850254    0.738596   -4.459643
H        -1.016070    0.332967   -2.869363
H        -0.641112   -1.071389   -0.847057
H         1.575972   -2.118938   -0.454001
H         3.424277   -1.743059   -2.063038
H         2.993850    2.273172    0.526049
H         0.223142    1.832493    0.735739
H        -2.990683   -4.817990   -0.977112
H        -4.470038   -1.704277   -0.769750
H        -5.477503   -3.111418   -0.378409
H        -4.354125   -3.200647   -1.768877
H        -2.455406   -3.692437    2.610619
H        -1.867695   -5.915643    4.503459
H        -3.534409   -5.284117    4.480983
H        -2.182144   -4.208330    4.949249
H        -1.301440   -2.061505    2.964175
H         1.751133   -2.048396    2.618480
