92
-1 1
O        -3.166447   -2.073540    2.394835
C        -2.807492   -3.179516    2.808639
C        -3.093691   -4.472321    2.011441
C        -1.927052   -5.483824    1.963508
S        -1.641604   -6.375734    3.534569
C         1.115696   -2.065913    2.911230
C         1.389869   -3.445736    3.430451
N         1.495498   -3.495653    4.882080
C         1.386383   -4.854131    5.375614
C         2.669212   -2.832858    5.394977
C         0.127963   -1.767839    2.063559
C        -0.085862   -0.366710    1.620120
O         0.752540    0.511337    1.755200
N        -1.327755   -0.151874    1.054267
C        -1.760090    1.007929    0.440413
C        -3.092506    1.025620   -0.103257
O        -3.859581   -0.083007    0.036997
C        -4.874253   -0.017018    1.043115
C        -5.803245   -1.192955    0.871724
C        -3.571953    2.126573   -0.769852
C        -2.782206    3.292202   -0.926977
N        -3.292485    4.355597   -1.602790
C        -2.549547    5.419127   -1.738892
C        -1.230212    5.535171   -1.208557
C        -0.495695    6.754509   -1.391734
N         0.060463    7.753691   -1.572298
C        -0.685462    4.464355   -0.518949
N         0.628307    4.531867    0.015964
C         1.642056    3.856333   -0.696045
C         1.784001    4.038051   -2.073584
C         2.729949    3.294973   -2.767110
Cl         2.882547    3.538780   -4.489404
C         3.555593    2.352543   -2.141085
O         4.416830    1.564319   -2.817687
C         3.850079    0.473424   -3.572168
C         2.634860   -0.147564   -2.932794
C         1.350149    0.277524   -3.291862
C         0.224548   -0.252672   -2.663586
C         0.366036   -1.225095   -1.673984
C         1.643593   -1.649253   -1.306114
C         2.768147   -1.114092   -1.929792
C         3.444215    2.253968   -0.746875
Cl         4.481437    1.152601    0.105393
C         2.502854    2.980230   -0.029845
C        -1.472418    3.288517   -0.370335
C        -0.981657    2.141966    0.295872
N        -3.606207   -4.135893    0.691761
C        -2.923633   -3.432844   -0.237688
C        -3.686849   -3.060714   -1.489627
O        -1.762058   -3.080718   -0.085657
H        -3.916382   -4.981872    2.539690
N        -2.173311   -3.372159    3.966302
C        -1.802649   -2.302703    4.857559
H        -2.181796   -6.204519    1.170954
H        -1.019279   -4.959501    1.624104
H         2.322951   -3.831441    2.949893
H         0.576613   -4.122093    3.126199
H         0.483388   -5.336754    4.967068
H         1.321286   -4.846924    6.475274
H         2.264100   -5.478647    5.090596
H         2.696052   -1.775338    5.094858
H         3.617697   -3.308271    5.049473
H         2.662768   -2.862514    6.495490
H        -1.999851   -0.924525    1.111334
H        -5.415704    0.940423    0.939137
H        -4.393830   -0.057328    2.033063
H        -5.230655   -2.118753    1.009060
H        -6.274994   -1.184017   -0.122753
H        -6.592435   -1.156141    1.636917
H        -4.577470    2.113401   -1.191901
H        -2.971823    6.268335   -2.287676
H         0.635299    4.269114    0.996718
H         1.156202    4.747228   -2.612223
H         4.668562   -0.254302   -3.651835
H         3.605960    0.834453   -4.583948
H         1.232933    1.035599   -4.071585
H        -0.771793    0.093045   -2.949751
H        -0.506693   -1.670749   -1.189328
H         1.754197   -2.401543   -0.522185
H         3.766618   -1.444333   -1.631861
H         2.402125    2.799622    1.041668
H         0.021541    2.116185    0.705981
H        -4.565422   -4.373928    0.488411
H        -3.918509   -1.987514   -1.416511
H        -4.621750   -3.623542   -1.622589
H        -3.035830   -3.214842   -2.360038
H        -1.905514   -4.357461    4.183693
H        -2.469233   -2.262726    5.736537
H        -1.872590   -1.345972    4.323704
H        -0.765902   -2.454091    5.196090
H        -0.550411   -2.528582    1.671081
H         1.759569   -1.242513    3.240696
