-1 1
 OpenBabel05232413483D

 63 64  0  0  1  0  0  0  0  0999 V2000
    5.6424   -2.9831    4.0660 O   0  0  0  0  0  0  0  0  0  0  0  0
    4.7449   -2.3118    3.5937 C   0  0  0  0  0  0  0  0  0  0  0  0
    3.3734   -2.9408    3.2884 C   0  0  2  0  0  0  0  0  0  0  0  0
    2.4099   -2.1530    2.3895 C   0  0  0  0  0  0  0  0  0  0  0  0
    0.8689   -3.0688    2.0351 S   0  0  0  0  0  1  0  0  0  0  0  0
   -0.1375    0.3709    2.6760 C   0  0  0  0  0  0  0  0  0  0  0  0
    0.7901    0.8853    3.4965 C   0  0  0  0  0  0  0  0  0  0  0  0
    2.0109    2.1141    3.1370 S   0  0  0  0  0  0  0  0  0  0  0  0
    1.0969    0.2217    4.7976 C   0  0  0  0  0  0  0  0  0  0  0  0
    0.3949   -0.5807    5.3601 O   0  0  0  0  0  0  0  0  0  0  0  0
    2.3485    0.6198    5.2494 N   0  0  0  0  0  0  0  0  0  0  0  0
    3.0155    1.5863    4.5424 C   0  0  0  0  0  0  0  0  0  0  0  0
    4.0982    2.0460    4.7814 O   0  0  0  0  0  0  0  0  0  0  0  0
   -0.3764    0.7732    1.2824 C   0  0  0  0  0  0  0  0  0  0  0  0
   -0.5053    2.1089    0.8876 C   0  0  0  0  0  0  0  0  0  0  0  0
   -0.6953    2.4121   -0.4610 C   0  0  0  0  0  0  0  0  0  0  0  0
   -0.7344    1.3954   -1.4024 C   0  0  0  0  0  0  0  0  0  0  0  0
   -0.8589    1.7200   -2.7389 O   0  0  0  0  0  0  0  0  0  0  0  0
   -1.9562    1.3594   -3.4217 C   0  0  0  0  0  0  0  0  0  0  0  0
   -1.9112    1.5663   -4.8074 C   0  0  0  0  0  0  0  0  0  0  0  0
   -3.0004    1.2803   -5.6185 C   0  0  0  0  0  0  0  0  0  0  0  0
   -2.8378    1.5064   -7.1151 C   0  0  0  0  0  0  0  0  0  0  0  0
   -1.5419    1.6518   -7.4270 F   0  0  0  0  0  0  0  0  0  0  0  0
   -3.2852    0.4706   -7.8241 F   0  0  0  0  0  0  0  0  0  0  0  0
   -3.4526    2.6081   -7.5344 F   0  0  0  0  0  0  0  0  0  0  0  0
   -4.1568    0.7580   -5.0126 C   0  0  0  0  0  0  0  0  0  0  0  0
   -5.3862    0.4621   -5.7557 N   0  0  0  0  0  0  0  0  0  0  0  0
   -5.6430    1.1465   -6.7210 O   0  0  0  0  0  0  0  0  0  0  0  0
   -6.0906   -0.4299   -5.3318 O   0  0  0  0  0  0  0  0  0  0  0  0
   -4.1927    0.5200   -3.6427 C   0  0  0  0  0  0  0  0  0  0  0  0
   -3.1066    0.8262   -2.8363 C   0  0  0  0  0  0  0  0  0  0  0  0
   -0.5855    0.0474   -1.0227 C   0  0  0  0  0  0  0  0  0  0  0  0
   -0.6141   -0.8622   -2.0092 O   0  0  0  0  0  0  0  0  0  0  0  0
   -0.5145   -2.2287   -1.6539 C   0  0  0  0  0  0  0  0  0  0  0  0
   -0.4307   -0.2540    0.3277 C   0  0  0  0  0  0  0  0  0  0  0  0
    2.7113   -3.3733    4.5084 N   0  0  0  0  0  0  0  0  0  0  0  0
    2.7050   -2.7197    5.6823 C   0  0  0  0  0  0  0  0  0  0  0  0
    1.7233   -3.2328    6.7115 C   0  0  0  0  0  0  0  0  0  0  0  0
    3.4323   -1.7573    5.9346 O   0  0  0  0  0  0  0  0  0  0  0  0
    3.6357   -3.8658    2.7499 H   0  0  0  0  0  0  0  0  0  0  0  0
    4.9050   -1.0169    3.2111 N   0  0  0  0  0  0  0  0  0  0  0  0
    6.1183   -0.2845    3.4687 C   0  0  0  0  0  0  0  0  0  0  0  0
    2.1706   -1.1956    2.8872 H   0  0  0  0  0  0  0  0  0  0  0  0
    2.9384   -1.9074    1.4532 H   0  0  0  0  0  0  0  0  0  0  0  0
   -0.6568   -0.5185    3.0513 H   0  0  0  0  0  0  0  0  0  0  0  0
    2.8622   -0.0391    5.8610 H   0  0  0  0  0  0  0  0  0  0  0  0
   -0.4833    2.9099    1.6294 H   0  0  0  0  0  0  0  0  0  0  0  0
   -0.8095    3.4424   -0.8021 H   0  0  0  0  0  0  0  0  0  0  0  0
   -0.9850    1.9446   -5.2367 H   0  0  0  0  0  0  0  0  0  0  0  0
   -5.0992    0.0922   -3.2154 H   0  0  0  0  0  0  0  0  0  0  0  0
   -3.1500    0.6509   -1.7612 H   0  0  0  0  0  0  0  0  0  0  0  0
   -1.3791   -2.5431   -1.0464 H   0  0  0  0  0  0  0  0  0  0  0  0
    0.3990   -2.4418   -1.0757 H   0  0  0  0  0  0  0  0  0  0  0  0
   -0.5050   -2.7891   -2.5960 H   0  0  0  0  0  0  0  0  0  0  0  0
   -0.2578   -1.2827    0.6789 H   0  0  0  0  0  0  0  0  0  0  0  0
    1.9144   -3.9733    4.3016 H   0  0  0  0  0  0  0  0  0  0  0  0
    1.3407   -4.2365    6.4836 H   0  0  0  0  0  0  0  0  0  0  0  0
    0.8849   -2.5217    6.7358 H   0  0  0  0  0  0  0  0  0  0  0  0
    2.2128   -3.2317    7.6942 H   0  0  0  0  0  0  0  0  0  0  0  0
    4.0937   -0.5120    2.8814 H   0  0  0  0  0  0  0  0  0  0  0  0
    6.8664   -1.0031    3.8259 H   0  0  0  0  0  0  0  0  0  0  0  0
    5.9633    0.4885    4.2371 H   0  0  0  0  0  0  0  0  0  0  0  0
    6.4918    0.1996    2.5520 H   0  0  0  0  0  0  0  0  0  0  0  0
  2  1  2  0  0  0  0
  3 40  1  6  0  0  0
  3  2  1  0  0  0  0
  3 36  1  0  0  0  0
  4 43  1  0  0  0  0
  4  3  1  0  0  0  0
  5  4  1  0  0  0  0
  6 45  1  0  0  0  0
  6  7  2  0  0  0  0
  7  9  1  0  0  0  0
  8  7  1  0  0  0  0
  8 12  1  0  0  0  0
  9 11  1  0  0  0  0
  9 10  2  0  0  0  0
 11 46  1  0  0  0  0
 12 13  2  0  0  0  0
 12 11  1  0  0  0  0
 14  6  1  0  0  0  0
 15 14  1  0  0  0  0
 15 47  1  0  0  0  0
 16 15  2  0  0  0  0
 17 32  2  0  0  0  0
 17 16  1  0  0  0  0
 18 17  1  0  0  0  0
 19 31  1  0  0  0  0
 19 18  1  0  0  0  0
 20 19  2  0  0  0  0
 21 26  2  0  0  0  0
 21 20  1  0  0  0  0
 22 21  1  0  0  0  0
 23 22  1  0  0  0  0
 24 22  1  0  0  0  0
 25 22  1  0  0  0  0
 26 30  1  0  0  0  0
 27 29  2  0  0  0  0
 27 26  1  0  0  0  0
 28 27  2  0  0  0  0
 30 50  1  0  0  0  0
 30 31  2  0  0  0  0
 31 51  1  0  0  0  0
 32 35  1  0  0  0  0
 33 34  1  0  0  0  0
 33 32  1  0  0  0  0
 34 53  1  0  0  0  0
 34 52  1  0  0  0  0
 35 55  1  0  0  0  0
 35 14  2  0  0  0  0
 36 37  1  0  0  0  0
 37 39  2  0  0  0  0
 37 38  1  0  0  0  0
 38 58  1  0  0  0  0
 38 59  1  0  0  0  0
 41 42  1  0  0  0  0
 41  2  1  0  0  0  0
 42 61  1  0  0  0  0
 42 62  1  0  0  0  0
 44  4  1  0  0  0  0
 48 16  1  0  0  0  0
 49 20  1  0  0  0  0
 54 34  1  0  0  0  0
 56 36  1  0  0  0  0
 57 38  1  0  0  0  0
 60 41  1  0  0  0  0
 63 42  1  0  0  0  0
M  END
