63
-1 1
O         3.424659    1.926253    0.498900
C         2.507648    2.485309   -0.072131
C         1.446231    1.662437   -0.835299
C         0.636625    2.443132   -1.876676
S        -0.513424    1.470896   -2.869966
C        -2.413159    2.995533   -2.500229
C        -2.070528    3.941408   -1.544409
S        -1.293917    5.529487   -1.760986
C        -2.076735    3.572186   -0.146767
O        -2.560018    2.569503    0.352794
N        -1.379733    4.529201    0.616067
C        -0.823482    5.596905   -0.032717
O        -0.120965    6.454155    0.446888
C        -2.693041    3.278998   -3.924820
C        -1.929112    4.171152   -4.692933
C        -2.249844    4.422968   -6.021282
C        -3.329093    3.772953   -6.608795
O        -3.620213    3.996027   -7.943754
C        -4.750424    4.638910   -8.282715
C        -5.072888    4.630156   -9.646462
C        -6.195601    5.288744  -10.129456
C        -6.481962    5.185070  -11.620829
F        -5.757105    4.196895  -12.166552
F        -7.760292    4.893264  -11.859999
F        -6.166021    6.293724  -12.281344
C        -7.015303    5.959673   -9.205786
N        -8.200910    6.728061   -9.600988
O        -8.185799    7.275173  -10.681075
O        -9.110186    6.796443   -8.801456
C        -6.714818    5.943246   -7.847660
C        -5.582440    5.297077   -7.374622
C        -4.092839    2.860875   -5.873304
O        -5.169306    2.245903   -6.442712
C        -4.857253    1.193294   -7.328664
C        -3.769983    2.627728   -4.539506
N         0.610704    0.935247    0.104339
C         0.117069    1.439055    1.261046
C        -0.862363    0.547943    1.991278
O         0.431730    2.536392    1.705415
H         2.046132    0.901257   -1.357536
N         2.395069    3.837459   -0.141461
C         3.185498    4.671629    0.728522
H         0.022776    3.192047   -1.346439
H         1.335572    2.994104   -2.525179
H        -2.980332    2.167727   -2.071947
H        -1.017790    4.243587    1.525001
H        -1.049927    4.645900   -4.256141
H        -1.658849    5.114319   -6.624358
H        -4.422496    4.077229  -10.322387
H        -7.388471    6.455528   -7.161266
H        -5.348829    5.297094   -6.309857
H        -4.290704    0.397779   -6.815029
H        -4.267972    1.548390   -8.191337
H        -5.809467    0.783168   -7.689233
H        -4.382073    1.917281   -3.980491
H         0.133340    0.136856   -0.296288
H        -0.816301   -0.501979    1.670899
H        -1.864417    0.952060    1.789358
H        -0.659820    0.617777    3.067890
H         1.497435    4.208103   -0.424034
H         4.236680    4.357037    0.683459
H         2.848589    4.591629    1.776269
H         3.099246    5.717833    0.407447
