-1 1
 OpenBabel05192410563D

 63 65  0  0  1  0  0  0  0  0999 V2000
    6.7151   -0.8932    3.6370 O   0  0  0  0  0  0  0  0  0  0  0  0
    5.5538   -0.6821    3.9525 C   0  0  0  0  0  0  0  0  0  0  0  0
    4.4871   -1.7710    3.7092 C   0  0  2  0  0  0  0  0  0  0  0  0
    3.5697   -1.3860    2.5386 C   0  0  0  0  0  0  0  0  0  0  0  0
    2.7405   -2.8513    1.8635 S   0  0  0  0  0  0  0  0  0  0  0  0
    0.9247   -2.3134    1.7048 C   0  0  1  0  0  0  0  0  0  0  0  0
    0.4523   -1.2949    2.6530 C   0  0  1  0  0  3  0  0  0  0  0  0
    0.4270    0.4567    2.3254 S   0  0  0  0  0  0  0  0  0  0  0  0
   -0.1466   -1.6027    3.8771 C   0  0  0  0  0  0  0  0  0  0  0  0
   -0.3304   -2.7039    4.4273 O   0  0  0  0  0  0  0  0  0  0  0  0
   -0.5754   -0.4012    4.5091 N   0  0  0  0  0  0  0  0  0  0  0  0
   -0.3648    0.7942    3.8898 C   0  0  0  0  0  0  0  0  0  0  0  0
   -0.6639    1.8956    4.2970 O   0  0  0  0  0  0  0  0  0  0  0  0
    0.5677   -1.9448    0.2765 C   0  0  0  0  0  0  0  0  0  0  0  0
    1.4560   -1.3135   -0.5958 C   0  0  0  0  0  0  0  0  0  0  0  0
    1.0270   -0.8512   -1.8397 C   0  0  0  0  0  0  0  0  0  0  0  0
   -0.2906   -1.0395   -2.2256 C   0  0  0  0  0  0  0  0  0  0  0  0
   -0.7232   -0.5737   -3.4553 O   0  0  0  0  0  0  0  0  0  0  0  0
   -1.5507    0.4874   -3.4956 C   0  0  0  0  0  0  0  0  0  0  0  0
   -2.1064    0.7790   -4.7481 C   0  0  0  0  0  0  0  0  0  0  0  0
   -2.9487    1.8676   -4.9301 C   0  0  0  0  0  0  0  0  0  0  0  0
   -3.5327    2.0776   -6.3191 C   0  0  0  0  0  0  0  0  0  0  0  0
   -3.3820    0.9690   -7.0608 F   0  0  0  0  0  0  0  0  0  0  0  0
   -4.8414    2.3272   -6.2751 F   0  0  0  0  0  0  0  0  0  0  0  0
   -2.9339    3.0595   -6.9850 F   0  0  0  0  0  0  0  0  0  0  0  0
   -3.2430    2.6671   -3.8127 C   0  0  0  0  0  0  0  0  0  0  0  0
   -4.0827    3.8675   -3.8929 N   0  0  0  0  0  0  0  0  0  0  0  0
   -4.0460    4.5146   -4.9163 O   0  0  0  0  0  0  0  0  0  0  0  0
   -4.7352    4.1555   -2.9129 O   0  0  0  0  0  0  0  0  0  0  0  0
   -2.7187    2.3605   -2.5612 C   0  0  0  0  0  0  0  0  0  0  0  0
   -1.8629    1.2818   -2.3898 C   0  0  0  0  0  0  0  0  0  0  0  0
   -1.1930   -1.7025   -1.3812 C   0  0  0  0  0  0  0  0  0  0  0  0
   -2.4990   -1.8481   -1.7472 O   0  0  0  0  0  0  0  0  0  0  0  0
   -2.7450   -2.8111   -2.7450 C   0  0  0  0  0  0  0  0  0  0  0  0
   -0.7562   -2.1400   -0.1377 C   0  0  0  0  0  0  0  0  0  0  0  0
    3.7492   -2.2059    4.8902 N   0  0  0  0  0  0  0  0  0  0  0  0
    2.8121   -1.4852    5.5683 C   0  0  0  0  0  0  0  0  0  0  0  0
    1.9533   -2.2797    6.5173 C   0  0  0  0  0  0  0  0  0  0  0  0
    2.6664   -0.2767    5.4288 O   0  0  0  0  0  0  0  0  0  0  0  0
    5.0982   -2.6318    3.4081 H   0  0  0  0  0  0  0  0  0  0  0  0
    5.0988    0.4890    4.4424 N   0  0  0  0  0  0  0  0  0  0  0  0
    5.9678    1.6071    4.6939 C   0  0  0  0  0  0  0  0  0  0  0  0
    2.7931   -0.6869    2.8835 H   0  0  0  0  0  0  0  0  0  0  0  0
    4.1674   -0.8916    1.7584 H   0  0  0  0  0  0  0  0  0  0  0  0
    0.4158   -3.2493    1.9803 H   0  0  0  0  0  0  0  0  0  0  0  0
   -1.0013   -0.4306    5.4266 H   0  0  0  0  0  0  0  0  0  0  0  0
    2.4937   -1.1738   -0.2902 H   0  0  0  0  0  0  0  0  0  0  0  0
    1.7063   -0.3297   -2.5164 H   0  0  0  0  0  0  0  0  0  0  0  0
   -1.8704    0.1175   -5.5801 H   0  0  0  0  0  0  0  0  0  0  0  0
   -2.9892    2.9904   -1.7138 H   0  0  0  0  0  0  0  0  0  0  0  0
   -1.4488    1.0588   -1.4053 H   0  0  0  0  0  0  0  0  0  0  0  0
   -2.4184   -3.8140   -2.4186 H   0  0  0  0  0  0  0  0  0  0  0  0
   -2.2343   -2.5614   -3.6908 H   0  0  0  0  0  0  0  0  0  0  0  0
   -3.8291   -2.8263   -2.9175 H   0  0  0  0  0  0  0  0  0  0  0  0
   -1.4811   -2.6061    0.5333 H   0  0  0  0  0  0  0  0  0  0  0  0
    3.6696   -3.2094    4.9843 H   0  0  0  0  0  0  0  0  0  0  0  0
    2.4780   -3.1547    6.9273 H   0  0  0  0  0  0  0  0  0  0  0  0
    1.0613   -2.6202    5.9555 H   0  0  0  0  0  0  0  0  0  0  0  0
    1.6309   -1.6213    7.3331 H   0  0  0  0  0  0  0  0  0  0  0  0
    4.1194    0.5097    4.7494 H   0  0  0  0  0  0  0  0  0  0  0  0
    6.9566    1.3765    4.2768 H   0  0  0  0  0  0  0  0  0  0  0  0
    6.0785    1.8032    5.7739 H   0  0  0  0  0  0  0  0  0  0  0  0
    5.5794    2.5209    4.2177 H   0  0  0  0  0  0  0  0  0  0  0  0
  1  2  2  0  0  0  0
  2 41  1  0  0  0  0
  3 40  1  6  0  0  0
  3  2  1  0  0  0  0
  3 36  1  0  0  0  0
  4 43  1  0  0  0  0
  4  3  1  0  0  0  0
  5  4  1  0  0  0  0
  6  5  1  0  0  0  0
  6 45  1  1  0  0  0
  7  6  1  6  0  0  0
  7  9  1  0  0  0  0
  8  7  1  0  0  0  0
  8 12  1  0  0  0  0
  9 10  2  0  0  0  0
  9 11  1  0  0  0  0
 11 46  1  0  0  0  0
 12 13  2  0  0  0  0
 12 11  1  0  0  0  0
 14  6  1  0  0  0  0
 15 47  1  0  0  0  0
 15 14  2  0  0  0  0
 16 15  1  0  0  0  0
 17 16  2  0  0  0  0
 17 32  1  0  0  0  0
 18 17  1  0  0  0  0
 19 18  1  0  0  0  0
 19 31  1  0  0  0  0
 20 19  2  0  0  0  0
 21 20  1  0  0  0  0
 21 26  2  0  0  0  0
 22 24  1  0  0  0  0
 22 21  1  0  0  0  0
 23 22  1  0  0  0  0
 25 22  1  0  0  0  0
 26 30  1  0  0  0  0
 27 26  1  0  0  0  0
 27 29  2  0  0  0  0
 28 27  2  0  0  0  0
 30 31  2  0  0  0  0
 30 50  1  0  0  0  0
 31 51  1  0  0  0  0
 32 35  2  0  0  0  0
 33 32  1  0  0  0  0
 34 52  1  0  0  0  0
 34 33  1  0  0  0  0
 35 14  1  0  0  0  0
 35 55  1  0  0  0  0
 36 56  1  0  0  0  0
 36 37  1  0  0  0  0
 37 38  1  0  0  0  0
 38 57  1  0  0  0  0
 38 59  1  0  0  0  0
 39 37  2  0  0  0  0
 41 42  1  0  0  0  0
 41 60  1  0  0  0  0
 42 62  1  0  0  0  0
 44  4  1  0  0  0  0
 48 16  1  0  0  0  0
 49 20  1  0  0  0  0
 53 34  1  0  0  0  0
 54 34  1  0  0  0  0
 58 38  1  0  0  0  0
 61 42  1  0  0  0  0
 63 42  1  0  0  0  0
M  END
