-1 1
 OpenBabel05232413483D

106108  0  0  1  0  0  0  0  0999 V2000
   -1.0987   -2.2857   -4.1060 O   0  0  0  0  0  0  0  0  0  0  0  0
   -2.2093   -2.7540   -4.3601 C   0  0  0  0  0  0  0  0  0  0  0  0
   -2.6735   -2.8679   -5.8152 C   0  0  2  0  0  0  0  0  0  0  0  0
   -2.4902   -1.5316   -6.5569 C   0  0  0  0  0  0  0  0  0  0  0  0
   -3.8075   -0.3215   -6.1767 S   0  0  0  0  0  1  0  0  0  0  0  0
   -3.1808    0.7914   -1.8635 C   0  0  0  0  0  0  0  0  0  0  0  0
   -4.3462    1.1337   -2.7424 C   0  0  0  0  0  0  0  0  0  0  0  0
   -5.6105    0.7129   -2.1356 N   0  0  0  0  0  0  0  0  0  0  0  0
   -5.7994   -0.7278   -2.0789 C   0  0  0  0  0  0  0  0  0  0  0  0
   -5.8714   -1.5224   -3.3950 C   0  0  1  0  0  0  0  0  0  0  0  0
   -5.8770   -2.9126   -3.0685 O   0  0  0  0  0  0  0  0  0  0  0  0
   -7.0356   -1.1805   -4.3076 C   0  0  0  0  0  0  0  0  0  0  0  0
   -6.7694    1.5353   -2.4340 C   0  0  0  0  0  0  0  0  0  0  0  0
   -7.7799    1.4832   -1.2799 C   0  0  1  0  0  0  0  0  0  0  0  0
   -7.0924    1.6031   -0.0653 O   0  0  0  0  0  0  0  0  0  0  0  0
   -8.8228    2.5814   -1.3927 C   0  0  0  0  0  0  0  0  0  0  0  0
   -2.0933    0.1262   -2.2664 C   0  0  0  0  0  0  0  0  0  0  0  0
   -0.9907   -0.1524   -1.3002 C   0  0  0  0  0  0  0  0  0  0  0  0
   -0.8647    0.4687   -0.2547 O   0  0  0  0  0  0  0  0  0  0  0  0
   -0.1631   -1.1867   -1.6744 N   0  0  0  0  0  0  0  0  0  0  0  0
    0.8687   -1.7129   -0.9040 C   0  0  0  0  0  0  0  0  0  0  0  0
    1.3777   -3.0091   -1.2738 C   0  0  0  0  0  0  0  0  0  0  0  0
    0.7493   -3.5744   -2.3081 O   0  0  0  0  0  0  0  0  0  0  0  0
    1.1655   -4.8255   -2.8141 C   0  0  0  0  0  0  0  0  0  0  0  0
    0.2950   -5.1721   -4.0018 C   0  0  0  0  0  0  0  0  0  0  0  0
    2.4253   -3.5759   -0.5834 C   0  0  0  0  0  0  0  0  0  0  0  0
    3.0037   -2.9232    0.5338 C   0  0  0  0  0  0  0  0  0  0  0  0
    4.0425   -3.5376    1.1693 N   0  0  0  0  0  0  0  0  0  0  0  0
    4.5440   -2.9418    2.2123 C   0  0  0  0  0  0  0  0  0  0  0  0
    4.0823   -1.7040    2.7469 C   0  0  0  0  0  0  0  0  0  0  0  0
    4.6576   -1.2700    3.9825 C   0  0  0  0  0  0  0  0  0  0  0  0
    5.1504   -0.9769    4.9904 N   0  0  0  0  0  0  0  0  0  0  0  0
    3.0319   -1.0365    2.0981 C   0  0  0  0  0  0  0  0  0  0  0  0
    2.4848    0.1418    2.5299 N   0  0  0  0  0  0  0  0  0  0  0  0
    3.1028    1.1646    3.2757 C   0  0  0  0  0  0  0  0  0  0  0  0
    4.4159    1.5671    3.0033 C   0  0  0  0  0  0  0  0  0  0  0  0
    4.9980    2.5821    3.7432 C   0  0  0  0  0  0  0  0  0  0  0  0
    6.6441    3.0464    3.4203 Cl  0  0  0  0  0  0  0  0  0  0  0  0
    4.2848    3.2555    4.7504 C   0  0  0  0  0  0  0  0  0  0  0  0
    4.9308    4.2347    5.4100 O   0  0  0  0  0  0  0  0  0  0  0  0
    4.2887    4.9017    6.4609 C   0  0  0  0  0  0  0  0  0  0  0  0
    5.2282    5.9111    7.0731 C   0  0  0  0  0  0  0  0  0  0  0  0
    4.7309    6.8190    8.0144 C   0  0  0  0  0  0  0  0  0  0  0  0
    5.5747    7.7483    8.6165 C   0  0  0  0  0  0  0  0  0  0  0  0
    6.9284    7.7828    8.2798 C   0  0  0  0  0  0  0  0  0  0  0  0
    7.4266    6.8828    7.3404 C   0  0  0  0  0  0  0  0  0  0  0  0
    6.5828    5.9486    6.7384 C   0  0  0  0  0  0  0  0  0  0  0  0
    2.9645    2.8692    4.9912 C   0  0  0  0  0  0  0  0  0  0  0  0
    2.3866    1.8261    4.2704 C   0  0  0  0  0  0  0  0  0  0  0  0
    2.4786   -1.6692    0.9353 C   0  0  0  0  0  0  0  0  0  0  0  0
    1.4315   -1.0770    0.1825 C   0  0  0  0  0  0  0  0  0  0  0  0
   -4.0368   -3.3100   -5.9449 N   0  0  0  0  0  0  0  0  0  0  0  0
   -4.4313   -4.6032   -5.9965 C   0  0  0  0  0  0  0  0  0  0  0  0
   -5.9353   -4.7779   -6.1191 C   0  0  0  0  0  0  0  0  0  0  0  0
   -3.6652   -5.5488   -5.9008 O   0  0  0  0  0  0  0  0  0  0  0  0
   -2.0134   -3.6389   -6.2504 H   0  0  0  0  0  0  0  0  0  0  0  0
   -3.0337   -3.2464   -3.4228 N   0  0  0  0  0  0  0  0  0  0  0  0
   -2.7165   -3.3046   -2.0192 C   0  0  0  0  0  0  0  0  0  0  0  0
   -1.4993   -1.1430   -6.2831 H   0  0  0  0  0  0  0  0  0  0  0  0
   -2.4748   -1.7483   -7.6374 H   0  0  0  0  0  0  0  0  0  0  0  0
   -4.1872    0.7305   -3.7627 H   0  0  0  0  0  0  0  0  0  0  0  0
   -4.3800    2.2320   -2.8359 H   0  0  0  0  0  0  0  0  0  0  0  0
   -6.7082   -0.9388   -1.4854 H   0  0  0  0  0  0  0  0  0  0  0  0
   -4.9589   -1.1575   -1.5097 H   0  0  0  0  0  0  0  0  0  0  0  0
   -4.9464   -1.3581   -3.9715 H   0  0  0  0  0  0  0  0  0  0  0  0
   -6.7022   -3.1196   -2.6190 H   0  0  0  0  0  0  0  0  0  0  0  0
   -7.9997   -1.1863   -3.7676 H   0  0  0  0  0  0  0  0  0  0  0  0
   -7.0825   -1.9123   -5.1272 H   0  0  0  0  0  0  0  0  0  0  0  0
   -6.8880   -0.1966   -4.7724 H   0  0  0  0  0  0  0  0  0  0  0  0
   -7.2766    1.2972   -3.3871 H   0  0  0  0  0  0  0  0  0  0  0  0
   -6.4121    2.5742   -2.5174 H   0  0  0  0  0  0  0  0  0  0  0  0
   -8.3127    0.5074   -1.3225 H   0  0  0  0  0  0  0  0  0  0  0  0
   -6.1996    1.2767   -0.2762 H   0  0  0  0  0  0  0  0  0  0  0  0
   -8.3390    3.5697   -1.3536 H   0  0  0  0  0  0  0  0  0  0  0  0
   -9.5358    2.5176   -0.5580 H   0  0  0  0  0  0  0  0  0  0  0  0
   -9.3830    2.4973   -2.3369 H   0  0  0  0  0  0  0  0  0  0  0  0
   -0.4066   -1.6848   -2.5504 H   0  0  0  0  0  0  0  0  0  0  0  0
    1.0855   -5.5890   -2.0182 H   0  0  0  0  0  0  0  0  0  0  0  0
    2.2291   -4.7636   -3.1084 H   0  0  0  0  0  0  0  0  0  0  0  0
   -0.7621   -5.2668   -3.7149 H   0  0  0  0  0  0  0  0  0  0  0  0
    0.6223   -6.1271   -4.4376 H   0  0  0  0  0  0  0  0  0  0  0  0
    0.3611   -4.3833   -4.7626 H   0  0  0  0  0  0  0  0  0  0  0  0
    2.8373   -4.5460   -0.8559 H   0  0  0  0  0  0  0  0  0  0  0  0
    5.3725   -3.4407    2.7291 H   0  0  0  0  0  0  0  0  0  0  0  0
    1.5671    0.3594    2.1619 H   0  0  0  0  0  0  0  0  0  0  0  0
    4.9929    1.0773    2.2180 H   0  0  0  0  0  0  0  0  0  0  0  0
    3.9696    4.1761    7.2336 H   0  0  0  0  0  0  0  0  0  0  0  0
    3.3791    5.4146    6.0954 H   0  0  0  0  0  0  0  0  0  0  0  0
    3.6693    6.8001    8.2783 H   0  0  0  0  0  0  0  0  0  0  0  0
    5.1731    8.4519    9.3492 H   0  0  0  0  0  0  0  0  0  0  0  0
    7.5921    8.5128    8.7485 H   0  0  0  0  0  0  0  0  0  0  0  0
    8.4845    6.9049    7.0693 H   0  0  0  0  0  0  0  0  0  0  0  0
    6.9689    5.2445    6.0003 H   0  0  0  0  0  0  0  0  0  0  0  0
    2.3754    3.3674    5.7604 H   0  0  0  0  0  0  0  0  0  0  0  0
    1.3635    1.5166    4.4917 H   0  0  0  0  0  0  0  0  0  0  0  0
    1.0283   -0.0994    0.4296 H   0  0  0  0  0  0  0  0  0  0  0  0
   -4.6815   -2.5210   -6.0840 H   0  0  0  0  0  0  0  0  0  0  0  0
   -6.3999   -4.4499   -5.1763 H   0  0  0  0  0  0  0  0  0  0  0  0
   -6.1642   -5.8347   -6.2993 H   0  0  0  0  0  0  0  0  0  0  0  0
   -6.3461   -4.1589   -6.9307 H   0  0  0  0  0  0  0  0  0  0  0  0
   -3.9868   -3.4680   -3.6931 H   0  0  0  0  0  0  0  0  0  0  0  0
   -1.6534   -3.5450   -1.8867 H   0  0  0  0  0  0  0  0  0  0  0  0
   -3.3252   -4.0881   -1.5487 H   0  0  0  0  0  0  0  0  0  0  0  0
   -2.9216   -2.3512   -1.5051 H   0  0  0  0  0  0  0  0  0  0  0  0
   -3.2333    1.1212   -0.8181 H   0  0  0  0  0  0  0  0  0  0  0  0
   -2.0108   -0.2457   -3.2927 H   0  0  0  0  0  0  0  0  0  0  0  0
  2  1  2  0  0  0  0
  2 57  1  0  0  0  0
  3 56  1  6  0  0  0
  3  2  1  0  0  0  0
  4 59  1  0  0  0  0
  4  5  1  0  0  0  0
  4  3  1  0  0  0  0
  6105  1  0  0  0  0
  7  8  1  0  0  0  0
  7  6  1  0  0  0  0
  8  9  1  0  0  0  0
  9 64  1  0  0  0  0
  9 63  1  0  0  0  0
 10 65  1  6  0  0  0
 10 11  1  0  0  0  0
 10  9  1  0  0  0  0
 11 66  1  0  0  0  0
 12 67  1  0  0  0  0
 12 10  1  0  0  0  0
 13  8  1  0  0  0  0
 13 14  1  0  0  0  0
 14 72  1  6  0  0  0
 14 15  1  0  0  0  0
 16 74  1  0  0  0  0
 16 14  1  0  0  0  0
 16 75  1  0  0  0  0
 17  6  2  0  0  0  0
 17 18  1  0  0  0  0
 18 19  2  0  0  0  0
 20 18  1  0  0  0  0
 20 21  1  0  0  0  0
 21 51  1  0  0  0  0
 22 21  2  0  0  0  0
 22 26  1  0  0  0  0
 23 22  1  0  0  0  0
 24 23  1  0  0  0  0
 24 78  1  0  0  0  0
 25 80  1  0  0  0  0
 25 24  1  0  0  0  0
 26 27  2  0  0  0  0
 27 50  1  0  0  0  0
 27 28  1  0  0  0  0
 28 29  2  0  0  0  0
 29 84  1  0  0  0  0
 29 30  1  0  0  0  0
 30 31  1  0  0  0  0
 31 32  3  0  0  0  0
 33 34  1  0  0  0  0
 33 30  2  0  0  0  0
 34 35  1  0  0  0  0
 35 49  1  0  0  0  0
 36 35  2  0  0  0  0
 36 37  1  0  0  0  0
 37 39  2  0  0  0  0
 38 37  1  0  0  0  0
 39 48  1  0  0  0  0
 39 40  1  0  0  0  0
 40 41  1  0  0  0  0
 41 42  1  0  0  0  0
 41 87  1  0  0  0  0
 42 43  1  0  0  0  0
 43 89  1  0  0  0  0
 43 44  2  0  0  0  0
 44 90  1  0  0  0  0
 45 44  1  0  0  0  0
 45 91  1  0  0  0  0
 46 45  2  0  0  0  0
 47 42  2  0  0  0  0
 47 46  1  0  0  0  0
 48 94  1  0  0  0  0
 49 95  1  0  0  0  0
 49 48  2  0  0  0  0
 50 33  1  0  0  0  0
 51 96  1  0  0  0  0
 51 50  2  0  0  0  0
 52  3  1  0  0  0  0
 53 52  1  0  0  0  0
 53 55  2  0  0  0  0
 54 53  1  0  0  0  0
 54 98  1  0  0  0  0
 57 58  1  0  0  0  0
 58102  1  0  0  0  0
 58103  1  0  0  0  0
 58104  1  0  0  0  0
 60  4  1  0  0  0  0
 61  7  1  0  0  0  0
 62  7  1  0  0  0  0
 68 12  1  0  0  0  0
 69 12  1  0  0  0  0
 70 13  1  0  0  0  0
 71 13  1  0  0  0  0
 73 15  1  0  0  0  0
 76 16  1  0  0  0  0
 77 20  1  0  0  0  0
 79 24  1  0  0  0  0
 81 25  1  0  0  0  0
 82 25  1  0  0  0  0
 83 26  1  0  0  0  0
 85 34  1  0  0  0  0
 86 36  1  0  0  0  0
 88 41  1  0  0  0  0
 92 46  1  0  0  0  0
 93 47  1  0  0  0  0
 97 52  1  0  0  0  0
 99 54  1  0  0  0  0
100 54  1  0  0  0  0
101 57  1  0  0  0  0
106 17  1  0  0  0  0
M  END
