-1 1
 OpenBabel05192410563D

106109  0  0  1  0  0  0  0  0999 V2000
   -4.4688    2.5497    0.3975 O   0  0  0  0  0  0  0  0  0  0  0  0
   -3.9897    1.6621   -0.2880 C   0  0  0  0  0  0  0  0  0  0  0  0
   -4.5048    0.2200   -0.1283 C   0  0  2  0  0  0  0  0  0  0  0  0
   -4.1810   -0.2510    1.3021 C   0  0  0  0  0  0  0  0  0  0  0  0
   -2.4774    0.0594    1.8665 S   0  0  0  0  0  0  0  0  0  0  0  0
   -1.4066   -1.3969    1.2994 C   0  0  1  0  0  0  0  0  0  0  0  0
   -1.7286   -2.7122    2.0215 C   0  0  0  0  0  0  0  0  0  0  0  0
   -1.0931   -2.9201    3.3246 N   0  0  0  0  0  0  0  0  0  0  0  0
   -1.4730   -1.9354    4.3380 C   0  0  0  0  0  0  0  0  0  0  0  0
   -0.4858   -0.7612    4.4778 C   0  0  1  0  0  0  0  0  0  0  0  0
   -1.1351    0.3543    5.0446 O   0  0  0  0  0  0  0  0  0  0  0  0
    0.7098   -1.1067    5.3447 C   0  0  0  0  0  0  0  0  0  0  0  0
   -1.2859   -4.2845    3.7786 C   0  0  0  0  0  0  0  0  0  0  0  0
   -0.2631   -4.7816    4.8073 C   0  0  1  0  0  0  0  0  0  0  0  0
   -0.6966   -6.0197    5.3383 O   0  0  0  0  0  0  0  0  0  0  0  0
    1.1453   -4.8844    4.2450 C   0  0  0  0  0  0  0  0  0  0  0  0
   -1.2972   -1.5372   -0.1810 C   0  0  0  0  0  3  0  0  0  0  0  0
   -0.5996   -0.5153   -0.8400 C   0  0  0  0  0  0  0  0  0  0  0  0
   -0.0202    0.4235   -0.2727 O   0  0  0  0  0  0  0  0  0  0  0  0
   -0.6403   -0.5027   -2.2822 N   0  0  0  0  0  0  0  0  0  0  0  0
   -0.2297    0.6223   -2.9870 C   0  0  0  0  0  0  0  0  0  0  0  0
   -1.1011    1.2065   -3.9575 C   0  0  0  0  0  0  0  0  0  0  0  0
   -2.2900    0.5795   -4.0955 O   0  0  0  0  0  0  0  0  0  0  0  0
   -3.3859    1.2331   -4.7210 C   0  0  0  0  0  0  0  0  0  0  0  0
   -3.4290    0.9705   -6.2151 C   0  0  0  0  0  0  0  0  0  0  0  0
   -0.7225    2.3456   -4.6349 C   0  0  0  0  0  0  0  0  0  0  0  0
    0.4953    3.0056   -4.3401 C   0  0  0  0  0  0  0  0  0  0  0  0
    0.7854    4.1252   -5.0687 N   0  0  0  0  0  0  0  0  0  0  0  0
    1.8989    4.7405   -4.7993 C   0  0  0  0  0  0  0  0  0  0  0  0
    2.8067    4.3445   -3.7819 C   0  0  0  0  0  0  0  0  0  0  0  0
    3.9814    5.1169   -3.5373 C   0  0  0  0  0  0  0  0  0  0  0  0
    4.9482    5.7201   -3.3146 N   0  0  0  0  0  0  0  0  0  0  0  0
    2.5377    3.2074   -2.9932 C   0  0  0  0  0  0  0  0  0  0  0  0
    3.4211    2.8725   -2.0067 N   0  0  0  0  0  0  0  0  0  0  0  0
    3.1945    2.0241   -0.8816 C   0  0  0  0  0  0  0  0  0  0  0  0
    2.3816    2.4498    0.1726 C   0  0  0  0  0  0  0  0  0  0  0  0
    2.0773    1.5826    1.2119 C   0  0  0  0  0  0  0  0  0  0  0  0
    1.0074    2.0810    2.4806 Cl  0  0  0  0  0  0  0  0  0  0  0  0
    2.5518    0.2620    1.1990 C   0  0  0  0  0  0  0  0  0  0  0  0
    2.1140   -0.5762    2.1590 O   0  0  0  0  0  0  0  0  0  0  0  0
    1.9377   -1.9376    1.8237 C   0  0  0  0  0  0  0  0  0  0  0  0
    3.4308   -0.1269    0.1847 C   0  0  0  0  0  0  0  0  0  0  0  0
    3.7552    0.7503   -0.8452 C   0  0  0  0  0  0  0  0  0  0  0  0
    1.3401    2.4745   -3.3205 C   0  0  0  0  0  0  0  0  0  0  0  0
    0.9631    1.2551   -2.7060 C   0  0  0  0  0  0  0  0  0  0  0  0
   -3.9960   -0.7257   -1.0881 N   0  0  0  0  0  0  0  0  0  0  0  0
   -4.6163   -1.0170   -2.2528 C   0  0  0  0  0  0  0  0  0  0  0  0
   -3.9227   -2.0725   -3.0965 C   0  0  0  0  0  0  0  0  0  0  0  0
   -5.6475   -0.4787   -2.6298 O   0  0  0  0  0  0  0  0  0  0  0  0
   -5.5976    0.2708   -0.2509 H   0  0  0  0  0  0  0  0  0  0  0  0
   -2.9785    1.8300   -1.1663 N   0  0  0  0  0  0  0  0  0  0  0  0
   -2.1294    2.9981   -1.1579 C   0  0  0  0  0  0  0  0  0  0  0  0
   -4.8034    0.3203    2.0035 H   0  0  0  0  0  0  0  0  0  0  0  0
   -4.4444   -1.3151    1.4084 H   0  0  0  0  0  0  0  0  0  0  0  0
   -1.3689   -3.5234    1.3696 H   0  0  0  0  0  0  0  0  0  0  0  0
   -2.8331   -2.8400    2.0959 H   0  0  0  0  0  0  0  0  0  0  0  0
   -1.5612   -2.4284    5.3199 H   0  0  0  0  0  0  0  0  0  0  0  0
   -2.4704   -1.5197    4.1107 H   0  0  0  0  0  0  0  0  0  0  0  0
   -0.0998   -0.4997    3.4803 H   0  0  0  0  0  0  0  0  0  0  0  0
   -1.7485    0.6762    4.3701 H   0  0  0  0  0  0  0  0  0  0  0  0
    1.4240   -0.2715    5.3583 H   0  0  0  0  0  0  0  0  0  0  0  0
    1.2241   -1.9959    4.9515 H   0  0  0  0  0  0  0  0  0  0  0  0
    0.3889   -1.3137    6.3788 H   0  0  0  0  0  0  0  0  0  0  0  0
   -0.2526   -4.0911    5.6656 H   0  0  0  0  0  0  0  0  0  0  0  0
   -0.6721   -6.6620    4.6221 H   0  0  0  0  0  0  0  0  0  0  0  0
    1.5109   -3.9095    3.9021 H   0  0  0  0  0  0  0  0  0  0  0  0
    1.1717   -5.5669    3.3778 H   0  0  0  0  0  0  0  0  0  0  0  0
    1.8375   -5.2684    5.0079 H   0  0  0  0  0  0  0  0  0  0  0  0
   -1.4290   -0.9858   -2.6916 H   0  0  0  0  0  0  0  0  0  0  0  0
   -3.3442    2.3112   -4.4950 H   0  0  0  0  0  0  0  0  0  0  0  0
   -4.2830    0.8283   -4.2304 H   0  0  0  0  0  0  0  0  0  0  0  0
   -2.5392    1.3622   -6.7290 H   0  0  0  0  0  0  0  0  0  0  0  0
   -4.3187    1.4487   -6.6512 H   0  0  0  0  0  0  0  0  0  0  0  0
   -3.4912   -0.1100   -6.4121 H   0  0  0  0  0  0  0  0  0  0  0  0
   -1.3479    2.8049   -5.3988 H   0  0  0  0  0  0  0  0  0  0  0  0
    2.1421    5.6332   -5.3883 H   0  0  0  0  0  0  0  0  0  0  0  0
    4.2303    3.4818   -1.9379 H   0  0  0  0  0  0  0  0  0  0  0  0
    1.9320    3.4430    0.1516 H   0  0  0  0  0  0  0  0  0  0  0  0
    3.8397   -1.1377    0.1855 H   0  0  0  0  0  0  0  0  0  0  0  0
    4.3988    0.4260   -1.6647 H   0  0  0  0  0  0  0  0  0  0  0  0
    1.5844    0.7968   -1.9511 H   0  0  0  0  0  0  0  0  0  0  0  0
   -3.0756   -1.1437   -0.8533 H   0  0  0  0  0  0  0  0  0  0  0  0
   -3.3783   -1.5713   -3.9103 H   0  0  0  0  0  0  0  0  0  0  0  0
   -4.6861   -2.7210   -3.5455 H   0  0  0  0  0  0  0  0  0  0  0  0
   -3.2124   -2.6818   -2.5195 H   0  0  0  0  0  0  0  0  0  0  0  0
   -2.6132    0.9922   -1.6011 H   0  0  0  0  0  0  0  0  0  0  0  0
   -2.5805    3.7404   -0.4876 H   0  0  0  0  0  0  0  0  0  0  0  0
   -2.0333    3.4309   -2.1661 H   0  0  0  0  0  0  0  0  0  0  0  0
   -1.1297    2.7196   -0.7882 H   0  0  0  0  0  0  0  0  0  0  0  0
   -1.5783   -2.4671   -0.6840 H   0  0  0  0  0  0  0  0  0  0  0  0
   -0.4572   -0.9934    1.6756 H   0  0  0  0  0  0  0  0  0  0  0  0
   -2.2969   -4.4449    4.2138 H   0  0  0  0  0  0  0  0  0  0  0  0
   -1.2177   -4.9531    2.9015 H   0  0  0  0  0  0  0  0  0  0  0  0
    3.1530   -2.7902    2.0899 C   0  0  0  0  0  0  0  0  0  0  0  0
    1.5963   -2.0277    0.7778 H   0  0  0  0  0  0  0  0  0  0  0  0
    1.1048   -2.2925    2.4564 H   0  0  0  0  0  0  0  0  0  0  0  0
    3.3261   -3.9939    1.4001 C   0  0  0  0  0  0  0  0  0  0  0  0
    4.0756   -2.4345    3.0775 C   0  0  0  0  0  0  0  0  0  0  0  0
    5.1489   -3.2727    3.3739 C   0  0  0  0  0  0  0  0  0  0  0  0
    4.3958   -4.8352    1.6998 C   0  0  0  0  0  0  0  0  0  0  0  0
    5.3107   -4.4773    2.6899 C   0  0  0  0  0  0  0  0  0  0  0  0
    6.1515   -5.1342    2.9245 H   0  0  0  0  0  0  0  0  0  0  0  0
    5.8638   -2.9833    4.1478 H   0  0  0  0  0  0  0  0  0  0  0  0
    3.9414   -1.4905    3.6099 H   0  0  0  0  0  0  0  0  0  0  0  0
    2.6106   -4.2739    0.6217 H   0  0  0  0  0  0  0  0  0  0  0  0
    4.5188   -5.7735    1.1536 H   0  0  0  0  0  0  0  0  0  0  0  0
  2  3  1  0  0  0  0
  2  1  2  0  0  0  0
  3 50  1  6  0  0  0
  3  4  1  0  0  0  0
  4 54  1  0  0  0  0
  4  5  1  0  0  0  0
  4 53  1  0  0  0  0
  6 91  1  1  0  0  0
  6  5  1  0  0  0  0
  6  7  1  0  0  0  0
  7 56  1  0  0  0  0
  7  8  1  0  0  0  0
  8 13  1  0  0  0  0
  8  9  1  0  0  0  0
  9 10  1  0  0  0  0
  9 57  1  0  0  0  0
 10 59  1  6  0  0  0
 10 11  1  0  0  0  0
 10 12  1  0  0  0  0
 12 61  1  0  0  0  0
 12 63  1  0  0  0  0
 13 92  1  0  0  0  0
 13 14  1  0  0  0  0
 14 15  1  0  0  0  0
 14 64  1  1  0  0  0
 16 14  1  0  0  0  0
 16 68  1  0  0  0  0
 17  6  1  0  0  0  0
 18 19  2  0  0  0  0
 18 17  1  0  0  0  0
 20 18  1  0  0  0  0
 21 45  1  0  0  0  0
 21 20  1  0  0  0  0
 22 21  2  0  0  0  0
 23 22  1  0  0  0  0
 24 70  1  0  0  0  0
 24 71  1  0  0  0  0
 24 23  1  0  0  0  0
 25 24  1  0  0  0  0
 26 27  2  0  0  0  0
 26 22  1  0  0  0  0
 27 44  1  0  0  0  0
 28 29  2  0  0  0  0
 28 27  1  0  0  0  0
 29 30  1  0  0  0  0
 30 31  1  0  0  0  0
 30 33  2  0  0  0  0
 31 32  3  0  0  0  0
 33 34  1  0  0  0  0
 34 77  1  0  0  0  0
 34 35  1  0  0  0  0
 35 43  2  0  0  0  0
 35 36  1  0  0  0  0
 36 37  2  0  0  0  0
 37 38  1  0  0  0  0
 39 37  1  0  0  0  0
 39 40  1  0  0  0  0
 41 94  1  0  0  0  0
 41 40  1  0  0  0  0
 41 96  1  0  0  0  0
 42 79  1  0  0  0  0
 42 39  2  0  0  0  0
 43 42  1  0  0  0  0
 44 33  1  0  0  0  0
 44 45  2  0  0  0  0
 45 81  1  0  0  0  0
 46 82  1  0  0  0  0
 46  3  1  0  0  0  0
 47 46  1  0  0  0  0
 48 85  1  0  0  0  0
 48 47  1  0  0  0  0
 49 47  2  0  0  0  0
 51 52  1  0  0  0  0
 51  2  1  0  0  0  0
 52 89  1  0  0  0  0
 52 87  1  0  0  0  0
 55  7  1  0  0  0  0
 58  9  1  0  0  0  0
 60 11  1  0  0  0  0
 62 12  1  0  0  0  0
 65 15  1  0  0  0  0
 66 16  1  0  0  0  0
 67 16  1  0  0  0  0
 69 20  1  0  0  0  0
 72 25  1  0  0  0  0
 73 25  1  0  0  0  0
 74 25  1  0  0  0  0
 75 26  1  0  0  0  0
 76 29  1  0  0  0  0
 78 36  1  0  0  0  0
 80 43  1  0  0  0  0
 83 48  1  0  0  0  0
 84 48  1  0  0  0  0
 86 51  1  0  0  0  0
 88 52  1  0  0  0  0
 90 17  1  0  0  0  0
 93 13  1  0  0  0  0
 94 98  1  0  0  0  0
 95 41  1  0  0  0  0
 97100  1  0  0  0  0
 97 94  2  0  0  0  0
 98 99  2  0  0  0  0
 98104  1  0  0  0  0
 99103  1  0  0  0  0
100101  2  0  0  0  0
101102  1  0  0  0  0
101 99  1  0  0  0  0
105 97  1  0  0  0  0
106100  1  0  0  0  0
M  END
