-1 1
 OpenBabel05232414493D

106108  0  0  1  0  0  0  0  0999 V2000
   -7.9348    1.3272    1.2384 O   0  0  0  0  0  0  0  0  0  0  0  0
   -7.3987    0.3554    0.7378 C   0  0  0  0  0  0  0  0  0  0  0  0
   -7.9390   -1.0514    1.0381 C   0  0  2  0  0  0  0  0  0  0  0  0
   -7.5622   -1.4377    2.4771 C   0  0  0  0  0  0  0  0  0  0  0  0
   -5.7725   -1.3765    2.8074 S   0  0  0  0  0  1  0  0  0  0  0  0
   -4.7445   -3.3718    2.0983 C   0  0  0  0  0  3  0  0  0  0  0  0
   -5.3455   -4.4759    2.9465 C   0  0  0  0  0  0  0  0  0  0  0  0
   -4.6862   -4.6822    4.2341 N   0  0  0  0  0  0  0  0  0  0  0  0
   -4.9872   -3.6364    5.2147 C   0  0  0  0  0  0  0  0  0  0  0  0
   -3.9282   -2.5221    5.3262 C   0  0  1  0  0  0  0  0  0  0  0  0
   -4.5192   -1.3494    5.8274 O   0  0  0  0  0  0  0  0  0  0  0  0
   -2.7673   -2.8964    6.2293 C   0  0  0  0  0  0  0  0  0  0  0  0
   -4.8998   -6.0179    4.7560 C   0  0  0  0  0  0  0  0  0  0  0  0
   -3.8184   -6.5006    5.7304 C   0  0  1  0  0  0  0  0  0  0  0  0
   -4.2351   -7.7070    6.3411 O   0  0  0  0  0  0  0  0  0  0  0  0
   -2.4578   -6.6519    5.0695 C   0  0  0  0  0  0  0  0  0  0  0  0
   -4.7284   -3.4599    0.6993 C   0  0  0  0  0  3  0  0  0  0  0  0
   -3.8744   -2.5235    0.0211 C   0  0  0  0  0  0  0  0  0  0  0  0
   -2.9031   -1.9872    0.5513 O   0  0  0  0  0  0  0  0  0  0  0  0
   -4.2335   -2.1580   -1.2903 N   0  0  0  0  0  0  0  0  0  0  0  0
   -3.7665   -1.0271   -1.9569 C   0  0  0  0  0  0  0  0  0  0  0  0
   -4.6504   -0.4244   -2.9114 C   0  0  0  0  0  0  0  0  0  0  0  0
   -5.8480   -1.0308   -3.0350 O   0  0  0  0  0  0  0  0  0  0  0  0
   -6.9439   -0.3466   -3.6332 C   0  0  0  0  0  0  0  0  0  0  0  0
   -7.0239   -0.6008   -5.1269 C   0  0  0  0  0  0  0  0  0  0  0  0
   -4.2638    0.7052   -3.5947 C   0  0  0  0  0  0  0  0  0  0  0  0
   -3.0204    1.3344   -3.3398 C   0  0  0  0  0  0  0  0  0  0  0  0
   -2.7240    2.4387   -4.0866 N   0  0  0  0  0  0  0  0  0  0  0  0
   -1.5835    3.0221   -3.8600 C   0  0  0  0  0  0  0  0  0  0  0  0
   -0.6570    2.6065   -2.8697 C   0  0  0  0  0  0  0  0  0  0  0  0
    0.5501    3.3428   -2.6735 C   0  0  0  0  0  0  0  0  0  0  0  0
    1.5432    3.9161   -2.4926 N   0  0  0  0  0  0  0  0  0  0  0  0
   -0.9344    1.4850   -2.0608 C   0  0  0  0  0  0  0  0  0  0  0  0
   -0.0259    1.1298   -1.1070 N   0  0  0  0  0  0  0  0  0  0  0  0
   -0.2310    0.3284    0.0543 C   0  0  0  0  0  0  0  0  0  0  0  0
   -1.1011    0.7506    1.0638 C   0  0  0  0  0  0  0  0  0  0  0  0
   -1.3635   -0.0774    2.1457 C   0  0  0  0  0  0  0  0  0  0  0  0
   -2.5251    0.3888    3.3425 Cl  0  0  0  0  0  0  0  0  0  0  0  0
   -0.7706   -1.3472    2.2315 C   0  0  0  0  0  0  0  0  0  0  0  0
   -1.1769   -2.1705    3.2176 O   0  0  0  0  0  0  0  0  0  0  0  0
   -1.2823   -3.5487    2.9230 C   0  0  0  0  0  0  0  0  0  0  0  0
    0.1751   -1.7141    1.2724 C   0  0  0  0  0  0  0  0  0  0  0  0
    0.4365   -0.8866    0.1852 C   0  0  0  0  0  0  0  0  0  0  0  0
   -2.1637    0.7854   -2.3428 C   0  0  0  0  0  0  0  0  0  0  0  0
   -2.5520   -0.4211   -1.7026 C   0  0  0  0  0  0  0  0  0  0  0  0
   -7.4998   -2.0845    0.1272 N   0  0  0  0  0  0  0  0  0  0  0  0
   -8.1559   -2.3655   -1.0229 C   0  0  0  0  0  0  0  0  0  0  0  0
   -7.6185   -3.5337   -1.8303 C   0  0  0  0  0  0  0  0  0  0  0  0
   -9.1191   -1.7247   -1.4161 O   0  0  0  0  0  0  0  0  0  0  0  0
   -9.0327   -0.9684    0.9497 H   0  0  0  0  0  0  0  0  0  0  0  0
   -6.3014    0.4201   -0.0593 N   0  0  0  0  0  0  0  0  0  0  0  0
   -5.4745    1.6037   -0.0816 C   0  0  0  0  0  0  0  0  0  0  0  0
   -8.0543   -0.7299    3.1591 H   0  0  0  0  0  0  0  0  0  0  0  0
   -7.9740   -2.4401    2.6893 H   0  0  0  0  0  0  0  0  0  0  0  0
   -5.2334   -5.4085    2.3716 H   0  0  0  0  0  0  0  0  0  0  0  0
   -6.4395   -4.3156    3.0697 H   0  0  0  0  0  0  0  0  0  0  0  0
   -5.1205   -4.0900    6.2114 H   0  0  0  0  0  0  0  0  0  0  0  0
   -5.9454   -3.1522    4.9585 H   0  0  0  0  0  0  0  0  0  0  0  0
   -3.5188   -2.3286    4.3217 H   0  0  0  0  0  0  0  0  0  0  0  0
   -5.0876   -1.0262    5.1057 H   0  0  0  0  0  0  0  0  0  0  0  0
   -2.0135   -2.0965    6.2248 H   0  0  0  0  0  0  0  0  0  0  0  0
   -2.2872   -3.8260    5.8883 H   0  0  0  0  0  0  0  0  0  0  0  0
   -3.1179   -3.0426    7.2642 H   0  0  0  0  0  0  0  0  0  0  0  0
   -3.7347   -5.7759    6.5559 H   0  0  0  0  0  0  0  0  0  0  0  0
   -4.2721   -8.3779    5.6521 H   0  0  0  0  0  0  0  0  0  0  0  0
   -2.1279   -5.7051    4.6262 H   0  0  0  0  0  0  0  0  0  0  0  0
   -2.5028   -7.3979    4.2566 H   0  0  0  0  0  0  0  0  0  0  0  0
   -1.7031   -6.9800    5.7985 H   0  0  0  0  0  0  0  0  0  0  0  0
   -5.1337   -2.4838   -1.6178 H   0  0  0  0  0  0  0  0  0  0  0  0
   -6.8691    0.7275   -3.3996 H   0  0  0  0  0  0  0  0  0  0  0  0
   -7.8390   -0.7286   -3.1228 H   0  0  0  0  0  0  0  0  0  0  0  0
   -6.1374   -0.2270   -5.6597 H   0  0  0  0  0  0  0  0  0  0  0  0
   -7.9119   -0.1000   -5.5406 H   0  0  0  0  0  0  0  0  0  0  0  0
   -7.1152   -1.6784   -5.3280 H   0  0  0  0  0  0  0  0  0  0  0  0
   -4.8986    1.1765   -4.3429 H   0  0  0  0  0  0  0  0  0  0  0  0
   -1.3332    3.9018   -4.4653 H   0  0  0  0  0  0  0  0  0  0  0  0
    0.8217    1.6887   -1.1010 H   0  0  0  0  0  0  0  0  0  0  0  0
   -1.6244    1.7034    0.9744 H   0  0  0  0  0  0  0  0  0  0  0  0
    0.6699   -2.6830    1.3520 H   0  0  0  0  0  0  0  0  0  0  0  0
    1.1273   -1.2049   -0.5975 H   0  0  0  0  0  0  0  0  0  0  0  0
   -1.9260   -0.8856   -0.9535 H   0  0  0  0  0  0  0  0  0  0  0  0
   -6.6681   -2.6165    0.3914 H   0  0  0  0  0  0  0  0  0  0  0  0
   -7.0098   -3.1415   -2.6591 H   0  0  0  0  0  0  0  0  0  0  0  0
   -8.4712   -4.0698   -2.2660 H   0  0  0  0  0  0  0  0  0  0  0  0
   -7.0093   -4.2319   -1.2408 H   0  0  0  0  0  0  0  0  0  0  0  0
   -5.8416   -0.4629   -0.2447 H   0  0  0  0  0  0  0  0  0  0  0  0
   -6.1157    2.4770    0.0904 H   0  0  0  0  0  0  0  0  0  0  0  0
   -4.9726    1.7044   -1.0543 H   0  0  0  0  0  0  0  0  0  0  0  0
   -4.7120    1.5660    0.7149 H   0  0  0  0  0  0  0  0  0  0  0  0
   -5.4378   -4.0815    0.1471 H   0  0  0  0  0  0  0  0  0  0  0  0
   -3.8472   -2.9144    2.5105 H   0  0  0  0  0  0  0  0  0  0  0  0
   -5.8801   -6.1256    5.2700 H   0  0  0  0  0  0  0  0  0  0  0  0
   -4.9135   -6.7266    3.9084 H   0  0  0  0  0  0  0  0  0  0  0  0
   -0.0776   -4.3472    3.3536 C   0  0  0  0  0  0  0  0  0  0  0  0
   -1.5090   -3.6833    1.8530 H   0  0  0  0  0  0  0  0  0  0  0  0
   -2.1688   -3.9059    3.4752 H   0  0  0  0  0  0  0  0  0  0  0  0
    0.2043   -5.5730    2.7429 C   0  0  0  0  0  0  0  0  0  0  0  0
    0.7284   -3.9132    4.4095 C   0  0  0  0  0  0  0  0  0  0  0  0
    1.7946   -4.6955    4.8499 C   0  0  0  0  0  0  0  0  0  0  0  0
    1.2664   -6.3586    3.1866 C   0  0  0  0  0  0  0  0  0  0  0  0
    2.0652   -5.9218    4.2433 C   0  0  0  0  0  0  0  0  0  0  0  0
    2.8999   -6.5350    4.5907 H   0  0  0  0  0  0  0  0  0  0  0  0
    2.4176   -4.3452    5.6763 H   0  0  0  0  0  0  0  0  0  0  0  0
    0.5088   -2.9529    4.8804 H   0  0  0  0  0  0  0  0  0  0  0  0
   -0.4203   -5.9154    1.9130 H   0  0  0  0  0  0  0  0  0  0  0  0
    1.4746   -7.3152    2.7012 H   0  0  0  0  0  0  0  0  0  0  0  0
  2  3  1  0  0  0  0
  2  1  2  0  0  0  0
  3 50  1  6  0  0  0
  3  4  1  0  0  0  0
  4 54  1  0  0  0  0
  4  5  1  0  0  0  0
  4 53  1  0  0  0  0
  6 91  1  0  0  0  0
  6  7  1  0  0  0  0
  7 56  1  0  0  0  0
  7  8  1  0  0  0  0
  8 13  1  0  0  0  0
  8  9  1  0  0  0  0
  9 10  1  0  0  0  0
  9 57  1  0  0  0  0
 10 59  1  6  0  0  0
 10 11  1  0  0  0  0
 10 12  1  0  0  0  0
 12 63  1  0  0  0  0
 13 92  1  0  0  0  0
 13 14  1  0  0  0  0
 14 15  1  0  0  0  0
 14 64  1  1  0  0  0
 16 14  1  0  0  0  0
 16 68  1  0  0  0  0
 17  6  1  0  0  0  0
 18 19  2  0  0  0  0
 18 17  1  0  0  0  0
 20 18  1  0  0  0  0
 21 45  1  0  0  0  0
 21 20  1  0  0  0  0
 22 21  2  0  0  0  0
 23 22  1  0  0  0  0
 24 70  1  0  0  0  0
 24 71  1  0  0  0  0
 24 23  1  0  0  0  0
 25 24  1  0  0  0  0
 26 27  2  0  0  0  0
 26 22  1  0  0  0  0
 27 44  1  0  0  0  0
 28 29  2  0  0  0  0
 28 27  1  0  0  0  0
 29 30  1  0  0  0  0
 30 31  1  0  0  0  0
 30 33  2  0  0  0  0
 31 32  3  0  0  0  0
 33 34  1  0  0  0  0
 34 77  1  0  0  0  0
 34 35  1  0  0  0  0
 35 43  2  0  0  0  0
 35 36  1  0  0  0  0
 36 37  2  0  0  0  0
 37 39  1  0  0  0  0
 37 38  1  0  0  0  0
 39 40  1  0  0  0  0
 41 40  1  0  0  0  0
 41 94  1  0  0  0  0
 41 96  1  0  0  0  0
 42 79  1  0  0  0  0
 42 39  2  0  0  0  0
 43 42  1  0  0  0  0
 44 33  1  0  0  0  0
 44 45  2  0  0  0  0
 45 81  1  0  0  0  0
 46 82  1  0  0  0  0
 46  3  1  0  0  0  0
 47 46  1  0  0  0  0
 48 85  1  0  0  0  0
 48 47  1  0  0  0  0
 49 47  2  0  0  0  0
 51  2  1  0  0  0  0
 52 51  1  0  0  0  0
 52 87  1  0  0  0  0
 52 89  1  0  0  0  0
 55  7  1  0  0  0  0
 58  9  1  0  0  0  0
 60 11  1  0  0  0  0
 61 12  1  0  0  0  0
 62 12  1  0  0  0  0
 65 15  1  0  0  0  0
 66 16  1  0  0  0  0
 67 16  1  0  0  0  0
 69 20  1  0  0  0  0
 72 25  1  0  0  0  0
 73 25  1  0  0  0  0
 74 25  1  0  0  0  0
 75 26  1  0  0  0  0
 76 29  1  0  0  0  0
 78 36  1  0  0  0  0
 80 43  1  0  0  0  0
 83 48  1  0  0  0  0
 84 48  1  0  0  0  0
 86 51  1  0  0  0  0
 88 52  1  0  0  0  0
 90 17  1  0  0  0  0
 93 13  1  0  0  0  0
 94 98  1  0  0  0  0
 95 41  1  0  0  0  0
 97100  1  0  0  0  0
 97 94  2  0  0  0  0
 98 99  2  0  0  0  0
 98104  1  0  0  0  0
 99103  1  0  0  0  0
100101  2  0  0  0  0
101102  1  0  0  0  0
101 99  1  0  0  0  0
105 97  1  0  0  0  0
106100  1  0  0  0  0
M  END
