88
-1 1
O        -6.356043   -2.604405    1.362829
C        -5.169708   -2.907929    1.349042
C        -4.128509   -1.998584    0.676384
C        -3.025472   -1.501224    1.635802
S        -1.799039   -2.728846    2.187907
C        -0.784348   -2.987769    0.585892
C         0.665696   -2.936272    0.788808
C         1.310960   -1.724135    0.574372
O         0.779042   -0.639834    0.248095
N         2.741940   -1.750531    0.731400
C         3.637474   -0.860090    0.212193
C         5.010609   -0.962889    0.613472
O         5.343453   -1.928054    1.524200
C         5.114060   -1.553537    2.875180
C         5.322153   -2.768012    3.751117
C         5.973015   -0.139780    0.086648
C         5.644844    0.871450   -0.850991
N         6.661048    1.621745   -1.370723
C         6.353398    2.525501   -2.253757
C         5.022000    2.804145   -2.676819
C         4.773933    3.848693   -3.619108
N         4.541593    4.688844   -4.385686
C         3.949197    2.073966   -2.145164
N         2.667595    2.338634   -2.558987
C         1.494748    2.222254   -1.766495
C         1.484463    2.700469   -0.455262
C         0.355286    2.515829    0.330463
Cl         0.346994    3.072434    1.978340
C        -0.770243    1.876886   -0.187396
O        -1.849300    1.647019    0.628878
C        -2.929962    2.442699    0.557302
C        -3.043911    3.550373   -0.287567
C        -4.236846    4.271687   -0.260905
N        -5.279201    3.979792    0.513007
C        -5.146053    2.924948    1.321196
C        -4.009754    2.130800    1.390043
C        -0.771567    1.425011   -1.501537
C         0.358431    1.602699   -2.290636
C         4.273164    1.025848   -1.211576
C         3.306389    0.135048   -0.699232
C        -1.292502   -4.273358   -0.073023
N        -0.684095   -4.549399   -1.358685
C        -0.736853   -3.433196   -2.276471
C        -1.197979   -5.763250   -1.931252
N        -4.864880   -0.900393    0.097470
C        -4.441045   -0.231677   -0.998968
C        -5.399224    0.802097   -1.552129
O        -3.353491   -0.437927   -1.517193
H        -3.638101   -2.554597   -0.139448
N        -4.677438   -4.037481    1.895640
C        -5.503609   -4.964459    2.625682
H        -2.475458   -0.691850    1.132966
H        -3.484021   -1.081940    2.545654
H         3.145323   -2.581842    1.142815
H         4.087756   -1.161418    2.988118
H         5.813192   -0.742229    3.150903
H         4.597403   -3.556078    3.499129
H         5.188534   -2.501957    4.809838
H         6.335418   -3.173877    3.614866
H         7.015287   -0.257560    0.385210
H         7.168916    3.118811   -2.684531
H         2.589743    2.961416   -3.356319
H         2.369630    3.178460   -0.034763
H        -2.229969    3.841900   -0.951274
H        -4.345570    5.142318   -0.917899
H        -6.004789    2.688815    1.959755
H        -3.947272    1.272178    2.057265
H        -1.650713    0.883425   -1.860087
H         0.389164    1.201321   -3.304845
H         2.259304    0.191591   -0.971618
H        -1.775577   -3.086998   -2.485084
H        -0.276282   -3.724710   -3.233383
H        -0.169127   -2.580908   -1.877122
H        -2.286167   -5.711053   -2.182375
H        -1.064359   -6.601961   -1.228721
H        -0.655616   -6.010818   -2.858018
H        -5.831783   -0.841548    0.404571
H        -6.338915    0.876305   -0.989192
H        -5.615640    0.551083   -2.600116
H        -4.901901    1.782092   -1.541742
H        -3.657527   -4.091946    1.984182
H        -5.263578   -6.000160    2.342017
H        -6.554233   -4.759499    2.384702
H        -5.370626   -4.862613    3.715777
H        -1.082938   -5.126582    0.597671
H        -2.404931   -4.225846   -0.168985
H        -1.091816   -2.101934    0.008472
H         1.220906   -3.855646    0.991546
