-1 1
 OpenBabel05192410563D

 88 91  0  0  1  0  0  0  0  0999 V2000
   -6.3560   -2.6044    1.3628 O   0  0  0  0  0  0  0  0  0  0  0  0
   -5.1697   -2.9079    1.3490 C   0  0  0  0  0  0  0  0  0  0  0  0
   -4.1285   -1.9986    0.6764 C   0  0  2  0  0  0  0  0  0  0  0  0
   -3.0255   -1.5012    1.6358 C   0  0  0  0  0  0  0  0  0  0  0  0
   -1.7990   -2.7288    2.1879 S   0  0  0  0  0  0  0  0  0  0  0  0
   -0.7843   -2.9878    0.5859 C   0  0  1  0  0  0  0  0  0  0  0  0
    0.6657   -2.9363    0.7888 C   0  0  0  0  0  3  0  0  0  0  0  0
    1.3110   -1.7241    0.5744 C   0  0  0  0  0  0  0  0  0  0  0  0
    0.7790   -0.6398    0.2481 O   0  0  0  0  0  0  0  0  0  0  0  0
    2.7419   -1.7505    0.7314 N   0  0  0  0  0  0  0  0  0  0  0  0
    3.6375   -0.8601    0.2122 C   0  0  0  0  0  0  0  0  0  0  0  0
    5.0106   -0.9629    0.6135 C   0  0  0  0  0  0  0  0  0  0  0  0
    5.3435   -1.9281    1.5242 O   0  0  0  0  0  0  0  0  0  0  0  0
    5.1141   -1.5535    2.8752 C   0  0  0  0  0  0  0  0  0  0  0  0
    5.3222   -2.7680    3.7511 C   0  0  0  0  0  0  0  0  0  0  0  0
    5.9730   -0.1398    0.0866 C   0  0  0  0  0  0  0  0  0  0  0  0
    5.6448    0.8714   -0.8510 C   0  0  0  0  0  0  0  0  0  0  0  0
    6.6610    1.6217   -1.3707 N   0  0  0  0  0  0  0  0  0  0  0  0
    6.3534    2.5255   -2.2538 C   0  0  0  0  0  0  0  0  0  0  0  0
    5.0220    2.8041   -2.6768 C   0  0  0  0  0  0  0  0  0  0  0  0
    4.7739    3.8487   -3.6191 C   0  0  0  0  0  0  0  0  0  0  0  0
    4.5416    4.6888   -4.3857 N   0  0  0  0  0  0  0  0  0  0  0  0
    3.9492    2.0740   -2.1452 C   0  0  0  0  0  0  0  0  0  0  0  0
    2.6676    2.3386   -2.5590 N   0  0  0  0  0  0  0  0  0  0  0  0
    1.4947    2.2223   -1.7665 C   0  0  0  0  0  0  0  0  0  0  0  0
    1.4845    2.7005   -0.4553 C   0  0  0  0  0  0  0  0  0  0  0  0
    0.3553    2.5158    0.3305 C   0  0  0  0  0  0  0  0  0  0  0  0
    0.3470    3.0724    1.9783 Cl  0  0  0  0  0  0  0  0  0  0  0  0
   -0.7702    1.8769   -0.1874 C   0  0  0  0  0  0  0  0  0  0  0  0
   -1.8493    1.6470    0.6289 O   0  0  0  0  0  0  0  0  0  0  0  0
   -2.9300    2.4427    0.5573 C   0  0  0  0  0  0  0  0  0  0  0  0
   -3.0439    3.5504   -0.2876 C   0  0  0  0  0  0  0  0  0  0  0  0
   -4.2368    4.2717   -0.2609 C   0  0  0  0  0  0  0  0  0  0  0  0
   -5.2792    3.9798    0.5130 N   0  0  0  0  0  0  0  0  0  0  0  0
   -5.1461    2.9249    1.3212 C   0  0  0  0  0  0  0  0  0  0  0  0
   -4.0098    2.1308    1.3900 C   0  0  0  0  0  0  0  0  0  0  0  0
   -0.7716    1.4250   -1.5015 C   0  0  0  0  0  0  0  0  0  0  0  0
    0.3584    1.6027   -2.2906 C   0  0  0  0  0  0  0  0  0  0  0  0
    4.2732    1.0258   -1.2116 C   0  0  0  0  0  0  0  0  0  0  0  0
    3.3064    0.1350   -0.6992 C   0  0  0  0  0  0  0  0  0  0  0  0
   -1.2925   -4.2734   -0.0730 C   0  0  0  0  0  0  0  0  0  0  0  0
   -0.6841   -4.5494   -1.3587 N   0  0  0  0  0  0  0  0  0  0  0  0
   -0.7369   -3.4332   -2.2765 C   0  0  0  0  0  0  0  0  0  0  0  0
   -1.1980   -5.7633   -1.9313 C   0  0  0  0  0  0  0  0  0  0  0  0
   -4.8649   -0.9004    0.0975 N   0  0  0  0  0  0  0  0  0  0  0  0
   -4.4410   -0.2317   -0.9990 C   0  0  0  0  0  0  0  0  0  0  0  0
   -5.3992    0.8021   -1.5521 C   0  0  0  0  0  0  0  0  0  0  0  0
   -3.3535   -0.4379   -1.5172 O   0  0  0  0  0  0  0  0  0  0  0  0
   -3.6381   -2.5546   -0.1394 H   0  0  0  0  0  0  0  0  0  0  0  0
   -4.6774   -4.0375    1.8956 N   0  0  0  0  0  0  0  0  0  0  0  0
   -5.5036   -4.9645    2.6257 C   0  0  0  0  0  0  0  0  0  0  0  0
   -2.4755   -0.6918    1.1330 H   0  0  0  0  0  0  0  0  0  0  0  0
   -3.4840   -1.0819    2.5457 H   0  0  0  0  0  0  0  0  0  0  0  0
    3.1453   -2.5818    1.1428 H   0  0  0  0  0  0  0  0  0  0  0  0
    4.0878   -1.1614    2.9881 H   0  0  0  0  0  0  0  0  0  0  0  0
    5.8132   -0.7422    3.1509 H   0  0  0  0  0  0  0  0  0  0  0  0
    4.5974   -3.5561    3.4991 H   0  0  0  0  0  0  0  0  0  0  0  0
    5.1885   -2.5020    4.8098 H   0  0  0  0  0  0  0  0  0  0  0  0
    6.3354   -3.1739    3.6149 H   0  0  0  0  0  0  0  0  0  0  0  0
    7.0153   -0.2576    0.3852 H   0  0  0  0  0  0  0  0  0  0  0  0
    7.1689    3.1188   -2.6845 H   0  0  0  0  0  0  0  0  0  0  0  0
    2.5897    2.9614   -3.3563 H   0  0  0  0  0  0  0  0  0  0  0  0
    2.3696    3.1785   -0.0348 H   0  0  0  0  0  0  0  0  0  0  0  0
   -2.2300    3.8419   -0.9513 H   0  0  0  0  0  0  0  0  0  0  0  0
   -4.3456    5.1423   -0.9179 H   0  0  0  0  0  0  0  0  0  0  0  0
   -6.0048    2.6888    1.9598 H   0  0  0  0  0  0  0  0  0  0  0  0
   -3.9473    1.2722    2.0573 H   0  0  0  0  0  0  0  0  0  0  0  0
   -1.6507    0.8834   -1.8601 H   0  0  0  0  0  0  0  0  0  0  0  0
    0.3892    1.2013   -3.3048 H   0  0  0  0  0  0  0  0  0  0  0  0
    2.2593    0.1916   -0.9716 H   0  0  0  0  0  0  0  0  0  0  0  0
   -1.7756   -3.0870   -2.4851 H   0  0  0  0  0  0  0  0  0  0  0  0
   -0.2763   -3.7247   -3.2334 H   0  0  0  0  0  0  0  0  0  0  0  0
   -0.1691   -2.5809   -1.8771 H   0  0  0  0  0  0  0  0  0  0  0  0
   -2.2862   -5.7111   -2.1824 H   0  0  0  0  0  0  0  0  0  0  0  0
   -1.0644   -6.6020   -1.2287 H   0  0  0  0  0  0  0  0  0  0  0  0
   -0.6556   -6.0108   -2.8580 H   0  0  0  0  0  0  0  0  0  0  0  0
   -5.8318   -0.8415    0.4046 H   0  0  0  0  0  0  0  0  0  0  0  0
   -6.3389    0.8763   -0.9892 H   0  0  0  0  0  0  0  0  0  0  0  0
   -5.6156    0.5511   -2.6001 H   0  0  0  0  0  0  0  0  0  0  0  0
   -4.9019    1.7821   -1.5417 H   0  0  0  0  0  0  0  0  0  0  0  0
   -3.6575   -4.0919    1.9842 H   0  0  0  0  0  0  0  0  0  0  0  0
   -5.2636   -6.0002    2.3420 H   0  0  0  0  0  0  0  0  0  0  0  0
   -6.5542   -4.7595    2.3847 H   0  0  0  0  0  0  0  0  0  0  0  0
   -5.3706   -4.8626    3.7158 H   0  0  0  0  0  0  0  0  0  0  0  0
   -1.0829   -5.1266    0.5977 H   0  0  0  0  0  0  0  0  0  0  0  0
   -2.4049   -4.2258   -0.1690 H   0  0  0  0  0  0  0  0  0  0  0  0
   -1.0918   -2.1019    0.0085 H   0  0  0  0  0  0  0  0  0  0  0  0
    1.2209   -3.8556    0.9915 H   0  0  0  0  0  0  0  0  0  0  0  0
  2  1  2  0  0  0  0
  2 50  1  0  0  0  0
  3 49  1  6  0  0  0
  3  2  1  0  0  0  0
  3  4  1  0  0  0  0
  4  5  1  0  0  0  0
  4 53  1  0  0  0  0
  6 87  1  6  0  0  0
  6  7  1  0  0  0  0
  6  5  1  0  0  0  0
  7 88  1  0  0  0  0
  8 10  1  0  0  0  0
  8  7  1  0  0  0  0
  9  8  2  0  0  0  0
 10 54  1  0  0  0  0
 11 12  1  0  0  0  0
 11 10  1  0  0  0  0
 12 13  1  0  0  0  0
 13 14  1  0  0  0  0
 14 55  1  0  0  0  0
 14 56  1  0  0  0  0
 14 15  1  0  0  0  0
 15 58  1  0  0  0  0
 16 60  1  0  0  0  0
 16 12  2  0  0  0  0
 17 16  1  0  0  0  0
 18 17  2  0  0  0  0
 19 18  1  0  0  0  0
 20 19  2  0  0  0  0
 20 23  1  0  0  0  0
 21 20  1  0  0  0  0
 22 21  3  0  0  0  0
 23 39  2  0  0  0  0
 24 23  1  0  0  0  0
 24 25  1  0  0  0  0
 25 26  1  0  0  0  0
 26 63  1  0  0  0  0
 26 27  2  0  0  0  0
 27 28  1  0  0  0  0
 29 27  1  0  0  0  0
 29 30  1  0  0  0  0
 31 30  1  0  0  0  0
 31 36  1  0  0  0  0
 32 33  1  0  0  0  0
 32 31  2  0  0  0  0
 33 34  2  0  0  0  0
 34 35  1  0  0  0  0
 35 36  2  0  0  0  0
 35 66  1  0  0  0  0
 36 67  1  0  0  0  0
 37 29  2  0  0  0  0
 38 25  2  0  0  0  0
 38 37  1  0  0  0  0
 39 17  1  0  0  0  0
 39 40  1  0  0  0  0
 40 11  2  0  0  0  0
 41  6  1  0  0  0  0
 41 85  1  0  0  0  0
 42 41  1  0  0  0  0
 43 73  1  0  0  0  0
 43 42  1  0  0  0  0
 44 42  1  0  0  0  0
 44 75  1  0  0  0  0
 45 77  1  0  0  0  0
 45  3  1  0  0  0  0
 46 45  1  0  0  0  0
 47 80  1  0  0  0  0
 47 46  1  0  0  0  0
 47 78  1  0  0  0  0
 48 46  2  0  0  0  0
 50 81  1  0  0  0  0
 50 51  1  0  0  0  0
 51 84  1  0  0  0  0
 52  4  1  0  0  0  0
 57 15  1  0  0  0  0
 59 15  1  0  0  0  0
 61 19  1  0  0  0  0
 62 24  1  0  0  0  0
 64 32  1  0  0  0  0
 65 33  1  0  0  0  0
 68 37  1  0  0  0  0
 69 38  1  0  0  0  0
 70 40  1  0  0  0  0
 71 43  1  0  0  0  0
 72 43  1  0  0  0  0
 74 44  1  0  0  0  0
 76 44  1  0  0  0  0
 79 47  1  0  0  0  0
 82 51  1  0  0  0  0
 83 51  1  0  0  0  0
 86 41  1  0  0  0  0
M  END
