96
-1 1
O         3.888774   -3.988355   -4.879746
C         3.528067   -2.914428   -5.331736
C         2.412325   -2.086336   -4.677081
C         2.951529   -0.785594   -4.049087
S         3.228628    0.558580   -5.237107
C         1.425756    1.338613   -5.235813
C         1.366306    2.098501   -6.565399
N         0.274397    3.044239   -6.714917
C        -1.020501    2.484091   -7.023426
C         0.211609    4.047759   -5.680898
C         0.346109    0.397732   -4.971635
C        -0.124604    0.229503   -3.665215
O         0.273132    0.828411   -2.641811
N        -1.160191   -0.748927   -3.531905
C        -1.801180   -1.141497   -2.395908
C        -2.750482   -2.223757   -2.523300
O        -2.875521   -2.692395   -3.777257
C        -3.510656   -3.927460   -4.010963
C        -3.257803   -4.308181   -5.452793
C        -3.418518   -2.722590   -1.431799
C        -3.221001   -2.170462   -0.139062
N        -3.911306   -2.714246    0.903917
C        -3.734124   -2.190093    2.082217
C        -2.867887   -1.091276    2.354859
C        -2.894119   -0.539616    3.671831
N        -2.978685   -0.113929    4.746811
C        -2.119089   -0.534393    1.306524
N        -1.266194    0.525388    1.464383
C        -0.488460    0.814652    2.608506
C        -0.356952    2.139342    3.029827
C         0.447426    2.447172    4.119875
Cl         0.569387    4.099479    4.659290
C         1.140622    1.448988    4.819505
O         1.960124    1.817285    5.824544
C         1.954558    1.111955    7.056927
C         1.474652    2.013960    8.161214
C         0.112009    2.379186    8.178232
O        -0.640482    1.816171    7.221374
C        -2.002347    2.148542    7.097120
C        -0.364117    3.262099    9.150916
C         0.515108    3.769851   10.110994
C         1.857630    3.409461   10.111182
C         2.327156    2.535089    9.126544
C         0.992142    0.126641    4.393119
C         0.192926   -0.189471    3.301000
C        -2.306651   -1.092393   -0.002238
C        -1.599886   -0.609675   -1.130097
N         1.717916   -2.887854   -3.702551
C         0.556549   -3.528394   -3.988705
C         0.010795   -4.386681   -2.865956
O        -0.037495   -3.391120   -5.046503
H         1.664481   -1.817287   -5.433899
N         4.074139   -2.335286   -6.430422
C         5.202152   -2.898292   -7.123548
H         2.225233   -0.423125   -3.308485
H         3.905788   -0.969095   -3.530033
H         1.307862    1.370962   -7.392899
H         2.313665    2.654438   -6.703983
H        -0.922245    1.734829   -7.824409
H        -1.688579    3.283361   -7.391947
H        -1.510385    1.987675   -6.161945
H         1.212282    4.477879   -5.513121
H        -0.159504    3.665150   -4.706057
H        -0.457493    4.867641   -5.994656
H        -1.356020   -1.311768   -4.351980
H        -4.591921   -3.843693   -3.792776
H        -3.094912   -4.687449   -3.323899
H        -3.715879   -3.573829   -6.131388
H        -3.687013   -5.298168   -5.666969
H        -2.173431   -4.320481   -5.635745
H        -4.124833   -3.547552   -1.515047
H        -4.301103   -2.616088    2.918813
H        -0.956546    0.961100    0.603011
H        -0.900340    2.931306    2.513613
H         2.982444    0.774662    7.260483
H         1.301736    0.228249    6.984147
H        -2.398505    1.525370    6.286473
H        -2.125109    3.216734    6.850297
H        -2.553906    1.922566    8.026256
H        -1.412512    3.559690    9.164543
H         0.134037    4.461055   10.866704
H         2.540206    3.811818   10.861986
H         3.384451    2.256456    9.102948
H         1.539143   -0.664631    4.908822
H         0.104842   -1.226180    2.970900
H        -0.841807    0.171743   -1.082540
H         2.248365   -3.199659   -2.900290
H        -0.629944   -5.167107   -3.294108
H        -0.597699   -3.759702   -2.196131
H         0.807025   -4.854232   -2.269095
H         3.778158   -1.381741   -6.638693
H         6.107947   -2.281002   -7.001761
H         4.996861   -3.003959   -8.200926
H         5.395823   -3.892420   -6.700534
H         1.509399    2.035238   -4.390968
H        -0.049974   -0.217669   -5.785046
