-1 1
 OpenBabel05232413483D

 96 98  0  0  1  0  0  0  0  0999 V2000
    3.3599   -5.0439   -7.0411 O   0  0  0  0  0  0  0  0  0  0  0  0
    3.0304   -3.9883   -7.5819 C   0  0  0  0  0  0  0  0  0  0  0  0
    2.2004   -2.9424   -6.8225 C   0  0  2  0  0  0  0  0  0  0  0  0
    2.8904   -1.5611   -6.7648 C   0  0  0  0  0  0  0  0  0  0  0  0
    2.8116   -0.6220   -8.3295 S   0  0  0  0  0  1  0  0  0  0  0  0
    1.3444    1.9152   -4.5837 C   0  0  0  0  0  0  0  0  0  0  0  0
    1.9627    2.2629   -5.9186 C   0  0  0  0  0  0  0  0  0  0  0  0
    1.0585    2.9701   -6.8157 N   0  0  0  0  0  0  0  0  0  0  0  0
    0.0544    2.1228   -7.4173 C   0  0  0  0  0  0  0  0  0  0  0  0
    0.5344    4.2071   -6.3001 C   0  0  0  0  0  0  0  0  0  0  0  0
    0.6887    0.7799   -4.3155 C   0  0  0  0  0  0  0  0  0  0  0  0
    0.0531    0.5785   -2.9843 C   0  0  0  0  0  0  0  0  0  0  0  0
    0.1436    1.3850   -2.0700 O   0  0  0  0  0  0  0  0  0  0  0  0
   -0.6531   -0.6010   -2.8802 N   0  0  0  0  0  0  0  0  0  0  0  0
   -1.3433   -1.0507   -1.7631 C   0  0  0  0  0  0  0  0  0  0  0  0
   -2.1738   -2.2135   -1.9405 C   0  0  0  0  0  0  0  0  0  0  0  0
   -2.2281   -2.6608   -3.1997 O   0  0  0  0  0  0  0  0  0  0  0  0
   -2.9419   -3.8341   -3.5165 C   0  0  0  0  0  0  0  0  0  0  0  0
   -2.8443   -4.0420   -5.0112 C   0  0  0  0  0  0  0  0  0  0  0  0
   -2.8282   -2.7807   -0.8714 C   0  0  0  0  0  0  0  0  0  0  0  0
   -2.7495   -2.2041    0.4213 C   0  0  0  0  0  0  0  0  0  0  0  0
   -3.4138   -2.8249    1.4386 N   0  0  0  0  0  0  0  0  0  0  0  0
   -3.3537   -2.2743    2.6163 C   0  0  0  0  0  0  0  0  0  0  0  0
   -2.6549   -1.0703    2.9184 C   0  0  0  0  0  0  0  0  0  0  0  0
   -2.8134   -0.5342    4.2336 C   0  0  0  0  0  0  0  0  0  0  0  0
   -3.0092   -0.1422    5.3063 N   0  0  0  0  0  0  0  0  0  0  0  0
   -1.9451   -0.4193    1.8960 C   0  0  0  0  0  0  0  0  0  0  0  0
   -1.2616    0.7489    2.0738 N   0  0  0  0  0  0  0  0  0  0  0  0
   -0.6553    1.1927    3.2757 C   0  0  0  0  0  0  0  0  0  0  0  0
   -0.8962    2.4884    3.7344 C   0  0  0  0  0  0  0  0  0  0  0  0
   -0.2729    2.9437    4.8885 C   0  0  0  0  0  0  0  0  0  0  0  0
   -0.6080    4.5489    5.4721 Cl  0  0  0  0  0  0  0  0  0  0  0  0
    0.6046    2.1227    5.6156 C   0  0  0  0  0  0  0  0  0  0  0  0
    1.2168    2.6492    6.6888 O   0  0  0  0  0  0  0  0  0  0  0  0
    1.4478    1.8666    7.8515 C   0  0  0  0  0  0  0  0  0  0  0  0
    0.7996    2.5304    9.0338 C   0  0  0  0  0  0  0  0  0  0  0  0
   -0.6101    2.5639    9.0820 C   0  0  0  0  0  0  0  0  0  0  0  0
   -1.2305    1.9384    8.0697 O   0  0  0  0  0  0  0  0  0  0  0  0
   -2.6353    1.9464    7.9828 C   0  0  0  0  0  0  0  0  0  0  0  0
   -1.2584    3.2098   10.1377 C   0  0  0  0  0  0  0  0  0  0  0  0
   -0.5016    3.8114   11.1466 C   0  0  0  0  0  0  0  0  0  0  0  0
    0.8877    3.7777   11.1142 C   0  0  0  0  0  0  0  0  0  0  0  0
    1.5280    3.1389   10.0483 C   0  0  0  0  0  0  0  0  0  0  0  0
    0.8312    0.8252    5.1464 C   0  0  0  0  0  0  0  0  0  0  0  0
    0.2136    0.3656    3.9890 C   0  0  0  0  0  0  0  0  0  0  0  0
   -1.9875   -1.0208    0.5930 C   0  0  0  0  0  0  0  0  0  0  0  0
   -1.2765   -0.4789   -0.5096 C   0  0  0  0  0  0  0  0  0  0  0  0
    1.9735   -3.5073   -5.5070 N   0  0  0  0  0  0  0  0  0  0  0  0
    0.9688   -3.1417   -4.7074 C   0  0  0  0  0  0  0  0  0  0  0  0
    0.8706   -3.8546   -3.3737 C   0  0  0  0  0  0  0  0  0  0  0  0
    0.1492   -2.2736   -5.0173 O   0  0  0  0  0  0  0  0  0  0  0  0
    1.2309   -2.8012   -7.3286 H   0  0  0  0  0  0  0  0  0  0  0  0
    3.3527   -3.6393   -8.8354 N   0  0  0  0  0  0  0  0  0  0  0  0
    4.2290   -4.4335   -9.6528 C   0  0  0  0  0  0  0  0  0  0  0  0
    2.3878   -0.9982   -5.9632 H   0  0  0  0  0  0  0  0  0  0  0  0
    3.9345   -1.7105   -6.4362 H   0  0  0  0  0  0  0  0  0  0  0  0
    2.3056    1.3585   -6.4485 H   0  0  0  0  0  0  0  0  0  0  0  0
    2.8490    2.8981   -5.7499 H   0  0  0  0  0  0  0  0  0  0  0  0
    0.5363    1.2232   -7.8332 H   0  0  0  0  0  0  0  0  0  0  0  0
   -0.4391    2.6653   -8.2408 H   0  0  0  0  0  0  0  0  0  0  0  0
   -0.7396    1.8016   -6.7049 H   0  0  0  0  0  0  0  0  0  0  0  0
    1.3523    4.8265   -5.8959 H   0  0  0  0  0  0  0  0  0  0  0  0
   -0.2248    4.0831   -5.4936 H   0  0  0  0  0  0  0  0  0  0  0  0
    0.0534    4.7768   -7.1130 H   0  0  0  0  0  0  0  0  0  0  0  0
   -0.6212   -1.2376   -3.6926 H   0  0  0  0  0  0  0  0  0  0  0  0
   -3.9947   -3.7303   -3.1955 H   0  0  0  0  0  0  0  0  0  0  0  0
   -2.5112   -4.6884   -2.9606 H   0  0  0  0  0  0  0  0  0  0  0  0
   -3.3296   -3.2135   -5.5456 H   0  0  0  0  0  0  0  0  0  0  0  0
   -3.3344   -4.9837   -5.2970 H   0  0  0  0  0  0  0  0  0  0  0  0
   -1.7928   -4.0642   -5.3272 H   0  0  0  0  0  0  0  0  0  0  0  0
   -3.4389   -3.6761   -0.9749 H   0  0  0  0  0  0  0  0  0  0  0  0
   -3.8959   -2.7670    3.4324 H   0  0  0  0  0  0  0  0  0  0  0  0
   -0.9727    1.2267    1.2289 H   0  0  0  0  0  0  0  0  0  0  0  0
   -1.5908    3.1367    3.1995 H   0  0  0  0  0  0  0  0  0  0  0  0
    2.5347    1.7788    8.0050 H   0  0  0  0  0  0  0  0  0  0  0  0
    1.0273    0.8582    7.7161 H   0  0  0  0  0  0  0  0  0  0  0  0
   -2.8909    1.3470    7.1011 H   0  0  0  0  0  0  0  0  0  0  0  0
   -3.0167    2.9746    7.8638 H   0  0  0  0  0  0  0  0  0  0  0  0
   -3.0925    1.4897    8.8777 H   0  0  0  0  0  0  0  0  0  0  0  0
   -2.3468    3.2499   10.1797 H   0  0  0  0  0  0  0  0  0  0  0  0
   -1.0173    4.3152   11.9677 H   0  0  0  0  0  0  0  0  0  0  0  0
    1.4728    4.2522   11.9039 H   0  0  0  0  0  0  0  0  0  0  0  0
    2.6203    3.1181   10.0004 H   0  0  0  0  0  0  0  0  0  0  0  0
    1.5263    0.1749    5.6795 H   0  0  0  0  0  0  0  0  0  0  0  0
    0.4135   -0.6448    3.6271 H   0  0  0  0  0  0  0  0  0  0  0  0
   -0.6404    0.3978   -0.4176 H   0  0  0  0  0  0  0  0  0  0  0  0
    2.5407   -4.3308   -5.3141 H   0  0  0  0  0  0  0  0  0  0  0  0
   -0.0714   -4.4199   -3.3380 H   0  0  0  0  0  0  0  0  0  0  0  0
    0.8277   -3.0992   -2.5761 H   0  0  0  0  0  0  0  0  0  0  0  0
    1.7101   -4.5363   -3.1833 H   0  0  0  0  0  0  0  0  0  0  0  0
    3.1735   -2.6400   -9.0745 H   0  0  0  0  0  0  0  0  0  0  0  0
    5.2331   -3.9826   -9.7284 H   0  0  0  0  0  0  0  0  0  0  0  0
    3.8238   -4.5368  -10.6718 H   0  0  0  0  0  0  0  0  0  0  0  0
    4.3281   -5.4303   -9.2032 H   0  0  0  0  0  0  0  0  0  0  0  0
    1.3726    2.6663   -3.7844 H   0  0  0  0  0  0  0  0  0  0  0  0
    0.6034   -0.0227   -5.0551 H   0  0  0  0  0  0  0  0  0  0  0  0
  2  1  2  0  0  0  0
  2  3  1  0  0  0  0
  3 52  1  6  0  0  0
  3  4  1  0  0  0  0
  3 48  1  0  0  0  0
  4 56  1  0  0  0  0
  4 55  1  0  0  0  0
  5  4  1  0  0  0  0
  6 11  2  0  0  0  0
  6 95  1  0  0  0  0
  7 58  1  0  0  0  0
  7  6  1  0  0  0  0
  8 10  1  0  0  0  0
  8  7  1  0  0  0  0
  9  8  1  0  0  0  0
  9 61  1  0  0  0  0
 10 62  1  0  0  0  0
 10 63  1  0  0  0  0
 11 12  1  0  0  0  0
 12 14  1  0  0  0  0
 12 13  2  0  0  0  0
 14 15  1  0  0  0  0
 15 47  1  0  0  0  0
 16 15  2  0  0  0  0
 16 20  1  0  0  0  0
 17 16  1  0  0  0  0
 18 17  1  0  0  0  0
 18 66  1  0  0  0  0
 18 67  1  0  0  0  0
 19 18  1  0  0  0  0
 20 21  2  0  0  0  0
 21 46  1  0  0  0  0
 21 22  1  0  0  0  0
 22 23  2  0  0  0  0
 23 24  1  0  0  0  0
 23 72  1  0  0  0  0
 24 25  1  0  0  0  0
 25 26  3  0  0  0  0
 27 28  1  0  0  0  0
 27 24  2  0  0  0  0
 28 29  1  0  0  0  0
 29 30  2  0  0  0  0
 29 45  1  0  0  0  0
 30 31  1  0  0  0  0
 31 32  1  0  0  0  0
 31 33  2  0  0  0  0
 33 34  1  0  0  0  0
 34 35  1  0  0  0  0
 35 75  1  0  0  0  0
 35 36  1  0  0  0  0
 36 37  2  0  0  0  0
 36 43  1  0  0  0  0
 37 40  1  0  0  0  0
 38 37  1  0  0  0  0
 39 38  1  0  0  0  0
 39 79  1  0  0  0  0
 40 80  1  0  0  0  0
 40 41  2  0  0  0  0
 41 81  1  0  0  0  0
 42 41  1  0  0  0  0
 42 82  1  0  0  0  0
 43 42  2  0  0  0  0
 44 33  1  0  0  0  0
 44 84  1  0  0  0  0
 45 44  2  0  0  0  0
 46 27  1  0  0  0  0
 47 86  1  0  0  0  0
 47 46  2  0  0  0  0
 48 87  1  0  0  0  0
 48 49  1  0  0  0  0
 49 50  1  0  0  0  0
 50 88  1  0  0  0  0
 50 90  1  0  0  0  0
 50 89  1  0  0  0  0
 51 49  2  0  0  0  0
 53  2  1  0  0  0  0
 54 94  1  0  0  0  0
 54 53  1  0  0  0  0
 57  7  1  0  0  0  0
 59  9  1  0  0  0  0
 60  9  1  0  0  0  0
 64 10  1  0  0  0  0
 65 14  1  0  0  0  0
 68 19  1  0  0  0  0
 69 19  1  0  0  0  0
 70 19  1  0  0  0  0
 71 20  1  0  0  0  0
 73 28  1  0  0  0  0
 74 30  1  0  0  0  0
 76 35  1  0  0  0  0
 77 39  1  0  0  0  0
 78 39  1  0  0  0  0
 83 43  1  0  0  0  0
 85 45  1  0  0  0  0
 91 53  1  0  0  0  0
 92 54  1  0  0  0  0
 93 54  1  0  0  0  0
 96 11  1  0  0  0  0
M  END
