96
-1 1
O         7.834436   -8.770116    2.522356
C         7.489983   -7.652644    2.161602
C         6.217657   -6.994631    2.707402
C         6.529870   -5.785567    3.617778
S         7.076138   -4.291322    2.770006
C         5.058116   -3.374304    2.554853
C         5.182334   -2.874714    1.122354
N         4.160516   -1.926994    0.699385
C         2.856095   -2.485172    0.436698
C         4.098897   -0.727205    1.497061
C         4.022350   -4.266980    2.886751
C         3.507242   -4.342941    4.212929
O         3.816621   -3.621995    5.169142
N         2.546355   -5.374089    4.382763
C         1.926541   -5.761281    5.539134
C         0.994381   -6.858919    5.438771
O         0.824290   -7.310687    4.184689
C         0.095600   -8.487904    3.937593
C         0.167812   -8.757647    2.450277
C         0.377098   -7.375802    6.551723
C         0.596929   -6.810324    7.835057
N        -0.041617   -7.374394    8.900677
C         0.150886   -6.835817   10.069659
C         0.977507   -5.700284   10.312731
C         0.967805   -5.154491   11.632929
N         0.890153   -4.746163   12.715028
C         1.668029   -5.115546    9.238774
N         2.473996   -4.018487    9.363481
C         3.226400   -3.662301   10.509455
C         3.177036   -2.352426   10.988521
C         3.942234   -1.984598   12.087387
Cl         3.842665   -0.357135   12.700654
C         4.776197   -2.907967   12.737037
O         5.534572   -2.468475   13.757420
C         5.747619   -3.278200   14.903427
C         5.265857   -2.548598   16.126577
C         3.876495   -2.350632   16.273990
O         3.117841   -2.897593   15.312857
C         1.721771   -2.718741   15.318365
C         3.384471   -1.635260   17.368799
C         4.275742   -1.128519   18.318381
C         5.645694   -1.324917   18.188512
C         6.129826   -2.031912   17.083757
C         4.811850   -4.217522   12.249139
C         4.050469   -4.590966   11.147802
C         1.470430   -5.696785    7.940614
C         2.134558   -5.203520    6.789719
N         5.473938   -8.004149    3.424001
C         4.156723   -8.243893    3.248716
C         3.577084   -9.319965    4.145788
O         3.449728   -7.622642    2.466242
H         5.586415   -6.642026    1.878668
N         8.181883   -6.890005    1.286577
C         9.484491   -7.268750    0.804468
H         5.585365   -5.536956    4.127165
H         7.262818   -6.073085    4.387937
H         5.158456   -3.736884    0.435647
H         6.166069   -2.391968    0.987577
H         2.952367   -3.378221   -0.200362
H         2.241300   -1.746651   -0.107907
H         2.305752   -2.788955    1.351268
H         5.112821   -0.321848    1.644524
H         3.646456   -0.876279    2.501312
H         3.502130    0.041068    0.975354
H         2.399340   -5.984742    3.583303
H        -0.949712   -8.366905    4.278088
H         0.534514   -9.321884    4.516886
H        -0.361527   -7.972596    1.891274
H        -0.289831   -9.728900    2.211703
H         1.219517   -8.745951    2.128643
H        -0.309911   -8.219051    6.494049
H        -0.371709   -7.280190   10.925436
H         2.766461   -3.590453    8.492634
H         2.520626   -1.623391   10.512846
H         6.824192   -3.495826   14.983745
H         5.202258   -4.229062   14.800271
H         1.337010   -3.283574   14.460791
H         1.461598   -1.651610   15.216066
H         1.273051   -3.116167   16.245449
H         2.313905   -1.467925   17.486382
H         3.881756   -0.569289   19.170497
H         6.336808   -0.923735   18.932063
H         7.206128   -2.179896   16.958719
H         5.470722   -4.948350   12.720633
H         4.101448   -5.613413   10.768744
H         2.856353   -4.388312    6.814709
H         6.042559   -8.686178    3.913023
H         2.873886   -9.932633    3.566662
H         3.013691   -8.823784    4.951114
H         4.339933   -9.966569    4.600906
H         7.904080   -5.903350    1.250856
H        10.289313   -6.719987    1.322468
H         9.572076   -7.074504   -0.275624
H         9.623092   -8.341853    0.987959
H         5.224986   -2.604153    3.315401
H         3.683477   -5.002783    2.151797
