-1 1
 OpenBabel05192410563D

 96 99  0  0  1  0  0  0  0  0999 V2000
    3.8888   -3.9884   -4.8797 O   0  0  0  0  0  0  0  0  0  0  0  0
    3.5281   -2.9144   -5.3317 C   0  0  0  0  0  0  0  0  0  0  0  0
    2.4123   -2.0863   -4.6771 C   0  0  2  0  0  0  0  0  0  0  0  0
    2.9515   -0.7856   -4.0491 C   0  0  0  0  0  0  0  0  0  0  0  0
    3.2286    0.5586   -5.2371 S   0  0  0  0  0  0  0  0  0  0  0  0
    1.4258    1.3386   -5.2358 C   0  0  1  0  0  0  0  0  0  0  0  0
    1.3663    2.0985   -6.5654 C   0  0  0  0  0  0  0  0  0  0  0  0
    0.2744    3.0442   -6.7149 N   0  0  0  0  0  0  0  0  0  0  0  0
   -1.0205    2.4841   -7.0234 C   0  0  0  0  0  0  0  0  0  0  0  0
    0.2116    4.0478   -5.6809 C   0  0  0  0  0  0  0  0  0  0  0  0
    0.3461    0.3977   -4.9716 C   0  0  0  0  0  3  0  0  0  0  0  0
   -0.1246    0.2295   -3.6652 C   0  0  0  0  0  0  0  0  0  0  0  0
    0.2731    0.8284   -2.6418 O   0  0  0  0  0  0  0  0  0  0  0  0
   -1.1602   -0.7489   -3.5319 N   0  0  0  0  0  0  0  0  0  0  0  0
   -1.8012   -1.1415   -2.3959 C   0  0  0  0  0  0  0  0  0  0  0  0
   -2.7505   -2.2238   -2.5233 C   0  0  0  0  0  0  0  0  0  0  0  0
   -2.8755   -2.6924   -3.7773 O   0  0  0  0  0  0  0  0  0  0  0  0
   -3.5107   -3.9275   -4.0110 C   0  0  0  0  0  0  0  0  0  0  0  0
   -3.2578   -4.3082   -5.4528 C   0  0  0  0  0  0  0  0  0  0  0  0
   -3.4185   -2.7226   -1.4318 C   0  0  0  0  0  0  0  0  0  0  0  0
   -3.2210   -2.1705   -0.1391 C   0  0  0  0  0  0  0  0  0  0  0  0
   -3.9113   -2.7142    0.9039 N   0  0  0  0  0  0  0  0  0  0  0  0
   -3.7341   -2.1901    2.0822 C   0  0  0  0  0  0  0  0  0  0  0  0
   -2.8679   -1.0913    2.3549 C   0  0  0  0  0  0  0  0  0  0  0  0
   -2.8941   -0.5396    3.6718 C   0  0  0  0  0  0  0  0  0  0  0  0
   -2.9787   -0.1139    4.7468 N   0  0  0  0  0  0  0  0  0  0  0  0
   -2.1191   -0.5344    1.3065 C   0  0  0  0  0  0  0  0  0  0  0  0
   -1.2662    0.5254    1.4644 N   0  0  0  0  0  0  0  0  0  0  0  0
   -0.4885    0.8147    2.6085 C   0  0  0  0  0  0  0  0  0  0  0  0
   -0.3570    2.1393    3.0298 C   0  0  0  0  0  0  0  0  0  0  0  0
    0.4474    2.4472    4.1199 C   0  0  0  0  0  0  0  0  0  0  0  0
    0.5694    4.0995    4.6593 Cl  0  0  0  0  0  0  0  0  0  0  0  0
    1.1406    1.4490    4.8195 C   0  0  0  0  0  0  0  0  0  0  0  0
    1.9601    1.8173    5.8245 O   0  0  0  0  0  0  0  0  0  0  0  0
    1.9546    1.1120    7.0569 C   0  0  0  0  0  0  0  0  0  0  0  0
    1.4747    2.0140    8.1612 C   0  0  0  0  0  0  0  0  0  0  0  0
    0.1120    2.3792    8.1782 C   0  0  0  0  0  0  0  0  0  0  0  0
   -0.6405    1.8162    7.2214 O   0  0  0  0  0  0  0  0  0  0  0  0
   -2.0023    2.1485    7.0971 C   0  0  0  0  0  0  0  0  0  0  0  0
   -0.3641    3.2621    9.1509 C   0  0  0  0  0  0  0  0  0  0  0  0
    0.5151    3.7699   10.1110 C   0  0  0  0  0  0  0  0  0  0  0  0
    1.8576    3.4095   10.1112 C   0  0  0  0  0  0  0  0  0  0  0  0
    2.3272    2.5351    9.1265 C   0  0  0  0  0  0  0  0  0  0  0  0
    0.9921    0.1266    4.3931 C   0  0  0  0  0  0  0  0  0  0  0  0
    0.1929   -0.1895    3.3010 C   0  0  0  0  0  0  0  0  0  0  0  0
   -2.3067   -1.0924   -0.0022 C   0  0  0  0  0  0  0  0  0  0  0  0
   -1.5999   -0.6097   -1.1301 C   0  0  0  0  0  0  0  0  0  0  0  0
    1.7179   -2.8879   -3.7026 N   0  0  0  0  0  0  0  0  0  0  0  0
    0.5565   -3.5284   -3.9887 C   0  0  0  0  0  0  0  0  0  0  0  0
    0.0108   -4.3867   -2.8660 C   0  0  0  0  0  0  0  0  0  0  0  0
   -0.0375   -3.3911   -5.0465 O   0  0  0  0  0  0  0  0  0  0  0  0
    1.6645   -1.8173   -5.4339 H   0  0  0  0  0  0  0  0  0  0  0  0
    4.0741   -2.3353   -6.4304 N   0  0  0  0  0  0  0  0  0  0  0  0
    5.2022   -2.8983   -7.1235 C   0  0  0  0  0  0  0  0  0  0  0  0
    2.2252   -0.4231   -3.3085 H   0  0  0  0  0  0  0  0  0  0  0  0
    3.9058   -0.9691   -3.5300 H   0  0  0  0  0  0  0  0  0  0  0  0
    1.3079    1.3710   -7.3929 H   0  0  0  0  0  0  0  0  0  0  0  0
    2.3137    2.6544   -6.7040 H   0  0  0  0  0  0  0  0  0  0  0  0
   -0.9222    1.7348   -7.8244 H   0  0  0  0  0  0  0  0  0  0  0  0
   -1.6886    3.2834   -7.3919 H   0  0  0  0  0  0  0  0  0  0  0  0
   -1.5104    1.9877   -6.1619 H   0  0  0  0  0  0  0  0  0  0  0  0
    1.2123    4.4779   -5.5131 H   0  0  0  0  0  0  0  0  0  0  0  0
   -0.1595    3.6652   -4.7061 H   0  0  0  0  0  0  0  0  0  0  0  0
   -0.4575    4.8676   -5.9947 H   0  0  0  0  0  0  0  0  0  0  0  0
   -1.3560   -1.3118   -4.3520 H   0  0  0  0  0  0  0  0  0  0  0  0
   -4.5919   -3.8437   -3.7928 H   0  0  0  0  0  0  0  0  0  0  0  0
   -3.0949   -4.6874   -3.3239 H   0  0  0  0  0  0  0  0  0  0  0  0
   -3.7159   -3.5738   -6.1314 H   0  0  0  0  0  0  0  0  0  0  0  0
   -3.6870   -5.2982   -5.6670 H   0  0  0  0  0  0  0  0  0  0  0  0
   -2.1734   -4.3205   -5.6357 H   0  0  0  0  0  0  0  0  0  0  0  0
   -4.1248   -3.5476   -1.5150 H   0  0  0  0  0  0  0  0  0  0  0  0
   -4.3011   -2.6161    2.9188 H   0  0  0  0  0  0  0  0  0  0  0  0
   -0.9565    0.9611    0.6030 H   0  0  0  0  0  0  0  0  0  0  0  0
   -0.9003    2.9313    2.5136 H   0  0  0  0  0  0  0  0  0  0  0  0
    2.9824    0.7747    7.2605 H   0  0  0  0  0  0  0  0  0  0  0  0
    1.3017    0.2282    6.9841 H   0  0  0  0  0  0  0  0  0  0  0  0
   -2.3985    1.5254    6.2865 H   0  0  0  0  0  0  0  0  0  0  0  0
   -2.1251    3.2167    6.8503 H   0  0  0  0  0  0  0  0  0  0  0  0
   -2.5539    1.9226    8.0263 H   0  0  0  0  0  0  0  0  0  0  0  0
   -1.4125    3.5597    9.1645 H   0  0  0  0  0  0  0  0  0  0  0  0
    0.1340    4.4611   10.8667 H   0  0  0  0  0  0  0  0  0  0  0  0
    2.5402    3.8118   10.8620 H   0  0  0  0  0  0  0  0  0  0  0  0
    3.3845    2.2565    9.1029 H   0  0  0  0  0  0  0  0  0  0  0  0
    1.5391   -0.6646    4.9088 H   0  0  0  0  0  0  0  0  0  0  0  0
    0.1048   -1.2262    2.9709 H   0  0  0  0  0  0  0  0  0  0  0  0
   -0.8418    0.1717   -1.0825 H   0  0  0  0  0  0  0  0  0  0  0  0
    2.2484   -3.1997   -2.9003 H   0  0  0  0  0  0  0  0  0  0  0  0
   -0.6299   -5.1671   -3.2941 H   0  0  0  0  0  0  0  0  0  0  0  0
   -0.5977   -3.7597   -2.1961 H   0  0  0  0  0  0  0  0  0  0  0  0
    0.8070   -4.8542   -2.2691 H   0  0  0  0  0  0  0  0  0  0  0  0
    3.7782   -1.3817   -6.6387 H   0  0  0  0  0  0  0  0  0  0  0  0
    6.1079   -2.2810   -7.0018 H   0  0  0  0  0  0  0  0  0  0  0  0
    4.9969   -3.0040   -8.2009 H   0  0  0  0  0  0  0  0  0  0  0  0
    5.3958   -3.8924   -6.7005 H   0  0  0  0  0  0  0  0  0  0  0  0
    1.5094    2.0352   -4.3910 H   0  0  0  0  0  0  0  0  0  0  0  0
   -0.0500   -0.2177   -5.7850 H   0  0  0  0  0  0  0  0  0  0  0  0
  2  1  2  0  0  0  0
  2  3  1  0  0  0  0
  3 52  1  6  0  0  0
  3  4  1  0  0  0  0
  3 48  1  0  0  0  0
  4 56  1  0  0  0  0
  4 55  1  0  0  0  0
  5  6  1  0  0  0  0
  5  4  1  0  0  0  0
  6 11  1  0  0  0  0
  6 95  1  1  0  0  0
  7  6  1  0  0  0  0
  8  7  1  0  0  0  0
  8 10  1  0  0  0  0
  9  8  1  0  0  0  0
  9 61  1  0  0  0  0
 10 62  1  0  0  0  0
 10 63  1  0  0  0  0
 11 12  1  0  0  0  0
 12 14  1  0  0  0  0
 12 13  2  0  0  0  0
 14 15  1  0  0  0  0
 15 47  1  0  0  0  0
 16 15  2  0  0  0  0
 16 20  1  0  0  0  0
 17 16  1  0  0  0  0
 18 66  1  0  0  0  0
 18 17  1  0  0  0  0
 18 67  1  0  0  0  0
 19 18  1  0  0  0  0
 20 21  2  0  0  0  0
 21 46  1  0  0  0  0
 21 22  1  0  0  0  0
 22 23  2  0  0  0  0
 23 24  1  0  0  0  0
 23 72  1  0  0  0  0
 24 25  1  0  0  0  0
 25 26  3  0  0  0  0
 27 28  1  0  0  0  0
 27 24  2  0  0  0  0
 28 29  1  0  0  0  0
 29 30  2  0  0  0  0
 29 45  1  0  0  0  0
 30 31  1  0  0  0  0
 31 32  1  0  0  0  0
 31 33  2  0  0  0  0
 33 34  1  0  0  0  0
 34 35  1  0  0  0  0
 35 75  1  0  0  0  0
 35 36  1  0  0  0  0
 36 37  2  0  0  0  0
 36 43  1  0  0  0  0
 37 40  1  0  0  0  0
 38 37  1  0  0  0  0
 39 38  1  0  0  0  0
 39 79  1  0  0  0  0
 40 80  1  0  0  0  0
 40 41  2  0  0  0  0
 41 42  1  0  0  0  0
 41 81  1  0  0  0  0
 42 82  1  0  0  0  0
 43 42  2  0  0  0  0
 44 33  1  0  0  0  0
 44 84  1  0  0  0  0
 45 44  2  0  0  0  0
 46 27  1  0  0  0  0
 47 86  1  0  0  0  0
 47 46  2  0  0  0  0
 48 87  1  0  0  0  0
 49 48  1  0  0  0  0
 49 50  1  0  0  0  0
 50 90  1  0  0  0  0
 50 89  1  0  0  0  0
 51 49  2  0  0  0  0
 53  2  1  0  0  0  0
 54 92  1  0  0  0  0
 54 94  1  0  0  0  0
 54 53  1  0  0  0  0
 57  7  1  0  0  0  0
 58  7  1  0  0  0  0
 59  9  1  0  0  0  0
 60  9  1  0  0  0  0
 64 10  1  0  0  0  0
 65 14  1  0  0  0  0
 68 19  1  0  0  0  0
 69 19  1  0  0  0  0
 70 19  1  0  0  0  0
 71 20  1  0  0  0  0
 73 28  1  0  0  0  0
 74 30  1  0  0  0  0
 76 35  1  0  0  0  0
 77 39  1  0  0  0  0
 78 39  1  0  0  0  0
 83 43  1  0  0  0  0
 85 45  1  0  0  0  0
 88 50  1  0  0  0  0
 91 53  1  0  0  0  0
 93 54  1  0  0  0  0
 96 11  1  0  0  0  0
M  END
