-1 1
 OpenBabel05232414493D

106109  0  0  1  0  0  0  0  0999 V2000
    5.3196  -12.2306   10.5672 O   0  0  0  0  0  0  0  0  0  0  0  0
    4.7739  -11.4705   11.3473 C   0  0  0  0  0  0  0  0  0  0  0  0
    3.4185  -10.8210   11.0314 C   0  0  2  0  0  0  0  0  0  0  0  0
    3.4983   -9.3937   10.4530 C   0  0  0  0  0  0  0  0  0  0  0  0
    4.7972   -9.0190    9.2721 S   0  0  0  0  0  1  0  0  0  0  0  0
    3.6256  -10.1739    7.4433 C   0  0  0  0  0  3  0  0  0  0  0  0
    4.6738  -11.2609    7.3226 C   0  0  0  0  0  0  0  0  0  0  0  0
    4.3147  -12.2878    6.3509 N   0  0  0  0  0  0  0  0  0  0  0  0
    5.2107  -13.4125    6.4194 C   0  0  0  0  0  0  0  0  0  0  0  0
    4.1686  -11.7794    5.0120 C   0  0  0  0  0  0  0  0  0  0  0  0
    2.3272  -10.5155    7.7689 C   0  0  0  0  0  3  0  0  0  0  0  0
    1.2200   -9.6423    7.4939 C   0  0  0  0  0  0  0  0  0  0  0  0
    1.2464   -8.5412    6.9636 O   0  0  0  0  0  0  0  0  0  0  0  0
   -0.0468  -10.2087    7.8406 N   0  0  0  0  0  0  0  0  0  0  0  0
   -1.2320   -9.5133    7.6134 C   0  0  0  0  0  0  0  0  0  0  0  0
   -1.6314   -9.1295    6.2819 C   0  0  0  0  0  0  0  0  0  0  0  0
   -0.9595   -9.4082    5.1578 O   0  0  0  0  0  0  0  0  0  0  0  0
   -0.2768  -10.6347    4.9256 C   0  0  0  0  0  0  0  0  0  0  0  0
   -1.1481  -11.8534    5.1604 C   0  0  0  0  0  0  0  0  0  0  0  0
   -2.8077   -8.4237    6.1156 C   0  0  0  0  0  0  0  0  0  0  0  0
   -3.6476   -8.0727    7.1916 C   0  0  0  0  0  0  0  0  0  0  0  0
   -4.8194   -7.4309    6.9067 N   0  0  0  0  0  0  0  0  0  0  0  0
   -5.6051   -7.1311    7.8983 C   0  0  0  0  0  0  0  0  0  0  0  0
   -5.2892   -7.3741    9.2637 C   0  0  0  0  0  0  0  0  0  0  0  0
   -6.1730   -6.9368   10.2978 C   0  0  0  0  0  0  0  0  0  0  0  0
   -6.8712   -6.6051   11.1631 N   0  0  0  0  0  0  0  0  0  0  0  0
   -4.0855   -8.0112    9.5963 C   0  0  0  0  0  0  0  0  0  0  0  0
   -3.7767   -8.2134   10.9267 N   0  0  0  0  0  0  0  0  0  0  0  0
   -2.5153   -8.0961   11.5386 C   0  0  0  0  0  0  0  0  0  0  0  0
   -1.4763   -7.3649   10.9547 C   0  0  0  0  0  0  0  0  0  0  0  0
   -0.2089   -7.3724   11.5254 C   0  0  0  0  0  0  0  0  0  0  0  0
    1.0864   -6.6048   10.6647 Cl  0  0  0  0  0  0  0  0  0  0  0  0
    0.0315   -8.0343   12.7397 C   0  0  0  0  0  0  0  0  0  0  0  0
    1.2792   -8.1575   13.2635 O   0  0  0  0  0  0  0  0  0  0  0  0
    1.8899   -7.0298   13.9121 C   0  0  0  0  0  0  0  0  0  0  0  0
    3.3737   -7.1942   13.7828 C   0  0  0  0  0  0  0  0  0  0  0  0
    4.0763   -8.0680   14.6221 C   0  0  0  0  0  0  0  0  0  0  0  0
    5.3941   -8.4127   14.3508 C   0  0  0  0  0  0  0  0  0  0  0  0
    6.0322   -7.9123   13.2039 C   0  0  0  0  0  0  0  0  0  0  0  0
    7.2514   -8.4002   12.9240 O   0  0  0  0  0  0  0  0  0  0  0  0
    7.7233   -8.3230   11.5758 C   0  0  0  0  0  0  0  0  0  0  0  0
    8.6034   -9.5119   11.3023 C   0  0  0  0  0  0  0  0  0  0  0  0
    8.1546  -10.5137   10.4375 C   0  0  0  0  0  0  0  0  0  0  0  0
    8.9340  -11.6496   10.2176 C   0  0  0  0  0  0  0  0  0  0  0  0
   10.1625  -11.7922   10.8593 C   0  0  0  0  0  0  0  0  0  0  0  0
   10.6161  -10.7932   11.7243 C   0  0  0  0  0  0  0  0  0  0  0  0
    9.8393   -9.6583   11.9428 C   0  0  0  0  0  0  0  0  0  0  0  0
    5.3699   -6.9679   12.4114 C   0  0  0  0  0  0  0  0  0  0  0  0
    4.0543   -6.6263   12.7046 C   0  0  0  0  0  0  0  0  0  0  0  0
   -1.0380   -8.6833   13.3586 C   0  0  0  0  0  0  0  0  0  0  0  0
   -2.2918   -8.7378   12.7613 C   0  0  0  0  0  0  0  0  0  0  0  0
   -3.2598   -8.4494    8.5123 C   0  0  0  0  0  0  0  0  0  0  0  0
   -2.0703   -9.2041    8.6656 C   0  0  0  0  0  0  0  0  0  0  0  0
    2.5587  -10.7433   12.2027 N   0  0  0  0  0  0  0  0  0  0  0  0
    2.0343  -11.8386   12.8082 C   0  0  0  0  0  0  0  0  0  0  0  0
    1.1287  -11.5423   13.9935 C   0  0  0  0  0  0  0  0  0  0  0  0
    2.2551  -12.9768   12.4402 O   0  0  0  0  0  0  0  0  0  0  0  0
    2.9718  -11.4965   10.2887 H   0  0  0  0  0  0  0  0  0  0  0  0
    5.3004  -11.1272   12.5500 N   0  0  0  0  0  0  0  0  0  0  0  0
    6.4973  -11.7095   13.0961 C   0  0  0  0  0  0  0  0  0  0  0  0
    2.5190   -9.2049    9.9743 H   0  0  0  0  0  0  0  0  0  0  0  0
    3.5822   -8.6883   11.2932 H   0  0  0  0  0  0  0  0  0  0  0  0
    4.8012  -11.7469    8.3010 H   0  0  0  0  0  0  0  0  0  0  0  0
    5.6549  -10.7958    7.0751 H   0  0  0  0  0  0  0  0  0  0  0  0
    4.8604  -14.2225    5.7579 H   0  0  0  0  0  0  0  0  0  0  0  0
    5.2481  -13.7995    7.4489 H   0  0  0  0  0  0  0  0  0  0  0  0
    6.2566  -13.1617    6.1175 H   0  0  0  0  0  0  0  0  0  0  0  0
    5.1163  -11.3582    4.5969 H   0  0  0  0  0  0  0  0  0  0  0  0
    3.4091  -10.9836    4.9893 H   0  0  0  0  0  0  0  0  0  0  0  0
    3.8360  -12.5826    4.3337 H   0  0  0  0  0  0  0  0  0  0  0  0
   -0.0381  -10.8297    8.6404 H   0  0  0  0  0  0  0  0  0  0  0  0
    0.6504  -10.6973    5.5104 H   0  0  0  0  0  0  0  0  0  0  0  0
    0.0093  -10.5701    3.8664 H   0  0  0  0  0  0  0  0  0  0  0  0
   -0.6025  -12.7582    4.8538 H   0  0  0  0  0  0  0  0  0  0  0  0
   -2.0818  -11.7922    4.5807 H   0  0  0  0  0  0  0  0  0  0  0  0
   -1.3987  -11.9609    6.2255 H   0  0  0  0  0  0  0  0  0  0  0  0
   -3.1219   -8.1593    5.1064 H   0  0  0  0  0  0  0  0  0  0  0  0
   -6.5548   -6.6351    7.6650 H   0  0  0  0  0  0  0  0  0  0  0  0
   -4.5603   -8.1068   11.5626 H   0  0  0  0  0  0  0  0  0  0  0  0
   -1.6238   -6.8395   10.0119 H   0  0  0  0  0  0  0  0  0  0  0  0
    1.5637   -7.0215   14.9668 H   0  0  0  0  0  0  0  0  0  0  0  0
    1.5496   -6.0992   13.4329 H   0  0  0  0  0  0  0  0  0  0  0  0
    3.5710   -8.5159   15.4830 H   0  0  0  0  0  0  0  0  0  0  0  0
    5.9380   -9.1192   14.9811 H   0  0  0  0  0  0  0  0  0  0  0  0
    8.2781   -7.3762   11.4478 H   0  0  0  0  0  0  0  0  0  0  0  0
    6.8708   -8.3423   10.8759 H   0  0  0  0  0  0  0  0  0  0  0  0
    7.1737  -10.4162    9.9595 H   0  0  0  0  0  0  0  0  0  0  0  0
    8.5562  -12.4324    9.5567 H   0  0  0  0  0  0  0  0  0  0  0  0
   10.7694  -12.6856   10.6913 H   0  0  0  0  0  0  0  0  0  0  0  0
   11.5786  -10.9024   12.2307 H   0  0  0  0  0  0  0  0  0  0  0  0
   10.1874   -8.8791   12.6269 H   0  0  0  0  0  0  0  0  0  0  0  0
    5.8425   -6.5509   11.5234 H   0  0  0  0  0  0  0  0  0  0  0  0
    3.5288   -5.9423   12.0356 H   0  0  0  0  0  0  0  0  0  0  0  0
   -0.8501   -9.1976   14.3021 H   0  0  0  0  0  0  0  0  0  0  0  0
   -3.0977   -9.3073   13.2289 H   0  0  0  0  0  0  0  0  0  0  0  0
   -1.7561   -9.5301    9.6552 H   0  0  0  0  0  0  0  0  0  0  0  0
    2.2857   -9.8191   12.5307 H   0  0  0  0  0  0  0  0  0  0  0  0
    1.3507  -12.2651   14.7897 H   0  0  0  0  0  0  0  0  0  0  0  0
    0.0826  -11.6941   13.6868 H   0  0  0  0  0  0  0  0  0  0  0  0
    1.2423  -10.5164   14.3694 H   0  0  0  0  0  0  0  0  0  0  0  0
    4.7501  -10.5080   13.1305 H   0  0  0  0  0  0  0  0  0  0  0  0
    7.2249  -10.9311   13.3713 H   0  0  0  0  0  0  0  0  0  0  0  0
    6.9448  -12.3453   12.3224 H   0  0  0  0  0  0  0  0  0  0  0  0
    6.2760  -12.3324   13.9801 H   0  0  0  0  0  0  0  0  0  0  0  0
    3.7460   -9.2707    6.8420 H   0  0  0  0  0  0  0  0  0  0  0  0
    2.1201  -11.5094    8.1764 H   0  0  0  0  0  0  0  0  0  0  0  0
  1  2  2  0  0  0  0
  2 59  1  0  0  0  0
  3 58  1  6  0  0  0
  3  2  1  0  0  0  0
  3 54  1  0  0  0  0
  4  3  1  0  0  0  0
  4 62  1  0  0  0  0
  5  4  1  0  0  0  0
  6 11  1  0  0  0  0
  7  6  1  0  0  0  0
  7 63  1  0  0  0  0
  8  9  1  0  0  0  0
  8  7  1  0  0  0  0
  9 66  1  0  0  0  0
 10  8  1  0  0  0  0
 11106  1  0  0  0  0
 12 11  1  0  0  0  0
 12 14  1  0  0  0  0
 13 12  2  0  0  0  0
 14 71  1  0  0  0  0
 15 14  1  0  0  0  0
 15 53  1  0  0  0  0
 16 15  2  0  0  0  0
 17 16  1  0  0  0  0
 18 17  1  0  0  0  0
 18 19  1  0  0  0  0
 18 72  1  0  0  0  0
 19 76  1  0  0  0  0
 20 16  1  0  0  0  0
 20 21  2  0  0  0  0
 21 52  1  0  0  0  0
 22 21  1  0  0  0  0
 22 23  2  0  0  0  0
 23 24  1  0  0  0  0
 24 27  2  0  0  0  0
 24 25  1  0  0  0  0
 25 26  3  0  0  0  0
 27 28  1  0  0  0  0
 28 29  1  0  0  0  0
 28 79  1  0  0  0  0
 29 51  1  0  0  0  0
 30 31  1  0  0  0  0
 30 29  2  0  0  0  0
 31 33  2  0  0  0  0
 32 31  1  0  0  0  0
 33 34  1  0  0  0  0
 33 50  1  0  0  0  0
 34 35  1  0  0  0  0
 35 81  1  0  0  0  0
 36 35  1  0  0  0  0
 36 37  1  0  0  0  0
 37 83  1  0  0  0  0
 38 37  2  0  0  0  0
 38 84  1  0  0  0  0
 39 38  1  0  0  0  0
 40 39  1  0  0  0  0
 41 40  1  0  0  0  0
 42 41  1  0  0  0  0
 42 47  1  0  0  0  0
 43 42  2  0  0  0  0
 44 43  1  0  0  0  0
 44 45  2  0  0  0  0
 45 46  1  0  0  0  0
 46 47  2  0  0  0  0
 46 90  1  0  0  0  0
 47 91  1  0  0  0  0
 48 49  1  0  0  0  0
 48 39  2  0  0  0  0
 49 36  2  0  0  0  0
 50 94  1  0  0  0  0
 51 95  1  0  0  0  0
 51 50  2  0  0  0  0
 52 53  2  0  0  0  0
 52 27  1  0  0  0  0
 53 96  1  0  0  0  0
 54 97  1  0  0  0  0
 54 55  1  0  0  0  0
 55 56  1  0  0  0  0
 56100  1  0  0  0  0
 56 98  1  0  0  0  0
 57 55  2  0  0  0  0
 59 60  1  0  0  0  0
 59101  1  0  0  0  0
 60102  1  0  0  0  0
 60104  1  0  0  0  0
 61  4  1  0  0  0  0
 64  7  1  0  0  0  0
 65  9  1  0  0  0  0
 67  9  1  0  0  0  0
 68 10  1  0  0  0  0
 69 10  1  0  0  0  0
 70 10  1  0  0  0  0
 73 18  1  0  0  0  0
 74 19  1  0  0  0  0
 75 19  1  0  0  0  0
 77 20  1  0  0  0  0
 78 23  1  0  0  0  0
 80 30  1  0  0  0  0
 82 35  1  0  0  0  0
 85 41  1  0  0  0  0
 86 41  1  0  0  0  0
 87 43  1  0  0  0  0
 88 44  1  0  0  0  0
 89 45  1  0  0  0  0
 92 48  1  0  0  0  0
 93 49  1  0  0  0  0
 99 56  1  0  0  0  0
103 60  1  0  0  0  0
105  6  1  0  0  0  0
M  END
