-1 1
 OpenBabel05192410563D

106110  0  0  1  0  0  0  0  0999 V2000
    3.2534   -2.9835    0.6197 O   0  0  0  0  0  0  0  0  0  0  0  0
    2.7416   -2.1971    1.3950 C   0  0  0  0  0  0  0  0  0  0  0  0
    1.3700   -1.5654    1.1176 C   0  0  2  0  0  0  0  0  0  0  0  0
    1.4399   -0.1917    0.4327 C   0  0  0  0  0  0  0  0  0  0  0  0
    2.6121    0.0521   -0.8994 S   0  0  0  0  0  0  0  0  0  0  0  0
    1.7172   -0.8574   -2.3739 C   0  0  1  0  0  0  0  0  0  0  0  0
    2.6669   -2.0014   -2.7365 C   0  0  0  0  0  0  0  0  0  0  0  0
    2.2248   -2.7948   -3.8694 N   0  0  0  0  0  0  0  0  0  0  0  0
    3.0933   -3.9169   -4.1000 C   0  0  0  0  0  0  0  0  0  0  0  0
    1.9831   -2.0251   -5.0627 C   0  0  0  0  0  0  0  0  0  0  0  0
    0.3392   -1.2684   -2.1258 C   0  0  0  0  0  3  0  0  0  0  0  0
   -0.7316   -0.4526   -2.4916 C   0  0  0  0  0  0  0  0  0  0  0  0
   -0.7247    0.6629   -3.0309 O   0  0  0  0  0  0  0  0  0  0  0  0
   -2.0406   -1.0471   -2.2112 N   0  0  0  0  0  0  0  0  0  0  0  0
   -3.1916   -0.3326   -2.4906 C   0  0  0  0  0  0  0  0  0  0  0  0
   -3.5353    0.0542   -3.8423 C   0  0  0  0  0  0  0  0  0  0  0  0
   -2.8392   -0.2534   -4.9420 O   0  0  0  0  0  0  0  0  0  0  0  0
   -2.0964   -1.4558   -5.1071 C   0  0  0  0  0  0  0  0  0  0  0  0
   -2.9520   -2.6977   -4.9460 C   0  0  0  0  0  0  0  0  0  0  0  0
   -4.6915    0.7806   -4.0597 C   0  0  0  0  0  0  0  0  0  0  0  0
   -5.5624    1.1663   -3.0199 C   0  0  0  0  0  0  0  0  0  0  0  0
   -6.7053    1.8386   -3.3436 N   0  0  0  0  0  0  0  0  0  0  0  0
   -7.5047    2.1875   -2.3776 C   0  0  0  0  0  0  0  0  0  0  0  0
   -7.2242    1.9714   -0.9999 C   0  0  0  0  0  0  0  0  0  0  0  0
   -8.1040    2.4740    0.0073 C   0  0  0  0  0  0  0  0  0  0  0  0
   -8.8011    2.8588    0.8516 N   0  0  0  0  0  0  0  0  0  0  0  0
   -6.0525    1.2959   -0.6321 C   0  0  0  0  0  0  0  0  0  0  0  0
   -5.7556    1.1241    0.7108 N   0  0  0  0  0  0  0  0  0  0  0  0
   -4.4980    1.2799    1.3162 C   0  0  0  0  0  0  0  0  0  0  0  0
   -3.4488    1.9523    0.6793 C   0  0  0  0  0  0  0  0  0  0  0  0
   -2.1818    1.9729    1.2492 C   0  0  0  0  0  0  0  0  0  0  0  0
   -0.8800    2.6615    0.3315 Cl  0  0  0  0  0  0  0  0  0  0  0  0
   -1.9474    1.4008    2.5085 C   0  0  0  0  0  0  0  0  0  0  0  0
   -0.6966    1.3065    3.0415 O   0  0  0  0  0  0  0  0  0  0  0  0
   -0.0767    2.4797    3.5876 C   0  0  0  0  0  0  0  0  0  0  0  0
    1.4060    2.3037    3.4458 C   0  0  0  0  0  0  0  0  0  0  0  0
    2.1121    1.4598    4.3133 C   0  0  0  0  0  0  0  0  0  0  0  0
    3.4233    1.0931    4.0436 C   0  0  0  0  0  0  0  0  0  0  0  0
    4.0520    1.5395    2.8702 C   0  0  0  0  0  0  0  0  0  0  0  0
    5.2611    1.0214    2.5933 O   0  0  0  0  0  0  0  0  0  0  0  0
    5.7132    1.0273    1.2395 C   0  0  0  0  0  0  0  0  0  0  0  0
    6.5789   -0.1812    1.0106 C   0  0  0  0  0  0  0  0  0  0  0  0
    6.0812   -1.2565    0.2701 C   0  0  0  0  0  0  0  0  0  0  0  0
    6.8509   -2.4070    0.1002 C   0  0  0  0  0  0  0  0  0  0  0  0
    8.1199   -2.4907    0.6692 C   0  0  0  0  0  0  0  0  0  0  0  0
    8.6227   -1.4187    1.4105 C   0  0  0  0  0  0  0  0  0  0  0  0
    7.8548   -0.2693    1.5788 C   0  0  0  0  0  0  0  0  0  0  0  0
    3.3919    2.4621    2.0512 C   0  0  0  0  0  0  0  0  0  0  0  0
    2.0807    2.8278    2.3431 C   0  0  0  0  0  0  0  0  0  0  0  0
   -3.0219    0.8103    3.1742 C   0  0  0  0  0  0  0  0  0  0  0  0
   -4.2779    0.7286    2.5840 C   0  0  0  0  0  0  0  0  0  0  0  0
   -5.2286    0.7930   -1.6830 C   0  0  0  0  0  0  0  0  0  0  0  0
   -4.0716    0.0031   -1.4789 C   0  0  0  0  0  0  0  0  0  0  0  0
    0.5872   -1.3655    2.3266 N   0  0  0  0  0  0  0  0  0  0  0  0
    0.1207   -2.3969    3.0785 C   0  0  0  0  0  0  0  0  0  0  0  0
   -0.7713   -1.9859    4.2387 C   0  0  0  0  0  0  0  0  0  0  0  0
    0.3867   -3.5609    2.8506 O   0  0  0  0  0  0  0  0  0  0  0  0
    0.8674   -2.2789    0.4489 H   0  0  0  0  0  0  0  0  0  0  0  0
    3.3324   -1.7767    2.5421 N   0  0  0  0  0  0  0  0  0  0  0  0
    4.5633   -2.3177    3.0545 C   0  0  0  0  0  0  0  0  0  0  0  0
    0.4370    0.0262    0.0310 H   0  0  0  0  0  0  0  0  0  0  0  0
    1.6838    0.5726    1.1830 H   0  0  0  0  0  0  0  0  0  0  0  0
    2.7624   -2.6628   -1.8600 H   0  0  0  0  0  0  0  0  0  0  0  0
    3.6853   -1.5783   -2.9225 H   0  0  0  0  0  0  0  0  0  0  0  0
    2.6803   -4.5672   -4.8889 H   0  0  0  0  0  0  0  0  0  0  0  0
    3.1887   -4.5152   -3.1807 H   0  0  0  0  0  0  0  0  0  0  0  0
    4.1248   -3.6220   -4.4145 H   0  0  0  0  0  0  0  0  0  0  0  0
    2.8955   -1.5014   -5.4392 H   0  0  0  0  0  0  0  0  0  0  0  0
    1.2056   -1.2693   -4.8806 H   0  0  0  0  0  0  0  0  0  0  0  0
    1.6247   -2.6869   -5.8681 H   0  0  0  0  0  0  0  0  0  0  0  0
   -2.0647   -1.5437   -1.3287 H   0  0  0  0  0  0  0  0  0  0  0  0
   -1.2273   -1.4937   -4.4383 H   0  0  0  0  0  0  0  0  0  0  0  0
   -1.7199   -1.3822   -6.1373 H   0  0  0  0  0  0  0  0  0  0  0  0
   -2.3553   -3.5886   -5.1930 H   0  0  0  0  0  0  0  0  0  0  0  0
   -3.8311   -2.6666   -5.6082 H   0  0  0  0  0  0  0  0  0  0  0  0
   -3.2916   -2.8028   -3.9055 H   0  0  0  0  0  0  0  0  0  0  0  0
   -4.9619    1.0372   -5.0837 H   0  0  0  0  0  0  0  0  0  0  0  0
   -8.4324    2.7074   -2.6451 H   0  0  0  0  0  0  0  0  0  0  0  0
   -6.5421    1.2496    1.3392 H   0  0  0  0  0  0  0  0  0  0  0  0
   -3.5883    2.4046   -0.3015 H   0  0  0  0  0  0  0  0  0  0  0  0
   -0.3829    2.5729    4.6443 H   0  0  0  0  0  0  0  0  0  0  0  0
   -0.4234    3.3709    3.0429 H   0  0  0  0  0  0  0  0  0  0  0  0
    1.6120    1.0514    5.1963 H   0  0  0  0  0  0  0  0  0  0  0  0
    3.9692    0.4097    4.6972 H   0  0  0  0  0  0  0  0  0  0  0  0
    6.2714    1.9618    1.0514 H   0  0  0  0  0  0  0  0  0  0  0  0
    4.8513    0.9853    0.5551 H   0  0  0  0  0  0  0  0  0  0  0  0
    5.0727   -1.2087   -0.1528 H   0  0  0  0  0  0  0  0  0  0  0  0
    6.4350   -3.2447   -0.4632 H   0  0  0  0  0  0  0  0  0  0  0  0
    8.7206   -3.3945    0.5404 H   0  0  0  0  0  0  0  0  0  0  0  0
    9.6172   -1.4816    1.8593 H   0  0  0  0  0  0  0  0  0  0  0  0
    8.2431    0.5681    2.1654 H   0  0  0  0  0  0  0  0  0  0  0  0
    3.8663    2.8531    1.1518 H   0  0  0  0  0  0  0  0  0  0  0  0
    1.5543    3.4932    1.6562 H   0  0  0  0  0  0  0  0  0  0  0  0
   -2.8389    0.3637    4.1527 H   0  0  0  0  0  0  0  0  0  0  0  0
   -5.0891    0.2045    3.0938 H   0  0  0  0  0  0  0  0  0  0  0  0
   -3.8077   -0.3172   -0.4723 H   0  0  0  0  0  0  0  0  0  0  0  0
    0.2647   -0.4219    2.5341 H   0  0  0  0  0  0  0  0  0  0  0  0
   -0.5008   -2.5849    5.1183 H   0  0  0  0  0  0  0  0  0  0  0  0
   -1.8145   -2.2235    3.9808 H   0  0  0  0  0  0  0  0  0  0  0  0
   -0.7006   -0.9145    4.4711 H   0  0  0  0  0  0  0  0  0  0  0  0
    2.7908   -1.1531    3.1261 H   0  0  0  0  0  0  0  0  0  0  0  0
    5.3001   -1.5201    3.2353 H   0  0  0  0  0  0  0  0  0  0  0  0
    4.9700   -3.0016    2.2996 H   0  0  0  0  0  0  0  0  0  0  0  0
    4.3971   -2.8817    3.9881 H   0  0  0  0  0  0  0  0  0  0  0  0
    1.7361   -0.0537   -3.1229 H   0  0  0  0  0  0  0  0  0  0  0  0
    0.1490   -2.2862   -1.7756 H   0  0  0  0  0  0  0  0  0  0  0  0
  1  2  2  0  0  0  0
  2 59  1  0  0  0  0
  3 58  1  6  0  0  0
  3  2  1  0  0  0  0
  3 54  1  0  0  0  0
  4  3  1  0  0  0  0
  4 62  1  0  0  0  0
  5  4  1  0  0  0  0
  6105  1  6  0  0  0
  6 11  1  0  0  0  0
  6  5  1  0  0  0  0
  7  6  1  0  0  0  0
  7 63  1  0  0  0  0
  8  7  1  0  0  0  0
  9  8  1  0  0  0  0
  9 66  1  0  0  0  0
 10 69  1  0  0  0  0
 10  8  1  0  0  0  0
 11106  1  0  0  0  0
 12 14  1  0  0  0  0
 12 11  1  0  0  0  0
 13 12  2  0  0  0  0
 14 71  1  0  0  0  0
 15 14  1  0  0  0  0
 15 53  1  0  0  0  0
 16 15  2  0  0  0  0
 17 16  1  0  0  0  0
 18 19  1  0  0  0  0
 18 17  1  0  0  0  0
 18 72  1  0  0  0  0
 19 76  1  0  0  0  0
 20 16  1  0  0  0  0
 20 21  2  0  0  0  0
 21 52  1  0  0  0  0
 22 21  1  0  0  0  0
 22 23  2  0  0  0  0
 23 24  1  0  0  0  0
 24 27  2  0  0  0  0
 24 25  1  0  0  0  0
 25 26  3  0  0  0  0
 27 28  1  0  0  0  0
 28 29  1  0  0  0  0
 28 79  1  0  0  0  0
 29 51  1  0  0  0  0
 30 31  1  0  0  0  0
 30 29  2  0  0  0  0
 31 33  2  0  0  0  0
 32 31  1  0  0  0  0
 33 34  1  0  0  0  0
 33 50  1  0  0  0  0
 34 35  1  0  0  0  0
 35 81  1  0  0  0  0
 36 35  1  0  0  0  0
 36 37  1  0  0  0  0
 37 83  1  0  0  0  0
 38 37  2  0  0  0  0
 38 84  1  0  0  0  0
 39 38  1  0  0  0  0
 40 39  1  0  0  0  0
 41 40  1  0  0  0  0
 42 41  1  0  0  0  0
 42 47  1  0  0  0  0
 43 42  2  0  0  0  0
 44 43  1  0  0  0  0
 44 45  2  0  0  0  0
 45 46  1  0  0  0  0
 46 47  2  0  0  0  0
 46 90  1  0  0  0  0
 47 91  1  0  0  0  0
 48 49  1  0  0  0  0
 48 39  2  0  0  0  0
 49 36  2  0  0  0  0
 50 94  1  0  0  0  0
 51 95  1  0  0  0  0
 51 50  2  0  0  0  0
 52 53  2  0  0  0  0
 52 27  1  0  0  0  0
 53 96  1  0  0  0  0
 54 97  1  0  0  0  0
 54 55  1  0  0  0  0
 55 56  1  0  0  0  0
 56100  1  0  0  0  0
 56 98  1  0  0  0  0
 57 55  2  0  0  0  0
 59 60  1  0  0  0  0
 59101  1  0  0  0  0
 60102  1  0  0  0  0
 60104  1  0  0  0  0
 61  4  1  0  0  0  0
 64  7  1  0  0  0  0
 65  9  1  0  0  0  0
 67  9  1  0  0  0  0
 68 10  1  0  0  0  0
 70 10  1  0  0  0  0
 73 18  1  0  0  0  0
 74 19  1  0  0  0  0
 75 19  1  0  0  0  0
 77 20  1  0  0  0  0
 78 23  1  0  0  0  0
 80 30  1  0  0  0  0
 82 35  1  0  0  0  0
 85 41  1  0  0  0  0
 86 41  1  0  0  0  0
 87 43  1  0  0  0  0
 88 44  1  0  0  0  0
 89 45  1  0  0  0  0
 92 48  1  0  0  0  0
 93 49  1  0  0  0  0
 99 56  1  0  0  0  0
103 60  1  0  0  0  0
M  END
