106
-1 1
O         3.253414   -2.983464    0.619670
C         2.741555   -2.197090    1.395050
C         1.370003   -1.565443    1.117626
C         1.439856   -0.191732    0.432703
S         2.612142    0.052117   -0.899359
C         1.717232   -0.857425   -2.373896
C         2.666876   -2.001359   -2.736524
N         2.224786   -2.794795   -3.869433
C         3.093285   -3.916866   -4.099960
C         1.983098   -2.025072   -5.062744
C         0.339188   -1.268402   -2.125848
C        -0.731604   -0.452553   -2.491558
O        -0.724681    0.662853   -3.030904
N        -2.040646   -1.047138   -2.211217
C        -3.191605   -0.332567   -2.490593
C        -3.535270    0.054152   -3.842322
O        -2.839188   -0.253431   -4.942004
C        -2.096419   -1.455804   -5.107088
C        -2.952022   -2.697662   -4.945957
C        -4.691513    0.780600   -4.059727
C        -5.562382    1.166307   -3.019905
N        -6.705265    1.838561   -3.343626
C        -7.504749    2.187476   -2.377562
C        -7.224180    1.971376   -0.999934
C        -8.103972    2.473986    0.007297
N        -8.801069    2.858757    0.851639
C        -6.052538    1.295854   -0.632112
N        -5.755584    1.124079    0.710843
C        -4.498032    1.279868    1.316170
C        -3.448835    1.952306    0.679329
C        -2.181848    1.972909    1.249157
Cl        -0.880041    2.661467    0.331516
C        -1.947370    1.400792    2.508539
O        -0.696641    1.306518    3.041510
C        -0.076731    2.479740    3.587611
C         1.406000    2.303702    3.445763
C         2.112073    1.459839    4.313280
C         3.423285    1.093080    4.043638
C         4.052028    1.539546    2.870150
O         5.261120    1.021352    2.593340
C         5.713238    1.027295    1.239540
C         6.578932   -0.181157    1.010590
C         6.081165   -1.256496    0.270094
C         6.850894   -2.407041    0.100152
C         8.119860   -2.490655    0.669201
C         8.622712   -1.418697    1.410517
C         7.854772   -0.269281    1.578799
C         3.391932    2.462050    2.051239
C         2.080669    2.827827    2.343118
C        -3.021891    0.810278    3.174198
C        -4.277929    0.728632    2.584044
C        -5.228639    0.793036   -1.683025
C        -4.071579    0.003118   -1.478881
N         0.587227   -1.365512    2.326644
C         0.120740   -2.396865    3.078505
C        -0.771251   -1.985911    4.238700
O         0.386743   -3.560913    2.850580
H         0.867395   -2.278931    0.448904
N         3.332364   -1.776744    2.542133
C         4.563260   -2.317681    3.054545
H         0.437046    0.026215    0.030984
H         1.683821    0.572562    1.182997
H         2.762411   -2.662779   -1.859993
H         3.685266   -1.578269   -2.922502
H         2.680290   -4.567177   -4.888903
H         3.188716   -4.515166   -3.180664
H         4.124808   -3.621997   -4.414475
H         2.895459   -1.501362   -5.439182
H         1.205594   -1.269305   -4.880598
H         1.624681   -2.686926   -5.868050
H        -2.064732   -1.543674   -1.328732
H        -1.227266   -1.493686   -4.438301
H        -1.719919   -1.382213   -6.137323
H        -2.355264   -3.588575   -5.193020
H        -3.831054   -2.666613   -5.608199
H        -3.291592   -2.802820   -3.905466
H        -4.961870    1.037185   -5.083665
H        -8.432387    2.707410   -2.645075
H        -6.542057    1.249552    1.339217
H        -3.588328    2.404634   -0.301452
H        -0.382863    2.572888    4.644267
H        -0.423435    3.370912    3.042891
H         1.611995    1.051403    5.196338
H         3.969159    0.409658    4.697187
H         6.271390    1.961754    1.051392
H         4.851320    0.985257    0.555059
H         5.072710   -1.208732   -0.152847
H         6.435013   -3.244666   -0.463243
H         8.720557   -3.394542    0.540371
H         9.617193   -1.481556    1.859322
H         8.243061    0.568107    2.165413
H         3.866312    2.853065    1.151776
H         1.554339    3.493167    1.656239
H        -2.838888    0.363674    4.152720
H        -5.089075    0.204475    3.093837
H        -3.807734   -0.317220   -0.472302
H         0.264739   -0.421895    2.534121
H        -0.500802   -2.584873    5.118266
H        -1.814466   -2.223460    3.980836
H        -0.700628   -0.914494    4.471136
H         2.790781   -1.153093    3.126143
H         5.300126   -1.520125    3.235333
H         4.969954   -3.001644    2.299599
H         4.397053   -2.881727    3.988141
H         1.736141   -0.053655   -3.122950
H         0.149016   -2.286155   -1.775586
