-1 1
 OpenBabel05192410563D

 92 95  0  0  1  0  0  0  0  0999 V2000
   -2.7466    1.5800    5.2584 O   0  0  0  0  0  0  0  0  0  0  0  0
   -1.9072    1.6118    4.3579 C   0  0  0  0  0  0  0  0  0  0  0  0
   -0.7341    2.6040    4.4530 C   0  0  2  0  0  0  0  0  0  0  0  0
    0.5547    1.9561    5.0142 C   0  0  0  0  0  0  0  0  0  0  0  0
    1.6303    1.1421    3.7979 S   0  0  0  0  0  0  0  0  0  0  0  0
    1.0110   -0.6123    3.7423 C   0  0  2  0  0  0  0  0  0  0  0  0
    1.6196   -1.4032    4.8991 C   0  0  0  0  0  0  0  0  0  0  0  0
    1.2310   -2.8034    4.9219 N   0  0  0  0  0  0  0  0  0  0  0  0
   -0.1877   -3.0303    4.7929 C   0  0  0  0  0  0  0  0  0  0  0  0
    1.8078   -3.4935    6.0435 C   0  0  0  0  0  0  0  0  0  0  0  0
    1.2744   -1.2130    2.4080 C   0  0  0  0  0  3  0  0  0  0  0  0
    0.4984   -0.8720    1.3281 C   0  0  0  0  0  0  0  0  0  0  0  0
   -0.4476   -0.0394    1.2623 O   0  0  0  0  0  0  0  0  0  0  0  0
    0.8675   -1.5174    0.0658 N   0  0  0  0  0  0  0  0  0  0  0  0
   -0.0689   -1.8332   -0.8797 C   0  0  0  0  0  0  0  0  0  0  0  0
   -1.2539   -2.5762   -0.4925 C   0  0  0  0  0  0  0  0  0  0  0  0
   -1.3499   -2.8278    0.8175 O   0  0  0  0  0  0  0  0  0  0  0  0
   -2.4192   -3.5768    1.3460 C   0  0  0  0  0  0  0  0  0  0  0  0
   -2.2016   -5.0734    1.1991 C   0  0  0  0  0  0  0  0  0  0  0  0
   -2.1570   -2.9935   -1.4417 C   0  0  0  0  0  0  0  0  0  0  0  0
   -1.9558   -2.7305   -2.8228 C   0  0  0  0  0  0  0  0  0  0  0  0
   -2.8796   -3.1815   -3.7080 N   0  0  0  0  0  0  0  0  0  0  0  0
   -2.6982   -2.9368   -4.9791 C   0  0  0  0  0  0  0  0  0  0  0  0
   -1.5837   -2.2186   -5.4895 C   0  0  0  0  0  0  0  0  0  0  0  0
   -1.4478   -2.0409   -6.9058 C   0  0  0  0  0  0  0  0  0  0  0  0
   -1.3803   -1.9211   -8.0560 N   0  0  0  0  0  0  0  0  0  0  0  0
   -0.6307   -1.7302   -4.6001 C   0  0  0  0  0  0  0  0  0  0  0  0
    0.4792   -0.9848   -5.0558 N   0  0  0  0  0  0  0  0  0  0  0  0
    0.3792    0.4175   -5.1599 C   0  0  0  0  0  0  0  0  0  0  0  0
    1.4589    1.1931   -4.7111 C   0  0  0  0  0  0  0  0  0  0  0  0
    1.3831    2.5857   -4.7373 C   0  0  0  0  0  0  0  0  0  0  0  0
    2.3491    3.4048   -4.2571 O   0  0  0  0  0  0  0  0  0  0  0  0
    3.5292    2.8680   -3.7187 C   0  0  0  0  0  0  0  0  0  0  0  0
    3.3722    2.1642   -2.3846 C   0  0  0  0  0  0  0  0  0  0  0  0
    4.4274    1.3785   -1.9103 C   0  0  0  0  0  0  0  0  0  0  0  0
    4.3394    0.7521   -0.6681 C   0  0  0  0  0  0  0  0  0  0  0  0
    3.1868    0.8899    0.1054 C   0  0  0  0  0  0  0  0  0  0  0  0
    2.1186    1.6509   -0.3734 C   0  0  0  0  0  0  0  0  0  0  0  0
    2.2179    2.2948   -1.6074 C   0  0  0  0  0  0  0  0  0  0  0  0
    0.2424    3.2174   -5.2473 C   0  0  0  0  0  0  0  0  0  0  0  0
   -0.8122    2.4388   -5.7032 C   0  0  0  0  0  0  0  0  0  0  0  0
   -0.7625    1.0461   -5.6643 C   0  0  0  0  0  0  0  0  0  0  0  0
   -0.7975   -1.9991   -3.2169 C   0  0  0  0  0  0  0  0  0  0  0  0
    0.1075   -1.5486   -2.2209 C   0  0  0  0  0  0  0  0  0  0  0  0
   -1.2031    3.6506    5.3328 N   0  0  0  0  0  0  0  0  0  0  0  0
   -0.6124    4.8590    5.4518 C   0  0  0  0  0  0  0  0  0  0  0  0
   -1.2814    5.8125    6.4289 C   0  0  0  0  0  0  0  0  0  0  0  0
    0.3841    5.1859    4.8291 O   0  0  0  0  0  0  0  0  0  0  0  0
   -0.5018    3.0232    3.4616 H   0  0  0  0  0  0  0  0  0  0  0  0
   -1.9430    0.8143    3.2902 N   0  0  0  0  0  0  0  0  0  0  0  0
   -2.9239   -0.2365    3.1843 C   0  0  0  0  0  0  0  0  0  0  0  0
    1.1654    2.7679    5.4315 H   0  0  0  0  0  0  0  0  0  0  0  0
    0.3099    1.2647    5.8363 H   0  0  0  0  0  0  0  0  0  0  0  0
    1.3474   -0.8984    5.8575 H   0  0  0  0  0  0  0  0  0  0  0  0
    2.7193   -1.3548    4.8226 H   0  0  0  0  0  0  0  0  0  0  0  0
   -0.7889   -2.5515    5.6018 H   0  0  0  0  0  0  0  0  0  0  0  0
   -0.3910   -4.1129    4.8228 H   0  0  0  0  0  0  0  0  0  0  0  0
   -0.5401   -2.6513    3.8219 H   0  0  0  0  0  0  0  0  0  0  0  0
    1.5999   -4.5740    5.9792 H   0  0  0  0  0  0  0  0  0  0  0  0
    1.4262   -3.1344    7.0302 H   0  0  0  0  0  0  0  0  0  0  0  0
    2.9014   -3.3604    6.0479 H   0  0  0  0  0  0  0  0  0  0  0  0
    1.7149   -1.1192   -0.3256 H   0  0  0  0  0  0  0  0  0  0  0  0
   -3.3750   -3.2565    0.8960 H   0  0  0  0  0  0  0  0  0  0  0  0
   -2.4536   -3.3023    2.4097 H   0  0  0  0  0  0  0  0  0  0  0  0
   -2.1571   -5.3765    0.1432 H   0  0  0  0  0  0  0  0  0  0  0  0
   -3.0231   -5.6237    1.6820 H   0  0  0  0  0  0  0  0  0  0  0  0
   -1.2560   -5.3618    1.6802 H   0  0  0  0  0  0  0  0  0  0  0  0
   -3.0457   -3.5671   -1.1831 H   0  0  0  0  0  0  0  0  0  0  0  0
   -3.4494   -3.3143   -5.6821 H   0  0  0  0  0  0  0  0  0  0  0  0
    1.3265   -1.2549   -4.5690 H   0  0  0  0  0  0  0  0  0  0  0  0
    2.3225    0.6908   -4.2730 H   0  0  0  0  0  0  0  0  0  0  0  0
    4.1976    3.7341   -3.5956 H   0  0  0  0  0  0  0  0  0  0  0  0
    4.0136    2.1906   -4.4475 H   0  0  0  0  0  0  0  0  0  0  0  0
    5.3305    1.2588   -2.5178 H   0  0  0  0  0  0  0  0  0  0  0  0
    5.1732    0.1475   -0.3031 H   0  0  0  0  0  0  0  0  0  0  0  0
    3.0919    0.3917    1.0742 H   0  0  0  0  0  0  0  0  0  0  0  0
    1.1998    1.7088    0.2163 H   0  0  0  0  0  0  0  0  0  0  0  0
    1.3830    2.8930   -1.9778 H   0  0  0  0  0  0  0  0  0  0  0  0
    0.2046    4.3072   -5.2562 H   0  0  0  0  0  0  0  0  0  0  0  0
   -1.7072    2.9260   -6.0970 H   0  0  0  0  0  0  0  0  0  0  0  0
   -1.6095    0.4602   -6.0184 H   0  0  0  0  0  0  0  0  0  0  0  0
    0.9625   -0.9273   -2.4954 H   0  0  0  0  0  0  0  0  0  0  0  0
   -2.0270    3.3846    5.8673 H   0  0  0  0  0  0  0  0  0  0  0  0
   -2.1573    5.3836    6.9349 H   0  0  0  0  0  0  0  0  0  0  0  0
   -1.5858    6.7156    5.8809 H   0  0  0  0  0  0  0  0  0  0  0  0
   -0.5404    6.1197    7.1802 H   0  0  0  0  0  0  0  0  0  0  0  0
   -1.1952    0.7579    2.5623 H   0  0  0  0  0  0  0  0  0  0  0  0
   -2.9120   -0.8908    4.0727 H   0  0  0  0  0  0  0  0  0  0  0  0
   -2.6651   -0.8212    2.2920 H   0  0  0  0  0  0  0  0  0  0  0  0
   -3.9451    0.1656    3.0836 H   0  0  0  0  0  0  0  0  0  0  0  0
    2.0077   -2.0152    2.3209 H   0  0  0  0  0  0  0  0  0  0  0  0
   -0.0697   -0.5103    3.9110 H   0  0  0  0  0  0  0  0  0  0  0  0
  2  3  1  0  0  0  0
  2  1  2  0  0  0  0
  3 49  1  6  0  0  0
  3  4  1  0  0  0  0
  3 45  1  0  0  0  0
  4 52  1  0  0  0  0
  4 53  1  0  0  0  0
  5  4  1  0  0  0  0
  6  5  1  0  0  0  0
  6 92  1  1  0  0  0
  6  7  1  0  0  0  0
  7  8  1  0  0  0  0
  7 54  1  0  0  0  0
  8 10  1  0  0  0  0
  9 57  1  0  0  0  0
  9  8  1  0  0  0  0
  9 56  1  0  0  0  0
 10 61  1  0  0  0  0
 10 60  1  0  0  0  0
 11  6  1  0  0  0  0
 12 11  1  0  0  0  0
 13 12  2  0  0  0  0
 14 12  1  0  0  0  0
 15 16  1  0  0  0  0
 15 14  1  0  0  0  0
 16 17  1  0  0  0  0
 17 18  1  0  0  0  0
 18 64  1  0  0  0  0
 19 18  1  0  0  0  0
 19 67  1  0  0  0  0
 19 66  1  0  0  0  0
 20 68  1  0  0  0  0
 20 16  2  0  0  0  0
 21 20  1  0  0  0  0
 22 21  2  0  0  0  0
 23 22  1  0  0  0  0
 24 23  2  0  0  0  0
 24 27  1  0  0  0  0
 25 24  1  0  0  0  0
 26 25  3  0  0  0  0
 27 43  2  0  0  0  0
 28 27  1  0  0  0  0
 28 70  1  0  0  0  0
 29 28  1  0  0  0  0
 29 30  1  0  0  0  0
 30 71  1  0  0  0  0
 31 30  2  0  0  0  0
 31 32  1  0  0  0  0
 32 33  1  0  0  0  0
 33 72  1  0  0  0  0
 33 34  1  0  0  0  0
 34 35  2  0  0  0  0
 34 39  1  0  0  0  0
 35 36  1  0  0  0  0
 36 75  1  0  0  0  0
 36 37  2  0  0  0  0
 37 76  1  0  0  0  0
 38 37  1  0  0  0  0
 38 77  1  0  0  0  0
 39 38  2  0  0  0  0
 40 31  1  0  0  0  0
 41 42  1  0  0  0  0
 41 40  2  0  0  0  0
 42 29  2  0  0  0  0
 43 21  1  0  0  0  0
 43 44  1  0  0  0  0
 44 15  2  0  0  0  0
 45 46  1  0  0  0  0
 45 83  1  0  0  0  0
 46 47  1  0  0  0  0
 47 84  1  0  0  0  0
 47 86  1  0  0  0  0
 48 46  2  0  0  0  0
 50  2  1  0  0  0  0
 51 50  1  0  0  0  0
 51 88  1  0  0  0  0
 55  7  1  0  0  0  0
 58  9  1  0  0  0  0
 59 10  1  0  0  0  0
 62 14  1  0  0  0  0
 63 18  1  0  0  0  0
 65 19  1  0  0  0  0
 69 23  1  0  0  0  0
 73 33  1  0  0  0  0
 74 35  1  0  0  0  0
 78 39  1  0  0  0  0
 79 40  1  0  0  0  0
 80 41  1  0  0  0  0
 81 42  1  0  0  0  0
 82 44  1  0  0  0  0
 85 47  1  0  0  0  0
 87 50  1  0  0  0  0
 89 51  1  0  0  0  0
 90 51  1  0  0  0  0
 91 11  1  0  0  0  0
M  END
