-1 1
 OpenBabel05232414493D

 92 94  0  0  1  0  0  0  0  0999 V2000
   -7.1036    2.9371   -4.0841 O   0  0  0  0  0  0  0  0  0  0  0  0
   -6.0252    2.8254   -4.6645 C   0  0  0  0  0  0  0  0  0  0  0  0
   -4.8026    3.6445   -4.2043 C   0  0  2  0  0  0  0  0  0  0  0  0
   -3.5284    2.8062   -3.9808 C   0  0  0  0  0  0  0  0  0  0  0  0
   -2.6860    2.2703   -5.5041 S   0  0  0  0  0  1  0  0  0  0  0  0
   -2.7266   -0.1740   -5.2184 C   0  0  0  0  0  3  0  0  0  0  0  0
   -1.7114   -0.2169   -4.0988 C   0  0  0  0  0  0  0  0  0  0  0  0
   -1.4756   -1.5679   -3.6003 N   0  0  0  0  0  0  0  0  0  0  0  0
   -2.6768   -2.2214   -3.1415 C   0  0  0  0  0  0  0  0  0  0  0  0
   -0.4337   -1.5845   -2.6070 C   0  0  0  0  0  0  0  0  0  0  0  0
   -2.4759   -0.8396   -6.4006 C   0  0  0  0  0  3  0  0  0  0  0  0
   -3.5198   -1.0265   -7.3666 C   0  0  0  0  0  0  0  0  0  0  0  0
   -4.7131   -0.7974   -7.1924 O   0  0  0  0  0  0  0  0  0  0  0  0
   -3.0718   -1.4920   -8.6296 N   0  0  0  0  0  0  0  0  0  0  0  0
   -3.9395   -1.7405   -9.6820 C   0  0  0  0  0  0  0  0  0  0  0  0
   -5.0587   -2.6265   -9.4814 C   0  0  0  0  0  0  0  0  0  0  0  0
   -5.1183   -3.2571   -8.3045 O   0  0  0  0  0  0  0  0  0  0  0  0
   -6.3517   -3.3528   -7.6118 C   0  0  0  0  0  0  0  0  0  0  0  0
   -6.8825   -4.7738   -7.6236 C   0  0  0  0  0  0  0  0  0  0  0  0
   -5.9767   -2.8146  -10.4905 C   0  0  0  0  0  0  0  0  0  0  0  0
   -5.7997   -2.2293  -11.7681 C   0  0  0  0  0  0  0  0  0  0  0  0
   -6.7424   -2.4554  -12.7233 N   0  0  0  0  0  0  0  0  0  0  0  0
   -6.5613   -1.9359  -13.9054 C   0  0  0  0  0  0  0  0  0  0  0  0
   -5.4248   -1.1589  -14.2694 C   0  0  0  0  0  0  0  0  0  0  0  0
   -5.2730   -0.7421  -15.6316 C   0  0  0  0  0  0  0  0  0  0  0  0
   -5.1841   -0.4309  -16.7438 N   0  0  0  0  0  0  0  0  0  0  0  0
   -4.4516   -0.8986  -13.3080 C   0  0  0  0  0  0  0  0  0  0  0  0
   -3.2925   -0.1732  -13.5963 N   0  0  0  0  0  0  0  0  0  0  0  0
   -3.2440    1.2270  -13.7301 C   0  0  0  0  0  0  0  0  0  0  0  0
   -2.0386    1.8467  -13.3685 C   0  0  0  0  0  0  0  0  0  0  0  0
   -1.9183    3.2341  -13.3957 C   0  0  0  0  0  0  0  0  0  0  0  0
   -0.8082    3.8972  -12.9936 O   0  0  0  0  0  0  0  0  0  0  0  0
    0.2254    3.1883  -12.3483 C   0  0  0  0  0  0  0  0  0  0  0  0
   -0.1806    2.5661  -11.0277 C   0  0  0  0  0  0  0  0  0  0  0  0
    0.3397    1.3299  -10.6376 C   0  0  0  0  0  0  0  0  0  0  0  0
   -0.0218    0.7646   -9.4125 C   0  0  0  0  0  0  0  0  0  0  0  0
   -0.9145    1.4284   -8.5722 C   0  0  0  0  0  0  0  0  0  0  0  0
   -1.4451    2.6592   -8.9612 C   0  0  0  0  0  0  0  0  0  0  0  0
   -1.0782    3.2243  -10.1798 C   0  0  0  0  0  0  0  0  0  0  0  0
   -2.9922    4.0181  -13.8367 C   0  0  0  0  0  0  0  0  0  0  0  0
   -4.1736    3.3925  -14.2088 C   0  0  0  0  0  0  0  0  0  0  0  0
   -4.3224    2.0055  -14.1539 C   0  0  0  0  0  0  0  0  0  0  0  0
   -4.6385   -1.4399  -12.0041 C   0  0  0  0  0  0  0  0  0  0  0  0
   -3.7474   -1.1843  -10.9278 C   0  0  0  0  0  0  0  0  0  0  0  0
   -5.2315    4.3172   -2.9976 N   0  0  0  0  0  0  0  0  0  0  0  0
   -4.6177    5.4025   -2.4769 C   0  0  0  0  0  0  0  0  0  0  0  0
   -5.3229    6.0261   -1.2809 C   0  0  0  0  0  0  0  0  0  0  0  0
   -3.5741    5.8663   -2.9036 O   0  0  0  0  0  0  0  0  0  0  0  0
   -4.5714    4.3949   -4.9814 H   0  0  0  0  0  0  0  0  0  0  0  0
   -5.8392    2.0104   -5.7100 N   0  0  0  0  0  0  0  0  0  0  0  0
   -6.9103    1.1919   -6.2241 C   0  0  0  0  0  0  0  0  0  0  0  0
   -2.8401    3.4280   -3.3928 H   0  0  0  0  0  0  0  0  0  0  0  0
   -3.7900    1.9240   -3.3670 H   0  0  0  0  0  0  0  0  0  0  0  0
   -2.0321    0.4614   -3.2784 H   0  0  0  0  0  0  0  0  0  0  0  0
   -0.7555    0.1794   -4.4742 H   0  0  0  0  0  0  0  0  0  0  0  0
   -3.1654   -1.6911   -2.2895 H   0  0  0  0  0  0  0  0  0  0  0  0
   -2.4430   -3.2452   -2.8085 H   0  0  0  0  0  0  0  0  0  0  0  0
   -3.4059   -2.2941   -3.9614 H   0  0  0  0  0  0  0  0  0  0  0  0
   -0.2064   -2.6210   -2.3089 H   0  0  0  0  0  0  0  0  0  0  0  0
   -0.6954   -1.0170   -1.6818 H   0  0  0  0  0  0  0  0  0  0  0  0
    0.4871   -1.1396   -3.0156 H   0  0  0  0  0  0  0  0  0  0  0  0
   -2.1429   -1.1821   -8.8881 H   0  0  0  0  0  0  0  0  0  0  0  0
   -7.0767   -2.6471   -8.0481 H   0  0  0  0  0  0  0  0  0  0  0  0
   -6.1482   -3.0101   -6.5870 H   0  0  0  0  0  0  0  0  0  0  0  0
   -7.1327   -5.1053   -8.6426 H   0  0  0  0  0  0  0  0  0  0  0  0
   -7.7903   -4.8441   -7.0054 H   0  0  0  0  0  0  0  0  0  0  0  0
   -6.1318   -5.4659   -7.2148 H   0  0  0  0  0  0  0  0  0  0  0  0
   -6.8421   -3.4629  -10.3522 H   0  0  0  0  0  0  0  0  0  0  0  0
   -7.3258   -2.1289  -14.6668 H   0  0  0  0  0  0  0  0  0  0  0  0
   -2.4964   -0.5189  -13.0746 H   0  0  0  0  0  0  0  0  0  0  0  0
   -1.2231    1.2241  -13.0021 H   0  0  0  0  0  0  0  0  0  0  0  0
    1.0121    3.9402  -12.1855 H   0  0  0  0  0  0  0  0  0  0  0  0
    0.6489    2.4180  -13.0195 H   0  0  0  0  0  0  0  0  0  0  0  0
    1.0342    0.8007  -11.2983 H   0  0  0  0  0  0  0  0  0  0  0  0
    0.4020   -0.1977   -9.1112 H   0  0  0  0  0  0  0  0  0  0  0  0
   -1.2121    0.9981   -7.6126 H   0  0  0  0  0  0  0  0  0  0  0  0
   -2.1413    3.1666   -8.2883 H   0  0  0  0  0  0  0  0  0  0  0  0
   -1.5007    4.1832  -10.4892 H   0  0  0  0  0  0  0  0  0  0  0  0
   -2.8819    5.1028  -13.8542 H   0  0  0  0  0  0  0  0  0  0  0  0
   -5.0187    3.9998  -14.5407 H   0  0  0  0  0  0  0  0  0  0  0  0
   -5.2736    1.5514  -14.4259 H   0  0  0  0  0  0  0  0  0  0  0  0
   -2.9254   -0.4745  -11.0480 H   0  0  0  0  0  0  0  0  0  0  0  0
   -6.1805    4.0663   -2.7268 H   0  0  0  0  0  0  0  0  0  0  0  0
   -6.2324    5.4910   -0.9748 H   0  0  0  0  0  0  0  0  0  0  0  0
   -5.5794    7.0660   -1.5296 H   0  0  0  0  0  0  0  0  0  0  0  0
   -4.6182    6.0557   -0.4378 H   0  0  0  0  0  0  0  0  0  0  0  0
   -4.8823    1.9045   -6.0717 H   0  0  0  0  0  0  0  0  0  0  0  0
   -7.4102    0.6484   -5.4070 H   0  0  0  0  0  0  0  0  0  0  0  0
   -6.4800    0.4701   -6.9263 H   0  0  0  0  0  0  0  0  0  0  0  0
   -7.6759    1.8057   -6.7277 H   0  0  0  0  0  0  0  0  0  0  0  0
   -1.4605   -1.1687   -6.6389 H   0  0  0  0  0  0  0  0  0  0  0  0
   -3.7770   -0.0479   -4.9432 H   0  0  0  0  0  0  0  0  0  0  0  0
  2  3  1  0  0  0  0
  2  1  2  0  0  0  0
  3 49  1  6  0  0  0
  3  4  1  0  0  0  0
  3 45  1  0  0  0  0
  4 52  1  0  0  0  0
  4 53  1  0  0  0  0
  5  4  1  0  0  0  0
  6 92  1  0  0  0  0
  6  7  1  0  0  0  0
  7  8  1  0  0  0  0
  7 54  1  0  0  0  0
  8  9  1  0  0  0  0
  8 10  1  0  0  0  0
  9 57  1  0  0  0  0
  9 56  1  0  0  0  0
 10 59  1  0  0  0  0
 10 60  1  0  0  0  0
 11  6  1  0  0  0  0
 12 13  2  0  0  0  0
 12 11  1  0  0  0  0
 14 12  1  0  0  0  0
 15 16  1  0  0  0  0
 15 14  1  0  0  0  0
 16 17  1  0  0  0  0
 17 18  1  0  0  0  0
 18 64  1  0  0  0  0
 19 18  1  0  0  0  0
 19 67  1  0  0  0  0
 19 66  1  0  0  0  0
 20 68  1  0  0  0  0
 20 16  2  0  0  0  0
 21 20  1  0  0  0  0
 22 21  2  0  0  0  0
 23 22  1  0  0  0  0
 24 23  2  0  0  0  0
 24 27  1  0  0  0  0
 25 24  1  0  0  0  0
 26 25  3  0  0  0  0
 27 43  2  0  0  0  0
 28 27  1  0  0  0  0
 28 70  1  0  0  0  0
 29 28  1  0  0  0  0
 29 30  1  0  0  0  0
 30 71  1  0  0  0  0
 31 30  2  0  0  0  0
 31 32  1  0  0  0  0
 32 33  1  0  0  0  0
 33 72  1  0  0  0  0
 33 34  1  0  0  0  0
 34 35  2  0  0  0  0
 34 39  1  0  0  0  0
 35 36  1  0  0  0  0
 36 75  1  0  0  0  0
 36 37  2  0  0  0  0
 37 76  1  0  0  0  0
 38 37  1  0  0  0  0
 38 77  1  0  0  0  0
 39 38  2  0  0  0  0
 40 31  1  0  0  0  0
 41 42  1  0  0  0  0
 41 40  2  0  0  0  0
 42 29  2  0  0  0  0
 43 21  1  0  0  0  0
 43 44  1  0  0  0  0
 44 15  2  0  0  0  0
 45 83  1  0  0  0  0
 45 46  1  0  0  0  0
 46 47  1  0  0  0  0
 47 84  1  0  0  0  0
 47 86  1  0  0  0  0
 48 46  2  0  0  0  0
 50  2  1  0  0  0  0
 51 50  1  0  0  0  0
 51 88  1  0  0  0  0
 55  7  1  0  0  0  0
 58  9  1  0  0  0  0
 61 10  1  0  0  0  0
 62 14  1  0  0  0  0
 63 18  1  0  0  0  0
 65 19  1  0  0  0  0
 69 23  1  0  0  0  0
 73 33  1  0  0  0  0
 74 35  1  0  0  0  0
 78 39  1  0  0  0  0
 79 40  1  0  0  0  0
 80 41  1  0  0  0  0
 81 42  1  0  0  0  0
 82 44  1  0  0  0  0
 85 47  1  0  0  0  0
 87 50  1  0  0  0  0
 89 51  1  0  0  0  0
 90 51  1  0  0  0  0
 91 11  1  0  0  0  0
M  END
