92
-1 1
O        -7.103612    2.937133   -4.084088
C        -6.025209    2.825425   -4.664516
C        -4.802620    3.644521   -4.204316
C        -3.528375    2.806245   -3.980795
S        -2.685961    2.270273   -5.504142
C        -2.726558   -0.173963   -5.218440
C        -1.711372   -0.216937   -4.098777
N        -1.475640   -1.567874   -3.600269
C        -2.676847   -2.221382   -3.141490
C        -0.433741   -1.584550   -2.606966
C        -2.475884   -0.839604   -6.400576
C        -3.519848   -1.026530   -7.366552
O        -4.713101   -0.797414   -7.192417
N        -3.071850   -1.492019   -8.629636
C        -3.939548   -1.740512   -9.681954
C        -5.058656   -2.626513   -9.481420
O        -5.118314   -3.257062   -8.304454
C        -6.351664   -3.352817   -7.611830
C        -6.882461   -4.773753   -7.623591
C        -5.976666   -2.814556  -10.490495
C        -5.799653   -2.229323  -11.768097
N        -6.742449   -2.455375  -12.723274
C        -6.561252   -1.935912  -13.905385
C        -5.424845   -1.158934  -14.269391
C        -5.273009   -0.742149  -15.631587
N        -5.184108   -0.430863  -16.743812
C        -4.451594   -0.898569  -13.307983
N        -3.292550   -0.173179  -13.596329
C        -3.243984    1.226959  -13.730139
C        -2.038555    1.846663  -13.368479
C        -1.918330    3.234116  -13.395693
O        -0.808177    3.897235  -12.993554
C         0.225431    3.188306  -12.348344
C        -0.180621    2.566121  -11.027734
C         0.339650    1.329851  -10.637576
C        -0.021847    0.764622   -9.412463
C        -0.914500    1.428357   -8.572241
C        -1.445063    2.659221   -8.961170
C        -1.078167    3.224322  -10.179757
C        -2.992168    4.018099  -13.836684
C        -4.173625    3.392520  -14.208823
C        -4.322449    2.005499  -14.153852
C        -4.638463   -1.439929  -12.004142
C        -3.747354   -1.184331  -10.927771
N        -5.231539    4.317175   -2.997572
C        -4.617727    5.402463   -2.476906
C        -5.322863    6.026128   -1.280867
O        -3.574088    5.866305   -2.903550
H        -4.571425    4.394865   -4.981384
N        -5.839211    2.010437   -5.710038
C        -6.910309    1.191904   -6.224094
H        -2.840089    3.428004   -3.392849
H        -3.789951    1.924019   -3.367003
H        -2.032134    0.461421   -3.278427
H        -0.755541    0.179424   -4.474250
H        -3.165426   -1.691084   -2.289522
H        -2.442954   -3.245188   -2.808462
H        -3.405878   -2.294147   -3.961366
H        -0.206404   -2.621026   -2.308933
H        -0.695352   -1.017021   -1.681797
H         0.487077   -1.139613   -3.015558
H        -2.142885   -1.182108   -8.888070
H        -7.076679   -2.647096   -8.048130
H        -6.148156   -3.010129   -6.586965
H        -7.132719   -5.105286   -8.642578
H        -7.790282   -4.844064   -7.005399
H        -6.131774   -5.465883   -7.214753
H        -6.842060   -3.462943  -10.352197
H        -7.325815   -2.128926  -14.666755
H        -2.496428   -0.518871  -13.074601
H        -1.223144    1.224084  -13.002063
H         1.012109    3.940189  -12.185466
H         0.648949    2.417992  -13.019539
H         1.034221    0.800673  -11.298272
H         0.402046   -0.197655   -9.111225
H        -1.212077    0.998124   -7.612589
H        -2.141271    3.166623   -8.288326
H        -1.500744    4.183166  -10.489229
H        -2.881932    5.102840  -13.854242
H        -5.018712    3.999823  -14.540684
H        -5.273612    1.551436  -14.425948
H        -2.925360   -0.474509  -11.047952
H        -6.180543    4.066313   -2.726842
H        -6.232381    5.490988   -0.974830
H        -5.579439    7.065954   -1.529562
H        -4.618209    6.055719   -0.437821
H        -4.882297    1.904483   -6.071682
H        -7.410181    0.648397   -5.406981
H        -6.479967    0.470068   -6.926334
H        -7.675911    1.805729   -6.727673
H        -1.460480   -1.168661   -6.638918
H        -3.777021   -0.047932   -4.943197
