96
-1 1
O        -2.995077   -0.710767   12.881083
C        -2.150425   -0.808196   12.002565
C        -2.346981   -1.711450   10.780379
C        -2.964252   -3.092752   11.105137
S        -4.755993   -3.182582   11.340820
C        -5.532116   -2.546289    9.239631
C        -5.635235   -3.891024    8.619686
C        -6.866592   -4.523979    8.641407
C        -7.087036   -5.786351    8.051916
C        -6.066610   -6.445328    7.414616
C        -4.549819   -4.570704    7.960991
C        -4.781071   -5.847506    7.357684
C        -3.689792   -6.483547    6.713043
C        -2.461411   -5.874750    6.688438
C        -2.333029   -4.618952    7.326831
N        -3.315451   -4.001768    7.929534
C        -4.844618   -1.476093    8.651582
C        -5.067734   -0.173916    9.200112
O        -5.908398    0.116669   10.049828
N        -4.154542    0.819684    8.752506
C        -3.580637    1.759140    9.580449
C        -2.577025    2.614149    9.005383
O        -2.377509    2.422013    7.684330
C        -1.241395    2.957074    7.047173
C         0.038793    2.231318    7.428104
C        -1.926302    3.553554    9.772175
C        -2.196995    3.681734   11.157006
N        -1.513887    4.629700   11.865756
C        -1.734131    4.689460   13.147030
C        -2.593134    3.810110   13.874639
C        -2.512598    3.893567   15.299699
N        -2.371587    4.015672   16.444802
C        -3.316194    2.833452   13.169911
N        -4.079221    1.843676   13.721569
C        -4.618152    1.754144   15.009699
C        -5.268471    2.836214   15.614622
C        -5.810523    2.696392   16.881881
Cl        -6.582456    4.064425   17.640832
C        -5.759435    1.474725   17.570855
O        -6.320671    1.433677   18.799724
C        -6.255737    0.252565   19.543297
C        -6.891099    0.467665   20.895071
C        -7.069487   -0.627248   21.747767
C        -7.634041   -0.458804   23.009253
C        -8.031051    0.810272   23.432624
C        -7.858068    1.902576   22.585266
C        -7.290073    1.735537   21.321691
C        -5.145315    0.390157   16.939817
C        -4.572879    0.528887   15.678451
C        -3.151836    2.812788   11.740486
C        -3.865441    1.902088   10.926856
N        -1.100860   -1.919538   10.047931
C        -0.839653   -1.428712    8.806452
C         0.414881   -1.973199    8.144781
O        -1.503533   -0.567048    8.261683
H        -3.024138   -1.177460   10.100325
N        -0.985565   -0.115583   12.030136
C        -0.637356    0.829093   13.060779
H        -2.701835   -3.734092   10.251963
H        -2.476955   -3.508807   12.004265
H        -7.696180   -4.021508    9.143681
H        -8.082324   -6.234399    8.105520
H        -6.222339   -7.422578    6.950392
H        -3.846010   -7.459356    6.244235
H        -1.600605   -6.336341    6.200625
H        -1.358072   -4.115269    7.334554
H        -3.538729    0.542320    7.995330
H        -1.164599    4.042937    7.237266
H        -1.440531    2.832339    5.973132
H         0.288436    2.389498    8.487382
H         0.877732    2.596819    6.816360
H        -0.098677    1.152661    7.269264
H        -1.177942    4.226883    9.355609
H        -1.186411    5.448661   13.718819
H        -4.029931    0.950351   13.224472
H        -5.348269    3.794115   15.100211
H        -5.202129   -0.060678   19.677779
H        -6.774950   -0.570343   19.015890
H        -6.764006   -1.625075   21.418863
H        -7.767958   -1.322937   23.664227
H        -8.476405    0.944998   24.421049
H        -8.168223    2.899262   22.907775
H        -7.154375    2.586160   20.652392
H        -5.098532   -0.581436   17.431148
H        -4.088719   -0.320574   15.191642
H        -4.660975    1.279080   11.331475
H        -0.544579   -2.708699   10.353401
H         0.813558   -2.880835    8.619689
H         1.190639   -1.192837    8.163029
H         0.182901   -2.182124    7.092085
H        -0.373687   -0.225602   11.234149
H         0.324327    0.567226   13.530506
H        -1.419424    0.804012   13.829529
H        -0.571658    1.854821   12.665385
H        -3.995230   -1.648251    7.992249
H        -6.455208   -2.240020    9.737427
