-1 1
 OpenBabel05232414493D

 59 60  0  0  1  0  0  0  0  0999 V2000
    2.9795    1.8374   -7.3898 O   0  0  0  0  0  0  0  0  0  0  0  0
    2.7898    1.5701   -6.2082 C   0  0  0  0  0  0  0  0  0  0  0  0
    3.4295    0.3215   -5.5667 C   0  0  2  0  0  0  0  0  0  0  0  0
    4.1950    0.5374   -4.2418 C   0  0  0  0  0  0  0  0  0  0  0  0
    3.2388    1.1360   -2.8345 S   0  0  0  0  0  1  0  0  0  0  0  0
    4.2674    3.3759   -2.7733 C   0  0  0  0  0  3  0  0  0  0  0  0
    5.2779    3.4553   -3.7181 C   0  0  2  0  0  3  0  0  0  0  0  0
    5.1296    3.9200   -5.4354 S   0  0  0  0  0  0  0  0  0  0  0  0
    6.6123    2.9694   -3.4329 C   0  0  0  0  0  0  0  0  0  0  0  0
    7.0643    2.5548   -2.3812 O   0  0  0  0  0  0  0  0  0  0  0  0
    7.3953    3.0414   -4.6041 N   0  0  0  0  0  0  0  0  0  0  0  0
    6.8303    3.5035   -5.7645 C   0  0  0  0  0  0  0  0  0  0  0  0
    7.3797    3.6175   -6.8332 O   0  0  0  0  0  0  0  0  0  0  0  0
    3.0509    4.2376   -2.7719 C   0  0  0  0  0  0  0  0  0  0  0  0
    1.9229    3.9079   -2.0027 C   0  0  0  0  0  0  0  0  0  0  0  0
    0.8105    4.7407   -1.9641 C   0  0  0  0  0  0  0  0  0  0  0  0
    0.8039    5.9211   -2.6995 C   0  0  0  0  0  0  0  0  0  0  0  0
   -0.3162    6.7290   -2.6991 O   0  0  0  0  0  0  0  0  0  0  0  0
   -0.2613    7.9384   -2.1100 C   0  0  0  0  0  0  0  0  0  0  0  0
   -1.2914    8.8434   -2.4292 C   0  0  0  0  0  0  0  0  0  0  0  0
   -2.2986    8.4732   -3.3828 C   0  0  0  0  0  0  0  0  0  0  0  0
   -3.1212    8.2136   -4.1550 N   0  0  0  0  0  0  0  0  0  0  0  0
   -1.3227   10.1088   -1.8251 C   0  0  0  0  0  0  0  0  0  0  0  0
   -0.3392   10.4778   -0.9175 C   0  0  0  0  0  0  0  0  0  0  0  0
    0.6824    9.5751   -0.6120 C   0  0  0  0  0  0  0  0  0  0  0  0
    0.7281    8.3156   -1.1973 C   0  0  0  0  0  0  0  0  0  0  0  0
    1.9176    6.2827   -3.4624 C   0  0  0  0  0  0  0  0  0  0  0  0
    1.9282    7.4647   -4.1402 O   0  0  0  0  0  0  0  0  0  0  0  0
    1.1976    7.4642   -5.3496 C   0  0  0  0  0  0  0  0  0  0  0  0
    3.0305    5.4454   -3.4823 C   0  0  0  0  0  0  0  0  0  0  0  0
    4.3011   -0.2246   -6.5824 N   0  0  0  0  0  0  0  0  0  0  0  0
    4.7072   -1.5134   -6.6127 C   0  0  0  0  0  0  0  0  0  0  0  0
    5.5679   -1.8860   -7.8095 C   0  0  0  0  0  0  0  0  0  0  0  0
    4.4408   -2.3288   -5.7456 O   0  0  0  0  0  0  0  0  0  0  0  0
    2.6163   -0.3981   -5.3629 H   0  0  0  0  0  0  0  0  0  0  0  0
    1.9911    2.2997   -5.4118 N   0  0  0  0  0  0  0  0  0  0  0  0
    1.3774    3.5123   -5.8848 C   0  0  0  0  0  0  0  0  0  0  0  0
    4.6462   -0.4299   -3.9846 H   0  0  0  0  0  0  0  0  0  0  0  0
    5.0228    1.2479   -4.4195 H   0  0  0  0  0  0  0  0  0  0  0  0
    4.6439    3.1004   -1.7854 H   0  0  0  0  0  0  0  0  0  0  0  0
    8.3598    2.7329   -4.5945 H   0  0  0  0  0  0  0  0  0  0  0  0
    1.9162    2.9716   -1.4438 H   0  0  0  0  0  0  0  0  0  0  0  0
   -0.0692    4.4831   -1.3719 H   0  0  0  0  0  0  0  0  0  0  0  0
   -2.1290   10.7963   -2.0862 H   0  0  0  0  0  0  0  0  0  0  0  0
   -0.3642   11.4642   -0.4521 H   0  0  0  0  0  0  0  0  0  0  0  0
    1.4634    9.8566    0.0976 H   0  0  0  0  0  0  0  0  0  0  0  0
    1.5311    7.6174   -0.9592 H   0  0  0  0  0  0  0  0  0  0  0  0
    1.2950    8.4675   -5.7836 H   0  0  0  0  0  0  0  0  0  0  0  0
    0.1290    7.2478   -5.1801 H   0  0  0  0  0  0  0  0  0  0  0  0
    1.6066    6.7233   -6.0570 H   0  0  0  0  0  0  0  0  0  0  0  0
    3.8942    5.7715   -4.0629 H   0  0  0  0  0  0  0  0  0  0  0  0
    4.3856    0.3744   -7.4007 H   0  0  0  0  0  0  0  0  0  0  0  0
    6.5952   -2.0611   -7.4573 H   0  0  0  0  0  0  0  0  0  0  0  0
    5.5898   -1.1161   -8.5929 H   0  0  0  0  0  0  0  0  0  0  0  0
    5.1964   -2.8313   -8.2279 H   0  0  0  0  0  0  0  0  0  0  0  0
    2.0226    2.0785   -4.4067 H   0  0  0  0  0  0  0  0  0  0  0  0
    0.8099    3.9676   -5.0618 H   0  0  0  0  0  0  0  0  0  0  0  0
    0.6943    3.3119   -6.7253 H   0  0  0  0  0  0  0  0  0  0  0  0
    2.1336    4.2349   -6.2363 H   0  0  0  0  0  0  0  0  0  0  0  0
  1  2  2  0  0  0  0
  2  3  1  0  0  0  0
  2 36  1  0  0  0  0
  3 35  1  1  0  0  0
  3  4  1  0  0  0  0
  4 38  1  0  0  0  0
  4  5  1  0  0  0  0
  6 14  1  0  0  0  0
  6 40  1  0  0  0  0
  7  9  1  0  0  0  0
  7  6  1  6  0  0  0
  8  7  1  0  0  0  0
  9 10  2  0  0  0  0
 11 41  1  0  0  0  0
 11  9  1  0  0  0  0
 12  8  1  0  0  0  0
 12 11  1  0  0  0  0
 13 12  2  0  0  0  0
 14 15  1  0  0  0  0
 15 16  2  0  0  0  0
 15 42  1  0  0  0  0
 16 43  1  0  0  0  0
 17 18  1  0  0  0  0
 17 16  1  0  0  0  0
 18 19  1  0  0  0  0
 19 26  1  0  0  0  0
 20 19  2  0  0  0  0
 20 23  1  0  0  0  0
 21 20  1  0  0  0  0
 22 21  3  0  0  0  0
 23 24  2  0  0  0  0
 24 25  1  0  0  0  0
 24 45  1  0  0  0  0
 25 46  1  0  0  0  0
 26 47  1  0  0  0  0
 26 25  2  0  0  0  0
 27 17  2  0  0  0  0
 28 27  1  0  0  0  0
 29 49  1  0  0  0  0
 29 28  1  0  0  0  0
 30 27  1  0  0  0  0
 30 14  2  0  0  0  0
 31  3  1  0  0  0  0
 32 31  1  0  0  0  0
 32 34  2  0  0  0  0
 33 53  1  0  0  0  0
 33 32  1  0  0  0  0
 36 56  1  0  0  0  0
 37 36  1  0  0  0  0
 37 57  1  0  0  0  0
 39  4  1  0  0  0  0
 44 23  1  0  0  0  0
 48 29  1  0  0  0  0
 50 29  1  0  0  0  0
 51 30  1  0  0  0  0
 52 31  1  0  0  0  0
 54 33  1  0  0  0  0
 55 33  1  0  0  0  0
 58 37  1  0  0  0  0
 59 37  1  0  0  0  0
M  END
