-1 1
 OpenBabel05232414493D

 88 90  0  0  1  0  0  0  0  0999 V2000
   -3.8820   -4.6233   -5.9825 O   0  0  0  0  0  0  0  0  0  0  0  0
   -4.3629   -3.5468   -5.6823 C   0  0  0  0  0  0  0  0  0  0  0  0
   -3.8084   -2.2397   -6.2654 C   0  0  2  0  0  0  0  0  0  0  0  0
   -2.7323   -1.6389   -5.3433 C   0  0  0  0  0  0  0  0  0  0  0  0
   -3.3554   -0.8252   -3.8570 S   0  0  0  0  0  1  0  0  0  0  0  0
   -2.6926    1.3240   -4.4577 C   0  0  0  0  0  3  0  0  0  0  0  0
   -1.5924    1.4918   -3.4299 C   0  0  0  0  0  0  0  0  0  0  0  0
   -0.9199    2.7818   -3.5129 N   0  0  0  0  0  0  0  0  0  0  0  0
    0.1680    2.8697   -2.5753 C   0  0  0  0  0  0  0  0  0  0  0  0
   -1.8173    3.9064   -3.4189 C   0  0  0  0  0  0  0  0  0  0  0  0
   -2.3852    1.4149   -5.8153 C   0  0  0  0  0  3  0  0  0  0  0  0
   -3.4300    1.6433   -6.7630 C   0  0  0  0  0  0  0  0  0  0  0  0
   -4.6011    1.9282   -6.4845 O   0  0  0  0  0  0  0  0  0  0  0  0
   -3.0666    1.4769   -8.1187 N   0  0  0  0  0  0  0  0  0  0  0  0
   -4.0253    1.5933   -9.1261 C   0  0  0  0  0  0  0  0  0  0  0  0
   -4.6717    2.8595   -9.3198 C   0  0  0  0  0  0  0  0  0  0  0  0
   -4.2544    3.8671   -8.5428 O   0  0  0  0  0  0  0  0  0  0  0  0
   -5.2032    4.7362   -7.9523 C   0  0  0  0  0  0  0  0  0  0  0  0
   -5.1594    6.1156   -8.5825 C   0  0  0  0  0  0  0  0  0  0  0  0
   -5.6315    3.0016  -10.2992 C   0  0  0  0  0  0  0  0  0  0  0  0
   -6.0115    1.9136  -11.1201 C   0  0  0  0  0  0  0  0  0  0  0  0
   -6.9366    2.1313  -12.0995 N   0  0  0  0  0  0  0  0  0  0  0  0
   -7.3097    1.1093  -12.8140 C   0  0  0  0  0  0  0  0  0  0  0  0
   -6.8652   -0.2315  -12.6140 C   0  0  0  0  0  0  0  0  0  0  0  0
   -7.5456   -1.2582  -13.3417 C   0  0  0  0  0  0  0  0  0  0  0  0
   -8.1391   -2.0436  -13.9537 N   0  0  0  0  0  0  0  0  0  0  0  0
   -5.9031   -0.4859  -11.6272 C   0  0  0  0  0  0  0  0  0  0  0  0
   -5.4767   -1.7344  -11.2369 N   0  0  0  0  0  0  0  0  0  0  0  0
   -5.2625   -2.8655  -12.0078 C   0  0  0  0  0  0  0  0  0  0  0  0
   -5.2649   -4.1137  -11.3610 C   0  0  0  0  0  0  0  0  0  0  0  0
   -5.0176   -5.2659  -12.0905 C   0  0  0  0  0  0  0  0  0  0  0  0
   -5.0401   -6.7978  -11.2442 Cl  0  0  0  0  0  0  0  0  0  0  0  0
   -4.7675   -5.2433  -13.4699 C   0  0  0  0  0  0  0  0  0  0  0  0
   -4.5141   -6.4909  -14.2729 C   0  0  0  0  0  0  0  0  0  0  0  0
   -3.1957   -7.0662  -14.0502 N   0  0  0  0  0  0  0  0  0  0  0  0
   -2.9017   -8.3900  -13.9360 C   0  0  0  0  0  0  0  0  0  0  0  0
   -1.6157   -8.6080  -13.8160 N   0  0  0  0  0  0  0  0  0  0  0  0
   -1.0401   -7.3672  -13.8512 C   0  0  0  0  0  0  0  0  0  0  0  0
   -1.9996   -6.3948  -13.9964 C   0  0  0  0  0  0  0  0  0  0  0  0
   -4.7483   -3.9882  -14.0832 C   0  0  0  0  0  0  0  0  0  0  0  0
   -4.9756   -2.8137  -13.3789 C   0  0  0  0  0  0  0  0  0  0  0  0
   -5.4063    0.6471  -10.9024 C   0  0  0  0  0  0  0  0  0  0  0  0
   -4.3830    0.5335   -9.9271 C   0  0  0  0  0  0  0  0  0  0  0  0
   -4.8292   -1.2532   -6.5351 N   0  0  0  0  0  0  0  0  0  0  0  0
   -5.6114   -1.2892   -7.6242 C   0  0  0  0  0  0  0  0  0  0  0  0
   -6.6834   -0.2295   -7.6929 C   0  0  0  0  0  0  0  0  0  0  0  0
   -5.4647   -2.1518   -8.4981 O   0  0  0  0  0  0  0  0  0  0  0  0
   -3.3445   -2.5407   -7.2161 H   0  0  0  0  0  0  0  0  0  0  0  0
   -5.3842   -3.3917   -4.7975 N   0  0  0  0  0  0  0  0  0  0  0  0
   -5.8880   -4.4956   -4.0234 C   0  0  0  0  0  0  0  0  0  0  0  0
   -2.0094   -2.4285   -5.0944 H   0  0  0  0  0  0  0  0  0  0  0  0
   -2.2048   -0.8562   -5.9260 H   0  0  0  0  0  0  0  0  0  0  0  0
   -0.8360    0.7061   -3.5856 H   0  0  0  0  0  0  0  0  0  0  0  0
   -2.0142    1.3211   -2.4133 H   0  0  0  0  0  0  0  0  0  0  0  0
    0.8694    2.0344   -2.7283 H   0  0  0  0  0  0  0  0  0  0  0  0
   -0.1621    2.8355   -1.5088 H   0  0  0  0  0  0  0  0  0  0  0  0
    0.7244    3.8099   -2.7212 H   0  0  0  0  0  0  0  0  0  0  0  0
   -2.3674    3.9480   -2.4481 H   0  0  0  0  0  0  0  0  0  0  0  0
   -2.5571    3.8701   -4.2313 H   0  0  0  0  0  0  0  0  0  0  0  0
   -1.2512    4.8460   -3.5218 H   0  0  0  0  0  0  0  0  0  0  0  0
   -2.3121    0.8247   -8.2866 H   0  0  0  0  0  0  0  0  0  0  0  0
   -4.9486    4.7814   -6.8829 H   0  0  0  0  0  0  0  0  0  0  0  0
   -6.2093    4.2924   -8.0262 H   0  0  0  0  0  0  0  0  0  0  0  0
   -4.1409    6.5275   -8.5296 H   0  0  0  0  0  0  0  0  0  0  0  0
   -5.8374    6.7994   -8.0492 H   0  0  0  0  0  0  0  0  0  0  0  0
   -5.4609    6.0869   -9.6403 H   0  0  0  0  0  0  0  0  0  0  0  0
   -6.1056    3.9643  -10.4913 H   0  0  0  0  0  0  0  0  0  0  0  0
   -8.0529    1.2881  -13.6005 H   0  0  0  0  0  0  0  0  0  0  0  0
   -5.4306   -1.8748  -10.2102 H   0  0  0  0  0  0  0  0  0  0  0  0
   -5.4562   -4.1653  -10.2874 H   0  0  0  0  0  0  0  0  0  0  0  0
   -4.6310   -6.2578  -15.3429 H   0  0  0  0  0  0  0  0  0  0  0  0
   -5.2499   -7.2685  -14.0224 H   0  0  0  0  0  0  0  0  0  0  0  0
   -3.6848   -9.1490  -13.9382 H   0  0  0  0  0  0  0  0  0  0  0  0
    0.0363   -7.2300  -13.7592 H   0  0  0  0  0  0  0  0  0  0  0  0
   -1.9471   -5.3102  -14.0421 H   0  0  0  0  0  0  0  0  0  0  0  0
   -4.5457   -3.9300  -15.1559 H   0  0  0  0  0  0  0  0  0  0  0  0
   -4.9336   -1.8545  -13.8958 H   0  0  0  0  0  0  0  0  0  0  0  0
   -3.9091   -0.4333   -9.7566 H   0  0  0  0  0  0  0  0  0  0  0  0
   -4.9090   -0.4812   -5.8702 H   0  0  0  0  0  0  0  0  0  0  0  0
   -6.2829    0.7414   -7.3628 H   0  0  0  0  0  0  0  0  0  0  0  0
   -7.5092   -0.5196   -7.0243 H   0  0  0  0  0  0  0  0  0  0  0  0
   -7.0691   -0.1600   -8.7172 H   0  0  0  0  0  0  0  0  0  0  0  0
   -5.5241   -2.4491   -4.4454 H   0  0  0  0  0  0  0  0  0  0  0  0
   -5.6095   -5.4243   -4.5374 H   0  0  0  0  0  0  0  0  0  0  0  0
   -6.9845   -4.4463   -3.9376 H   0  0  0  0  0  0  0  0  0  0  0  0
   -5.4559   -4.5199   -3.0083 H   0  0  0  0  0  0  0  0  0  0  0  0
   -1.3571    1.2858   -6.1638 H   0  0  0  0  0  0  0  0  0  0  0  0
   -3.6722    1.7222   -4.1835 H   0  0  0  0  0  0  0  0  0  0  0  0
  1  2  2  0  0  0  0
  2 49  1  0  0  0  0
  3 48  1  6  0  0  0
  3  2  1  0  0  0  0
  3  4  1  0  0  0  0
  4 51  1  0  0  0  0
  4  5  1  0  0  0  0
  6 88  1  0  0  0  0
  6  7  1  0  0  0  0
  7 54  1  0  0  0  0
  8  7  1  0  0  0  0
  8 10  1  0  0  0  0
  8  9  1  0  0  0  0
  9 56  1  0  0  0  0
 10 58  1  0  0  0  0
 11  6  1  0  0  0  0
 12 13  2  0  0  0  0
 12 11  1  0  0  0  0
 14 12  1  0  0  0  0
 15 14  1  0  0  0  0
 16 15  1  0  0  0  0
 16 17  1  0  0  0  0
 17 18  1  0  0  0  0
 18 62  1  0  0  0  0
 19 64  1  0  0  0  0
 19 65  1  0  0  0  0
 19 18  1  0  0  0  0
 20 16  2  0  0  0  0
 21 42  1  0  0  0  0
 21 20  1  0  0  0  0
 22 21  2  0  0  0  0
 23 24  2  0  0  0  0
 23 22  1  0  0  0  0
 24 27  1  0  0  0  0
 25 24  1  0  0  0  0
 26 25  3  0  0  0  0
 27 28  1  0  0  0  0
 27 42  2  0  0  0  0
 28 69  1  0  0  0  0
 29 30  1  0  0  0  0
 29 28  1  0  0  0  0
 30 70  1  0  0  0  0
 31 30  2  0  0  0  0
 31 32  1  0  0  0  0
 33 31  1  0  0  0  0
 34 35  1  0  0  0  0
 34 72  1  0  0  0  0
 34 33  1  0  0  0  0
 35 39  1  0  0  0  0
 35 36  1  0  0  0  0
 36 37  2  0  0  0  0
 38 37  1  0  0  0  0
 38 74  1  0  0  0  0
 39 38  2  0  0  0  0
 40 33  2  0  0  0  0
 40 41  1  0  0  0  0
 41 29  2  0  0  0  0
 42 43  1  0  0  0  0
 43 78  1  0  0  0  0
 43 15  2  0  0  0  0
 44  3  1  0  0  0  0
 44 79  1  0  0  0  0
 45 44  1  0  0  0  0
 46 45  1  0  0  0  0
 46 80  1  0  0  0  0
 46 81  1  0  0  0  0
 47 45  2  0  0  0  0
 49 83  1  0  0  0  0
 49 50  1  0  0  0  0
 50 85  1  0  0  0  0
 50 86  1  0  0  0  0
 52  4  1  0  0  0  0
 53  7  1  0  0  0  0
 55  9  1  0  0  0  0
 57  9  1  0  0  0  0
 59 10  1  0  0  0  0
 60 10  1  0  0  0  0
 61 14  1  0  0  0  0
 63 18  1  0  0  0  0
 66 19  1  0  0  0  0
 67 20  1  0  0  0  0
 68 23  1  0  0  0  0
 71 34  1  0  0  0  0
 73 36  1  0  0  0  0
 75 39  1  0  0  0  0
 76 40  1  0  0  0  0
 77 41  1  0  0  0  0
 82 46  1  0  0  0  0
 84 50  1  0  0  0  0
 87 11  1  0  0  0  0
M  END
