88
-1 1
O        -3.881996   -4.623325   -5.982519
C        -4.362863   -3.546822   -5.682347
C        -3.808403   -2.239745   -6.265375
C        -2.732340   -1.638855   -5.343344
S        -3.355404   -0.825191   -3.856993
C        -2.692630    1.324016   -4.457671
C        -1.592443    1.491805   -3.429870
N        -0.919909    2.781819   -3.512911
C         0.167971    2.869716   -2.575340
C        -1.817308    3.906390   -3.418902
C        -2.385159    1.414906   -5.815263
C        -3.429970    1.643340   -6.762986
O        -4.601075    1.928166   -6.484496
N        -3.066575    1.476904   -8.118654
C        -4.025324    1.593330   -9.126145
C        -4.671684    2.859480   -9.319834
O        -4.254355    3.867120   -8.542760
C        -5.203157    4.736176   -7.952310
C        -5.159418    6.115630   -8.582513
C        -5.631512    3.001616  -10.299165
C        -6.011539    1.913649  -11.120059
N        -6.936563    2.131253  -12.099515
C        -7.309728    1.109270  -12.814043
C        -6.865230   -0.231510  -12.613998
C        -7.545585   -1.258208  -13.341657
N        -8.139099   -2.043589  -13.953718
C        -5.903077   -0.485865  -11.627189
N        -5.476664   -1.734401  -11.236937
C        -5.262522   -2.865488  -12.007815
C        -5.264916   -4.113662  -11.360996
C        -5.017590   -5.265883  -12.090517
Cl        -5.040138   -6.797773  -11.244239
C        -4.767498   -5.243270  -13.469944
C        -4.514103   -6.490879  -14.272876
N        -3.195742   -7.066242  -14.050201
C        -2.901703   -8.390034  -13.936036
N        -1.615682   -8.607962  -13.815979
C        -1.040142   -7.367216  -13.851228
C        -1.999617   -6.394776  -13.996429
C        -4.748335   -3.988156  -14.083157
C        -4.975597   -2.813697  -13.378889
C        -5.406346    0.647063  -10.902436
C        -4.382972    0.533550   -9.927125
N        -4.829214   -1.253197   -6.535088
C        -5.611424   -1.289188   -7.624208
C        -6.683399   -0.229483   -7.692904
O        -5.464679   -2.151763   -8.498108
H        -3.344486   -2.540703   -7.216076
N        -5.384244   -3.391691   -4.797525
C        -5.888028   -4.495557   -4.023415
H        -2.009377   -2.428452   -5.094421
H        -2.204810   -0.856216   -5.926032
H        -0.835972    0.706087   -3.585634
H        -2.014157    1.321115   -2.413299
H         0.869369    2.034416   -2.728291
H        -0.162083    2.835502   -1.508831
H         0.724366    3.809919   -2.721241
H        -2.367401    3.947973   -2.448121
H        -2.557143    3.870130   -4.231274
H        -1.251181    4.845981   -3.521789
H        -2.312137    0.824701   -8.286638
H        -4.948578    4.781405   -6.882922
H        -6.209283    4.292372   -8.026168
H        -4.140935    6.527484   -8.529643
H        -5.837351    6.799359   -8.049163
H        -5.460851    6.086933   -9.640327
H        -6.105565    3.964321  -10.491327
H        -8.052866    1.288098  -13.600544
H        -5.430573   -1.874807  -10.210213
H        -5.456239   -4.165270  -10.287365
H        -4.631016   -6.257770  -15.342938
H        -5.249853   -7.268464  -14.022353
H        -3.684848   -9.148961  -13.938204
H         0.036324   -7.229958  -13.759242
H        -1.947086   -5.310232  -14.042073
H        -4.545718   -3.930003  -15.155898
H        -4.933561   -1.854463  -13.895779
H        -3.909075   -0.433338   -9.756612
H        -4.908974   -0.481199   -5.870181
H        -6.282904    0.741366   -7.362830
H        -7.509197   -0.519603   -7.024341
H        -7.069085   -0.160025   -8.717164
H        -5.524117   -2.449132   -4.445375
H        -5.609526   -5.424340   -4.537430
H        -6.984464   -4.446324   -3.937647
H        -5.455935   -4.519852   -3.008266
H        -1.357075    1.285829   -6.163761
H        -3.672197    1.722226   -4.183492
