88
-1 1
O         0.427096   -2.920173    4.032274
C        -0.201889   -1.901934    3.808854
C         0.401411   -0.788564    2.938405
C         1.597879   -0.160710    3.664018
S         1.172173    0.857952    5.099438
C         1.750224    2.639009    4.533828
C         2.901520    2.996686    5.472961
N         3.470445    4.312646    5.243735
C         4.574210    4.571710    6.128276
C         2.502558    5.381191    5.235992
C         2.054178    2.769760    3.109826
C         1.017166    2.918077    2.202465
O        -0.205117    3.048769    2.486921
N         1.372646    2.807530    0.811690
C         0.379693    2.874043   -0.154126
C        -0.345373    4.106391   -0.307409
O         0.034785    5.110283    0.489329
C        -0.950195    5.936717    1.077600
C        -0.443421    6.364460    2.438157
C        -1.336478    4.219569   -1.257008
C        -1.681295    3.127083   -2.090505
N        -2.642520    3.307576   -3.039856
C        -2.998782    2.273566   -3.747440
C        -2.503656    0.950374   -3.553943
C        -3.167593   -0.106565   -4.253330
N        -3.747211   -0.919986   -4.841693
C        -1.501964    0.737622   -2.597872
N        -1.039931   -0.502499   -2.200087
C        -0.815477   -1.629137   -2.970972
C        -0.816419   -2.882056   -2.333476
C        -0.560018   -4.028243   -3.069303
Cl        -0.584555   -5.566814   -2.232937
C        -0.302215   -3.996274   -4.446807
C        -0.035492   -5.236985   -5.256017
N         1.280581   -5.812033   -5.018871
C         1.574737   -7.135791   -4.905037
N         2.859024   -7.352345   -4.765243
C         3.433200   -6.110632   -4.786713
C         2.474640   -5.139007   -4.943383
C        -0.289337   -2.736737   -5.051995
C        -0.526411   -1.568289   -4.341781
C        -1.011554    1.887025   -1.902809
C         0.046193    1.808991   -0.960651
N        -0.566491    0.196871    2.511497
C        -1.278640    0.052972    1.372249
C        -2.331100    1.111114    1.147798
O        -1.112455   -0.899428    0.605243
H         0.779072   -1.312884    2.046558
N        -1.435866   -1.648820    4.309251
C        -2.103205   -2.542719    5.216122
H         2.272770   -0.971439    3.967658
H         2.125442    0.514853    2.968836
H         3.704624    2.251967    5.339877
H         2.550514    2.889026    6.527627
H         5.327578    3.772904    6.039512
H         4.277395    4.629646    7.203915
H         5.060598    5.525246    5.865887
H         1.948021    5.478924    6.200123
H         1.773962    5.227209    4.427733
H         3.011172    6.339667    5.046141
H         2.082913    2.108389    0.638638
H        -1.889202    5.366959    1.179591
H        -1.150027    6.807150    0.424307
H        -0.287447    5.462755    3.047956
H        -1.173275    7.025283    2.930145
H         0.511761    6.901655    2.344989
H        -1.865565    5.160348   -1.411257
H        -3.768713    2.425912   -4.513318
H        -1.007198   -0.641104   -1.175987
H        -1.021296   -2.942242   -1.263005
H        -0.137367   -4.995240   -6.325657
H        -0.773309   -6.018251   -5.023445
H         0.792903   -7.895874   -4.922805
H         4.507946   -5.972189   -4.677893
H         2.526213   -4.054223   -4.984754
H        -0.083044   -2.670820   -6.123603
H        -0.491695   -0.604966   -4.851895
H         0.562967    0.859691   -0.814247
H        -0.541633    1.140933    2.924424
H        -1.928217    2.101180    1.409619
H        -3.187071    0.894435    1.806645
H        -2.677096    1.086870    0.108235
H        -1.823144   -0.734133    4.117461
H        -1.502114   -3.459184    5.278765
H        -3.112049   -2.800950    4.856599
H        -2.188305   -2.109160    6.226082
H         3.090881    2.722565    2.769175
H         0.841077    3.202871    4.783185
