88
-1 1
O         6.248382    4.322369   -4.836260
C         5.789021    3.669546   -5.774043
C         4.311709    3.780272   -6.162418
C         3.497193    2.549135   -5.720307
S         1.709666    2.716123   -6.041398
C         0.944436    5.275041   -5.522627
C         0.128988    4.835302   -4.331263
N        -0.698936    5.909831   -3.791746
C         0.076349    7.030192   -3.315611
C        -1.612630    5.421673   -2.790473
C         0.365592    5.842923   -6.619152
C         1.181144    6.389037   -7.675509
O         2.417225    6.405073   -7.678749
N         0.470164    6.920944   -8.746787
C         0.970715    7.484713   -9.906033
C         0.013810    8.102035  -10.783394
O        -1.259243    8.052929  -10.340170
C        -2.290664    8.610597  -11.124256
C        -3.598055    8.415113  -10.389876
C         0.413247    8.665963  -11.969747
C         1.779566    8.664340  -12.357679
N         2.081611    9.194271  -13.576053
C         3.325991    9.148576  -13.959406
C         4.381258    8.619107  -13.172337
C         5.721250    8.641299  -13.669496
N         6.815837    8.641305  -14.053428
C         4.112821    8.094758  -11.896728
N         5.141449    7.566252  -11.158514
C         5.318918    7.579542   -9.755786
C         4.844774    8.630376   -8.969904
C         5.021113    8.585776   -7.591665
Cl         4.358245    9.917635   -6.662857
C         5.699409    7.541861   -6.955647
C         5.924766    7.469301   -5.462471
N         7.309557    7.734110   -5.105917
C         7.951588    8.933143   -5.159403
N         9.217752    8.832475   -4.833647
C         9.410687    7.503480   -4.562284
C         8.241750    6.799364   -4.726591
C         6.204718    6.528355   -7.775752
C         6.013753    6.530097   -9.150330
C         2.738538    8.086458  -11.480778
C         2.298886    7.482247  -10.274681
N         4.102728    4.144810   -7.555400
C         4.233370    3.327091   -8.616606
C         3.514204    3.796669   -9.861986
O         4.885582    2.281677   -8.613801
H         3.955682    4.642338   -5.583749
N         6.535618    2.816883   -6.495308
C         7.940662    2.648487   -6.232552
H         3.879351    1.664086   -6.252525
H         3.700986    2.398526   -4.647265
H         0.807612    4.405157   -3.564480
H        -0.536493    4.015602   -4.639515
H         0.746084    6.765567   -2.463747
H        -0.592906    7.837637   -2.977780
H         0.701857    7.430897   -4.126647
H        -2.235263    4.614262   -3.205948
H        -2.282553    6.231722   -2.458911
H        -1.100807    5.016592   -1.885653
H        -0.537890    6.940462   -8.664461
H        -2.314508    8.117075  -12.112659
H        -2.088961    9.683729  -11.293869
H        -3.797128    7.345628  -10.231223
H        -4.426731    8.841383  -10.973146
H        -3.569209    8.911611   -9.409459
H        -0.288861    9.122477  -12.665237
H         3.569735    9.559391  -14.946093
H         5.995096    7.396048  -11.680622
H         4.314153    9.467389   -9.423311
H         5.692912    6.457768   -5.099604
H         5.276492    8.180612   -4.936372
H         7.429795    9.847066   -5.446889
H        10.381603    7.116925   -4.254675
H         7.960771    5.753126   -4.609952
H         6.738373    5.696853   -7.310965
H         6.375818    5.696868   -9.755679
H         2.992036    7.005280   -9.593097
H         3.475888    4.946488   -7.665786
H         2.433478    3.646784   -9.718019
H         3.855270    3.207092  -10.720827
H         3.684015    4.866788  -10.047797
H         6.075327    2.368705   -7.300861
H         8.116428    2.352548   -5.186385
H         8.507081    3.579696   -6.407299
H         8.338729    1.867902   -6.893821
H        -0.721494    5.823750   -6.736440
H         2.014768    5.420605   -5.388948
