96
-1 1
O         3.360303    4.483295   -2.980852
C         4.542875    4.212875   -3.011563
C         5.062315    2.835690   -3.446859
C         3.970511    1.764321   -3.489273
S         4.615529    0.200996   -4.142064
C         4.372213   -1.005707   -2.593581
C         5.512460   -2.007094   -2.715433
N         5.686923   -2.603362   -4.028121
C         6.931413   -3.315455   -4.143353
C         4.561603   -3.400934   -4.452110
C         4.283803   -0.338022   -1.307849
C         3.027622   -0.072614   -0.737031
O         1.924194   -0.499110   -1.118045
N         3.081603    0.817709    0.385974
C         2.032613    1.254824    1.137054
C         2.266831    2.401149    1.978529
O         3.522293    2.899884    1.913713
C         3.715911    4.301499    1.831355
C         3.024322    4.918242    0.630149
C         1.277108    2.913262    2.779593
C        -0.020439    2.343386    2.794138
N        -0.958822    2.889380    3.619859
C        -2.152735    2.372968    3.603558
C        -2.550875    1.283222    2.772065
C        -3.937308    0.939088    2.766238
N        -5.074521    0.713032    2.794349
C        -1.598917    0.680941    1.936672
N        -1.875791   -0.352652    1.075254
C        -2.800545   -1.393765    1.247907
C        -3.444051   -1.924619    0.126289
C        -4.351945   -2.967848    0.271769
Cl        -5.165227   -3.594502   -1.135153
C        -4.647631   -3.501034    1.531558
O        -5.556981   -4.501168    1.660471
C        -6.796702   -4.146159    2.292314
H        -6.602091   -3.927375    3.356692
C        -7.760097   -5.317768    2.090280
C        -8.477951   -5.026157    0.758880
C        -8.427302   -3.519816    0.671863
C        -7.485322   -3.009749    1.570721
C        -7.230780   -1.643888    1.653914
C        -7.939380   -0.781835    0.815232
C        -8.883504   -1.285499   -0.082146
C        -9.135551   -2.657881   -0.159806
C        -3.980035   -2.977512    2.640330
C        -3.062058   -1.945329    2.508214
C        -0.270888    1.224236    1.952240
C         0.767328    0.682864    1.160202
N         6.223082    2.418910   -2.668167
C         6.201360    2.383314   -1.300681
C         7.328621    1.590387   -0.669213
O         5.401878    3.013304   -0.632002
H         5.437668    2.991917   -4.473748
N         5.527216    5.131233   -2.780997
C         5.234997    6.409487   -2.187359
H         3.611675    1.572953   -2.465206
H         3.126507    2.120949   -4.091985
H         6.453665   -1.493310   -2.452861
H         5.347385   -2.787836   -1.936241
H         6.999338   -4.198907   -3.463525
H         7.774593   -2.647764   -3.906861
H         7.069521   -3.679064   -5.174281
H         4.729186   -3.768807   -5.476454
H         3.644450   -2.796842   -4.464135
H         4.384960   -4.284236   -3.794129
H         3.913240    1.396175    0.460110
H         4.804419    4.416731    1.742311
H         3.399522    4.786760    2.773706
H         3.277293    5.987644    0.563566
H         1.930582    4.833860    0.705132
H         3.352925    4.421903   -0.293042
H         1.455708    3.777731    3.419657
H        -2.909783    2.819482    4.259581
H        -1.221961   -0.461256    0.308071
H        -3.254122   -1.505742   -0.862670
H        -8.490219   -5.317341    2.914677
H        -7.222257   -6.275486    2.108301
H        -9.502844   -5.426251    0.729109
H        -7.927854   -5.466392   -0.089177
H        -6.486990   -1.231136    2.339548
H        -7.741245    0.290637    0.868275
H        -9.431308   -0.598464   -0.732051
H        -9.874048   -3.045071   -0.866731
H        -4.188407   -3.403946    3.623470
H        -2.542670   -1.558361    3.386291
H         0.629212   -0.169697    0.498641
H         6.708801    1.643695   -3.111852
H         7.527019    0.655195   -1.211633
H         7.058448    1.361996    0.368240
H         8.248076    2.196515   -0.671052
H         6.461571    4.756713   -2.680552
H         5.416382    6.408277   -1.098811
H         4.171633    6.622281   -2.355854
H         5.837568    7.207474   -2.648419
H         3.400412   -1.470765   -2.804647
H         5.187575    0.034273   -0.821720
