96
-1 1
O        -1.050373   -0.045732   -0.793887
C        -1.066518    1.131402   -1.169477
C        -1.655352    1.542079   -2.528737
C        -2.073683    0.326739   -3.370772
S        -2.607095    0.800585   -5.050974
C         1.124433    0.582176   -6.591504
C         0.097153    1.210861   -7.478678
N         0.018069    2.653935   -7.376968
C        -1.285857    3.167819   -7.735610
C         1.094526    3.327049   -8.061699
C         1.623790    1.162251   -5.498281
C         2.457064    0.417736   -4.522951
O         3.192876   -0.505014   -4.793954
N         2.264460    0.874403   -3.224365
C         2.875528    0.253648   -2.123983
C         4.296842    0.246051   -2.012365
O         5.037469    0.864406   -2.964404
C         5.609614    2.108244   -2.608930
C         4.582023    3.222782   -2.509319
C         4.894685   -0.383474   -0.944131
C         4.131723   -0.995378    0.078455
N         4.804525   -1.617062    1.093004
C         4.087973   -2.207519    2.002609
C         2.662759   -2.208603    2.055021
C         2.054838   -3.011399    3.070053
N         1.624373   -3.696109    3.900846
C         1.937469   -1.501607    1.080340
N         0.585473   -1.348967    1.089150
C        -0.268318   -1.299803    2.205122
C        -1.605228   -1.662788    2.013986
C        -2.512105   -1.538577    3.058779
Cl        -4.173863   -2.000119    2.755545
C        -2.133048   -1.067586    4.327173
N        -3.013689   -0.926410    5.433271
C        -3.537640   -2.138443    6.027694
C        -3.723658   -2.028117    7.529981
C        -4.779540   -2.688195    8.164598
C        -4.929878   -2.630417    9.550067
C        -4.026910   -1.900151   10.320697
C        -2.975009   -1.229725    9.695235
C        -2.825885   -1.294172    8.311831
C        -3.933996    0.191709    5.389081
C        -0.791943   -0.703154    4.482745
C         0.129536   -0.798334    3.448901
C         2.714220   -0.931040    0.004545
C         2.119975   -0.322070   -1.126847
N        -0.733684    2.343203   -3.337408
C        -0.529493    3.672820   -3.158556
C         0.080229    4.401681   -4.334069
O        -0.762535    4.264791   -2.105839
H        -2.552369    2.153155   -2.313110
N        -0.601266    2.135571   -0.414873
C        -0.086965    1.938315    0.917223
H        -1.219665   -0.370017   -3.413548
H        -2.872226   -0.194241   -2.824539
H        -0.865432    0.789971   -7.126013
H         0.241709    0.874510   -8.531126
H        -1.316641    4.255665   -7.561777
H        -2.050739    2.697461   -7.099139
H        -1.540980    2.990267   -8.805220
H         1.069431    4.406547   -7.840961
H         1.045417    3.206012   -9.168943
H         2.064884    2.934377   -7.722682
H         1.391236    1.374657   -3.058058
H         6.341259    2.326969   -3.400025
H         6.166561    2.011505   -1.657820
H         4.029191    3.322611   -3.454124
H         5.080103    4.178252   -2.284320
H         3.853375    3.021726   -1.709355
H         5.981769   -0.423026   -0.865077
H         4.622324   -2.746121    2.794822
H         0.125172   -0.945258    0.260284
H        -1.934403   -2.020411    1.038291
H        -2.818887   -2.948942    5.823662
H        -4.497978   -2.454751    5.572265
H        -5.496489   -3.254643    7.563272
H        -5.761566   -3.153226   10.028507
H        -4.144776   -1.848969   11.405630
H        -2.264587   -0.651409   10.291030
H        -2.012928   -0.763806    7.810981
H        -3.406011    1.090725    5.040401
H        -4.312554    0.394890    6.403505
H        -4.804255    0.021129    4.724579
H        -0.484808   -0.324897    5.459228
H         1.159188   -0.476132    3.608134
H         1.038630   -0.321715   -1.255591
H        -0.879576    2.051456   -4.327379
H        -0.361098    5.405285   -4.385812
H        -0.054890    3.866767   -5.286083
H         1.159002    4.522215   -4.146227
H        -0.677950    3.080486   -0.817693
H         0.039491    2.917041    1.397284
H         0.890430    1.427821    0.912937
H        -0.779644    1.334759    1.523925
H         1.397104   -0.457637   -6.802282
H         1.323479    2.180972   -5.248988
