-1 1
 OpenBabel05232414493D

 99102  0  0  1  0  0  0  0  0999 V2000
    2.4832   -3.2509    2.0476 O   0  0  0  0  0  0  0  0  0  0  0  0
    3.6358   -2.9408    2.3193 C   0  0  0  0  0  0  0  0  0  0  0  0
    4.0166   -1.6380    3.0430 C   0  0  2  0  0  0  0  0  0  0  0  0
    2.7776   -0.8151    3.4493 C   0  0  0  0  0  0  0  0  0  0  0  0
    3.1353    0.9435    3.7734 S   0  0  0  0  0  1  0  0  0  0  0  0
    4.5975    0.3511    5.7157 C   0  0  0  0  0  3  0  0  0  0  0  0
    5.2945    1.6517    5.8343 C   0  0  0  0  0  0  0  0  0  0  0  0
    6.6833    1.7382    5.5521 C   0  0  0  0  0  0  0  0  0  0  0  0
    7.3985    0.5963    5.1376 N   0  0  0  0  0  0  0  0  0  0  0  0
    8.6410    0.7855    4.4364 C   0  0  0  0  0  0  0  0  0  0  0  0
    7.4565   -0.5591    6.0180 C   0  0  0  0  0  0  0  0  0  0  0  0
    7.3108    2.9908    5.6569 C   0  0  0  0  0  0  0  0  0  0  0  0
    6.6014    4.1282    6.0374 C   0  0  0  0  0  0  0  0  0  0  0  0
    5.2454    4.0361    6.3369 C   0  0  0  0  0  0  0  0  0  0  0  0
    4.6097    2.8011    6.2336 C   0  0  0  0  0  0  0  0  0  0  0  0
    3.8461   -0.1825    6.7437 C   0  0  0  0  0  3  0  0  0  0  0  0
    3.5846   -1.5984    6.8107 C   0  0  0  0  0  0  0  0  0  0  0  0
    4.0779   -2.4706    6.1051 O   0  0  0  0  0  0  0  0  0  0  0  0
    2.7043   -1.9701    7.8525 N   0  0  0  0  0  0  0  0  0  0  0  0
    2.3314   -3.2850    8.1039 C   0  0  0  0  0  0  0  0  0  0  0  0
    1.7037   -4.0585    7.0572 C   0  0  0  0  0  0  0  0  0  0  0  0
    1.4564   -3.4032    5.9336 O   0  0  0  0  0  0  0  0  0  0  0  0
    0.9732   -4.0715    4.7764 C   0  0  0  0  0  0  0  0  0  0  0  0
   -0.5398   -4.1915    4.7838 C   0  0  0  0  0  0  0  0  0  0  0  0
    1.3839   -5.3819    7.2964 C   0  0  0  0  0  0  0  0  0  0  0  0
    1.5728   -5.9736    8.5671 C   0  0  0  0  0  0  0  0  0  0  0  0
    1.2303   -7.2851    8.7196 N   0  0  0  0  0  0  0  0  0  0  0  0
    1.3806   -7.8213    9.8960 C   0  0  0  0  0  0  0  0  0  0  0  0
    1.8622   -7.1323   11.0457 C   0  0  0  0  0  0  0  0  0  0  0  0
    1.8383   -7.8221   12.2983 C   0  0  0  0  0  0  0  0  0  0  0  0
    1.7909   -8.4154   13.2933 N   0  0  0  0  0  0  0  0  0  0  0  0
    2.2390   -5.7882   10.9158 C   0  0  0  0  0  0  0  0  0  0  0  0
    2.6841   -5.0236   11.9739 N   0  0  0  0  0  0  0  0  0  0  0  0
    3.4812   -5.4374   13.0519 C   0  0  0  0  0  0  0  0  0  0  0  0
    3.3070   -4.8290   14.2985 C   0  0  0  0  0  0  0  0  0  0  0  0
    4.1017   -5.2087   15.3741 C   0  0  0  0  0  0  0  0  0  0  0  0
    3.8790   -4.4357   16.9211 Cl  0  0  0  0  0  0  0  0  0  0  0  0
    5.0692   -6.2109   15.2398 C   0  0  0  0  0  0  0  0  0  0  0  0
    5.8503   -6.5855   16.2878 O   0  0  0  0  0  0  0  0  0  0  0  0
    5.3157   -7.6163   17.0916 C   0  0  0  0  0  0  0  0  0  0  0  0
    6.2708   -7.9580   18.2056 C   0  0  0  0  0  0  0  0  0  0  0  0
    5.8928   -8.9082   19.1612 C   0  0  0  0  0  0  0  0  0  0  0  0
    6.7573   -9.2553   20.1954 C   0  0  0  0  0  0  0  0  0  0  0  0
    8.0134   -8.6539   20.2886 C   0  0  0  0  0  0  0  0  0  0  0  0
    8.3932   -7.7066   19.3408 C   0  0  0  0  0  0  0  0  0  0  0  0
    7.5277   -7.3593   18.3025 C   0  0  0  0  0  0  0  0  0  0  0  0
    5.2386   -6.8034   13.9884 C   0  0  0  0  0  0  0  0  0  0  0  0
    4.4698   -6.4172   12.8997 C   0  0  0  0  0  0  0  0  0  0  0  0
    2.1004   -5.1876    9.6290 C   0  0  0  0  0  0  0  0  0  0  0  0
    2.5049   -3.8556    9.3431 C   0  0  0  0  0  0  0  0  0  0  0  0
    4.9011   -0.8128    2.2318 N   0  0  0  0  0  0  0  0  0  0  0  0
    6.2402   -0.9426    2.1828 C   0  0  0  0  0  0  0  0  0  0  0  0
    6.9480    0.2561    1.5836 C   0  0  0  0  0  0  0  0  0  0  0  0
    6.8534   -1.9432    2.5545 O   0  0  0  0  0  0  0  0  0  0  0  0
    4.5432   -1.9553    3.9597 H   0  0  0  0  0  0  0  0  0  0  0  0
    4.7012   -3.7284    2.0431 N   0  0  0  0  0  0  0  0  0  0  0  0
    4.5807   -4.9944    1.3757 C   0  0  0  0  0  0  0  0  0  0  0  0
    2.0193   -0.8895    2.6566 H   0  0  0  0  0  0  0  0  0  0  0  0
    2.3487   -1.2795    4.3498 H   0  0  0  0  0  0  0  0  0  0  0  0
    8.5490    1.5801    3.6832 H   0  0  0  0  0  0  0  0  0  0  0  0
    8.8938   -0.1504    3.9143 H   0  0  0  0  0  0  0  0  0  0  0  0
    9.4922    1.0413    5.1067 H   0  0  0  0  0  0  0  0  0  0  0  0
    6.5619   -0.6314    6.6451 H   0  0  0  0  0  0  0  0  0  0  0  0
    8.3397   -0.5059    6.6895 H   0  0  0  0  0  0  0  0  0  0  0  0
    7.5216   -1.4802    5.4180 H   0  0  0  0  0  0  0  0  0  0  0  0
    8.3784    3.0787    5.4503 H   0  0  0  0  0  0  0  0  0  0  0  0
    7.1195    5.0885    6.1047 H   0  0  0  0  0  0  0  0  0  0  0  0
    4.6784    4.9230    6.6289 H   0  0  0  0  0  0  0  0  0  0  0  0
    3.5347    2.7182    6.4106 H   0  0  0  0  0  0  0  0  0  0  0  0
    2.5817   -1.3046    8.6031 H   0  0  0  0  0  0  0  0  0  0  0  0
    1.4638   -5.0542    4.6833 H   0  0  0  0  0  0  0  0  0  0  0  0
    1.3124   -3.4675    3.9253 H   0  0  0  0  0  0  0  0  0  0  0  0
   -0.9082   -4.8080    5.6176 H   0  0  0  0  0  0  0  0  0  0  0  0
   -0.8763   -4.6473    3.8409 H   0  0  0  0  0  0  0  0  0  0  0  0
   -0.9960   -3.1942    4.8640 H   0  0  0  0  0  0  0  0  0  0  0  0
    0.9321   -6.0116    6.5322 H   0  0  0  0  0  0  0  0  0  0  0  0
    1.0962   -8.8740   10.0121 H   0  0  0  0  0  0  0  0  0  0  0  0
    2.5283   -4.0280   11.8934 H   0  0  0  0  0  0  0  0  0  0  0  0
    2.5357   -4.0702   14.4376 H   0  0  0  0  0  0  0  0  0  0  0  0
    5.1262   -8.5120   16.4701 H   0  0  0  0  0  0  0  0  0  0  0  0
    4.3438   -7.3031   17.5151 H   0  0  0  0  0  0  0  0  0  0  0  0
    4.9085   -9.3810   19.0941 H   0  0  0  0  0  0  0  0  0  0  0  0
    6.4488   -9.9983   20.9345 H   0  0  0  0  0  0  0  0  0  0  0  0
    8.6927   -8.9239   21.1004 H   0  0  0  0  0  0  0  0  0  0  0  0
    9.3738   -7.2295   19.4073 H   0  0  0  0  0  0  0  0  0  0  0  0
    7.8190   -6.6166   17.5591 H   0  0  0  0  0  0  0  0  0  0  0  0
    6.0075   -7.5709   13.8830 H   0  0  0  0  0  0  0  0  0  0  0  0
    4.6285   -6.8808   11.9249 H   0  0  0  0  0  0  0  0  0  0  0  0
    3.0258   -3.2605   10.0965 H   0  0  0  0  0  0  0  0  0  0  0  0
    4.5370    0.1484    2.1765 H   0  0  0  0  0  0  0  0  0  0  0  0
    6.5543    0.4688    0.5788 H   0  0  0  0  0  0  0  0  0  0  0  0
    8.0231    0.0544    1.5223 H   0  0  0  0  0  0  0  0  0  0  0  0
    6.7664    1.1418    2.2107 H   0  0  0  0  0  0  0  0  0  0  0  0
    5.6220   -3.3639    2.3041 H   0  0  0  0  0  0  0  0  0  0  0  0
    4.9583   -5.8196    2.0025 H   0  0  0  0  0  0  0  0  0  0  0  0
    5.1348   -5.0067    0.4219 H   0  0  0  0  0  0  0  0  0  0  0  0
    3.5172   -5.1697    1.1674 H   0  0  0  0  0  0  0  0  0  0  0  0
    3.3936    0.4761    7.4910 H   0  0  0  0  0  0  0  0  0  0  0  0
    5.0937   -0.3658    5.0646 H   0  0  0  0  0  0  0  0  0  0  0  0
  1  2  2  0  0  0  0
  2  3  1  0  0  0  0
  3  4  1  0  0  0  0
  3 55  1  1  0  0  0
  4  5  1  0  0  0  0
  4 59  1  0  0  0  0
  6  7  1  0  0  0  0
  6 16  1  0  0  0  0
  7 15  1  0  0  0  0
  8 12  1  0  0  0  0
  8  7  2  0  0  0  0
  9  8  1  0  0  0  0
  9 11  1  0  0  0  0
 10 62  1  0  0  0  0
 10  9  1  0  0  0  0
 11 63  1  0  0  0  0
 11 64  1  0  0  0  0
 12 13  2  0  0  0  0
 13 67  1  0  0  0  0
 13 14  1  0  0  0  0
 14 68  1  0  0  0  0
 15 14  2  0  0  0  0
 15 69  1  0  0  0  0
 16 17  1  0  0  0  0
 16 98  1  0  0  0  0
 17 19  1  0  0  0  0
 18 17  2  0  0  0  0
 19 20  1  0  0  0  0
 19 70  1  0  0  0  0
 20 50  1  0  0  0  0
 21 25  1  0  0  0  0
 21 20  2  0  0  0  0
 22 21  1  0  0  0  0
 23 24  1  0  0  0  0
 23 22  1  0  0  0  0
 24 75  1  0  0  0  0
 24 73  1  0  0  0  0
 25 26  2  0  0  0  0
 26 27  1  0  0  0  0
 26 49  1  0  0  0  0
 27 28  2  0  0  0  0
 28 77  1  0  0  0  0
 28 29  1  0  0  0  0
 29 30  1  0  0  0  0
 30 31  3  0  0  0  0
 32 29  2  0  0  0  0
 32 33  1  0  0  0  0
 33 34  1  0  0  0  0
 34 35  1  0  0  0  0
 35 79  1  0  0  0  0
 35 36  2  0  0  0  0
 36 37  1  0  0  0  0
 38 36  1  0  0  0  0
 38 39  1  0  0  0  0
 39 40  1  0  0  0  0
 40 81  1  0  0  0  0
 40 41  1  0  0  0  0
 41 46  2  0  0  0  0
 41 42  1  0  0  0  0
 42 43  2  0  0  0  0
 43 44  1  0  0  0  0
 43 83  1  0  0  0  0
 44 84  1  0  0  0  0
 45 85  1  0  0  0  0
 45 44  2  0  0  0  0
 46 45  1  0  0  0  0
 47 38  2  0  0  0  0
 48 34  2  0  0  0  0
 48 47  1  0  0  0  0
 49 32  1  0  0  0  0
 50 49  2  0  0  0  0
 50 89  1  0  0  0  0
 51  3  1  0  0  0  0
 52 51  1  0  0  0  0
 52 54  2  0  0  0  0
 53 52  1  0  0  0  0
 53 93  1  0  0  0  0
 56 94  1  0  0  0  0
 56  2  1  0  0  0  0
 57 95  1  0  0  0  0
 57 56  1  0  0  0  0
 58  4  1  0  0  0  0
 60 10  1  0  0  0  0
 61 10  1  0  0  0  0
 65 11  1  0  0  0  0
 66 12  1  0  0  0  0
 71 23  1  0  0  0  0
 72 23  1  0  0  0  0
 74 24  1  0  0  0  0
 76 25  1  0  0  0  0
 78 33  1  0  0  0  0
 80 40  1  0  0  0  0
 82 42  1  0  0  0  0
 86 46  1  0  0  0  0
 87 47  1  0  0  0  0
 88 48  1  0  0  0  0
 90 51  1  0  0  0  0
 91 53  1  0  0  0  0
 92 53  1  0  0  0  0
 96 57  1  0  0  0  0
 97 57  1  0  0  0  0
 99  6  1  0  0  0  0
M  END
