99
-1 1
O         2.483171   -3.250865    2.047623
C         3.635788   -2.940785    2.319322
C         4.016642   -1.638008    3.043045
C         2.777647   -0.815093    3.449273
S         3.135289    0.943489    3.773430
C         4.597479    0.351083    5.715653
C         5.294505    1.651685    5.834277
C         6.683319    1.738219    5.552069
N         7.398527    0.596326    5.137602
C         8.641036    0.785548    4.436415
C         7.456531   -0.559144    6.017980
C         7.310811    2.990773    5.656875
C         6.601363    4.128188    6.037398
C         5.245350    4.036144    6.336912
C         4.609699    2.801075    6.233630
C         3.846065   -0.182484    6.743670
C         3.584617   -1.598422    6.810746
O         4.077873   -2.470632    6.105093
N         2.704345   -1.970068    7.852468
C         2.331355   -3.284997    8.103855
C         1.703692   -4.058522    7.057183
O         1.456409   -3.403161    5.933600
C         0.973238   -4.071470    4.776428
C        -0.539751   -4.191494    4.783794
C         1.383902   -5.381898    7.296425
C         1.572796   -5.973624    8.567096
N         1.230308   -7.285108    8.719613
C         1.380634   -7.821308    9.896034
C         1.862202   -7.132321   11.045671
C         1.838346   -7.822118   12.298264
N         1.790914   -8.415420   13.293349
C         2.238998   -5.788229   10.915825
N         2.684059   -5.023600   11.973900
C         3.481179   -5.437445   13.051883
C         3.307014   -4.828970   14.298459
C         4.101714   -5.208690   15.374105
Cl         3.879005   -4.435733   16.921061
C         5.069218   -6.210893   15.239826
O         5.850325   -6.585533   16.287789
C         5.315666   -7.616306   17.091615
C         6.270849   -7.958024   18.205593
C         5.892762   -8.908230   19.161248
C         6.757297   -9.255340   20.195445
C         8.013408   -8.653908   20.288595
C         8.393181   -7.706558   19.340789
C         7.527664   -7.359277   18.302542
C         5.238644   -6.803445   13.988372
C         4.469755   -6.417185   12.899728
C         2.100448   -5.187603    9.628952
C         2.504941   -3.855570    9.343067
N         4.901097   -0.812766    2.231789
C         6.240245   -0.942609    2.182796
C         6.948020    0.256139    1.583575
O         6.853393   -1.943158    2.554531
H         4.543221   -1.955313    3.959739
N         4.701217   -3.728409    2.043117
C         4.580711   -4.994427    1.375694
H         2.019306   -0.889541    2.656590
H         2.348694   -1.279490    4.349793
H         8.549009    1.580107    3.683228
H         8.893779   -0.150443    3.914333
H         9.492191    1.041284    5.106746
H         6.561918   -0.631428    6.645090
H         8.339745   -0.505897    6.689543
H         7.521573   -1.480245    5.417995
H         8.378445    3.078690    5.450305
H         7.119540    5.088454    6.104734
H         4.678376    4.923041    6.628926
H         3.534654    2.718234    6.410634
H         2.581720   -1.304578    8.603083
H         1.463793   -5.054181    4.683293
H         1.312382   -3.467499    3.925306
H        -0.908206   -4.808028    5.617623
H        -0.876296   -4.647266    3.840891
H        -0.995984   -3.194227    4.864026
H         0.932142   -6.011593    6.532220
H         1.096242   -8.874014   10.012064
H         2.528342   -4.027971   11.893384
H         2.535742   -4.070238   14.437643
H         5.126195   -8.512034   16.470123
H         4.343821   -7.303098   17.515052
H         4.908486   -9.380971   19.094057
H         6.448764   -9.998348   20.934503
H         8.692652   -8.923862   21.100360
H         9.373793   -7.229468   19.407268
H         7.818956   -6.616646   17.559149
H         6.007486   -7.570886   13.883034
H         4.628461   -6.880753   11.924861
H         3.025775   -3.260489   10.096516
H         4.536956    0.148366    2.176516
H         6.554314    0.468825    0.578806
H         8.023093    0.054372    1.522293
H         6.766356    1.141843    2.210744
H         5.621980   -3.363943    2.304128
H         4.958292   -5.819563    2.002451
H         5.134776   -5.006658    0.421882
H         3.517180   -5.169723    1.167444
H         3.393593    0.476117    7.491018
H         5.093723   -0.365765    5.064645
