95
-1 1
O         3.608393    2.203726   -2.012450
C         4.294996    2.773666   -1.186539
C         4.344812    2.277246    0.266163
C         2.977787    2.434156    0.953993
S         2.617903    4.121277    1.531474
C         1.684857    4.837477    0.003070
C         2.383536    6.160049   -0.318876
N         1.753363    6.930933   -1.375123
C         1.524667    6.188833   -2.591908
C         2.445470    8.168220   -1.606929
C         0.234156    4.929167    0.183959
C        -0.514795    3.758761    0.144520
O        -0.078946    2.594023    0.001901
N        -1.933773    3.947207    0.290071
C        -2.925557    3.019462    0.180627
C        -4.280600    3.455065    0.390964
O        -4.489840    4.766684    0.723461
C        -4.306108    5.078638    2.100220
C        -5.470458    4.631524    2.965170
C        -5.338644    2.595163    0.243823
C        -5.140180    1.234031   -0.097394
N        -6.233381    0.425788   -0.222299
C        -6.027909   -0.816325   -0.546023
C        -4.740997   -1.394998   -0.776812
C        -4.708178   -2.738501   -1.265307
N        -4.741598   -3.823653   -1.673193
C        -3.598698   -0.602243   -0.613084
N        -2.313115   -1.033321   -0.805673
C        -1.764100   -2.309692   -0.601474
C        -2.253608   -3.184237    0.375630
C        -1.651855   -4.417847    0.567976
Cl        -2.296724   -5.502684    1.770755
C        -0.527929   -4.816078   -0.174137
O        -0.027956   -6.042380    0.081805
C         1.207533   -6.457049   -0.461838
H         1.238835   -6.212380   -1.539148
C         1.282212   -7.965717   -0.333522
C         2.209555   -8.675466   -1.103266
C         2.332107  -10.056732   -0.973358
C         1.522368  -10.746681   -0.071142
C         0.592440  -10.045029    0.693795
C         0.471040   -8.661359    0.565884
C         2.371299   -5.776715    0.258089
C        -0.030235   -3.922652   -1.126063
C        -0.646853   -2.694057   -1.344135
C        -3.803714    0.782205   -0.268268
C        -2.722378    1.673639   -0.111070
N         5.373908    2.900347    1.067783
C         6.613858    2.372381    1.248975
C         7.487181    3.117048    2.244205
O         7.007035    1.375130    0.674555
H         4.581492    1.205629    0.181950
N         5.047551    3.869696   -1.460131
C         5.097973    4.473310   -2.763524
H         2.153029    2.131569    0.290516
H         2.951108    1.787362    1.842756
H         3.450087    5.939928   -0.559623
H         2.393481    6.790683    0.588268
H         2.465107    5.830645   -3.070245
H         1.000998    6.827718   -3.320890
H         0.884090    5.320391   -2.384284
H         2.523399    8.744285   -0.670780
H         1.898215    8.784245   -2.338782
H         3.484495    8.029005   -1.997429
H        -2.250471    4.906695    0.333762
H        -4.196503    6.172778    2.137562
H        -3.360797    4.637732    2.463059
H        -6.411806    5.076979    2.609929
H        -5.305940    4.944438    4.007549
H        -5.577855    3.537052    2.951553
H        -6.357413    2.953618    0.393967
H        -6.905033   -1.463889   -0.664099
H        -1.632574   -0.290299   -0.915425
H        -3.106724   -2.906337    0.994656
H         2.841729   -8.140907   -1.818625
H         3.058709  -10.597508   -1.584174
H         1.613126  -11.830580    0.030427
H        -0.050556  -10.578777    1.397477
H        -0.263994   -8.110229    1.154054
H         3.330171   -6.101036   -0.170634
H         2.354231   -6.050902    1.322705
H         2.307235   -4.682290    0.176932
H         0.844989   -4.180800   -1.721721
H        -0.248042   -2.018005   -2.102882
H        -1.674510    1.388968   -0.206597
H         5.055012    3.699839    1.614450
H         8.494795    3.218266    1.819645
H         7.572808    2.509351    3.157191
H         7.097634    4.108098    2.515495
H         5.578367    4.264736   -0.696816
H         6.092531    4.367220   -3.228372
H         4.840270    5.543428   -2.715241
H         4.358493    3.961933   -3.393761
H        -0.224089    5.903610    0.368146
H         1.933731    4.074974   -0.752630
