95
-1 1
O         4.698612    8.172537    0.114269
C         3.511852    7.947853    0.294945
C         3.033029    6.918906    1.331189
C         2.565709    5.629435    0.623781
S         0.882673    5.753790   -0.108332
C         3.308539    2.673608   -2.712309
C         4.314482    3.683164   -3.197916
N         4.179153    4.992181   -2.606099
C         3.135877    5.799263   -3.196208
C         5.415330    5.719621   -2.444985
C         2.409787    2.929937   -1.760812
C         1.521027    1.890211   -1.183083
O         1.436275    0.745894   -1.605541
N         0.853627    2.353058   -0.073986
C         0.079120    1.611776    0.806063
C        -0.198743    2.225038    2.080688
O         0.418974    3.392579    2.264054
C         0.054621    4.290020    3.295929
C        -1.282040    4.956386    3.031442
C        -1.003664    1.586409    2.996602
C        -1.539573    0.302185    2.728693
N        -2.313999   -0.278234    3.690699
C        -2.804443   -1.456792    3.438504
C        -2.592764   -2.187720    2.233911
C        -3.314165   -3.412198    2.074446
N        -3.935396   -4.388255    1.994733
C        -1.772469   -1.631056    1.240088
N        -1.502406   -2.238655    0.042644
C        -1.463800   -3.619170   -0.237967
C        -0.901230   -4.529986    0.663414
C        -0.862620   -5.879314    0.353600
Cl        -0.192521   -7.002974    1.502923
C        -1.347973   -6.367515   -0.872532
O        -1.274678   -7.697288   -1.067782
C        -1.624414   -8.281698   -2.305609
H        -2.567561   -7.836020   -2.670103
C        -1.877721   -9.756823   -2.064653
C        -2.586085  -10.495164   -3.018133
C        -2.794968  -11.861459   -2.847000
C        -2.298941  -12.505781   -1.713710
C        -1.598050  -11.773374   -0.757556
C        -1.386244  -10.405488   -0.929613
C        -0.514722   -8.066275   -3.333993
C        -1.877908   -5.444022   -1.777410
C        -1.947167   -4.090401   -1.456547
C        -1.229854   -0.328087    1.494686
C        -0.404963    0.346495    0.555340
N         1.955420    7.381409    2.173548
C         2.102036    8.224161    3.219876
C         0.804556    8.584891    3.929006
O         3.175717    8.653794    3.603512
H         3.918531    6.716909    1.950704
N         2.521857    8.541900   -0.420889
C         2.832124    9.434910   -1.505495
H         3.308280    5.376449   -0.150805
H         2.576336    4.813251    1.366316
H         4.291689    3.713863   -4.314169
H         5.313822    3.285576   -2.946698
H         3.409935    6.169941   -4.212047
H         2.920970    6.660961   -2.548079
H         2.201738    5.227357   -3.273679
H         6.152071    5.104302   -1.906246
H         5.242174    6.624305   -1.841129
H         5.870461    6.031492   -3.414550
H         0.893914    3.372434    0.106357
H         0.854850    5.043178    3.290461
H         0.078221    3.772384    4.271843
H        -1.233008    5.467955    2.058558
H        -1.490941    5.694898    3.820518
H        -2.107643    4.229495    3.014534
H        -1.239141    2.028761    3.963628
H        -3.439344   -1.915063    4.206334
H        -1.108781   -1.638813   -0.670761
H        -0.501195   -4.187229    1.618370
H        -2.985864   -9.993722   -3.904674
H        -3.353817  -12.424033   -3.598338
H        -2.464755  -13.576379   -1.574099
H        -1.213224  -12.268982    0.136627
H        -0.849137   -9.828040   -0.176072
H        -0.790684   -8.520461   -4.296299
H         0.411477   -8.539750   -2.977967
H        -0.321137   -6.996165   -3.495937
H        -2.263851   -5.774743   -2.741160
H        -2.392537   -3.388556   -2.163967
H        -0.107285   -0.099044   -0.391626
H         1.033410    7.102278    1.825402
H         0.734024    9.679635    3.993760
H         0.847257    8.197455    4.957597
H        -0.092249    8.189675    3.431466
H         1.631733    8.031252   -0.432857
H         1.980449   10.103922   -1.696001
H         3.072994    8.902799   -2.444095
H         3.709891   10.036370   -1.233829
H         2.333697    3.933278   -1.337912
H         3.361217    1.665520   -3.140136
