-1 1
 OpenBabel05232413483D

 60 61  0  0  1  0  0  0  0  0999 V2000
    4.2992    1.7940    3.0492 O   0  0  0  0  0  0  0  0  0  0  0  0
    3.3563    1.8385    2.2697 C   0  0  0  0  0  0  0  0  0  0  0  0
    2.6779    0.5351    1.7762 C   0  0  2  0  0  0  0  0  0  0  0  0
    1.1431    0.5967    1.6399 C   0  0  0  0  0  0  0  0  0  0  0  0
    0.4896    1.6279    0.2786 S   0  0  0  0  0  1  0  0  0  0  0  0
    0.9847   -2.9150   -0.1925 C   0  0  0  0  0  0  0  0  0  0  0  0
    1.1014   -3.2055    1.1150 C   0  0  0  0  0  0  0  0  0  0  0  0
   -0.0803   -3.0885    2.4175 S   0  0  0  0  0  0  0  0  0  0  0  0
    2.4404   -3.5789    1.6676 C   0  0  0  0  0  0  0  0  0  0  0  0
    3.4447   -3.7466    1.0210 O   0  0  0  0  0  0  0  0  0  0  0  0
    2.3831   -3.6575    3.0513 N   0  0  0  0  0  0  0  0  0  0  0  0
    1.1881   -3.3709    3.6663 C   0  0  0  0  0  0  0  0  0  0  0  0
    0.9782   -3.3069    4.8435 O   0  0  0  0  0  0  0  0  0  0  0  0
   -0.1089   -2.2956   -0.9386 C   0  0  0  0  0  0  0  0  0  0  0  0
   -0.0460   -2.2967   -2.3389 C   0  0  0  0  0  0  0  0  0  0  0  0
   -0.9794   -1.5832   -3.0826 C   0  0  0  0  0  0  0  0  0  0  0  0
   -1.9695   -0.8602   -2.4356 C   0  0  0  0  0  0  0  0  0  0  0  0
   -2.8491   -0.1114   -3.1831 O   0  0  0  0  0  0  0  0  0  0  0  0
   -2.8163    1.2302   -3.0938 C   0  0  0  0  0  0  0  0  0  0  0  0
   -3.8138    1.9245   -3.8090 C   0  0  0  0  0  0  0  0  0  0  0  0
   -4.7962    1.2000   -4.5651 C   0  0  0  0  0  0  0  0  0  0  0  0
   -5.6020    0.6514   -5.1892 N   0  0  0  0  0  0  0  0  0  0  0  0
   -3.8428    3.3214   -3.7856 C   0  0  0  0  0  0  0  0  0  0  0  0
   -2.8887    4.0300   -3.0519 C   0  0  0  0  0  0  0  0  0  0  0  0
   -2.9289    5.4665   -3.0310 C   0  0  0  0  0  0  0  0  0  0  0  0
   -2.9687    6.6238   -3.0236 N   0  0  0  0  0  0  0  0  0  0  0  0
   -1.8998    3.3262   -2.3423 C   0  0  0  0  0  0  0  0  0  0  0  0
   -1.8563    1.9418   -2.3660 C   0  0  0  0  0  0  0  0  0  0  0  0
   -2.0772   -0.8686   -1.0340 C   0  0  0  0  0  0  0  0  0  0  0  0
   -3.0587   -0.1269   -0.5052 O   0  0  0  0  0  0  0  0  0  0  0  0
   -2.9803    0.2215    0.8635 C   0  0  0  0  0  0  0  0  0  0  0  0
   -1.1411   -1.5915   -0.3006 C   0  0  0  0  0  0  0  0  0  0  0  0
    3.0339   -0.5606    2.6623 N   0  0  0  0  0  0  0  0  0  0  0  0
    4.2416   -1.1788    2.7674 C   0  0  0  0  0  0  0  0  0  0  0  0
    5.2462   -0.9333    1.6699 C   0  0  0  0  0  0  0  0  0  0  0  0
    4.4682   -1.9578    3.6893 O   0  0  0  0  0  0  0  0  0  0  0  0
    3.0815    0.3231    0.7728 H   0  0  0  0  0  0  0  0  0  0  0  0
    2.8603    2.9744    1.7481 N   0  0  0  0  0  0  0  0  0  0  0  0
    3.3907    4.2700    2.0741 C   0  0  0  0  0  0  0  0  0  0  0  0
    0.8159   -0.4434    1.4942 H   0  0  0  0  0  0  0  0  0  0  0  0
    0.7240    0.9286    2.6077 H   0  0  0  0  0  0  0  0  0  0  0  0
    1.8977   -3.1193   -0.7623 H   0  0  0  0  0  0  0  0  0  0  0  0
    3.2549   -3.4879    3.5721 H   0  0  0  0  0  0  0  0  0  0  0  0
    0.7622   -2.8282   -2.8449 H   0  0  0  0  0  0  0  0  0  0  0  0
   -0.9323   -1.5422   -4.1717 H   0  0  0  0  0  0  0  0  0  0  0  0
   -4.6168    3.8510   -4.3423 H   0  0  0  0  0  0  0  0  0  0  0  0
   -1.1531    3.8626   -1.7537 H   0  0  0  0  0  0  0  0  0  0  0  0
   -1.0791    1.4287   -1.7878 H   0  0  0  0  0  0  0  0  0  0  0  0
   -3.7976    0.9297    1.0433 H   0  0  0  0  0  0  0  0  0  0  0  0
   -2.0120    0.7081    1.0770 H   0  0  0  0  0  0  0  0  0  0  0  0
   -3.1257   -0.6616    1.5093 H   0  0  0  0  0  0  0  0  0  0  0  0
   -1.1692   -1.5275    0.7848 H   0  0  0  0  0  0  0  0  0  0  0  0
    2.4757   -0.6395    3.5074 H   0  0  0  0  0  0  0  0  0  0  0  0
    4.8158   -1.1843    0.6898 H   0  0  0  0  0  0  0  0  0  0  0  0
    6.1145   -1.5742    1.8568 H   0  0  0  0  0  0  0  0  0  0  0  0
    5.5451    0.1236    1.6731 H   0  0  0  0  0  0  0  0  0  0  0  0
    2.0388    2.8839    1.1235 H   0  0  0  0  0  0  0  0  0  0  0  0
    4.2685    4.1353    2.7195 H   0  0  0  0  0  0  0  0  0  0  0  0
    2.6496    4.8864    2.6099 H   0  0  0  0  0  0  0  0  0  0  0  0
    3.6940    4.8149    1.1652 H   0  0  0  0  0  0  0  0  0  0  0  0
  2  1  2  0  0  0  0
  3 37  1  6  0  0  0
  3  2  1  0  0  0  0
  3 33  1  0  0  0  0
  4  3  1  0  0  0  0
  4 41  1  0  0  0  0
  5  4  1  0  0  0  0
  6  7  2  0  0  0  0
  7  9  1  0  0  0  0
  7  8  1  0  0  0  0
  8 12  1  0  0  0  0
  9 11  1  0  0  0  0
 10  9  2  0  0  0  0
 11 43  1  0  0  0  0
 11 12  1  0  0  0  0
 12 13  2  0  0  0  0
 14 32  1  0  0  0  0
 14  6  1  0  0  0  0
 15 14  2  0  0  0  0
 16 17  2  0  0  0  0
 16 15  1  0  0  0  0
 17 29  1  0  0  0  0
 18 19  1  0  0  0  0
 18 17  1  0  0  0  0
 19 28  1  0  0  0  0
 20 23  1  0  0  0  0
 20 19  2  0  0  0  0
 21 20  1  0  0  0  0
 22 21  3  0  0  0  0
 23 24  2  0  0  0  0
 24 25  1  0  0  0  0
 24 27  1  0  0  0  0
 25 26  3  0  0  0  0
 27 47  1  0  0  0  0
 28 27  2  0  0  0  0
 28 48  1  0  0  0  0
 29 30  1  0  0  0  0
 29 32  2  0  0  0  0
 30 31  1  0  0  0  0
 31 49  1  0  0  0  0
 31 50  1  0  0  0  0
 31 51  1  0  0  0  0
 32 52  1  0  0  0  0
 33 34  1  0  0  0  0
 33 53  1  0  0  0  0
 34 36  2  0  0  0  0
 35 56  1  0  0  0  0
 35 55  1  0  0  0  0
 35 34  1  0  0  0  0
 38 39  1  0  0  0  0
 38  2  1  0  0  0  0
 39 59  1  0  0  0  0
 39 58  1  0  0  0  0
 40  4  1  0  0  0  0
 42  6  1  0  0  0  0
 44 15  1  0  0  0  0
 45 16  1  0  0  0  0
 46 23  1  0  0  0  0
 54 35  1  0  0  0  0
 57 38  1  0  0  0  0
 60 39  1  0  0  0  0
M  END
