60
-1 1
O         5.600700    1.411198    3.140965
C         4.584995    1.212761    2.498728
C         3.670207    0.001069    2.790294
C         2.171094    0.326262    2.954704
S         1.229864    0.907593    1.520984
C         1.184521   -0.691397    0.446850
C         1.083332   -1.937426    1.202132
S        -0.338123   -2.492919    2.111591
C         2.191804   -2.766059    1.414731
O         3.356029   -2.659925    0.988640
N         1.827756   -3.839670    2.271186
C         0.557348   -3.896537    2.765276
O         0.092805   -4.736278    3.502792
C         0.112487   -0.435539   -0.587777
C         0.428341   -0.433560   -1.947093
C        -0.567282   -0.222607   -2.901669
C        -1.876444   -0.024296   -2.498601
O        -2.867444    0.149583   -3.450554
C        -3.473412    1.331433   -3.575534
C        -4.576273    1.385562   -4.455244
C        -5.003838    0.201160   -5.145686
N        -5.379549   -0.726788   -5.725658
C        -5.252012    2.590445   -4.658310
C        -4.841423    3.748928   -3.994392
C        -5.538134    4.987792   -4.203396
N        -6.097857    5.987364   -4.371156
C        -3.739806    3.688316   -3.124231
C        -3.063030    2.498711   -2.916547
C        -2.223703   -0.038196   -1.137015
O        -3.525366    0.165209   -0.852362
C        -3.931469    0.122417    0.492771
C        -1.216676   -0.225935   -0.193861
N         4.089456   -0.674911    3.993200
C         5.187754   -1.483863    4.152366
C         5.872962   -1.953970    2.892567
O         5.553257   -1.809707    5.266465
H         3.771545   -0.704264    1.946317
N         4.206985    1.988703    1.450485
C         4.965983    3.135978    1.026809
H         1.677761   -0.589833    3.309748
H         2.030629    1.104510    3.722852
H         2.163827   -0.728074   -0.049595
H         2.512264   -4.536605    2.537898
H         1.459233   -0.603478   -2.263366
H        -0.341326   -0.214174   -3.969338
H        -6.103470    2.618174   -5.339289
H        -3.413178    4.591561   -2.606191
H        -2.207876    2.460259   -2.241455
H        -5.019100    0.261655    0.493385
H        -3.463525    0.927793    1.083976
H        -3.688017   -0.847733    0.956820
H        -1.450055   -0.207312    0.870864
H         3.784496   -0.272850    4.873218
H         5.153038   -2.408175    2.192255
H         6.647305   -2.675513    3.177931
H         6.344917   -1.094285    2.393413
H         3.295487    1.806623    1.031739
H         5.905745    3.149139    1.593353
H         4.427588    4.079111    1.219629
H         5.197802    3.083655   -0.049038
