60
-1 1
O         4.299241    1.794033    3.049249
C         3.356294    1.838457    2.269722
C         2.677909    0.535140    1.776247
C         1.143084    0.596723    1.639871
S         0.489634    1.627860    0.278557
C         0.984727   -2.915012   -0.192537
C         1.101366   -3.205539    1.114985
S        -0.080251   -3.088490    2.417466
C         2.440405   -3.578892    1.667575
O         3.444659   -3.746595    1.021018
N         2.383143   -3.657462    3.051295
C         1.188108   -3.370903    3.666293
O         0.978206   -3.306853    4.843516
C        -0.108897   -2.295563   -0.938628
C        -0.046001   -2.296740   -2.338874
C        -0.979410   -1.583199   -3.082566
C        -1.969520   -0.860221   -2.435628
O        -2.849148   -0.111394   -3.183074
C        -2.816332    1.230233   -3.093757
C        -3.813755    1.924535   -3.809037
C        -4.796243    1.200022   -4.565061
N        -5.601981    0.651367   -5.189200
C        -3.842845    3.321376   -3.785573
C        -2.888686    4.029966   -3.051871
C        -2.928888    5.466531   -3.030963
N        -2.968730    6.623794   -3.023578
C        -1.899830    3.326223   -2.342259
C        -1.856252    1.941795   -2.366018
C        -2.077155   -0.868627   -1.034011
O        -3.058702   -0.126896   -0.505166
C        -2.980259    0.221479    0.863478
C        -1.141133   -1.591526   -0.300600
N         3.033929   -0.560605    2.662307
C         4.241630   -1.178786    2.767364
C         5.246224   -0.933271    1.669948
O         4.468176   -1.957824    3.689271
H         3.081537    0.323113    0.772760
N         2.860276    2.974390    1.748093
C         3.390663    4.269974    2.074142
H         0.815949   -0.443421    1.494216
H         0.723976    0.928623    2.607667
H         1.897690   -3.119253   -0.762334
H         3.254860   -3.487861    3.572080
H         0.762198   -2.828153   -2.844935
H        -0.932275   -1.542222   -4.171671
H        -4.616823    3.850994   -4.342283
H        -1.153129    3.862593   -1.753737
H        -1.079122    1.428695   -1.787822
H        -3.797577    0.929671    1.043328
H        -2.012012    0.708136    1.076985
H        -3.125670   -0.661617    1.509312
H        -1.169186   -1.527516    0.784753
H         2.475692   -0.639547    3.507361
H         4.815768   -1.184265    0.689810
H         6.114505   -1.574155    1.856844
H         5.545090    0.123616    1.673116
H         2.038803    2.883868    1.123543
H         4.268505    4.135296    2.719512
H         2.649613    4.886388    2.609880
H         3.693960    4.814927    1.165200
