-1 1
 OpenBabel05192410563D

 95 98  0  0  1  0  0  0  0  0999 V2000
    5.1711    0.7255   -1.2080 O   0  0  0  0  0  0  0  0  0  0  0  0
    4.8785    1.2604   -0.1524 C   0  0  0  0  0  0  0  0  0  0  0  0
    4.1055    0.5213    0.9513 C   0  0  2  0  0  0  0  0  0  0  0  0
    4.9632    0.2275    2.1972 C   0  0  0  0  0  0  0  0  0  0  0  0
    5.3717    1.6216    3.2652 S   0  0  0  0  0  0  0  0  0  0  0  0
    3.7164    1.7071    4.3742 C   0  0  2  0  0  0  0  0  0  0  0  0
    4.2173    2.3798    5.6561 C   0  0  0  0  0  0  0  0  0  0  0  0
    3.1939    2.8983    6.5477 N   0  0  0  0  0  0  0  0  0  0  0  0
    2.4999    1.9252    7.3570 C   0  0  0  0  0  0  0  0  0  0  0  0
    2.2985    3.8495    5.9362 C   0  0  0  0  0  0  0  0  0  0  0  0
    3.0118    0.4503    4.5177 C   0  0  0  0  0  3  0  0  0  0  0  0
    1.9547    0.1571    3.6375 C   0  0  0  0  0  0  0  0  0  0  0  0
    1.5555    0.8766    2.7034 O   0  0  0  0  0  0  0  0  0  0  0  0
    1.3099   -1.0919    3.8686 N   0  0  0  0  0  0  0  0  0  0  0  0
    0.4202   -1.7474    3.0598 C   0  0  0  0  0  0  0  0  0  0  0  0
   -0.0017   -3.0561    3.4911 C   0  0  0  0  0  0  0  0  0  0  0  0
    0.5465   -3.4510    4.6684 O   0  0  0  0  0  0  0  0  0  0  0  0
    0.3044   -4.7434    5.1732 C   0  0  0  0  0  0  0  0  0  0  0  0
    1.1284   -5.8110    4.4717 C   0  0  0  0  0  0  0  0  0  0  0  0
   -0.9002   -3.7901    2.7559 C   0  0  0  0  0  0  0  0  0  0  0  0
   -1.4213   -3.2971    1.5324 C   0  0  0  0  0  0  0  0  0  0  0  0
   -2.3161   -4.0799    0.8604 N   0  0  0  0  0  0  0  0  0  0  0  0
   -2.7596   -3.6307   -0.2773 C   0  0  0  0  0  0  0  0  0  0  0  0
   -2.3700   -2.3970   -0.8788 C   0  0  0  0  0  0  0  0  0  0  0  0
   -2.8355   -2.1791   -2.2152 C   0  0  0  0  0  0  0  0  0  0  0  0
   -3.2381   -2.1110   -3.3015 N   0  0  0  0  0  0  0  0  0  0  0  0
   -1.4706   -1.5554   -0.1961 C   0  0  0  0  0  0  0  0  0  0  0  0
   -0.9995   -0.3686   -0.6713 N   0  0  0  0  0  0  0  0  0  0  0  0
   -1.5745    0.3825   -1.7089 C   0  0  0  0  0  0  0  0  0  0  0  0
   -0.7973    0.7625   -2.8077 C   0  0  0  0  0  0  0  0  0  0  0  0
   -1.3830    1.4546   -3.8565 C   0  0  0  0  0  0  0  0  0  0  0  0
   -0.4186    1.8849   -5.2457 Cl  0  0  0  0  0  0  0  0  0  0  0  0
   -2.7475    1.7879   -3.8454 C   0  0  0  0  0  0  0  0  0  0  0  0
   -3.2401    2.3858   -4.9533 O   0  0  0  0  0  0  0  0  0  0  0  0
   -4.6128    2.6911   -5.0619 C   0  0  2  0  0  0  0  0  0  0  0  0
   -4.9145    3.3136   -4.1970 H   0  0  0  0  0  0  0  0  0  0  0  0
   -5.5019    1.4564   -5.0935 C   0  0  0  0  0  0  0  0  0  0  0  0
   -4.9861    0.1826   -5.3388 C   0  0  0  0  0  0  0  0  0  0  0  0
   -5.8278   -0.9287   -5.3468 C   0  0  0  0  0  0  0  0  0  0  0  0
   -7.1961   -0.7759   -5.1352 C   0  0  0  0  0  0  0  0  0  0  0  0
   -7.7209    0.4954   -4.8995 C   0  0  0  0  0  0  0  0  0  0  0  0
   -6.8754    1.6017   -4.8698 C   0  0  0  0  0  0  0  0  0  0  0  0
   -4.7522    3.5190   -6.3323 C   0  0  0  0  0  0  0  0  0  0  0  0
   -3.4954    1.4618   -2.7121 C   0  0  0  0  0  0  0  0  0  0  0  0
   -2.9114    0.7767   -1.6531 C   0  0  0  0  0  0  0  0  0  0  0  0
   -0.9905   -2.0250    1.0803 C   0  0  0  0  0  0  0  0  0  0  0  0
   -0.1008   -1.2564    1.8711 C   0  0  0  0  0  0  0  0  0  0  0  0
    3.6065   -0.7325    0.4346 N   0  0  0  0  0  0  0  0  0  0  0  0
    2.4792   -0.8236   -0.2983 C   0  0  0  0  0  0  0  0  0  0  0  0
    2.1144   -2.2155   -0.7680 C   0  0  0  0  0  0  0  0  0  0  0  0
    1.7561    0.1422   -0.5187 O   0  0  0  0  0  0  0  0  0  0  0  0
    3.2248    1.1057    1.2650 H   0  0  0  0  0  0  0  0  0  0  0  0
    5.2018    2.5401    0.1600 N   0  0  0  0  0  0  0  0  0  0  0  0
    5.9981    3.3676   -0.7060 C   0  0  0  0  0  0  0  0  0  0  0  0
    4.3888   -0.4697    2.8327 H   0  0  0  0  0  0  0  0  0  0  0  0
    5.9103   -0.2569    1.9080 H   0  0  0  0  0  0  0  0  0  0  0  0
    4.8818    3.2224    5.3849 H   0  0  0  0  0  0  0  0  0  0  0  0
    4.8382    1.6642    6.2212 H   0  0  0  0  0  0  0  0  0  0  0  0
    3.2256    1.2366    7.8176 H   0  0  0  0  0  0  0  0  0  0  0  0
    1.7701    1.3108    6.7917 H   0  0  0  0  0  0  0  0  0  0  0  0
    1.9621    2.4409    8.1729 H   0  0  0  0  0  0  0  0  0  0  0  0
    1.7337    4.3881    6.7168 H   0  0  0  0  0  0  0  0  0  0  0  0
    1.5604    3.3918    5.2433 H   0  0  0  0  0  0  0  0  0  0  0  0
    2.8755    4.5953    5.3659 H   0  0  0  0  0  0  0  0  0  0  0  0
    1.6176   -1.6176    4.6749 H   0  0  0  0  0  0  0  0  0  0  0  0
   -0.7738   -4.9768    5.1302 H   0  0  0  0  0  0  0  0  0  0  0  0
    0.5808   -4.6896    6.2362 H   0  0  0  0  0  0  0  0  0  0  0  0
    0.8700   -5.8851    3.4060 H   0  0  0  0  0  0  0  0  0  0  0  0
    0.9521   -6.7921    4.9379 H   0  0  0  0  0  0  0  0  0  0  0  0
    2.1997   -5.5752    4.5493 H   0  0  0  0  0  0  0  0  0  0  0  0
   -1.2455   -4.7753    3.0666 H   0  0  0  0  0  0  0  0  0  0  0  0
   -3.4690   -4.2612   -0.8276 H   0  0  0  0  0  0  0  0  0  0  0  0
   -0.0270   -0.1169   -0.4355 H   0  0  0  0  0  0  0  0  0  0  0  0
    0.2608    0.4997   -2.8394 H   0  0  0  0  0  0  0  0  0  0  0  0
   -3.9139    0.0418   -5.4819 H   0  0  0  0  0  0  0  0  0  0  0  0
   -5.3940   -1.9198   -5.4893 H   0  0  0  0  0  0  0  0  0  0  0  0
   -7.8530   -1.6488   -5.1365 H   0  0  0  0  0  0  0  0  0  0  0  0
   -8.7913    0.6239   -4.7214 H   0  0  0  0  0  0  0  0  0  0  0  0
   -7.2878    2.5936   -4.6595 H   0  0  0  0  0  0  0  0  0  0  0  0
   -5.7962    3.8325   -6.4719 H   0  0  0  0  0  0  0  0  0  0  0  0
   -4.4472    2.9188   -7.2014 H   0  0  0  0  0  0  0  0  0  0  0  0
   -4.1119    4.4105   -6.2754 H   0  0  0  0  0  0  0  0  0  0  0  0
   -4.5552    1.7081   -2.6621 H   0  0  0  0  0  0  0  0  0  0  0  0
   -3.5122    0.5098   -0.7819 H   0  0  0  0  0  0  0  0  0  0  0  0
    0.2108   -0.2524    1.5884 H   0  0  0  0  0  0  0  0  0  0  0  0
    4.2479   -1.5135    0.4109 H   0  0  0  0  0  0  0  0  0  0  0  0
    1.4857   -2.6885    0.0024 H   0  0  0  0  0  0  0  0  0  0  0  0
    2.9951   -2.8500   -0.9416 H   0  0  0  0  0  0  0  0  0  0  0  0
    1.5277   -2.1439   -1.6921 H   0  0  0  0  0  0  0  0  0  0  0  0
    5.0562    2.8240    1.1275 H   0  0  0  0  0  0  0  0  0  0  0  0
    6.0839    2.8577   -1.6741 H   0  0  0  0  0  0  0  0  0  0  0  0
    7.0126    3.5298   -0.3037 H   0  0  0  0  0  0  0  0  0  0  0  0
    5.5243    4.3499   -0.8611 H   0  0  0  0  0  0  0  0  0  0  0  0
    3.1073    2.3992    3.7787 H   0  0  0  0  0  0  0  0  0  0  0  0
    3.3336   -0.2746    5.2725 H   0  0  0  0  0  0  0  0  0  0  0  0
  1  2  2  0  0  0  0
  2 53  1  0  0  0  0
  2  3  1  0  0  0  0
  3 52  1  1  0  0  0
  3  4  1  0  0  0  0
  4 55  1  0  0  0  0
  4  5  1  0  0  0  0
  5  6  1  0  0  0  0
  6 94  1  6  0  0  0
  6 11  1  0  0  0  0
  6  7  1  0  0  0  0
  7 58  1  0  0  0  0
  7  8  1  0  0  0  0
  8  9  1  0  0  0  0
  9 59  1  0  0  0  0
  9 61  1  0  0  0  0
 10  8  1  0  0  0  0
 10 62  1  0  0  0  0
 11 95  1  0  0  0  0
 12 14  1  0  0  0  0
 12 11  1  0  0  0  0
 13 12  2  0  0  0  0
 14 65  1  0  0  0  0
 15 16  1  0  0  0  0
 15 14  1  0  0  0  0
 16 17  1  0  0  0  0
 17 18  1  0  0  0  0
 18 67  1  0  0  0  0
 19 70  1  0  0  0  0
 19 69  1  0  0  0  0
 19 18  1  0  0  0  0
 20 71  1  0  0  0  0
 20 16  2  0  0  0  0
 21 20  1  0  0  0  0
 22 21  2  0  0  0  0
 23 22  1  0  0  0  0
 24 23  2  0  0  0  0
 24 27  1  0  0  0  0
 25 24  1  0  0  0  0
 26 25  3  0  0  0  0
 27 46  2  0  0  0  0
 28 73  1  0  0  0  0
 28 27  1  0  0  0  0
 29 45  1  0  0  0  0
 29 28  1  0  0  0  0
 30 29  2  0  0  0  0
 31 33  2  0  0  0  0
 31 30  1  0  0  0  0
 32 31  1  0  0  0  0
 33 44  1  0  0  0  0
 34 33  1  0  0  0  0
 35 34  1  0  0  0  0
 35 36  1  1  0  0  0
 37 35  1  0  0  0  0
 37 42  1  0  0  0  0
 38 37  2  0  0  0  0
 39 38  1  0  0  0  0
 39 40  2  0  0  0  0
 40 41  1  0  0  0  0
 41 42  2  0  0  0  0
 41 78  1  0  0  0  0
 42 79  1  0  0  0  0
 43 82  1  0  0  0  0
 43 35  1  0  0  0  0
 44 83  1  0  0  0  0
 44 45  2  0  0  0  0
 45 84  1  0  0  0  0
 46 21  1  0  0  0  0
 46 47  1  0  0  0  0
 47 15  2  0  0  0  0
 48  3  1  0  0  0  0
 49 48  1  0  0  0  0
 50 49  1  0  0  0  0
 50 87  1  0  0  0  0
 51 49  2  0  0  0  0
 53 90  1  0  0  0  0
 54 92  1  0  0  0  0
 54 53  1  0  0  0  0
 56  4  1  0  0  0  0
 57  7  1  0  0  0  0
 60  9  1  0  0  0  0
 63 10  1  0  0  0  0
 64 10  1  0  0  0  0
 66 18  1  0  0  0  0
 68 19  1  0  0  0  0
 72 23  1  0  0  0  0
 74 30  1  0  0  0  0
 75 38  1  0  0  0  0
 76 39  1  0  0  0  0
 77 40  1  0  0  0  0
 80 43  1  0  0  0  0
 81 43  1  0  0  0  0
 85 47  1  0  0  0  0
 86 48  1  0  0  0  0
 88 50  1  0  0  0  0
 89 50  1  0  0  0  0
 91 54  1  0  0  0  0
 93 54  1  0  0  0  0
M  END
