95
-1 1
O         4.852036    0.350744   -1.010191
C         4.779096    1.043999   -0.002796
C         3.950158    0.593052    1.221170
C         4.766986    0.484032    2.524240
S         5.319880    2.062298    3.254069
C         2.711930    1.639969    5.250057
C         3.575695    2.093645    6.396077
N         3.275883    3.415181    6.916867
C         1.944505    3.539114    7.454781
C         3.626845    4.495739    6.021472
C         2.211417    0.405200    5.119559
C         1.393484    0.033121    3.941185
O         1.007075    0.825655    3.103976
N         1.094475   -1.316962    3.891645
C         0.352145   -1.998072    2.935050
C         0.169293   -3.401861    3.164642
O         0.773584   -3.863992    4.286142
C         0.799430   -5.247795    4.567785
C         1.807609   -5.998646    3.714932
C        -0.596312   -4.155901    2.307634
C        -1.189199   -3.573872    1.158852
N        -1.962757   -4.375153    0.369014
C        -2.474227   -3.833397   -0.698339
C        -2.258206   -2.491412   -1.129157
C        -2.778468   -2.166584   -2.423933
N        -3.225150   -2.026792   -3.485547
C        -1.459743   -1.641523   -0.337951
N        -1.094780   -0.372792   -0.658990
C        -1.666965    0.381965   -1.702310
C        -0.893315    0.748007   -2.807175
C        -1.483759    1.428038   -3.860816
Cl        -0.530292    1.841151   -5.260096
C        -2.848855    1.763770   -3.842683
O        -3.343753    2.356782   -4.949257
C        -4.712331    2.688383   -5.046007
H        -4.993872    3.314806   -4.177410
C        -5.622339    1.469359   -5.072747
C        -5.131028    0.189998   -5.337755
C        -5.992344   -0.906219   -5.348806
C        -7.355086   -0.732820   -5.117978
C        -7.854736    0.544321   -4.860015
C        -6.990155    1.635735   -4.829395
C        -4.846814    3.520588   -6.313931
C        -3.592757    1.449365   -2.703177
C        -3.002892    0.773211   -1.641192
C        -0.953516   -2.204749    0.890746
C        -0.215282   -1.424429    1.816464
N         3.364570   -0.696312    0.902803
C         2.337119   -0.825224    0.040060
C         2.129307   -2.224792   -0.501959
O         1.606526    0.112930   -0.269103
H         3.124157    1.302287    1.378462
N         5.382923    2.238857    0.142909
C         6.274355    2.767150   -0.852770
H         4.121343   -0.047970    3.244076
H         5.634505   -0.176089    2.333033
H         4.611833    2.090232    6.020097
H         3.516084    1.361637    7.221407
H         1.755086    2.734784    8.184153
H         1.139176    3.488930    6.687352
H         1.839534    4.502379    7.981232
H         3.593202    5.454647    6.565823
H         2.956568    4.586468    5.140047
H         4.644963    4.346262    5.635023
H         1.467075   -1.904427    4.625767
H        -0.212828   -5.675661    4.467116
H         1.074039   -5.313156    5.630115
H         1.552109   -5.948466    2.647080
H         1.836443   -7.057699    4.011401
H         2.812118   -5.571985    3.848707
H        -0.781134   -5.217486    2.465359
H        -3.097862   -4.472480   -1.335415
H        -0.131733   -0.097771   -0.389355
H         0.163087    0.478682   -2.844136
H        -4.063375    0.031096   -5.495226
H        -5.577940   -1.902324   -5.513133
H        -8.027254   -1.593982   -5.123019
H        -8.920433    0.689102   -4.667092
H        -7.382910    2.632261   -4.604166
H        -5.886235    3.852600   -6.444140
H        -4.559765    2.916534   -7.186433
H        -4.190587    4.400591   -6.260863
H        -4.652030    1.697203   -2.651460
H        -3.596719    0.511572   -0.763714
H        -0.067849   -0.357816    1.667181
H         4.012692   -1.474211    0.932962
H         2.034037   -2.953765    0.317042
H         2.994688   -2.497036   -1.125031
H         1.223326   -2.257141   -1.117718
H         5.423087    2.598004    1.113939
H         6.080319    2.256909   -1.805467
H         7.334236    2.609860   -0.585129
H         6.111703    3.848488   -0.983711
H         2.496173    2.361558    4.455846
H         2.425807   -0.364560    5.871030
