78
-1 1
O         0.734715    3.511902    3.493504
C         0.007481    2.563104    3.261789
C        -0.216140    1.403490    4.229262
C        -1.421618    1.731220    5.147921
S        -1.610647    0.574252    6.544575
C        -0.429210   -2.347595    3.463592
C        -0.332303   -2.600806    4.934296
N         1.005286   -2.497062    5.480579
C         0.991937   -2.223673    6.901498
C         1.839220   -3.625721    5.146312
C         0.496135   -1.694139    2.754692
C         0.259322   -1.264557    1.356295
O        -0.521727   -1.817219    0.595072
N         0.986689   -0.141512    1.023222
C         0.957227    0.527866   -0.190617
C         1.671728    1.780661   -0.244542
O         2.188009    2.140060    0.924011
C         2.876150    3.359486    1.126429
C         4.349419    3.220283    0.795043
C         1.755531    2.487789   -1.422694
C         1.100155    2.032860   -2.594071
N         1.227724    2.776178   -3.729391
C         0.602352    2.364924   -4.795132
C        -0.211334    1.198243   -4.858903
C        -0.939302    0.961738   -6.066980
N        -1.516341    0.819024   -7.062331
C        -0.335179    0.397009   -3.714508
N        -1.112147   -0.737060   -3.659343
C        -1.326997   -1.683649   -4.674192
C        -2.536167   -2.386181   -4.694301
C        -2.760699   -3.364196   -5.657038
Cl        -4.257885   -4.246787   -5.682002
C        -1.790441   -3.630537   -6.620939
F        -2.009572   -4.556212   -7.550944
C        -0.589698   -2.934560   -6.608947
C        -0.349454   -1.975732   -5.633228
C         0.351551    0.826951   -2.535643
C         0.316460    0.081833   -1.325998
N         0.932756    1.154159    5.055746
C         2.127087    0.773030    4.593144
C         3.144281    0.374089    5.638399
O         2.413447    0.708862    3.395074
H        -0.457573    0.495179    3.651097
N        -0.767330    2.478334    2.142364
C        -0.854234    3.531294    1.166842
H        -1.281571    2.759658    5.521584
H        -2.321076    1.739197    4.512310
H        -0.807580   -3.580080    5.178344
H        -0.961263   -1.819018    5.414758
H         0.384778   -1.326134    7.099296
H         2.019023   -2.043877    7.258372
H         0.574204   -3.068671    7.496182
H         1.862159   -3.777646    4.057104
H         1.488491   -4.574531    5.616696
H         2.873060   -3.447777    5.484023
H         1.530372    0.302393    1.782702
H         2.712489    3.584241    2.188178
H         2.395759    4.161676    0.540486
H         4.787050    2.413716    1.400320
H         4.878040    4.157499    1.024601
H         4.509156    2.985475   -0.268352
H         2.311820    3.420992   -1.496056
H         0.696417    2.972810   -5.702875
H        -1.393356   -1.024737   -2.730123
H        -3.312932   -2.164789   -3.961272
H         0.157126   -3.164745   -7.369878
H         0.603725   -1.445606   -5.617044
H        -0.204152   -0.868991   -1.246358
H         0.660134    0.964080    6.029020
H         2.859326    0.678209    6.654170
H         4.117216    0.808767    5.373909
H         3.233025   -0.721929    5.604957
H        -1.328403    1.646917    2.016554
H        -0.102935    4.286732    1.430685
H        -1.846480    4.013592    1.168780
H        -0.646611    3.160557    0.151044
H         1.410920   -1.355110    3.243283
H        -1.366446   -2.632402    2.972210
