-1 1
 OpenBabel05192410563D

 78 80  0  0  1  0  0  0  0  0999 V2000
   -0.4424    3.8874    2.5206 O   0  0  0  0  0  0  0  0  0  0  0  0
   -0.3490    2.6680    2.4630 C   0  0  0  0  0  0  0  0  0  0  0  0
   -0.0625    1.8372    3.7376 C   0  0  2  0  0  0  0  0  0  0  0  0
   -1.1217    0.7628    4.0039 C   0  0  0  0  0  0  0  0  0  0  0  0
   -0.6481   -0.4637    5.2591 S   0  0  0  0  0  0  0  0  0  0  0  0
    0.1311   -1.7531    4.1215 C   0  0  2  0  0  0  0  0  0  0  0  0
    0.5098   -2.9102    5.0494 C   0  0  0  0  0  0  0  0  0  0  0  0
    1.1537   -4.0193    4.3729 N   0  0  0  0  0  0  0  0  0  0  0  0
    1.5561   -5.0432    5.2986 C   0  0  0  0  0  0  0  0  0  0  0  0
    0.4031   -4.5435    3.2582 C   0  0  0  0  0  0  0  0  0  0  0  0
    1.2369   -1.2567    3.2750 C   0  0  0  0  0  3  0  0  0  0  0  0
    1.0045   -0.8675    1.9754 C   0  0  0  0  0  0  0  0  0  0  0  0
   -0.1151   -0.8423    1.3705 O   0  0  0  0  0  0  0  0  0  0  0  0
    2.1426   -0.3691    1.2551 N   0  0  0  0  0  0  0  0  0  0  0  0
    2.1107    0.2394    0.0296 C   0  0  0  0  0  0  0  0  0  0  0  0
    3.0525    1.2939   -0.2396 C   0  0  0  0  0  0  0  0  0  0  0  0
    3.9049    1.6739    0.7467 O   0  0  0  0  0  0  0  0  0  0  0  0
    3.3189    2.4785    1.7843 C   0  0  0  0  0  0  0  0  0  0  0  0
    3.0235    3.8958    1.3447 C   0  0  0  0  0  0  0  0  0  0  0  0
    3.1067    1.8921   -1.4746 C   0  0  0  0  0  0  0  0  0  0  0  0
    2.1897    1.5518   -2.4996 C   0  0  0  0  0  0  0  0  0  0  0  0
    2.2797    2.1919   -3.7004 N   0  0  0  0  0  0  0  0  0  0  0  0
    1.3874    1.9125   -4.6045 C   0  0  0  0  0  0  0  0  0  0  0  0
    0.3058    0.9978   -4.4202 C   0  0  0  0  0  0  0  0  0  0  0  0
   -0.6821    0.9271   -5.4519 C   0  0  0  0  0  0  0  0  0  0  0  0
   -1.4593    0.9116   -6.3122 N   0  0  0  0  0  0  0  0  0  0  0  0
    0.2075    0.3015   -3.2110 C   0  0  0  0  0  0  0  0  0  0  0  0
   -0.8175   -0.5619   -2.8933 N   0  0  0  0  0  0  0  0  0  0  0  0
   -1.4971   -1.4536   -3.7326 C   0  0  0  0  0  0  0  0  0  0  0  0
   -2.8060   -1.8225   -3.4004 C   0  0  0  0  0  0  0  0  0  0  0  0
   -3.4935   -2.7440   -4.1823 C   0  0  0  0  0  0  0  0  0  0  0  0
   -5.1171   -3.2106   -3.7692 Cl  0  0  0  0  0  0  0  0  0  0  0  0
   -2.8906   -3.2885   -5.3141 C   0  0  0  0  0  0  0  0  0  0  0  0
   -3.5530   -4.1611   -6.0710 F   0  0  0  0  0  0  0  0  0  0  0  0
   -1.5939   -2.9265   -5.6505 C   0  0  0  0  0  0  0  0  0  0  0  0
   -0.8925   -2.0256   -4.8595 C   0  0  0  0  0  0  0  0  0  0  0  0
    1.2038    0.5672   -2.2140 C   0  0  0  0  0  0  0  0  0  0  0  0
    1.2152   -0.1047   -0.9729 C   0  0  0  0  0  0  0  0  0  0  0  0
    0.0748    2.7275    4.8614 N   0  0  0  0  0  0  0  0  0  0  0  0
    1.2373    3.3926    5.1058 C   0  0  0  0  0  0  0  0  0  0  0  0
    1.1031    4.5617    6.0628 C   0  0  0  0  0  0  0  0  0  0  0  0
    2.3030    3.0944    4.5999 O   0  0  0  0  0  0  0  0  0  0  0  0
    0.9026    1.3289    3.6001 H   0  0  0  0  0  0  0  0  0  0  0  0
   -0.4589    1.9588    1.3227 N   0  0  0  0  0  0  0  0  0  0  0  0
   -0.6342    2.6082    0.0482 C   0  0  0  0  0  0  0  0  0  0  0  0
   -2.0602    1.2343    4.3375 H   0  0  0  0  0  0  0  0  0  0  0  0
   -1.3349    0.2103    3.0795 H   0  0  0  0  0  0  0  0  0  0  0  0
   -0.4062   -3.2469    5.5934 H   0  0  0  0  0  0  0  0  0  0  0  0
    1.2102   -2.5335    5.8158 H   0  0  0  0  0  0  0  0  0  0  0  0
    2.1985   -4.6146    6.0843 H   0  0  0  0  0  0  0  0  0  0  0  0
    2.1349   -5.8234    4.7783 H   0  0  0  0  0  0  0  0  0  0  0  0
    0.6973   -5.5450    5.8079 H   0  0  0  0  0  0  0  0  0  0  0  0
    0.2533   -3.7655    2.4964 H   0  0  0  0  0  0  0  0  0  0  0  0
   -0.5960   -4.9443    3.5540 H   0  0  0  0  0  0  0  0  0  0  0  0
    0.9662   -5.3652    2.7883 H   0  0  0  0  0  0  0  0  0  0  0  0
    2.9650   -0.1698    1.8096 H   0  0  0  0  0  0  0  0  0  0  0  0
    4.0404    2.4636    2.6101 H   0  0  0  0  0  0  0  0  0  0  0  0
    2.4003    2.0011    2.1533 H   0  0  0  0  0  0  0  0  0  0  0  0
    3.9376    4.4077    1.0064 H   0  0  0  0  0  0  0  0  0  0  0  0
    2.5939    4.4394    2.1974 H   0  0  0  0  0  0  0  0  0  0  0  0
    2.2842    3.9182    0.5305 H   0  0  0  0  0  0  0  0  0  0  0  0
    3.8406    2.6755   -1.6639 H   0  0  0  0  0  0  0  0  0  0  0  0
    1.4562    2.4352   -5.5661 H   0  0  0  0  0  0  0  0  0  0  0  0
   -0.9665   -0.6964   -1.8994 H   0  0  0  0  0  0  0  0  0  0  0  0
   -3.2960   -1.3840   -2.5300 H   0  0  0  0  0  0  0  0  0  0  0  0
   -1.1390   -3.3706   -6.5370 H   0  0  0  0  0  0  0  0  0  0  0  0
    0.1338   -1.7632   -5.1185 H   0  0  0  0  0  0  0  0  0  0  0  0
    0.5150   -0.9013   -0.7355 H   0  0  0  0  0  0  0  0  0  0  0  0
   -0.7745    3.1976    5.1494 H   0  0  0  0  0  0  0  0  0  0  0  0
    0.3879    4.3567    6.8725 H   0  0  0  0  0  0  0  0  0  0  0  0
    0.7456    5.4341    5.4941 H   0  0  0  0  0  0  0  0  0  0  0  0
    2.0883    4.7930    6.4842 H   0  0  0  0  0  0  0  0  0  0  0  0
   -0.3642    0.9265    1.3270 H   0  0  0  0  0  0  0  0  0  0  0  0
   -1.1112    3.5859    0.1980 H   0  0  0  0  0  0  0  0  0  0  0  0
   -1.2655    1.9885   -0.6054 H   0  0  0  0  0  0  0  0  0  0  0  0
    0.3284    2.7688   -0.4684 H   0  0  0  0  0  0  0  0  0  0  0  0
    2.2444   -1.2131    3.6969 H   0  0  0  0  0  0  0  0  0  0  0  0
   -0.7061   -2.0491    3.4726 H   0  0  0  0  0  0  0  0  0  0  0  0
  2  1  2  0  0  0  0
  2  3  1  0  0  0  0
  3 43  1  6  0  0  0
  3  4  1  0  0  0  0
  3 39  1  0  0  0  0
  4 46  1  0  0  0  0
  4  5  1  0  0  0  0
  6 78  1  6  0  0  0
  6  7  1  0  0  0  0
  6  5  1  0  0  0  0
  7 48  1  0  0  0  0
  7 49  1  0  0  0  0
  8  7  1  0  0  0  0
  8  9  1  0  0  0  0
  9 52  1  0  0  0  0
  9 50  1  0  0  0  0
 10 54  1  0  0  0  0
 10  8  1  0  0  0  0
 11 77  1  0  0  0  0
 11  6  1  0  0  0  0
 12 11  1  0  0  0  0
 13 12  2  0  0  0  0
 14 56  1  0  0  0  0
 14 12  1  0  0  0  0
 15 14  1  0  0  0  0
 16 15  1  0  0  0  0
 16 17  1  0  0  0  0
 17 18  1  0  0  0  0
 18 58  1  0  0  0  0
 18 57  1  0  0  0  0
 19 18  1  0  0  0  0
 19 60  1  0  0  0  0
 20 16  2  0  0  0  0
 21 37  1  0  0  0  0
 21 20  1  0  0  0  0
 22 21  2  0  0  0  0
 23 24  2  0  0  0  0
 23 22  1  0  0  0  0
 24 27  1  0  0  0  0
 25 24  1  0  0  0  0
 26 25  3  0  0  0  0
 27 28  1  0  0  0  0
 27 37  2  0  0  0  0
 28 64  1  0  0  0  0
 29 30  1  0  0  0  0
 29 28  1  0  0  0  0
 30 65  1  0  0  0  0
 31 32  1  0  0  0  0
 31 30  2  0  0  0  0
 33 31  1  0  0  0  0
 34 33  1  0  0  0  0
 35 33  2  0  0  0  0
 35 36  1  0  0  0  0
 36 29  2  0  0  0  0
 37 38  1  0  0  0  0
 38 68  1  0  0  0  0
 38 15  2  0  0  0  0
 39 40  1  0  0  0  0
 39 69  1  0  0  0  0
 40 41  1  0  0  0  0
 41 72  1  0  0  0  0
 41 70  1  0  0  0  0
 42 40  2  0  0  0  0
 44 73  1  0  0  0  0
 44  2  1  0  0  0  0
 45 74  1  0  0  0  0
 45 44  1  0  0  0  0
 47  4  1  0  0  0  0
 51  9  1  0  0  0  0
 53 10  1  0  0  0  0
 55 10  1  0  0  0  0
 59 19  1  0  0  0  0
 61 19  1  0  0  0  0
 62 20  1  0  0  0  0
 63 23  1  0  0  0  0
 66 35  1  0  0  0  0
 67 36  1  0  0  0  0
 71 41  1  0  0  0  0
 75 45  1  0  0  0  0
 76 45  1  0  0  0  0
M  END
