78
-1 1
O        -0.574599    7.174567   -2.065708
C        -0.407518    5.979454   -2.215300
C        -0.181196    5.003529   -1.049685
C        -1.402703    4.080660   -0.866631
S        -1.247933    2.935258    0.538910
C         0.173376    1.283738   -0.808010
C         0.540391    0.513315    0.438046
N         1.375011   -0.650424    0.158743
C         1.840736   -1.269668    1.372297
C         0.745328   -1.597667   -0.728129
C         1.153946    1.834959   -1.599074
C         0.878635    2.294220   -2.931971
O        -0.219699    2.257546   -3.500601
N         1.977718    2.860618   -3.593074
C         1.958764    3.482928   -4.828794
C         2.928925    4.513402   -5.068579
O         3.774467    4.858189   -4.069549
C         3.206512    5.704302   -3.045331
C         2.909833    7.107648   -3.521297
C         3.015458    5.112444   -6.301668
C         2.114089    4.787033   -7.344314
N         2.251883    5.418444   -8.545751
C         1.383722    5.144393   -9.474187
C         0.283288    4.247912   -9.320548
C        -0.664027    4.179561  -10.390291
N        -1.404639    4.167834  -11.282000
C         0.129248    3.566774   -8.107798
N        -0.914370    2.719186   -7.823931
C        -1.603708    1.867506   -8.701348
C        -2.957787    1.607846   -8.466867
C        -3.653309    0.730161   -9.291457
Cl        -5.334119    0.396668   -9.002925
C        -3.008312    0.124945  -10.368248
F        -3.676022   -0.704269  -11.165907
C        -1.665256    0.380306  -10.607716
C        -0.959123    1.235207   -9.771455
C         1.100172    3.826598   -7.083156
C         1.069925    3.158737   -5.836297
N         0.077571    5.708559    0.177276
C         1.225928    6.380498    0.402894
C         1.352950    6.987051    1.788583
O         2.096696    6.536105   -0.440007
H         0.690409    4.375368   -1.296925
N        -0.404905    5.371672   -3.436892
C        -0.622756    6.101889   -4.657612
H        -2.297832    4.711665   -0.734629
H        -1.543446    3.502282   -1.789239
H        -0.390407    0.229905    0.976209
H         1.103373    1.179358    1.109078
H         2.379215   -0.534937    1.990979
H         2.537345   -2.091118    1.138387
H         1.018143   -1.693134    1.996966
H         0.493329   -1.114656   -1.683266
H        -0.190471   -2.035686   -0.306700
H         1.436373   -2.427977   -0.944807
H         2.814921    3.022793   -3.046861
H         3.944793    5.708248   -2.234952
H         2.290703    5.246877   -2.647858
H         3.820361    7.614690   -3.876301
H         2.481712    7.660531   -2.674042
H         2.166346    7.107611   -4.331977
H         3.770342    5.878143   -6.478825
H         1.491426    5.658195  -10.436856
H        -1.120407    2.598820   -6.839281
H        -3.477747    2.098268   -7.642815
H        -1.181050   -0.109961  -11.453212
H         0.100987    1.418359   -9.952060
H         0.350389    2.372966   -5.623905
H        -0.455716    5.366922    0.972605
H         0.750792    6.462028    2.543494
H         1.018722    8.034573    1.742815
H         2.410067    6.978308    2.082777
H        -0.384826    4.354298   -3.487242
H        -0.688613    7.167872   -4.404446
H        -1.559557    5.799993   -5.156076
H         0.207896    5.952852   -5.366982
H         2.164688    1.958859   -1.199116
H        -0.779432    1.054615   -1.289008
