-1 1
 OpenBabel05232414493D

 78 79  0  0  1  0  0  0  0  0999 V2000
   -0.5746    7.1746   -2.0657 O   0  0  0  0  0  0  0  0  0  0  0  0
   -0.4075    5.9795   -2.2153 C   0  0  0  0  0  0  0  0  0  0  0  0
   -0.1812    5.0035   -1.0497 C   0  0  2  0  0  0  0  0  0  0  0  0
   -1.4027    4.0807   -0.8666 C   0  0  0  0  0  0  0  0  0  0  0  0
   -1.2479    2.9353    0.5389 S   0  0  0  0  0  1  0  0  0  0  0  0
    0.1734    1.2837   -0.8080 C   0  0  0  0  0  3  0  0  0  0  0  0
    0.5404    0.5133    0.4380 C   0  0  0  0  0  0  0  0  0  0  0  0
    1.3750   -0.6504    0.1587 N   0  0  0  0  0  0  0  0  0  0  0  0
    1.8407   -1.2697    1.3723 C   0  0  0  0  0  0  0  0  0  0  0  0
    0.7453   -1.5977   -0.7281 C   0  0  0  0  0  0  0  0  0  0  0  0
    1.1539    1.8350   -1.5991 C   0  0  0  0  0  3  0  0  0  0  0  0
    0.8786    2.2942   -2.9320 C   0  0  0  0  0  0  0  0  0  0  0  0
   -0.2197    2.2575   -3.5006 O   0  0  0  0  0  0  0  0  0  0  0  0
    1.9777    2.8606   -3.5931 N   0  0  0  0  0  0  0  0  0  0  0  0
    1.9588    3.4829   -4.8288 C   0  0  0  0  0  0  0  0  0  0  0  0
    2.9289    4.5134   -5.0686 C   0  0  0  0  0  0  0  0  0  0  0  0
    3.7745    4.8582   -4.0695 O   0  0  0  0  0  0  0  0  0  0  0  0
    3.2065    5.7043   -3.0453 C   0  0  0  0  0  0  0  0  0  0  0  0
    2.9098    7.1076   -3.5213 C   0  0  0  0  0  0  0  0  0  0  0  0
    3.0155    5.1124   -6.3017 C   0  0  0  0  0  0  0  0  0  0  0  0
    2.1141    4.7870   -7.3443 C   0  0  0  0  0  0  0  0  0  0  0  0
    2.2519    5.4184   -8.5458 N   0  0  0  0  0  0  0  0  0  0  0  0
    1.3837    5.1444   -9.4742 C   0  0  0  0  0  0  0  0  0  0  0  0
    0.2833    4.2479   -9.3205 C   0  0  0  0  0  0  0  0  0  0  0  0
   -0.6640    4.1796  -10.3903 C   0  0  0  0  0  0  0  0  0  0  0  0
   -1.4046    4.1678  -11.2820 N   0  0  0  0  0  0  0  0  0  0  0  0
    0.1292    3.5668   -8.1078 C   0  0  0  0  0  0  0  0  0  0  0  0
   -0.9144    2.7192   -7.8239 N   0  0  0  0  0  0  0  0  0  0  0  0
   -1.6037    1.8675   -8.7013 C   0  0  0  0  0  0  0  0  0  0  0  0
   -2.9578    1.6078   -8.4669 C   0  0  0  0  0  0  0  0  0  0  0  0
   -3.6533    0.7302   -9.2915 C   0  0  0  0  0  0  0  0  0  0  0  0
   -5.3341    0.3967   -9.0029 Cl  0  0  0  0  0  0  0  0  0  0  0  0
   -3.0083    0.1249  -10.3682 C   0  0  0  0  0  0  0  0  0  0  0  0
   -3.6760   -0.7043  -11.1659 F   0  0  0  0  0  0  0  0  0  0  0  0
   -1.6653    0.3803  -10.6077 C   0  0  0  0  0  0  0  0  0  0  0  0
   -0.9591    1.2352   -9.7715 C   0  0  0  0  0  0  0  0  0  0  0  0
    1.1002    3.8266   -7.0832 C   0  0  0  0  0  0  0  0  0  0  0  0
    1.0699    3.1587   -5.8363 C   0  0  0  0  0  0  0  0  0  0  0  0
    0.0776    5.7086    0.1773 N   0  0  0  0  0  0  0  0  0  0  0  0
    1.2259    6.3805    0.4029 C   0  0  0  0  0  0  0  0  0  0  0  0
    1.3530    6.9871    1.7886 C   0  0  0  0  0  0  0  0  0  0  0  0
    2.0967    6.5361   -0.4400 O   0  0  0  0  0  0  0  0  0  0  0  0
    0.6904    4.3754   -1.2969 H   0  0  0  0  0  0  0  0  0  0  0  0
   -0.4049    5.3717   -3.4369 N   0  0  0  0  0  0  0  0  0  0  0  0
   -0.6228    6.1019   -4.6576 C   0  0  0  0  0  0  0  0  0  0  0  0
   -2.2978    4.7117   -0.7346 H   0  0  0  0  0  0  0  0  0  0  0  0
   -1.5434    3.5023   -1.7892 H   0  0  0  0  0  0  0  0  0  0  0  0
   -0.3904    0.2299    0.9762 H   0  0  0  0  0  0  0  0  0  0  0  0
    1.1034    1.1794    1.1091 H   0  0  0  0  0  0  0  0  0  0  0  0
    2.3792   -0.5349    1.9910 H   0  0  0  0  0  0  0  0  0  0  0  0
    2.5373   -2.0911    1.1384 H   0  0  0  0  0  0  0  0  0  0  0  0
    1.0181   -1.6931    1.9970 H   0  0  0  0  0  0  0  0  0  0  0  0
    0.4933   -1.1147   -1.6833 H   0  0  0  0  0  0  0  0  0  0  0  0
   -0.1905   -2.0357   -0.3067 H   0  0  0  0  0  0  0  0  0  0  0  0
    1.4364   -2.4280   -0.9448 H   0  0  0  0  0  0  0  0  0  0  0  0
    2.8149    3.0228   -3.0469 H   0  0  0  0  0  0  0  0  0  0  0  0
    3.9448    5.7082   -2.2350 H   0  0  0  0  0  0  0  0  0  0  0  0
    2.2907    5.2469   -2.6479 H   0  0  0  0  0  0  0  0  0  0  0  0
    3.8204    7.6147   -3.8763 H   0  0  0  0  0  0  0  0  0  0  0  0
    2.4817    7.6605   -2.6740 H   0  0  0  0  0  0  0  0  0  0  0  0
    2.1663    7.1076   -4.3320 H   0  0  0  0  0  0  0  0  0  0  0  0
    3.7703    5.8781   -6.4788 H   0  0  0  0  0  0  0  0  0  0  0  0
    1.4914    5.6582  -10.4369 H   0  0  0  0  0  0  0  0  0  0  0  0
   -1.1204    2.5988   -6.8393 H   0  0  0  0  0  0  0  0  0  0  0  0
   -3.4777    2.0983   -7.6428 H   0  0  0  0  0  0  0  0  0  0  0  0
   -1.1810   -0.1100  -11.4532 H   0  0  0  0  0  0  0  0  0  0  0  0
    0.1010    1.4184   -9.9521 H   0  0  0  0  0  0  0  0  0  0  0  0
    0.3504    2.3730   -5.6239 H   0  0  0  0  0  0  0  0  0  0  0  0
   -0.4557    5.3669    0.9726 H   0  0  0  0  0  0  0  0  0  0  0  0
    0.7508    6.4620    2.5435 H   0  0  0  0  0  0  0  0  0  0  0  0
    1.0187    8.0346    1.7428 H   0  0  0  0  0  0  0  0  0  0  0  0
    2.4101    6.9783    2.0828 H   0  0  0  0  0  0  0  0  0  0  0  0
   -0.3848    4.3543   -3.4872 H   0  0  0  0  0  0  0  0  0  0  0  0
   -0.6886    7.1679   -4.4044 H   0  0  0  0  0  0  0  0  0  0  0  0
   -1.5596    5.8000   -5.1561 H   0  0  0  0  0  0  0  0  0  0  0  0
    0.2079    5.9529   -5.3670 H   0  0  0  0  0  0  0  0  0  0  0  0
    2.1647    1.9589   -1.1991 H   0  0  0  0  0  0  0  0  0  0  0  0
   -0.7794    1.0546   -1.2890 H   0  0  0  0  0  0  0  0  0  0  0  0
  2  1  2  0  0  0  0
  2  3  1  0  0  0  0
  3 43  1  6  0  0  0
  3  4  1  0  0  0  0
  3 39  1  0  0  0  0
  4 46  1  0  0  0  0
  4  5  1  0  0  0  0
  6  7  1  0  0  0  0
  7 48  1  0  0  0  0
  7 49  1  0  0  0  0
  8  7  1  0  0  0  0
  8  9  1  0  0  0  0
  9 50  1  0  0  0  0
  9 52  1  0  0  0  0
 10 54  1  0  0  0  0
 10  8  1  0  0  0  0
 11 77  1  0  0  0  0
 11  6  1  0  0  0  0
 12 11  1  0  0  0  0
 13 12  2  0  0  0  0
 14 56  1  0  0  0  0
 14 12  1  0  0  0  0
 15 14  1  0  0  0  0
 16 15  1  0  0  0  0
 16 17  1  0  0  0  0
 17 18  1  0  0  0  0
 18 58  1  0  0  0  0
 18 57  1  0  0  0  0
 19 18  1  0  0  0  0
 19 60  1  0  0  0  0
 20 16  2  0  0  0  0
 21 37  1  0  0  0  0
 21 20  1  0  0  0  0
 22 21  2  0  0  0  0
 23 24  2  0  0  0  0
 23 22  1  0  0  0  0
 24 27  1  0  0  0  0
 25 24  1  0  0  0  0
 26 25  3  0  0  0  0
 27 28  1  0  0  0  0
 27 37  2  0  0  0  0
 28 64  1  0  0  0  0
 29 30  1  0  0  0  0
 29 28  1  0  0  0  0
 30 65  1  0  0  0  0
 31 32  1  0  0  0  0
 31 30  2  0  0  0  0
 33 31  1  0  0  0  0
 34 33  1  0  0  0  0
 35 33  2  0  0  0  0
 35 36  1  0  0  0  0
 36 29  2  0  0  0  0
 37 38  1  0  0  0  0
 38 68  1  0  0  0  0
 38 15  2  0  0  0  0
 39 40  1  0  0  0  0
 39 69  1  0  0  0  0
 40 41  1  0  0  0  0
 41 72  1  0  0  0  0
 41 70  1  0  0  0  0
 42 40  2  0  0  0  0
 44  2  1  0  0  0  0
 45 74  1  0  0  0  0
 45 44  1  0  0  0  0
 47  4  1  0  0  0  0
 51  9  1  0  0  0  0
 53 10  1  0  0  0  0
 55 10  1  0  0  0  0
 59 19  1  0  0  0  0
 61 19  1  0  0  0  0
 62 20  1  0  0  0  0
 63 23  1  0  0  0  0
 66 35  1  0  0  0  0
 67 36  1  0  0  0  0
 71 41  1  0  0  0  0
 73 44  1  0  0  0  0
 75 45  1  0  0  0  0
 76 45  1  0  0  0  0
 78  6  1  0  0  0  0
M  END
