-1 1
 OpenBabel05232413483D

 78 79  0  0  1  0  0  0  0  0999 V2000
    0.7347    3.5119    3.4935 O   0  0  0  0  0  0  0  0  0  0  0  0
    0.0075    2.5631    3.2618 C   0  0  0  0  0  0  0  0  0  0  0  0
   -0.2161    1.4035    4.2293 C   0  0  2  0  0  0  0  0  0  0  0  0
   -1.4216    1.7312    5.1479 C   0  0  0  0  0  0  0  0  0  0  0  0
   -1.6106    0.5743    6.5446 S   0  0  0  0  0  1  0  0  0  0  0  0
   -0.4292   -2.3476    3.4636 C   0  0  0  0  0  0  0  0  0  0  0  0
   -0.3323   -2.6008    4.9343 C   0  0  0  0  0  0  0  0  0  0  0  0
    1.0053   -2.4971    5.4806 N   0  0  0  0  0  0  0  0  0  0  0  0
    0.9919   -2.2237    6.9015 C   0  0  0  0  0  0  0  0  0  0  0  0
    1.8392   -3.6257    5.1463 C   0  0  0  0  0  0  0  0  0  0  0  0
    0.4961   -1.6941    2.7547 C   0  0  0  0  0  0  0  0  0  0  0  0
    0.2593   -1.2646    1.3563 C   0  0  0  0  0  0  0  0  0  0  0  0
   -0.5217   -1.8172    0.5951 O   0  0  0  0  0  0  0  0  0  0  0  0
    0.9867   -0.1415    1.0232 N   0  0  0  0  0  0  0  0  0  0  0  0
    0.9572    0.5279   -0.1906 C   0  0  0  0  0  0  0  0  0  0  0  0
    1.6717    1.7807   -0.2445 C   0  0  0  0  0  0  0  0  0  0  0  0
    2.1880    2.1401    0.9240 O   0  0  0  0  0  0  0  0  0  0  0  0
    2.8761    3.3595    1.1264 C   0  0  0  0  0  0  0  0  0  0  0  0
    4.3494    3.2203    0.7950 C   0  0  0  0  0  0  0  0  0  0  0  0
    1.7555    2.4878   -1.4227 C   0  0  0  0  0  0  0  0  0  0  0  0
    1.1002    2.0329   -2.5941 C   0  0  0  0  0  0  0  0  0  0  0  0
    1.2277    2.7762   -3.7294 N   0  0  0  0  0  0  0  0  0  0  0  0
    0.6024    2.3649   -4.7951 C   0  0  0  0  0  0  0  0  0  0  0  0
   -0.2113    1.1982   -4.8589 C   0  0  0  0  0  0  0  0  0  0  0  0
   -0.9393    0.9617   -6.0670 C   0  0  0  0  0  0  0  0  0  0  0  0
   -1.5163    0.8190   -7.0623 N   0  0  0  0  0  0  0  0  0  0  0  0
   -0.3352    0.3970   -3.7145 C   0  0  0  0  0  0  0  0  0  0  0  0
   -1.1121   -0.7371   -3.6593 N   0  0  0  0  0  0  0  0  0  0  0  0
   -1.3270   -1.6836   -4.6742 C   0  0  0  0  0  0  0  0  0  0  0  0
   -2.5362   -2.3862   -4.6943 C   0  0  0  0  0  0  0  0  0  0  0  0
   -2.7607   -3.3642   -5.6570 C   0  0  0  0  0  0  0  0  0  0  0  0
   -4.2579   -4.2468   -5.6820 Cl  0  0  0  0  0  0  0  0  0  0  0  0
   -1.7904   -3.6305   -6.6209 C   0  0  0  0  0  0  0  0  0  0  0  0
   -2.0096   -4.5562   -7.5509 F   0  0  0  0  0  0  0  0  0  0  0  0
   -0.5897   -2.9346   -6.6089 C   0  0  0  0  0  0  0  0  0  0  0  0
   -0.3495   -1.9757   -5.6332 C   0  0  0  0  0  0  0  0  0  0  0  0
    0.3516    0.8270   -2.5356 C   0  0  0  0  0  0  0  0  0  0  0  0
    0.3165    0.0818   -1.3260 C   0  0  0  0  0  0  0  0  0  0  0  0
    0.9328    1.1542    5.0557 N   0  0  0  0  0  0  0  0  0  0  0  0
    2.1271    0.7730    4.5931 C   0  0  0  0  0  0  0  0  0  0  0  0
    3.1443    0.3741    5.6384 C   0  0  0  0  0  0  0  0  0  0  0  0
    2.4134    0.7089    3.3951 O   0  0  0  0  0  0  0  0  0  0  0  0
   -0.4576    0.4952    3.6511 H   0  0  0  0  0  0  0  0  0  0  0  0
   -0.7673    2.4783    2.1424 N   0  0  0  0  0  0  0  0  0  0  0  0
   -0.8542    3.5313    1.1668 C   0  0  0  0  0  0  0  0  0  0  0  0
   -1.2816    2.7597    5.5216 H   0  0  0  0  0  0  0  0  0  0  0  0
   -2.3211    1.7392    4.5123 H   0  0  0  0  0  0  0  0  0  0  0  0
   -0.8076   -3.5801    5.1783 H   0  0  0  0  0  0  0  0  0  0  0  0
   -0.9613   -1.8190    5.4148 H   0  0  0  0  0  0  0  0  0  0  0  0
    0.3848   -1.3261    7.0993 H   0  0  0  0  0  0  0  0  0  0  0  0
    2.0190   -2.0439    7.2584 H   0  0  0  0  0  0  0  0  0  0  0  0
    0.5742   -3.0687    7.4962 H   0  0  0  0  0  0  0  0  0  0  0  0
    1.8622   -3.7776    4.0571 H   0  0  0  0  0  0  0  0  0  0  0  0
    1.4885   -4.5745    5.6167 H   0  0  0  0  0  0  0  0  0  0  0  0
    2.8731   -3.4478    5.4840 H   0  0  0  0  0  0  0  0  0  0  0  0
    1.5304    0.3024    1.7827 H   0  0  0  0  0  0  0  0  0  0  0  0
    2.7125    3.5842    2.1882 H   0  0  0  0  0  0  0  0  0  0  0  0
    2.3958    4.1617    0.5405 H   0  0  0  0  0  0  0  0  0  0  0  0
    4.7870    2.4137    1.4003 H   0  0  0  0  0  0  0  0  0  0  0  0
    4.8780    4.1575    1.0246 H   0  0  0  0  0  0  0  0  0  0  0  0
    4.5092    2.9855   -0.2684 H   0  0  0  0  0  0  0  0  0  0  0  0
    2.3118    3.4210   -1.4961 H   0  0  0  0  0  0  0  0  0  0  0  0
    0.6964    2.9728   -5.7029 H   0  0  0  0  0  0  0  0  0  0  0  0
   -1.3934   -1.0247   -2.7301 H   0  0  0  0  0  0  0  0  0  0  0  0
   -3.3129   -2.1648   -3.9613 H   0  0  0  0  0  0  0  0  0  0  0  0
    0.1571   -3.1647   -7.3699 H   0  0  0  0  0  0  0  0  0  0  0  0
    0.6037   -1.4456   -5.6170 H   0  0  0  0  0  0  0  0  0  0  0  0
   -0.2042   -0.8690   -1.2464 H   0  0  0  0  0  0  0  0  0  0  0  0
    0.6601    0.9641    6.0290 H   0  0  0  0  0  0  0  0  0  0  0  0
    2.8593    0.6782    6.6542 H   0  0  0  0  0  0  0  0  0  0  0  0
    4.1172    0.8088    5.3739 H   0  0  0  0  0  0  0  0  0  0  0  0
    3.2330   -0.7219    5.6050 H   0  0  0  0  0  0  0  0  0  0  0  0
   -1.3284    1.6469    2.0166 H   0  0  0  0  0  0  0  0  0  0  0  0
   -0.1029    4.2867    1.4307 H   0  0  0  0  0  0  0  0  0  0  0  0
   -1.8465    4.0136    1.1688 H   0  0  0  0  0  0  0  0  0  0  0  0
   -0.6466    3.1606    0.1510 H   0  0  0  0  0  0  0  0  0  0  0  0
    1.4109   -1.3551    3.2433 H   0  0  0  0  0  0  0  0  0  0  0  0
   -1.3664   -2.6324    2.9722 H   0  0  0  0  0  0  0  0  0  0  0  0
  2  1  2  0  0  0  0
  2  3  1  0  0  0  0
  3 43  1  6  0  0  0
  3 39  1  0  0  0  0
  3  4  1  0  0  0  0
  4 46  1  0  0  0  0
  4  5  1  0  0  0  0
  6  7  1  0  0  0  0
  7 48  1  0  0  0  0
  7 49  1  0  0  0  0
  7  8  1  0  0  0  0
  8  9  1  0  0  0  0
  9 50  1  0  0  0  0
  9 51  1  0  0  0  0
  9 52  1  0  0  0  0
 10  8  1  0  0  0  0
 10 55  1  0  0  0  0
 10 54  1  0  0  0  0
 11 77  1  0  0  0  0
 11  6  2  0  0  0  0
 12 11  1  0  0  0  0
 13 12  2  0  0  0  0
 14 12  1  0  0  0  0
 14 56  1  0  0  0  0
 15 14  1  0  0  0  0
 16 15  1  0  0  0  0
 16 17  1  0  0  0  0
 17 18  1  0  0  0  0
 18 57  1  0  0  0  0
 19 60  1  0  0  0  0
 19 18  1  0  0  0  0
 19 59  1  0  0  0  0
 20 16  2  0  0  0  0
 21 37  1  0  0  0  0
 21 20  1  0  0  0  0
 22 21  2  0  0  0  0
 23 22  1  0  0  0  0
 24 23  2  0  0  0  0
 24 27  1  0  0  0  0
 25 24  1  0  0  0  0
 26 25  3  0  0  0  0
 27 28  1  0  0  0  0
 27 37  2  0  0  0  0
 28 64  1  0  0  0  0
 29 28  1  0  0  0  0
 30 29  1  0  0  0  0
 30 65  1  0  0  0  0
 31 30  2  0  0  0  0
 32 31  1  0  0  0  0
 33 35  2  0  0  0  0
 33 31  1  0  0  0  0
 34 33  1  0  0  0  0
 35 36  1  0  0  0  0
 36 67  1  0  0  0  0
 36 29  2  0  0  0  0
 37 38  1  0  0  0  0
 38 68  1  0  0  0  0
 38 15  2  0  0  0  0
 39 69  1  0  0  0  0
 40 39  1  0  0  0  0
 40 41  1  0  0  0  0
 41 70  1  0  0  0  0
 42 40  2  0  0  0  0
 44  2  1  0  0  0  0
 45 75  1  0  0  0  0
 45 74  1  0  0  0  0
 45 44  1  0  0  0  0
 47  4  1  0  0  0  0
 53 10  1  0  0  0  0
 58 18  1  0  0  0  0
 61 19  1  0  0  0  0
 62 20  1  0  0  0  0
 63 23  1  0  0  0  0
 66 35  1  0  0  0  0
 71 41  1  0  0  0  0
 72 41  1  0  0  0  0
 73 44  1  0  0  0  0
 76 45  1  0  0  0  0
 78  6  1  0  0  0  0
M  END
