-1 1
 OpenBabel05192410563D

 71 73  0  0  1  0  0  0  0  0999 V2000
    2.0799    3.1480   -1.2611 O   0  0  0  0  0  0  0  0  0  0  0  0
    1.6817    2.3521   -0.4156 C   0  0  0  0  0  0  0  0  0  0  0  0
    2.5868    1.9384    0.7535 C   0  0  2  0  0  0  0  0  0  0  0  0
    2.2602    2.8240    1.9679 C   0  0  0  0  0  0  0  0  0  0  0  0
    3.0376    2.3217    3.5176 S   0  0  0  0  0  0  0  0  0  0  0  0
    2.0437    0.7518    3.8500 C   0  0  2  0  0  0  0  0  0  0  0  0
    0.5821    0.9916    3.8507 C   0  0  0  0  0  3  0  0  0  0  0  0
   -0.2042    0.6474    2.7721 C   0  0  0  0  0  0  0  0  0  0  0  0
   -1.5715    1.1018    2.8486 N   0  0  0  0  0  0  0  0  0  0  0  0
   -2.5776    0.9246    1.9461 C   0  0  0  0  0  0  0  0  0  0  0  0
   -3.7690    1.7132    2.0737 C   0  0  0  0  0  0  0  0  0  0  0  0
   -4.8029    1.6107    1.1817 C   0  0  0  0  0  0  0  0  0  0  0  0
   -2.5175    0.0151    0.8913 C   0  0  0  0  0  0  0  0  0  0  0  0
   -3.5733   -0.0993   -0.0332 C   0  0  0  0  0  0  0  0  0  0  0  0
   -4.7401    0.7097    0.0850 C   0  0  0  0  0  0  0  0  0  0  0  0
   -5.7675    0.6680   -0.8039 N   0  0  0  0  0  0  0  0  0  0  0  0
   -5.6825   -0.1596   -1.8073 C   0  0  0  0  0  0  0  0  0  0  0  0
   -4.5748   -1.0372   -2.0192 C   0  0  0  0  0  0  0  0  0  0  0  0
   -4.6291   -1.9660   -3.1108 C   0  0  0  0  0  0  0  0  0  0  0  0
   -4.7202   -2.6967   -4.0049 N   0  0  0  0  0  0  0  0  0  0  0  0
   -3.5056   -1.0074   -1.1371 C   0  0  0  0  0  0  0  0  0  0  0  0
   -2.3845   -1.8507   -1.2757 N   0  0  0  0  0  0  0  0  0  0  0  0
   -1.2767   -1.4487   -2.0604 C   0  0  0  0  0  0  0  0  0  0  0  0
   -0.0075   -1.4482   -1.4671 C   0  0  0  0  0  0  0  0  0  0  0  0
    1.1043   -1.0633   -2.2091 C   0  0  0  0  0  0  0  0  0  0  0  0
    2.7860   -1.0411   -1.3463 Br  0  0  0  0  0  0  0  0  0  0  0  0
    0.9829   -0.6543   -3.5353 C   0  0  0  0  0  0  0  0  0  0  0  0
   -0.2858   -0.6513   -4.1125 C   0  0  0  0  0  0  0  0  0  0  0  0
   -1.4110   -1.0490   -3.3950 C   0  0  0  0  0  0  0  0  0  0  0  0
    0.1437    0.0215    1.7248 O   0  0  0  0  0  0  0  0  0  0  0  0
    2.6337    0.0625    5.1002 C   0  0  0  0  0  0  0  0  0  0  0  0
    2.2192    0.4678    6.4276 N   0  0  0  0  0  0  0  0  0  0  0  0
    2.5147    1.8169    6.8279 C   0  0  0  0  0  0  0  0  0  0  0  0
    0.9663   -0.0304    6.9284 C   0  0  0  0  0  0  0  0  0  0  0  0
    3.9544    2.0709    0.3206 N   0  0  0  0  0  0  0  0  0  0  0  0
    4.8810    1.0876    0.4232 C   0  0  0  0  0  0  0  0  0  0  0  0
    6.1897    1.3723   -0.2940 C   0  0  0  0  0  0  0  0  0  0  0  0
    4.6996    0.0337    1.0091 O   0  0  0  0  0  0  0  0  0  0  0  0
    2.3925    0.8883    1.0108 H   0  0  0  0  0  0  0  0  0  0  0  0
    0.4497    1.8214   -0.3747 N   0  0  0  0  0  0  0  0  0  0  0  0
   -0.5638    2.1494   -1.3432 C   0  0  0  0  0  0  0  0  0  0  0  0
    2.5818    3.8577    1.7682 H   0  0  0  0  0  0  0  0  0  0  0  0
    1.1715    2.8327    2.1303 H   0  0  0  0  0  0  0  0  0  0  0  0
   -1.7580    1.7494    3.6018 H   0  0  0  0  0  0  0  0  0  0  0  0
   -3.8387    2.4276    2.8995 H   0  0  0  0  0  0  0  0  0  0  0  0
   -5.6988    2.2263    1.2803 H   0  0  0  0  0  0  0  0  0  0  0  0
   -1.5992   -0.5569    0.7980 H   0  0  0  0  0  0  0  0  0  0  0  0
   -6.5160   -0.1892   -2.5181 H   0  0  0  0  0  0  0  0  0  0  0  0
   -2.0622   -2.1436   -0.3590 H   0  0  0  0  0  0  0  0  0  0  0  0
    0.1120   -1.6923   -0.4081 H   0  0  0  0  0  0  0  0  0  0  0  0
    1.8600   -0.3352   -4.0986 H   0  0  0  0  0  0  0  0  0  0  0  0
   -0.4015   -0.3349   -5.1514 H   0  0  0  0  0  0  0  0  0  0  0  0
   -2.3874   -1.0581   -3.8780 H   0  0  0  0  0  0  0  0  0  0  0  0
    3.7358    0.1344    5.0461 H   0  0  0  0  0  0  0  0  0  0  0  0
    2.3900   -1.0080    5.0034 H   0  0  0  0  0  0  0  0  0  0  0  0
    3.5337    2.0909    6.5138 H   0  0  0  0  0  0  0  0  0  0  0  0
    2.4654    1.8993    7.9289 H   0  0  0  0  0  0  0  0  0  0  0  0
    1.8282    2.5793    6.4013 H   0  0  0  0  0  0  0  0  0  0  0  0
    0.8032   -1.0601    6.5771 H   0  0  0  0  0  0  0  0  0  0  0  0
    0.0761    0.5583    6.6231 H   0  0  0  0  0  0  0  0  0  0  0  0
    0.9848   -0.0484    8.0347 H   0  0  0  0  0  0  0  0  0  0  0  0
    4.0960    2.8238   -0.3461 H   0  0  0  0  0  0  0  0  0  0  0  0
    6.3494    2.4406   -0.4966 H   0  0  0  0  0  0  0  0  0  0  0  0
    6.1885    0.8268   -1.2500 H   0  0  0  0  0  0  0  0  0  0  0  0
    7.0149    0.9839    0.3164 H   0  0  0  0  0  0  0  0  0  0  0  0
    0.2571    1.1062    0.3513 H   0  0  0  0  0  0  0  0  0  0  0  0
   -0.3309    3.1239   -1.7933 H   0  0  0  0  0  0  0  0  0  0  0  0
   -1.5484    2.1949   -0.8541 H   0  0  0  0  0  0  0  0  0  0  0  0
   -0.6170    1.4025   -2.1530 H   0  0  0  0  0  0  0  0  0  0  0  0
    0.1521    1.5780    4.6676 H   0  0  0  0  0  0  0  0  0  0  0  0
    2.2937    0.0990    3.0005 H   0  0  0  0  0  0  0  0  0  0  0  0
  1  2  2  0  0  0  0
  2 40  1  0  0  0  0
  2  3  1  0  0  0  0
  3 39  1  1  0  0  0
  3  4  1  0  0  0  0
  4 43  1  0  0  0  0
  4  5  1  0  0  0  0
  5  6  1  0  0  0  0
  6 71  1  6  0  0  0
  6  7  1  0  0  0  0
  6 31  1  0  0  0  0
  7 70  1  0  0  0  0
  8  9  1  0  0  0  0
  8  7  1  0  0  0  0
  9 44  1  0  0  0  0
 10 11  1  0  0  0  0
 10  9  1  0  0  0  0
 11 45  1  0  0  0  0
 12 46  1  0  0  0  0
 12 11  2  0  0  0  0
 13 10  2  0  0  0  0
 14 15  1  0  0  0  0
 14 13  1  0  0  0  0
 15 12  1  0  0  0  0
 16 15  2  0  0  0  0
 17 16  1  0  0  0  0
 18 17  2  0  0  0  0
 18 21  1  0  0  0  0
 19 18  1  0  0  0  0
 20 19  3  0  0  0  0
 21 14  2  0  0  0  0
 22 21  1  0  0  0  0
 22 49  1  0  0  0  0
 23 24  1  0  0  0  0
 23 22  1  0  0  0  0
 24 50  1  0  0  0  0
 25 24  2  0  0  0  0
 25 26  1  0  0  0  0
 27 25  1  0  0  0  0
 28 27  2  0  0  0  0
 28 29  1  0  0  0  0
 29 23  2  0  0  0  0
 30  8  2  0  0  0  0
 31 32  1  0  0  0  0
 32 33  1  0  0  0  0
 32 34  1  0  0  0  0
 33 57  1  0  0  0  0
 34 61  1  0  0  0  0
 35 36  1  0  0  0  0
 35  3  1  0  0  0  0
 36 38  2  0  0  0  0
 37 65  1  0  0  0  0
 37 36  1  0  0  0  0
 40 66  1  0  0  0  0
 41 68  1  0  0  0  0
 41 40  1  0  0  0  0
 42  4  1  0  0  0  0
 47 13  1  0  0  0  0
 48 17  1  0  0  0  0
 51 27  1  0  0  0  0
 52 28  1  0  0  0  0
 53 29  1  0  0  0  0
 54 31  1  0  0  0  0
 55 31  1  0  0  0  0
 56 33  1  0  0  0  0
 58 33  1  0  0  0  0
 59 34  1  0  0  0  0
 60 34  1  0  0  0  0
 62 35  1  0  0  0  0
 63 37  1  0  0  0  0
 64 37  1  0  0  0  0
 67 41  1  0  0  0  0
 69 41  1  0  0  0  0
M  END
