-1 1
 OpenBabel05232414493D

 71 72  0  0  1  0  0  0  0  0999 V2000
    2.2107    0.1014   -2.3038 O   0  0  0  0  0  0  0  0  0  0  0  0
    1.8470   -0.7531   -1.5105 C   0  0  0  0  0  0  0  0  0  0  0  0
    2.6079   -1.0566   -0.2241 C   0  0  2  0  0  0  0  0  0  0  0  0
    2.0700   -0.1395    0.9063 C   0  0  0  0  0  0  0  0  0  0  0  0
    3.0414   -0.1608    2.4336 S   0  0  0  0  0  1  0  0  0  0  0  0
    2.2101   -2.8193    2.9012 C   0  0  0  0  0  3  0  0  0  0  0  0
    0.8483   -2.7764    2.8801 C   0  0  0  0  0  3  0  0  0  0  0  0
    0.0842   -2.9027    1.6600 C   0  0  0  0  0  0  0  0  0  0  0  0
   -1.2431   -2.4679    1.7834 N   0  0  0  0  0  0  0  0  0  0  0  0
   -2.2481   -2.4757    0.8327 C   0  0  0  0  0  0  0  0  0  0  0  0
   -3.4426   -1.7562    1.1263 C   0  0  0  0  0  0  0  0  0  0  0  0
   -4.4840   -1.7180    0.2387 C   0  0  0  0  0  0  0  0  0  0  0  0
   -2.1611   -3.1445   -0.3802 C   0  0  0  0  0  0  0  0  0  0  0  0
   -3.2292   -3.1152   -1.3066 C   0  0  0  0  0  0  0  0  0  0  0  0
   -4.4141   -2.3936   -1.0065 C   0  0  0  0  0  0  0  0  0  0  0  0
   -5.4818   -2.3036   -1.8507 N   0  0  0  0  0  0  0  0  0  0  0  0
   -5.4065   -2.9410   -2.9804 C   0  0  0  0  0  0  0  0  0  0  0  0
   -4.2840   -3.7166   -3.4021 C   0  0  0  0  0  0  0  0  0  0  0  0
   -4.4281   -4.4588   -4.6172 C   0  0  0  0  0  0  0  0  0  0  0  0
   -4.6161   -5.0518   -5.5951 N   0  0  0  0  0  0  0  0  0  0  0  0
   -3.1543   -3.7900   -2.5798 C   0  0  0  0  0  0  0  0  0  0  0  0
   -2.0190   -4.4864   -2.8946 N   0  0  0  0  0  0  0  0  0  0  0  0
   -1.4763   -4.7386   -4.1691 C   0  0  0  0  0  0  0  0  0  0  0  0
   -0.7845   -5.9368   -4.3734 C   0  0  0  0  0  0  0  0  0  0  0  0
   -0.1928   -6.1800   -5.6082 C   0  0  0  0  0  0  0  0  0  0  0  0
    0.7419   -7.8087   -5.8750 Br  0  0  0  0  0  0  0  0  0  0  0  0
   -0.2840   -5.2642   -6.6530 C   0  0  0  0  0  0  0  0  0  0  0  0
   -0.9771   -4.0753   -6.4350 C   0  0  0  0  0  0  0  0  0  0  0  0
   -1.5614   -3.8013   -5.2043 C   0  0  0  0  0  0  0  0  0  0  0  0
    0.4935   -3.3575    0.5896 O   0  0  0  0  0  0  0  0  0  0  0  0
    3.0478   -2.9630    4.1469 C   0  0  0  0  0  0  0  0  0  0  0  0
    2.4596   -2.7321    5.4461 N   0  0  0  0  0  0  0  0  0  0  0  0
    2.0760   -1.3822    5.7717 C   0  0  0  0  0  0  0  0  0  0  0  0
    1.6108   -3.7516    5.9940 C   0  0  0  0  0  0  0  0  0  0  0  0
    4.0211   -0.9020   -0.4390 N   0  0  0  0  0  0  0  0  0  0  0  0
    4.9216   -1.7722    0.0850 C   0  0  0  0  0  0  0  0  0  0  0  0
    6.3423   -1.2459    0.1443 C   0  0  0  0  0  0  0  0  0  0  0  0
    4.6366   -2.8895    0.4839 O   0  0  0  0  0  0  0  0  0  0  0  0
    2.4472   -2.1053    0.0568 H   0  0  0  0  0  0  0  0  0  0  0  0
    0.7008   -1.4690   -1.6434 N   0  0  0  0  0  0  0  0  0  0  0  0
   -0.2155   -1.2739   -2.7319 C   0  0  0  0  0  0  0  0  0  0  0  0
    2.0106    0.8895    0.5109 H   0  0  0  0  0  0  0  0  0  0  0  0
    1.0277   -0.4506    1.1079 H   0  0  0  0  0  0  0  0  0  0  0  0
   -1.4516   -1.9748    2.6413 H   0  0  0  0  0  0  0  0  0  0  0  0
   -3.5177   -1.2188    2.0755 H   0  0  0  0  0  0  0  0  0  0  0  0
   -5.3977   -1.1635    0.4576 H   0  0  0  0  0  0  0  0  0  0  0  0
   -1.2307   -3.6695   -0.5808 H   0  0  0  0  0  0  0  0  0  0  0  0
   -6.2708   -2.8891   -3.6529 H   0  0  0  0  0  0  0  0  0  0  0  0
   -1.4044   -4.6974   -2.1184 H   0  0  0  0  0  0  0  0  0  0  0  0
   -0.7208   -6.6724   -3.5703 H   0  0  0  0  0  0  0  0  0  0  0  0
    0.1805   -5.4740   -7.6168 H   0  0  0  0  0  0  0  0  0  0  0  0
   -1.0514   -3.3412   -7.2392 H   0  0  0  0  0  0  0  0  0  0  0  0
   -2.0828   -2.8570   -5.0417 H   0  0  0  0  0  0  0  0  0  0  0  0
    3.9332   -2.3222    4.0262 H   0  0  0  0  0  0  0  0  0  0  0  0
    3.4271   -4.0037    4.1321 H   0  0  0  0  0  0  0  0  0  0  0  0
    2.7739   -0.6703    5.3103 H   0  0  0  0  0  0  0  0  0  0  0  0
    2.0893   -1.2416    6.8683 H   0  0  0  0  0  0  0  0  0  0  0  0
    1.0642   -1.0976    5.4113 H   0  0  0  0  0  0  0  0  0  0  0  0
    2.0215   -4.7485    5.7680 H   0  0  0  0  0  0  0  0  0  0  0  0
    0.5601   -3.7409    5.6261 H   0  0  0  0  0  0  0  0  0  0  0  0
    1.5650   -3.6522    7.0940 H   0  0  0  0  0  0  0  0  0  0  0  0
    4.3306    0.0347   -0.6640 H   0  0  0  0  0  0  0  0  0  0  0  0
    6.5777   -0.5709   -0.6919 H   0  0  0  0  0  0  0  0  0  0  0  0
    7.0407   -2.0916    0.1517 H   0  0  0  0  0  0  0  0  0  0  0  0
    6.4476   -0.6850    1.0857 H   0  0  0  0  0  0  0  0  0  0  0  0
    0.5167   -2.1862   -0.9421 H   0  0  0  0  0  0  0  0  0  0  0  0
    0.1059   -0.3836   -3.2890 H   0  0  0  0  0  0  0  0  0  0  0  0
   -1.2446   -1.1203   -2.3665 H   0  0  0  0  0  0  0  0  0  0  0  0
   -0.2189   -2.1312   -3.4275 H   0  0  0  0  0  0  0  0  0  0  0  0
    0.3016   -2.5340    3.7945 H   0  0  0  0  0  0  0  0  0  0  0  0
    2.7556   -3.0321    1.9749 H   0  0  0  0  0  0  0  0  0  0  0  0
  1  2  2  0  0  0  0
  2  3  1  0  0  0  0
  3 39  1  1  0  0  0
  3  4  1  0  0  0  0
  4 43  1  0  0  0  0
  4  5  1  0  0  0  0
  6 31  1  0  0  0  0
  7  6  1  0  0  0  0
  7 70  1  0  0  0  0
  8  9  1  0  0  0  0
  8  7  1  0  0  0  0
  9 44  1  0  0  0  0
 10 11  1  0  0  0  0
 10  9  1  0  0  0  0
 11 45  1  0  0  0  0
 12 46  1  0  0  0  0
 12 11  2  0  0  0  0
 13 10  2  0  0  0  0
 14 15  1  0  0  0  0
 14 13  1  0  0  0  0
 15 12  1  0  0  0  0
 16 15  2  0  0  0  0
 17 16  1  0  0  0  0
 18 17  2  0  0  0  0
 18 21  1  0  0  0  0
 19 18  1  0  0  0  0
 20 19  3  0  0  0  0
 21 14  2  0  0  0  0
 22 21  1  0  0  0  0
 22 49  1  0  0  0  0
 23 22  1  0  0  0  0
 24 23  1  0  0  0  0
 24 50  1  0  0  0  0
 25 24  2  0  0  0  0
 26 25  1  0  0  0  0
 27 28  2  0  0  0  0
 27 25  1  0  0  0  0
 28 29  1  0  0  0  0
 29 53  1  0  0  0  0
 29 23  2  0  0  0  0
 30  8  2  0  0  0  0
 31 32  1  0  0  0  0
 32 33  1  0  0  0  0
 32 34  1  0  0  0  0
 33 57  1  0  0  0  0
 34 61  1  0  0  0  0
 35  3  1  0  0  0  0
 35 36  1  0  0  0  0
 36 37  1  0  0  0  0
 36 38  2  0  0  0  0
 37 64  1  0  0  0  0
 37 65  1  0  0  0  0
 40  2  1  0  0  0  0
 40 66  1  0  0  0  0
 41 68  1  0  0  0  0
 41 40  1  0  0  0  0
 42  4  1  0  0  0  0
 47 13  1  0  0  0  0
 48 17  1  0  0  0  0
 51 27  1  0  0  0  0
 52 28  1  0  0  0  0
 54 31  1  0  0  0  0
 55 31  1  0  0  0  0
 56 33  1  0  0  0  0
 58 33  1  0  0  0  0
 59 34  1  0  0  0  0
 60 34  1  0  0  0  0
 62 35  1  0  0  0  0
 63 37  1  0  0  0  0
 67 41  1  0  0  0  0
 69 41  1  0  0  0  0
 71  6  1  0  0  0  0
M  END
