71
-1 1
O         2.039225    3.194105   -0.601655
C         1.674308    2.362148    0.209832
C         1.710170    2.617574    1.720431
C         0.500236    3.488659    2.104244
S         0.106155    3.527840    3.888134
C         2.101222   -0.826980    3.839078
C         0.982037   -0.097331    3.874108
C        -0.027317   -0.230387    2.794193
N        -0.977091    0.753566    2.816218
C        -1.951070    0.992370    1.853475
C        -2.760345    2.153303    2.037270
C        -3.716505    2.492676    1.118704
C        -2.144440    0.209010    0.728068
C        -3.124469    0.555228   -0.232777
C        -3.931860    1.709680   -0.045838
N        -4.875366    2.116543   -0.941763
C        -5.039693    1.402796   -2.016609
C        -4.297104    0.223625   -2.323070
C        -4.661845   -0.515264   -3.493110
N        -5.000191   -1.090052   -4.440861
C        -3.307484   -0.205636   -1.435509
N        -2.534726   -1.327875   -1.645908
C        -1.937596   -1.745566   -2.843970
C        -1.565712   -3.090595   -2.965631
C        -0.919670   -3.520065   -4.118975
Br        -0.418139   -5.345520   -4.263690
C        -0.643760   -2.650798   -5.170937
C        -1.021243   -1.315898   -5.037308
C        -1.652030   -0.856170   -3.887452
O         0.028680   -1.108513    1.934413
C         3.283252   -0.726673    4.762609
N         3.207667    0.113730    5.930663
C         3.333302    1.538939    5.707436
C         2.257938   -0.272913    6.940679
N         2.939115    3.254896    2.121412
C         4.063563    2.569534    2.415877
C         5.211683    3.424894    2.923802
O         4.155433    1.355271    2.311365
H         1.660121    1.657161    2.248952
N         1.110385    1.171839   -0.133608
C         0.827528    0.804709   -1.494991
H         0.686507    4.505659    1.717045
H        -0.361704    3.117418    1.526154
H        -0.763692    1.575942    3.440392
H        -2.558564    2.788779    2.905618
H        -4.328190    3.387259    1.243871
H        -1.487676   -0.647062    0.600829
H        -5.807929    1.724901   -2.729461
H        -2.140810   -1.738976   -0.808576
H        -1.790204   -3.791574   -2.160217
H        -0.142705   -3.006931   -6.071266
H        -0.805700   -0.613700   -5.844923
H        -1.913898    0.198428   -3.793078
H         4.120741   -0.375718    4.132131
H         3.551256   -1.754472    5.077572
H         4.207029    1.722745    5.065046
H         3.512886    2.042562    6.672212
H         2.458592    2.028065    5.231271
H         2.321579   -1.359854    7.114972
H         1.198243   -0.037203    6.708161
H         2.501231    0.230929    7.891712
H         2.912241    4.254253    2.272158
H         5.360135    4.316658    2.296970
H         6.126641    2.821249    2.929787
H         4.994961    3.760938    3.949660
H         0.923409    0.483640    0.587691
H         1.014150    1.681907   -2.127898
H        -0.224376    0.494985   -1.606993
H         1.468905   -0.021494   -1.844838
H         0.824084    0.695299    4.608221
H         2.198664   -1.549487    3.019201
