80
-1 1
O         6.975600   -4.215428   -1.298654
C         6.121270   -3.365489   -1.470403
C         5.108474   -2.989349   -0.375033
C         4.934829   -4.130154    0.634282
S         4.124301   -3.610524    2.180886
C         2.316665   -3.626332    1.664669
C         1.693262   -5.000106    1.925320
N         0.579814   -5.245877    1.022729
C        -0.637207   -5.720220    1.634887
C        -1.752553   -5.751944    0.599574
O        -1.403725   -6.537477   -0.510468
C        -0.227048   -6.064028   -1.123150
C         0.936917   -6.022294   -0.146436
C         1.559660   -2.489054    2.234511
C         1.640103   -1.240384    1.653513
O         2.285256   -0.884387    0.628648
N         0.908620   -0.188890    2.315494
C         0.859330    1.098441    1.809706
C         2.052581    1.884469    1.564278
O         3.304225    1.532375    1.863990
C         3.644495    0.625046    2.896343
C         1.921884    3.128962    0.973721
C         0.672840    3.720970    0.698787
N         0.643782    4.959019    0.126385
C        -0.517350    5.509779   -0.077867
C        -1.766060    4.916947    0.272646
C        -2.950684    5.704505    0.129153
N        -3.888049    6.376343    0.010086
C        -1.768326    3.636418    0.836966
N        -2.921664    2.990709    1.250221
C        -4.158426    2.911967    0.607844
C        -4.296968    3.147831   -0.766745
C        -5.553298    3.041552   -1.350958
Br        -5.726187    3.396418   -3.206097
C        -6.681437    2.676926   -0.620284
C        -6.525840    2.417437    0.740202
C        -5.285705    2.540606    1.354893
C        -0.507004    3.006577    1.051936
C        -0.366524    1.692052    1.559413
N         3.866630   -2.467475   -0.916623
C         3.067336   -3.249563   -1.694524
C         1.657889   -2.728114   -1.881751
O         3.438970   -4.308914   -2.183893
H         5.574357   -2.146449    0.163530
N         6.044984   -2.592710   -2.585005
C         6.832302   -2.857206   -3.757776
H         4.380013   -4.961334    0.174223
H         5.928555   -4.514364    0.897801
H         1.343913   -5.050927    2.970536
H         2.459590   -5.792197    1.819331
H        -0.921426   -5.037995    2.451781
H        -0.523978   -6.742189    2.069933
H        -1.969096   -4.711645    0.281412
H        -2.668951   -6.185297    1.027845
H        -0.394642   -5.048479   -1.533575
H        -0.002684   -6.740252   -1.960108
H         1.807395   -5.572000   -0.650079
H         1.215895   -7.067111    0.128276
H         0.052882   -0.500775    2.755337
H         3.703943   -0.403762    2.516304
H         2.930184    0.670201    3.730422
H         4.635758    0.938609    3.251476
H         2.824507    3.701920    0.762162
H        -0.533219    6.507844   -0.531779
H        -2.798824    2.357147    2.028897
H        -3.429367    3.409079   -1.372779
H        -7.656159    2.599262   -1.102087
H        -7.394614    2.128187    1.335296
H        -5.182660    2.359913    2.427289
H        -1.251926    1.066868    1.698822
H         3.364124   -1.764151   -0.327812
H         1.592273   -1.639978   -1.758384
H         1.025795   -3.173198   -1.094402
H         1.280222   -3.052175   -2.860076
H         5.228594   -1.997952   -2.653253
H         7.250574   -1.927120   -4.173847
H         6.243587   -3.362067   -4.542644
H         7.657177   -3.520097   -3.466178
H         2.377556   -3.512013    0.581984
H         1.045376   -2.617283    3.191779
