80
-1 1
O         3.386778    2.113461    1.644809
C         2.300389    2.572742    1.346666
C         1.124067    2.620239    2.337559
C         1.253806    1.563431    3.438422
S         0.082025    1.788233    4.822167
C        -2.401056    1.720887    4.106430
C        -2.805676    0.339341    4.560297
N        -2.729555   -0.626261    3.475676
C        -3.617831   -1.756420    3.634682
C        -3.549397   -2.640846    2.395939
O        -2.245669   -3.079129    2.139451
C        -1.357518   -1.990027    1.987107
C        -1.374573   -1.082827    3.203075
C        -2.948852    2.871069    4.624383
C        -2.677465    4.122469    3.978882
O        -2.115650    4.280031    2.891668
N        -3.075981    5.265618    4.685605
C        -2.930716    6.560758    4.181629
C        -1.651025    7.076973    3.758218
O        -0.483378    6.453704    3.890147
C        -0.174732    5.607854    4.991582
C        -1.610378    8.321025    3.149024
C        -2.744514    9.145645    3.026099
N        -2.606554   10.361282    2.417599
C        -3.652879   11.128681    2.349636
C        -4.937256   10.804097    2.883142
C        -5.945684   11.817520    2.864383
N        -6.731779   12.669171    2.841130
C        -5.117509    9.558147    3.491858
N        -6.302383    9.157077    4.075788
C        -7.614854    9.390175    3.649435
C        -7.920809    9.612600    2.300865
C        -9.243576    9.824390    1.931022
Br        -9.636815   10.159193    0.107343
C       -10.283007    9.789644    2.857574
C        -9.968570    9.537794    4.191499
C        -8.650748    9.349344    4.591727
C        -3.984051    8.689111    3.557529
C        -4.040747    7.376134    4.081930
N        -0.163366    2.621539    1.659463
C        -0.584224    1.571856    0.905528
C        -2.054341    1.593961    0.532463
O         0.152013    0.663311    0.548408
H         1.198168    3.609897    2.819770
N         2.054767    3.183165    0.153980
C         2.995570    3.154783   -0.930859
H         1.158956    0.567799    2.977332
H         2.279787    1.622447    3.826397
H        -3.857536    0.386637    4.889172
H        -2.204657    0.026827    5.438481
H        -4.652481   -1.398449    3.768371
H        -3.357047   -2.370245    4.529071
H        -3.942595   -2.065924    1.531246
H        -4.175868   -3.536338    2.529368
H        -1.610775   -1.405362    1.082357
H        -0.352793   -2.407899    1.839973
H        -0.721582   -0.219843    3.031454
H        -0.958074   -1.625432    4.080760
H        -3.733923    5.133248    5.441376
H        -0.331042    4.543120    4.756624
H        -0.750500    5.888754    5.885857
H         0.894094    5.758911    5.193069
H        -0.651800    8.697871    2.793164
H        -3.534111   12.105723    1.866120
H        -6.205577    8.504369    4.841891
H        -7.131376    9.620058    1.548887
H       -11.313312    9.957874    2.543630
H       -10.767101    9.505587    4.935558
H        -8.413014    9.182141    5.644617
H        -5.001852    6.937899    4.361199
H        -0.875885    3.248157    2.054365
H        -2.523364    2.572067    0.705946
H        -2.570266    0.847810    1.159746
H        -2.162030    1.290612   -0.517627
H         1.091890    3.435723   -0.025163
H         3.107202    4.149963   -1.390706
H         2.700836    2.435576   -1.714499
H         3.965014    2.840593   -0.522569
H        -2.015529    1.777791    3.095528
H        -3.437784    2.868703    5.603827
