-1 1
 OpenBabel05232413483D

 75 76  0  0  1  0  0  0  0  0999 V2000
   -4.5372   -2.5589   -1.7734 O   0  0  0  0  0  0  0  0  0  0  0  0
   -3.7137   -1.6478   -1.7765 C   0  0  0  0  0  0  0  0  0  0  0  0
   -3.2664   -0.9477   -0.4828 C   0  0  2  0  0  0  0  0  0  0  0  0
   -1.7755   -0.5528   -0.3765 C   0  0  0  0  0  0  0  0  0  0  0  0
   -1.1318    0.6589   -1.5910 S   0  0  0  0  0  1  0  0  0  0  0  0
   -1.4329   -4.7850   -0.9859 C   0  0  0  0  0  0  0  0  0  0  0  0
   -2.8889   -5.1354   -0.9097 C   0  0  0  0  0  0  0  0  0  0  0  0
   -3.4789   -4.8777    0.4028 N   0  0  0  0  0  0  0  0  0  0  0  0
   -2.9205   -5.7061    1.4491 C   0  0  0  0  0  0  0  0  0  0  0  0
   -4.9258   -4.9785    0.3389 C   0  0  0  0  0  0  0  0  0  0  0  0
   -0.9290   -3.8100   -1.7463 C   0  0  0  0  0  0  0  0  0  0  0  0
    0.5323   -3.5021   -1.6970 C   0  0  0  0  0  0  0  0  0  0  0  0
    1.3425   -4.2270   -1.1469 O   0  0  0  0  0  0  0  0  0  0  0  0
    0.8786   -2.3299   -2.3208 N   0  0  0  0  0  0  0  0  0  0  0  0
    2.0724   -1.6166   -1.9967 C   0  0  0  0  0  0  0  0  0  0  0  0
    3.3356   -1.7415   -2.6502 C   0  0  0  0  0  0  0  0  0  0  0  0
    3.6457   -2.6042   -3.6329 O   0  0  0  0  0  0  0  0  0  0  0  0
    2.8759   -3.7525   -3.9120 C   0  0  0  0  0  0  0  0  0  0  0  0
    4.3662   -0.8839   -2.2765 C   0  0  0  0  0  0  0  0  0  0  0  0
    4.1849    0.1561   -1.3453 C   0  0  0  0  0  0  0  0  0  0  0  0
    5.2352    0.9789   -1.0343 N   0  0  0  0  0  0  0  0  0  0  0  0
    4.9961    1.9563   -0.2097 C   0  0  0  0  0  0  0  0  0  0  0  0
    3.7264    2.2760    0.3702 C   0  0  0  0  0  0  0  0  0  0  0  0
    3.6301    3.5121    1.0813 C   0  0  0  0  0  0  0  0  0  0  0  0
    3.6152    4.5283    1.6395 N   0  0  0  0  0  0  0  0  0  0  0  0
    2.6307    1.4485    0.0856 C   0  0  0  0  0  0  0  0  0  0  0  0
    1.3308    1.6563    0.4542 N   0  0  0  0  0  0  0  0  0  0  0  0
    0.8045    2.1476    1.6491 C   0  0  0  0  0  0  0  0  0  0  0  0
   -0.5533    2.5118    1.6498 C   0  0  0  0  0  0  0  0  0  0  0  0
   -1.1460    2.9256    2.8347 C   0  0  0  0  0  0  0  0  0  0  0  0
   -2.9900    3.3676    2.8294 Br  0  0  0  0  0  0  0  0  0  0  0  0
   -0.4268    3.0085    4.0272 C   0  0  0  0  0  0  0  0  0  0  0  0
    0.9150    2.6370    4.0126 C   0  0  0  0  0  0  0  0  0  0  0  0
    1.5313    2.1961    2.8457 C   0  0  0  0  0  0  0  0  0  0  0  0
    2.9064    0.3159   -0.7532 C   0  0  0  0  0  0  0  0  0  0  0  0
    1.9159   -0.6335   -1.0454 C   0  0  0  0  0  0  0  0  0  0  0  0
   -3.6318   -1.7790    0.6398 N   0  0  0  0  0  0  0  0  0  0  0  0
   -4.2497   -1.2750    1.7334 C   0  0  0  0  0  0  0  0  0  0  0  0
   -4.5591   -2.2926    2.8188 C   0  0  0  0  0  0  0  0  0  0  0  0
   -4.5609   -0.1028    1.8598 O   0  0  0  0  0  0  0  0  0  0  0  0
   -3.8577   -0.0198   -0.4028 H   0  0  0  0  0  0  0  0  0  0  0  0
   -3.1665   -1.1924   -2.9180 N   0  0  0  0  0  0  0  0  0  0  0  0
   -3.5482   -1.7373   -4.1933 C   0  0  0  0  0  0  0  0  0  0  0  0
   -1.6649   -0.1333    0.6359 H   0  0  0  0  0  0  0  0  0  0  0  0
   -1.1782   -1.4830   -0.3922 H   0  0  0  0  0  0  0  0  0  0  0  0
   -3.4500   -4.5378   -1.6412 H   0  0  0  0  0  0  0  0  0  0  0  0
   -3.0120   -6.2112   -1.1818 H   0  0  0  0  0  0  0  0  0  0  0  0
   -3.0763   -6.7930    1.2624 H   0  0  0  0  0  0  0  0  0  0  0  0
   -3.3930   -5.4599    2.4120 H   0  0  0  0  0  0  0  0  0  0  0  0
   -1.8412   -5.5292    1.5566 H   0  0  0  0  0  0  0  0  0  0  0  0
   -5.2659   -5.9949    0.0392 H   0  0  0  0  0  0  0  0  0  0  0  0
   -5.3025   -4.2379   -0.3803 H   0  0  0  0  0  0  0  0  0  0  0  0
   -5.3560   -4.7554    1.3267 H   0  0  0  0  0  0  0  0  0  0  0  0
    0.1095   -1.6853   -2.5323 H   0  0  0  0  0  0  0  0  0  0  0  0
    2.6508   -4.3142   -2.9938 H   0  0  0  0  0  0  0  0  0  0  0  0
    3.4921   -4.3700   -4.5791 H   0  0  0  0  0  0  0  0  0  0  0  0
    1.9363   -3.4986   -4.4252 H   0  0  0  0  0  0  0  0  0  0  0  0
    5.3412   -1.0003   -2.7493 H   0  0  0  0  0  0  0  0  0  0  0  0
    5.8363    2.6180    0.0359 H   0  0  0  0  0  0  0  0  0  0  0  0
    0.6124    1.3356   -0.2266 H   0  0  0  0  0  0  0  0  0  0  0  0
   -1.1270    2.4368    0.7210 H   0  0  0  0  0  0  0  0  0  0  0  0
   -0.9100    3.3443    4.9451 H   0  0  0  0  0  0  0  0  0  0  0  0
    1.4949    2.6807    4.9371 H   0  0  0  0  0  0  0  0  0  0  0  0
    2.5730    1.8759    2.8717 H   0  0  0  0  0  0  0  0  0  0  0  0
    0.9493   -0.5733   -0.5550 H   0  0  0  0  0  0  0  0  0  0  0  0
   -3.4498   -2.7852    0.5821 H   0  0  0  0  0  0  0  0  0  0  0  0
   -4.3456   -1.8370    3.7945 H   0  0  0  0  0  0  0  0  0  0  0  0
   -3.9840   -3.2217    2.7076 H   0  0  0  0  0  0  0  0  0  0  0  0
   -5.6334   -2.5296    2.7870 H   0  0  0  0  0  0  0  0  0  0  0  0
   -2.4653   -0.4349   -2.8414 H   0  0  0  0  0  0  0  0  0  0  0  0
   -3.0625   -1.1565   -4.9886 H   0  0  0  0  0  0  0  0  0  0  0  0
   -4.6399   -1.6973   -4.3349 H   0  0  0  0  0  0  0  0  0  0  0  0
   -3.2467   -2.7945   -4.2966 H   0  0  0  0  0  0  0  0  0  0  0  0
   -0.7154   -5.3553   -0.3845 H   0  0  0  0  0  0  0  0  0  0  0  0
   -1.5751   -3.1753   -2.3617 H   0  0  0  0  0  0  0  0  0  0  0  0
  2  1  2  0  0  0  0
  2  3  1  0  0  0  0
  3 41  1  1  0  0  0
  3  4  1  0  0  0  0
  3 37  1  0  0  0  0
  4 44  1  0  0  0  0
  5  4  1  0  0  0  0
  6  7  1  0  0  0  0
  6 74  1  0  0  0  0
  7  8  1  0  0  0  0
  8  9  1  0  0  0  0
  9 50  1  0  0  0  0
  9 49  1  0  0  0  0
 10  8  1  0  0  0  0
 10 53  1  0  0  0  0
 11 12  1  0  0  0  0
 11  6  2  0  0  0  0
 12 13  2  0  0  0  0
 14 15  1  0  0  0  0
 14 12  1  0  0  0  0
 15 36  1  0  0  0  0
 16 19  1  0  0  0  0
 16 15  2  0  0  0  0
 17 16  1  0  0  0  0
 18 17  1  0  0  0  0
 18 55  1  0  0  0  0
 19 20  2  0  0  0  0
 20 21  1  0  0  0  0
 20 35  1  0  0  0  0
 21 22  2  0  0  0  0
 22 59  1  0  0  0  0
 22 23  1  0  0  0  0
 23 24  1  0  0  0  0
 24 25  3  0  0  0  0
 26 23  2  0  0  0  0
 26 27  1  0  0  0  0
 27 28  1  0  0  0  0
 28 29  2  0  0  0  0
 28 34  1  0  0  0  0
 29 30  1  0  0  0  0
 30 32  2  0  0  0  0
 31 30  1  0  0  0  0
 32 62  1  0  0  0  0
 33 32  1  0  0  0  0
 33 63  1  0  0  0  0
 34 64  1  0  0  0  0
 34 33  2  0  0  0  0
 35 26  1  0  0  0  0
 36 35  2  0  0  0  0
 36 65  1  0  0  0  0
 37 38  1  0  0  0  0
 38 40  2  0  0  0  0
 38 39  1  0  0  0  0
 39 67  1  0  0  0  0
 42 70  1  0  0  0  0
 42  2  1  0  0  0  0
 43 42  1  0  0  0  0
 45  4  1  0  0  0  0
 46  7  1  0  0  0  0
 47  7  1  0  0  0  0
 48  9  1  0  0  0  0
 51 10  1  0  0  0  0
 52 10  1  0  0  0  0
 54 14  1  0  0  0  0
 56 18  1  0  0  0  0
 57 18  1  0  0  0  0
 58 19  1  0  0  0  0
 60 27  1  0  0  0  0
 61 29  1  0  0  0  0
 66 37  1  0  0  0  0
 68 39  1  0  0  0  0
 69 39  1  0  0  0  0
 71 43  1  0  0  0  0
 72 43  1  0  0  0  0
 73 43  1  0  0  0  0
 75 11  1  0  0  0  0
M  END
