75
-1 1
O        -6.583515   -3.346624   -1.320151
C        -5.822569   -2.663928   -0.641575
C        -5.772403   -2.820219    0.885666
C        -4.472625   -3.460512    1.425255
S        -2.948450   -2.508282    1.105073
C        -1.929783   -3.392539   -0.228666
C        -2.733304   -4.325515   -1.141054
N        -3.263951   -5.542511   -0.540847
C        -2.235973   -6.477650   -0.151286
C        -4.272664   -6.153883   -1.373337
C        -1.180070   -2.349273   -0.959749
C         0.205765   -2.271914   -0.823764
O         0.977129   -3.014361   -0.199766
N         0.808148   -1.165184   -1.561182
C         2.160311   -0.897722   -1.462697
C         3.167988   -1.876368   -1.817808
O         2.937291   -3.070487   -2.373097
C         1.813343   -3.336860   -3.184179
C         4.500383   -1.581596   -1.596518
C         4.939351   -0.321957   -1.141015
N         6.275663   -0.117582   -0.959079
C         6.666372    1.064644   -0.580232
C         5.794560    2.171105   -0.360782
C         6.379756    3.447760   -0.091942
N         6.894942    4.466331    0.111263
C         4.416776    1.984704   -0.518875
N         3.494453    3.007927   -0.372432
C         3.438476    3.987207    0.621349
C         2.690394    5.147180    0.372979
C         2.580984    6.117858    1.361368
Br         1.557408    7.677615    1.003149
C         3.210633    5.983042    2.595521
C         3.953377    4.826483    2.828516
C         4.063611    3.830559    1.865966
C         3.964379    0.691020   -0.912546
C         2.596629    0.349116   -1.044694
N        -6.921399   -3.618192    1.243138
C        -7.481240   -3.609006    2.474304
C        -8.696826   -4.505749    2.637610
O        -7.045416   -2.951020    3.403133
H        -5.876443   -1.821927    1.343261
N        -5.002355   -1.722269   -1.149033
C        -4.835038   -1.524390   -2.567595
H        -4.594672   -3.540861    2.514125
H        -4.339752   -4.465507    1.001318
H        -3.576666   -3.775097   -1.581609
H        -2.052142   -4.572802   -1.986995
H        -1.656574   -6.864446   -1.021374
H        -2.686965   -7.338229    0.367278
H        -1.522796   -6.006101    0.538274
H        -3.876002   -6.487774   -2.360756
H        -5.092649   -5.442528   -1.558200
H        -4.694388   -7.038013   -0.868792
H         0.225668   -0.337210   -1.571473
H         0.935209   -3.609357   -2.584597
H         2.101500   -4.189355   -3.815019
H         1.565989   -2.480235   -3.829670
H         5.249015   -2.336713   -1.835471
H         7.742517    1.223831   -0.441754
H         2.663788    2.918897   -0.942672
H         2.208421    5.287535   -0.596043
H         3.121061    6.759047    3.355860
H         4.449463    4.693416    3.791949
H         4.629736    2.923229    2.079567
H         1.827636    1.059598   -0.731410
H        -7.349086   -4.099931    0.457490
H        -8.426689   -5.342092    3.298886
H        -9.076756   -4.909881    1.689153
H        -9.489200   -3.933211    3.138237
H        -4.258737   -1.406086   -0.519386
H        -4.856090   -0.451849   -2.812739
H        -5.657223   -2.029889   -3.088894
H        -3.878618   -1.943698   -2.922854
H        -1.184917   -3.975268    0.330838
H        -1.717103   -1.651374   -1.610712
