75
-1 1
O         1.345138    0.961977   -1.854849
C         0.732418    0.637983   -0.853059
C         1.026602   -0.650556   -0.073647
C         2.066255   -0.343715    1.017795
S         2.616786   -1.809680    1.943295
C         0.687506   -1.601519    3.698782
C         1.369903   -2.559038    4.644477
N         1.033282   -2.284513    6.039063
C        -0.297984   -2.683405    6.418301
C         2.027545   -2.796957    6.948413
C        -0.581609   -1.845999    3.238473
C        -1.438865   -0.813339    2.705286
O        -1.116742    0.323232    2.382455
N        -2.792497   -1.211402    2.608564
C        -3.848524   -0.332410    2.352005
C        -3.905871    0.466387    1.155763
O        -2.993745    0.394824    0.178946
C        -2.753402   -0.854030   -0.457061
C        -4.928046    1.382330    1.007979
C        -5.972964    1.508568    1.948321
N        -6.942949    2.442038    1.724297
C        -7.918821    2.521019    2.579253
C        -8.060137    1.686850    3.729025
C        -9.266430    1.795219    4.490011
N       -10.262886    1.904657    5.071754
C        -7.071447    0.736324    3.999444
N        -7.127657   -0.142616    5.061510
C        -7.582252    0.086308    6.366001
C        -7.561805    1.365390    6.935856
C        -8.011197    1.534638    8.240034
Br        -8.011855    3.277494    8.984375
C        -8.451507    0.462564    9.012571
C        -8.438703   -0.809371    8.443743
C        -8.019890   -1.001560    7.132163
C        -5.977878    0.646418    3.079837
C        -4.879640   -0.227502    3.265467
N         1.526965   -1.684105   -0.940516
C         0.802949   -2.208626   -1.946679
C         1.487654   -3.321116   -2.721515
O        -0.310726   -1.812457   -2.262959
H         0.100410   -0.990373    0.417167
N        -0.228457    1.394563   -0.268483
C        -0.666710    2.649406   -0.811192
H         2.932238    0.142906    0.539673
H         1.611773    0.390572    1.699849
H         2.453787   -2.441886    4.531710
H         1.122356   -3.607426    4.361025
H        -0.506091   -2.370406    7.454206
H        -0.454012   -3.788127    6.359260
H        -1.038634   -2.205181    5.762564
H         3.020847   -2.399966    6.691216
H         2.097222   -3.910922    6.943818
H         1.795589   -2.485440    7.979939
H        -3.032332   -2.023264    3.162441
H        -1.926835   -0.712564   -1.162800
H        -3.658374   -1.175753   -1.000165
H        -2.465105   -1.632209    0.263070
H        -4.950751    2.007530    0.115603
H        -8.699123    3.267871    2.391013
H        -6.661700   -1.027896    4.914928
H        -7.198455    2.219613    6.363846
H        -8.798201    0.619185   10.034168
H        -8.778868   -1.664717    9.031041
H        -8.041696   -1.998722    6.686997
H        -4.787495   -0.803248    4.189514
H         2.320693   -2.195506   -0.559992
H         1.939406   -2.887693   -3.626569
H         0.730952   -4.051437   -3.035807
H         2.276310   -3.824462   -2.144626
H        -0.676758    1.050544    0.580371
H        -0.164491    2.797674   -1.776232
H        -0.413972    3.496195   -0.149939
H        -1.757478    2.643333   -0.964822
H        -0.982710   -2.863612    3.300387
H         1.021630   -0.562920    3.748194
