75
-1 1
O         4.534885    0.118533   -4.960067
C         4.358971   -0.116539   -3.778387
C         4.695903   -1.465805   -3.133291
C         6.081678   -1.367040   -2.440104
S         6.847073   -2.976561   -2.051706
C         3.807852   -1.506528    0.412093
C         4.819893   -2.527685    0.783372
N         5.732543   -2.056377    1.801444
C         5.120457   -1.945307    3.099630
C         6.973326   -2.798379    1.825279
C         2.567046   -1.750463   -0.036256
C         1.686437   -0.640341   -0.456200
O         2.033219    0.525119   -0.528509
N         0.396126   -1.026452   -0.767687
C        -0.641470   -0.118107   -1.051976
C        -0.557728    0.830135   -2.128842
O         0.427754    0.881359   -3.021227
C         0.949565   -0.303367   -3.619489
C        -1.554872    1.785273   -2.244050
C        -2.688562    1.801247   -1.410165
N        -3.621155    2.783095   -1.596085
C        -4.679480    2.763152   -0.843714
C        -4.955166    1.777487    0.153587
C        -6.235896    1.812477    0.788921
N        -7.288643    1.869622    1.270350
C        -4.013859    0.770287    0.383471
N        -4.190595   -0.252055    1.290019
C        -4.816864   -0.215865    2.543747
C        -4.841678    0.953410    3.313366
C        -5.461590    0.933809    4.557133
Br        -5.520432    2.532873    5.571589
C        -6.030571   -0.226528    5.076942
C        -5.972554   -1.390589    4.313428
C        -5.382619   -1.390310    3.054423
C        -2.827493    0.788340   -0.419495
C        -1.760178   -0.122087   -0.244401
N         4.719495   -2.521618   -4.104858
C         3.607304   -3.012183   -4.677445
C         3.832595   -4.195365   -5.602042
O         2.486829   -2.542596   -4.513268
H         3.931514   -1.692384   -2.368641
N         3.907650    0.815454   -2.894215
C         3.536273    2.146752   -3.298143
H         6.749699   -0.787860   -3.098488
H         5.942801   -0.761375   -1.527678
H         5.411622   -2.754403   -0.141988
H         4.323265   -3.488361    1.058110
H         5.817636   -1.476481    3.812589
H         4.815538   -2.932168    3.524875
H         4.218080   -1.315008    3.048215
H         7.396070   -2.840122    0.809703
H         6.841385   -3.844414    2.188705
H         7.694418   -2.301078    2.494082
H         0.136787   -1.984941   -0.576209
H         1.507482    0.016619   -4.505253
H         0.132775   -0.975547   -3.924234
H         1.639628   -0.848776   -2.971040
H        -1.478251    2.530316   -3.035514
H        -5.427308    3.549492   -1.001230
H        -3.717207   -1.117085    1.066865
H        -4.382911    1.869867    2.940796
H        -6.510454   -0.219112    6.055772
H        -6.412556   -2.311234    4.701925
H        -5.369411   -2.300704    2.451184
H        -1.764243   -0.821688    0.594632
H         5.558793   -3.105686   -4.023256
H         3.901075   -3.824030   -6.635838
H         2.966130   -4.866255   -5.537762
H         4.753686   -4.747547   -5.368622
H         3.642601    0.531926   -1.956683
H         3.765990    2.247096   -4.366830
H         4.103563    2.909131   -2.739221
H         2.460677    2.320621   -3.139149
H         2.191481   -2.776956   -0.103405
H         4.140460   -0.462145    0.460398
