-1 1
 OpenBabel05232414493D

 75 76  0  0  1  0  0  0  0  0999 V2000
    1.3451    0.9620   -1.8548 O   0  0  0  0  0  0  0  0  0  0  0  0
    0.7324    0.6380   -0.8531 C   0  0  0  0  0  0  0  0  0  0  0  0
    1.0266   -0.6506   -0.0736 C   0  0  2  0  0  0  0  0  0  0  0  0
    2.0663   -0.3437    1.0178 C   0  0  0  0  0  0  0  0  0  0  0  0
    2.6168   -1.8097    1.9433 S   0  0  0  0  0  1  0  0  0  0  0  0
    0.6875   -1.6015    3.6988 C   0  0  0  0  0  3  0  0  0  0  0  0
    1.3699   -2.5590    4.6445 C   0  0  0  0  0  0  0  0  0  0  0  0
    1.0333   -2.2845    6.0391 N   0  0  0  0  0  0  0  0  0  0  0  0
   -0.2980   -2.6834    6.4183 C   0  0  0  0  0  0  0  0  0  0  0  0
    2.0275   -2.7970    6.9484 C   0  0  0  0  0  0  0  0  0  0  0  0
   -0.5816   -1.8460    3.2385 C   0  0  0  0  0  3  0  0  0  0  0  0
   -1.4389   -0.8133    2.7053 C   0  0  0  0  0  0  0  0  0  0  0  0
   -1.1167    0.3232    2.3825 O   0  0  0  0  0  0  0  0  0  0  0  0
   -2.7925   -1.2114    2.6086 N   0  0  0  0  0  0  0  0  0  0  0  0
   -3.8485   -0.3324    2.3520 C   0  0  0  0  0  0  0  0  0  0  0  0
   -3.9059    0.4664    1.1558 C   0  0  0  0  0  0  0  0  0  0  0  0
   -2.9937    0.3948    0.1789 O   0  0  0  0  0  0  0  0  0  0  0  0
   -2.7534   -0.8540   -0.4571 C   0  0  0  0  0  0  0  0  0  0  0  0
   -4.9280    1.3823    1.0080 C   0  0  0  0  0  0  0  0  0  0  0  0
   -5.9730    1.5086    1.9483 C   0  0  0  0  0  0  0  0  0  0  0  0
   -6.9429    2.4420    1.7243 N   0  0  0  0  0  0  0  0  0  0  0  0
   -7.9188    2.5210    2.5793 C   0  0  0  0  0  0  0  0  0  0  0  0
   -8.0601    1.6868    3.7290 C   0  0  0  0  0  0  0  0  0  0  0  0
   -9.2664    1.7952    4.4900 C   0  0  0  0  0  0  0  0  0  0  0  0
  -10.2629    1.9047    5.0718 N   0  0  0  0  0  0  0  0  0  0  0  0
   -7.0714    0.7363    3.9994 C   0  0  0  0  0  0  0  0  0  0  0  0
   -7.1277   -0.1426    5.0615 N   0  0  0  0  0  0  0  0  0  0  0  0
   -7.5823    0.0863    6.3660 C   0  0  0  0  0  0  0  0  0  0  0  0
   -7.5618    1.3654    6.9359 C   0  0  0  0  0  0  0  0  0  0  0  0
   -8.0112    1.5346    8.2400 C   0  0  0  0  0  0  0  0  0  0  0  0
   -8.0119    3.2775    8.9844 Br  0  0  0  0  0  0  0  0  0  0  0  0
   -8.4515    0.4626    9.0126 C   0  0  0  0  0  0  0  0  0  0  0  0
   -8.4387   -0.8094    8.4437 C   0  0  0  0  0  0  0  0  0  0  0  0
   -8.0199   -1.0016    7.1322 C   0  0  0  0  0  0  0  0  0  0  0  0
   -5.9779    0.6464    3.0798 C   0  0  0  0  0  0  0  0  0  0  0  0
   -4.8796   -0.2275    3.2655 C   0  0  0  0  0  0  0  0  0  0  0  0
    1.5270   -1.6841   -0.9405 N   0  0  0  0  0  0  0  0  0  0  0  0
    0.8029   -2.2086   -1.9467 C   0  0  0  0  0  0  0  0  0  0  0  0
    1.4877   -3.3211   -2.7215 C   0  0  0  0  0  0  0  0  0  0  0  0
   -0.3107   -1.8125   -2.2630 O   0  0  0  0  0  0  0  0  0  0  0  0
    0.1004   -0.9904    0.4172 H   0  0  0  0  0  0  0  0  0  0  0  0
   -0.2285    1.3946   -0.2685 N   0  0  0  0  0  0  0  0  0  0  0  0
   -0.6667    2.6494   -0.8112 C   0  0  0  0  0  0  0  0  0  0  0  0
    2.9322    0.1429    0.5397 H   0  0  0  0  0  0  0  0  0  0  0  0
    1.6118    0.3906    1.6998 H   0  0  0  0  0  0  0  0  0  0  0  0
    2.4538   -2.4419    4.5317 H   0  0  0  0  0  0  0  0  0  0  0  0
    1.1224   -3.6074    4.3610 H   0  0  0  0  0  0  0  0  0  0  0  0
   -0.5061   -2.3704    7.4542 H   0  0  0  0  0  0  0  0  0  0  0  0
   -0.4540   -3.7881    6.3593 H   0  0  0  0  0  0  0  0  0  0  0  0
   -1.0386   -2.2052    5.7626 H   0  0  0  0  0  0  0  0  0  0  0  0
    3.0208   -2.4000    6.6912 H   0  0  0  0  0  0  0  0  0  0  0  0
    2.0972   -3.9109    6.9438 H   0  0  0  0  0  0  0  0  0  0  0  0
    1.7956   -2.4854    7.9799 H   0  0  0  0  0  0  0  0  0  0  0  0
   -3.0323   -2.0233    3.1624 H   0  0  0  0  0  0  0  0  0  0  0  0
   -1.9268   -0.7126   -1.1628 H   0  0  0  0  0  0  0  0  0  0  0  0
   -3.6584   -1.1758   -1.0002 H   0  0  0  0  0  0  0  0  0  0  0  0
   -2.4651   -1.6322    0.2631 H   0  0  0  0  0  0  0  0  0  0  0  0
   -4.9508    2.0075    0.1156 H   0  0  0  0  0  0  0  0  0  0  0  0
   -8.6991    3.2679    2.3910 H   0  0  0  0  0  0  0  0  0  0  0  0
   -6.6617   -1.0279    4.9149 H   0  0  0  0  0  0  0  0  0  0  0  0
   -7.1985    2.2196    6.3638 H   0  0  0  0  0  0  0  0  0  0  0  0
   -8.7982    0.6192   10.0342 H   0  0  0  0  0  0  0  0  0  0  0  0
   -8.7789   -1.6647    9.0310 H   0  0  0  0  0  0  0  0  0  0  0  0
   -8.0417   -1.9987    6.6870 H   0  0  0  0  0  0  0  0  0  0  0  0
   -4.7875   -0.8032    4.1895 H   0  0  0  0  0  0  0  0  0  0  0  0
    2.3207   -2.1955   -0.5600 H   0  0  0  0  0  0  0  0  0  0  0  0
    1.9394   -2.8877   -3.6266 H   0  0  0  0  0  0  0  0  0  0  0  0
    0.7310   -4.0514   -3.0358 H   0  0  0  0  0  0  0  0  0  0  0  0
    2.2763   -3.8245   -2.1446 H   0  0  0  0  0  0  0  0  0  0  0  0
   -0.6768    1.0505    0.5804 H   0  0  0  0  0  0  0  0  0  0  0  0
   -0.1645    2.7977   -1.7762 H   0  0  0  0  0  0  0  0  0  0  0  0
   -0.4140    3.4962   -0.1499 H   0  0  0  0  0  0  0  0  0  0  0  0
   -1.7575    2.6433   -0.9648 H   0  0  0  0  0  0  0  0  0  0  0  0
   -0.9827   -2.8636    3.3004 H   0  0  0  0  0  0  0  0  0  0  0  0
    1.0216   -0.5629    3.7482 H   0  0  0  0  0  0  0  0  0  0  0  0
  1  2  2  0  0  0  0
  2 42  1  0  0  0  0
  2  3  1  0  0  0  0
  3 41  1  1  0  0  0
  3  4  1  0  0  0  0
  4 45  1  0  0  0  0
  4  5  1  0  0  0  0
  6 75  1  0  0  0  0
  6  7  1  0  0  0  0
  7  8  1  0  0  0  0
  8  9  1  0  0  0  0
  8 10  1  0  0  0  0
  9 48  1  0  0  0  0
 10 53  1  0  0  0  0
 11 74  1  0  0  0  0
 11  6  1  0  0  0  0
 12 11  1  0  0  0  0
 13 12  2  0  0  0  0
 14 12  1  0  0  0  0
 14 54  1  0  0  0  0
 15 14  1  0  0  0  0
 15 36  1  0  0  0  0
 16 15  2  0  0  0  0
 17 16  1  0  0  0  0
 18 17  1  0  0  0  0
 18 57  1  0  0  0  0
 19 16  1  0  0  0  0
 19 20  2  0  0  0  0
 20 35  1  0  0  0  0
 21 20  1  0  0  0  0
 21 22  2  0  0  0  0
 22 23  1  0  0  0  0
 23 26  2  0  0  0  0
 23 24  1  0  0  0  0
 24 25  3  0  0  0  0
 26 27  1  0  0  0  0
 27 28  1  0  0  0  0
 28 29  2  0  0  0  0
 28 34  1  0  0  0  0
 29 30  1  0  0  0  0
 30 31  1  0  0  0  0
 30 32  2  0  0  0  0
 32 62  1  0  0  0  0
 33 32  1  0  0  0  0
 33 63  1  0  0  0  0
 34 33  2  0  0  0  0
 35 36  2  0  0  0  0
 35 26  1  0  0  0  0
 36 65  1  0  0  0  0
 37 66  1  0  0  0  0
 37  3  1  0  0  0  0
 38 37  1  0  0  0  0
 39 69  1  0  0  0  0
 39 38  1  0  0  0  0
 40 38  2  0  0  0  0
 42 70  1  0  0  0  0
 43 42  1  0  0  0  0
 43 72  1  0  0  0  0
 44  4  1  0  0  0  0
 46  7  1  0  0  0  0
 47  7  1  0  0  0  0
 49  9  1  0  0  0  0
 50  9  1  0  0  0  0
 51 10  1  0  0  0  0
 52 10  1  0  0  0  0
 55 18  1  0  0  0  0
 56 18  1  0  0  0  0
 58 19  1  0  0  0  0
 59 22  1  0  0  0  0
 60 27  1  0  0  0  0
 61 29  1  0  0  0  0
 64 34  1  0  0  0  0
 67 39  1  0  0  0  0
 68 39  1  0  0  0  0
 71 43  1  0  0  0  0
 73 43  1  0  0  0  0
M  END
