78
-1 1
O         6.026746    1.999704   -3.183741
C         5.967515    0.782271   -3.267107
C         4.912603   -0.041140   -2.507501
C         4.094983    0.851625   -1.563672
S         2.980725   -0.064910   -0.455597
C         1.561074   -0.930783   -2.177767
C         0.948709    0.045833   -2.953974
C         1.598321    0.653648   -4.181910
N         2.613085   -0.176326   -4.800842
C         2.082250   -1.348585   -5.451576
C         3.505655    0.567461   -5.655590
C        -0.211721    0.678272   -2.368561
N        -0.673581    1.842592   -3.034648
C        -1.692479    2.632161   -2.505331
C        -2.830462    2.873438   -3.248483
C        -1.571936    3.251109   -1.205827
O        -0.514364    3.170561   -0.403532
C         0.838932    3.069818   -0.858154
C         1.721878    3.690607    0.198937
C        -2.629520    4.012362   -0.734013
C        -3.795986    4.248057   -1.485624
C        -3.905354    3.667092   -2.781389
C        -5.099470    3.895987   -3.531641
N        -5.257302    3.268123   -4.751913
C        -5.876534    3.754816   -5.908953
C        -5.934736    5.125006   -6.189966
C        -6.545895    5.570759   -7.355406
Cl        -6.646484    7.271263   -7.693809
C        -7.073297    4.658415   -8.267447
F        -7.652908    5.087876   -9.385728
C        -6.994358    3.297240   -8.009799
C        -6.410160    2.846463   -6.831855
C        -6.078217    4.711237   -2.952823
C        -7.363931    4.923938   -3.540387
N        -8.419212    5.112481   -3.982273
C        -5.826782    5.278450   -1.666950
N        -4.758964    5.062341   -0.958757
O        -0.775565    0.347227   -1.333176
N         5.457225   -1.164167   -1.750288
C         5.751470   -2.363695   -2.290132
C         5.809338   -3.516210   -1.308711
O         5.949231   -2.546998   -3.490252
H         4.231627   -0.438767   -3.281882
N         6.762208    0.051597   -4.086473
C         7.758320    0.653382   -4.928615
H         4.781610    1.464627   -0.959841
H         3.522430    1.557184   -2.182112
H         2.075271    1.621151   -3.936518
H         0.817904    0.903360   -4.948930
H         1.403523   -1.880718   -4.771186
H         2.901552   -2.029928   -5.729792
H         1.508760   -1.098761   -6.375575
H         3.953226    1.406224   -5.100594
H         2.998566    0.982301   -6.558481
H         4.327444   -0.082164   -5.995316
H        -0.492952    1.931068   -4.025319
H        -2.876675    2.399491   -4.231489
H         0.943867    3.591315   -1.822890
H         1.119641    2.014162   -0.981154
H         1.492338    4.757196    0.344907
H         2.774380    3.584734   -0.101572
H         1.592830    3.161530    1.153527
H        -2.534641    4.488458    0.241523
H        -4.748630    2.401318   -4.861432
H        -5.508606    5.853722   -5.500032
H        -7.415652    2.600289   -8.735679
H        -6.377220    1.776714   -6.616243
H        -6.599320    5.926138   -1.235189
H         5.056901   -1.183027   -0.806281
H         6.106383   -3.194646   -0.301294
H         6.505925   -4.274998   -1.685516
H         4.806732   -3.965856   -1.240795
H         6.581900   -0.956352   -4.124492
H         7.505322    0.554839   -5.998686
H         8.749517    0.198287   -4.768395
H         7.812672    1.722176   -4.683552
H         2.362631   -1.536768   -2.601255
H         0.950249   -1.408047   -1.412119
