-1 1
 OpenBabel05232414493D

 78 79  0  0  1  0  0  0  0  0999 V2000
    6.0267    1.9997   -3.1837 O   0  0  0  0  0  0  0  0  0  0  0  0
    5.9675    0.7823   -3.2671 C   0  0  0  0  0  0  0  0  0  0  0  0
    4.9126   -0.0411   -2.5075 C   0  0  2  0  0  0  0  0  0  0  0  0
    4.0950    0.8516   -1.5637 C   0  0  0  0  0  0  0  0  0  0  0  0
    2.9807   -0.0649   -0.4556 S   0  0  0  0  0  1  0  0  0  0  0  0
    1.5611   -0.9308   -2.1778 C   0  0  0  0  0  3  0  0  0  0  0  0
    0.9487    0.0458   -2.9540 C   0  0  2  0  0  3  0  0  0  0  0  0
    1.5983    0.6536   -4.1819 C   0  0  0  0  0  0  0  0  0  0  0  0
    2.6131   -0.1763   -4.8008 N   0  0  0  0  0  0  0  0  0  0  0  0
    2.0823   -1.3486   -5.4516 C   0  0  0  0  0  0  0  0  0  0  0  0
    3.5057    0.5675   -5.6556 C   0  0  0  0  0  0  0  0  0  0  0  0
   -0.2117    0.6783   -2.3686 C   0  0  0  0  0  0  0  0  0  0  0  0
   -0.6736    1.8426   -3.0346 N   0  0  0  0  0  0  0  0  0  0  0  0
   -1.6925    2.6322   -2.5053 C   0  0  0  0  0  0  0  0  0  0  0  0
   -2.8305    2.8734   -3.2485 C   0  0  0  0  0  0  0  0  0  0  0  0
   -1.5719    3.2511   -1.2058 C   0  0  0  0  0  0  0  0  0  0  0  0
   -0.5144    3.1706   -0.4035 O   0  0  0  0  0  0  0  0  0  0  0  0
    0.8389    3.0698   -0.8582 C   0  0  0  0  0  0  0  0  0  0  0  0
    1.7219    3.6906    0.1989 C   0  0  0  0  0  0  0  0  0  0  0  0
   -2.6295    4.0124   -0.7340 C   0  0  0  0  0  0  0  0  0  0  0  0
   -3.7960    4.2481   -1.4856 C   0  0  0  0  0  0  0  0  0  0  0  0
   -3.9054    3.6671   -2.7814 C   0  0  0  0  0  0  0  0  0  0  0  0
   -5.0995    3.8960   -3.5316 C   0  0  0  0  0  0  0  0  0  0  0  0
   -5.2573    3.2681   -4.7519 N   0  0  0  0  0  0  0  0  0  0  0  0
   -5.8765    3.7548   -5.9090 C   0  0  0  0  0  0  0  0  0  0  0  0
   -5.9347    5.1250   -6.1900 C   0  0  0  0  0  0  0  0  0  0  0  0
   -6.5459    5.5708   -7.3554 C   0  0  0  0  0  0  0  0  0  0  0  0
   -6.6465    7.2713   -7.6938 Cl  0  0  0  0  0  0  0  0  0  0  0  0
   -7.0733    4.6584   -8.2674 C   0  0  0  0  0  0  0  0  0  0  0  0
   -7.6529    5.0879   -9.3857 F   0  0  0  0  0  0  0  0  0  0  0  0
   -6.9944    3.2972   -8.0098 C   0  0  0  0  0  0  0  0  0  0  0  0
   -6.4102    2.8465   -6.8319 C   0  0  0  0  0  0  0  0  0  0  0  0
   -6.0782    4.7112   -2.9528 C   0  0  0  0  0  0  0  0  0  0  0  0
   -7.3639    4.9239   -3.5404 C   0  0  0  0  0  0  0  0  0  0  0  0
   -8.4192    5.1125   -3.9823 N   0  0  0  0  0  0  0  0  0  0  0  0
   -5.8268    5.2785   -1.6669 C   0  0  0  0  0  0  0  0  0  0  0  0
   -4.7590    5.0623   -0.9588 N   0  0  0  0  0  0  0  0  0  0  0  0
   -0.7756    0.3472   -1.3332 O   0  0  0  0  0  0  0  0  0  0  0  0
    5.4572   -1.1642   -1.7503 N   0  0  0  0  0  0  0  0  0  0  0  0
    5.7515   -2.3637   -2.2901 C   0  0  0  0  0  0  0  0  0  0  0  0
    5.8093   -3.5162   -1.3087 C   0  0  0  0  0  0  0  0  0  0  0  0
    5.9492   -2.5470   -3.4903 O   0  0  0  0  0  0  0  0  0  0  0  0
    4.2316   -0.4388   -3.2819 H   0  0  0  0  0  0  0  0  0  0  0  0
    6.7622    0.0516   -4.0865 N   0  0  0  0  0  0  0  0  0  0  0  0
    7.7583    0.6534   -4.9286 C   0  0  0  0  0  0  0  0  0  0  0  0
    4.7816    1.4646   -0.9598 H   0  0  0  0  0  0  0  0  0  0  0  0
    3.5224    1.5572   -2.1821 H   0  0  0  0  0  0  0  0  0  0  0  0
    2.0753    1.6212   -3.9365 H   0  0  0  0  0  0  0  0  0  0  0  0
    0.8179    0.9034   -4.9489 H   0  0  0  0  0  0  0  0  0  0  0  0
    1.4035   -1.8807   -4.7712 H   0  0  0  0  0  0  0  0  0  0  0  0
    2.9016   -2.0299   -5.7298 H   0  0  0  0  0  0  0  0  0  0  0  0
    1.5088   -1.0988   -6.3756 H   0  0  0  0  0  0  0  0  0  0  0  0
    3.9532    1.4062   -5.1006 H   0  0  0  0  0  0  0  0  0  0  0  0
    2.9986    0.9823   -6.5585 H   0  0  0  0  0  0  0  0  0  0  0  0
    4.3274   -0.0822   -5.9953 H   0  0  0  0  0  0  0  0  0  0  0  0
   -0.4930    1.9311   -4.0253 H   0  0  0  0  0  0  0  0  0  0  0  0
   -2.8767    2.3995   -4.2315 H   0  0  0  0  0  0  0  0  0  0  0  0
    0.9439    3.5913   -1.8229 H   0  0  0  0  0  0  0  0  0  0  0  0
    1.1196    2.0142   -0.9812 H   0  0  0  0  0  0  0  0  0  0  0  0
    1.4923    4.7572    0.3449 H   0  0  0  0  0  0  0  0  0  0  0  0
    2.7744    3.5847   -0.1016 H   0  0  0  0  0  0  0  0  0  0  0  0
    1.5928    3.1615    1.1535 H   0  0  0  0  0  0  0  0  0  0  0  0
   -2.5346    4.4885    0.2415 H   0  0  0  0  0  0  0  0  0  0  0  0
   -4.7486    2.4013   -4.8614 H   0  0  0  0  0  0  0  0  0  0  0  0
   -5.5086    5.8537   -5.5000 H   0  0  0  0  0  0  0  0  0  0  0  0
   -7.4157    2.6003   -8.7357 H   0  0  0  0  0  0  0  0  0  0  0  0
   -6.3772    1.7767   -6.6162 H   0  0  0  0  0  0  0  0  0  0  0  0
   -6.5993    5.9261   -1.2352 H   0  0  0  0  0  0  0  0  0  0  0  0
    5.0569   -1.1830   -0.8063 H   0  0  0  0  0  0  0  0  0  0  0  0
    6.1064   -3.1946   -0.3013 H   0  0  0  0  0  0  0  0  0  0  0  0
    6.5059   -4.2750   -1.6855 H   0  0  0  0  0  0  0  0  0  0  0  0
    4.8067   -3.9659   -1.2408 H   0  0  0  0  0  0  0  0  0  0  0  0
    6.5819   -0.9564   -4.1245 H   0  0  0  0  0  0  0  0  0  0  0  0
    7.5053    0.5548   -5.9987 H   0  0  0  0  0  0  0  0  0  0  0  0
    8.7495    0.1983   -4.7684 H   0  0  0  0  0  0  0  0  0  0  0  0
    7.8127    1.7222   -4.6836 H   0  0  0  0  0  0  0  0  0  0  0  0
    2.3626   -1.5368   -2.6013 H   0  0  0  0  0  0  0  0  0  0  0  0
    0.9502   -1.4080   -1.4121 H   0  0  0  0  0  0  0  0  0  0  0  0
  2  1  2  0  0  0  0
  2  3  1  0  0  0  0
  3 43  1  6  0  0  0
  3 39  1  0  0  0  0
  3  4  1  0  0  0  0
  4 46  1  0  0  0  0
  4  5  1  0  0  0  0
  6 78  1  0  0  0  0
  7 12  1  1  0  0  0
  7  6  1  0  0  0  0
  8 48  1  0  0  0  0
  8  7  1  0  0  0  0
  9  8  1  0  0  0  0
 10  9  1  0  0  0  0
 10 50  1  0  0  0  0
 11 53  1  0  0  0  0
 11  9  1  0  0  0  0
 12 38  2  0  0  0  0
 13 14  1  0  0  0  0
 13 12  1  0  0  0  0
 14 16  1  0  0  0  0
 15 22  1  0  0  0  0
 15 14  2  0  0  0  0
 16 20  2  0  0  0  0
 16 17  1  0  0  0  0
 18 17  1  0  0  0  0
 18 19  1  0  0  0  0
 19 60  1  0  0  0  0
 19 62  1  0  0  0  0
 20 63  1  0  0  0  0
 21 37  1  0  0  0  0
 21 20  1  0  0  0  0
 22 21  2  0  0  0  0
 23 33  2  0  0  0  0
 23 22  1  0  0  0  0
 24 23  1  0  0  0  0
 25 24  1  0  0  0  0
 26 25  1  0  0  0  0
 26 65  1  0  0  0  0
 27 26  2  0  0  0  0
 28 27  1  0  0  0  0
 29 31  2  0  0  0  0
 29 27  1  0  0  0  0
 30 29  1  0  0  0  0
 31 32  1  0  0  0  0
 32 67  1  0  0  0  0
 32 25  2  0  0  0  0
 33 36  1  0  0  0  0
 34 33  1  0  0  0  0
 35 34  3  0  0  0  0
 36 68  1  0  0  0  0
 36 37  2  0  0  0  0
 39 69  1  0  0  0  0
 40 39  1  0  0  0  0
 40 41  1  0  0  0  0
 41 72  1  0  0  0  0
 41 70  1  0  0  0  0
 42 40  2  0  0  0  0
 44  2  1  0  0  0  0
 45 75  1  0  0  0  0
 45 76  1  0  0  0  0
 45 44  1  0  0  0  0
 47  4  1  0  0  0  0
 49  8  1  0  0  0  0
 51 10  1  0  0  0  0
 52 10  1  0  0  0  0
 54 11  1  0  0  0  0
 55 11  1  0  0  0  0
 56 13  1  0  0  0  0
 57 15  1  0  0  0  0
 58 18  1  0  0  0  0
 59 18  1  0  0  0  0
 61 19  1  0  0  0  0
 64 24  1  0  0  0  0
 66 31  1  0  0  0  0
 71 41  1  0  0  0  0
 73 44  1  0  0  0  0
 74 45  1  0  0  0  0
 77  6  1  0  0  0  0
M  END
