78
-1 1
O         8.088807   -1.439038    0.785707
C         7.321676   -2.253217    0.299543
C         5.961827   -2.600281    0.936596
C         5.664382   -1.648684    2.094227
S         4.219229   -2.094933    3.107971
C         2.892341   -2.464991    1.823826
C         2.270769   -1.335834    1.100145
C         3.035730   -0.662512    0.000688
N         3.552852   -1.578773   -1.023665
C         2.531551   -2.346512   -1.685633
C         4.446437   -0.933481   -1.947746
C         1.041693   -0.893588    1.606451
N         0.377759    0.159099    0.839664
C        -0.801240    0.714350    1.291945
C        -1.925446    0.730990    0.482604
C        -0.896223    1.356524    2.586889
O         0.115654    1.510293    3.446056
C         1.452349    1.765649    3.031100
C         2.157890    2.431445    4.192054
C        -2.105936    1.888590    2.989400
C        -3.256772    1.879157    2.174007
C        -3.163765    1.289427    0.880782
C        -4.334105    1.270563    0.065542
N        -4.294241    0.622980   -1.158793
C        -4.866119    1.018435   -2.369536
C        -5.197286    2.353865   -2.631866
C        -5.752646    2.706039   -3.855979
Cl        -6.189022    4.358071   -4.172880
C        -5.955773    1.743938   -4.842976
F        -6.484156    2.086330   -6.016726
C        -5.606116    0.423024   -4.601385
C        -5.075163    0.058745   -3.369883
C        -5.493874    1.861962    0.578496
C        -6.755412    1.800548   -0.091525
N        -7.794293    1.762867   -0.605094
C        -5.443195    2.469032    1.867651
N        -4.392771    2.476145    2.635837
O         0.453242   -1.281697    2.625900
N         5.901174   -3.984298    1.396297
C         5.568926   -5.013055    0.582644
C         5.103545   -6.270698    1.284915
O         5.612704   -4.946800   -0.640897
H         5.189348   -2.469964    0.154506
N         7.551556   -2.910144   -0.862829
C         8.773752   -2.764968   -1.605306
H         6.522869   -1.622067    2.781983
H         5.560177   -0.634112    1.690147
H         3.929675   -0.131313    0.387737
H         2.425516    0.139231   -0.472526
H         1.867826   -2.790856   -0.929793
H         2.986469   -3.152796   -2.282920
H         1.899898   -1.726071   -2.367507
H         5.257461   -0.426482   -1.399766
H         3.940823   -0.166832   -2.582645
H         4.908317   -1.676291   -2.617782
H         0.405155    0.014613   -0.162066
H        -1.826862    0.262317   -0.499487
H         1.446256    2.419600    2.142663
H         1.964036    0.830091    2.766456
H         1.676331    3.383936    4.460511
H         3.208536    2.625289    3.929776
H         2.140445    1.770915    5.070837
H        -2.161772    2.379593    3.960666
H        -3.634469   -0.141010   -1.218206
H        -5.026493    3.127614   -1.883261
H        -5.774090   -0.316477   -5.385728
H        -4.827625   -0.986440   -3.173696
H        -6.355486    2.943264    2.248715
H         5.648696   -4.071152    2.379084
H         5.538484   -6.381411    2.287689
H         5.354506   -7.141395    0.667272
H         4.008479   -6.222838    1.388065
H         6.863615   -3.619874   -1.127211
H         8.575620   -2.467779   -2.647939
H         9.358370   -3.700418   -1.619425
H         9.375212   -1.983116   -1.123657
H         3.347446   -3.214578    1.157076
H         2.131568   -2.960025    2.442760
