78
-1 1
O         2.394133   -0.422333   -0.341301
C         3.585310   -0.723938   -0.483076
C         4.382162   -1.335033    0.672399
C         3.887152   -0.766236    2.023487
S         4.919202   -1.238273    3.446202
C         2.342940   -3.964687    2.390825
C         1.504928   -3.462000    1.483528
C         1.643583   -3.663744   -0.011901
N         2.690276   -4.584198   -0.393492
C         2.296885   -5.967313   -0.270502
C         3.288831   -4.288489   -1.673455
C         0.354532   -2.598803    1.936941
N         0.402831   -1.320771    1.439867
C        -0.588813   -0.362045    1.712252
C        -1.232389    0.228400    0.645640
C        -0.937335    0.040110    3.046493
O        -0.311221   -0.374825    4.147840
C         1.116304   -0.490328    4.187997
C         1.594551   -0.154354    5.579488
C        -1.988445    0.926425    3.218515
C        -2.677480    1.500666    2.134003
C        -2.282565    1.160265    0.808616
C        -2.976086    1.763962   -0.291293
N        -2.634782    1.404680   -1.573557
C        -2.688190    2.182897   -2.741808
C        -2.449027    3.560918   -2.712798
C        -2.497170    4.298974   -3.888855
Cl        -2.235721    6.014696   -3.857890
C        -2.745373    3.664826   -5.105323
F        -2.784046    4.371578   -6.231084
C        -2.952872    2.293399   -5.145635
C        -2.937204    1.555810   -3.967395
C        -4.006095    2.659506    0.017783
C        -4.869193    3.235975   -0.965173
N        -5.599935    3.715867   -1.726925
C        -4.284044    2.941687    1.390895
N        -3.670838    2.403341    2.400469
O        -0.527653   -2.987661    2.675067
N         5.827382   -1.171853    0.641578
C         6.702376   -1.706665   -0.219588
C         8.132622   -1.779231    0.271639
O         6.413282   -2.120721   -1.348259
H         4.146263   -2.418729    0.651610
N         4.195652   -0.595104   -1.670521
C         3.461839   -0.156425   -2.829990
H         3.828112    0.332084    1.929901
H         2.864948   -1.130936    2.155830
H         1.846037   -2.686836   -0.476192
H         0.651736   -3.976977   -0.416328
H         1.875574   -6.154794    0.727390
H         3.170232   -6.625579   -0.399572
H         1.530424   -6.264098   -1.024140
H         3.706686   -3.271879   -1.680004
H         2.574772   -4.383926   -2.524586
H         4.126331   -4.977407   -1.860610
H         1.179296   -1.026353    0.825792
H        -0.885880   -0.077740   -0.343465
H         1.563768    0.191243    3.448399
H         1.418426   -1.513971    3.928524
H         1.337479    0.881066    5.848547
H         2.687934   -0.276570    5.601615
H         1.141957   -0.832010    6.318506
H        -2.261048    1.230012    4.228884
H        -2.133663    0.531059   -1.661212
H        -2.231543    4.067824   -1.772187
H        -3.147204    1.820057   -6.109049
H        -3.132383    0.482175   -3.993079
H        -5.088055    3.655218    1.608685
H         6.137567   -1.044144    1.627142
H         8.313242   -1.153160    1.155003
H         8.807015   -1.491446   -0.545553
H         8.349193   -2.825400    0.535299
H         5.090308   -1.097575   -1.780382
H         2.762281   -0.929536   -3.195000
H         4.168006    0.085949   -3.635148
H         2.869277    0.737295   -2.589862
H         3.211524   -4.548420    2.079537
H         2.216283   -3.763312    3.455982
