-1 1
 OpenBabel05192410563D

 78 80  0  0  1  0  0  0  0  0999 V2000
    8.0888   -1.4390    0.7857 O   0  0  0  0  0  0  0  0  0  0  0  0
    7.3217   -2.2532    0.2995 C   0  0  0  0  0  0  0  0  0  0  0  0
    5.9618   -2.6003    0.9366 C   0  0  2  0  0  0  0  0  0  0  0  0
    5.6644   -1.6487    2.0942 C   0  0  0  0  0  0  0  0  0  0  0  0
    4.2192   -2.0949    3.1080 S   0  0  0  0  0  0  0  0  0  0  0  0
    2.8923   -2.4650    1.8238 C   0  0  0  0  0  0  0  0  0  0  0  0
    2.2708   -1.3358    1.1001 C   0  0  2  0  0  3  0  0  0  0  0  0
    3.0357   -0.6625    0.0007 C   0  0  0  0  0  0  0  0  0  0  0  0
    3.5529   -1.5788   -1.0237 N   0  0  0  0  0  0  0  0  0  0  0  0
    2.5316   -2.3465   -1.6856 C   0  0  0  0  0  0  0  0  0  0  0  0
    4.4464   -0.9335   -1.9477 C   0  0  0  0  0  0  0  0  0  0  0  0
    1.0417   -0.8936    1.6065 C   0  0  0  0  0  0  0  0  0  0  0  0
    0.3778    0.1591    0.8397 N   0  0  0  0  0  0  0  0  0  0  0  0
   -0.8012    0.7144    1.2919 C   0  0  0  0  0  0  0  0  0  0  0  0
   -1.9254    0.7310    0.4826 C   0  0  0  0  0  0  0  0  0  0  0  0
   -0.8962    1.3565    2.5869 C   0  0  0  0  0  0  0  0  0  0  0  0
    0.1157    1.5103    3.4461 O   0  0  0  0  0  0  0  0  0  0  0  0
    1.4523    1.7656    3.0311 C   0  0  0  0  0  0  0  0  0  0  0  0
    2.1579    2.4314    4.1921 C   0  0  0  0  0  0  0  0  0  0  0  0
   -2.1059    1.8886    2.9894 C   0  0  0  0  0  0  0  0  0  0  0  0
   -3.2568    1.8792    2.1740 C   0  0  0  0  0  0  0  0  0  0  0  0
   -3.1638    1.2894    0.8808 C   0  0  0  0  0  0  0  0  0  0  0  0
   -4.3341    1.2706    0.0655 C   0  0  0  0  0  0  0  0  0  0  0  0
   -4.2942    0.6230   -1.1588 N   0  0  0  0  0  0  0  0  0  0  0  0
   -4.8661    1.0184   -2.3695 C   0  0  0  0  0  0  0  0  0  0  0  0
   -5.1973    2.3539   -2.6319 C   0  0  0  0  0  0  0  0  0  0  0  0
   -5.7526    2.7060   -3.8560 C   0  0  0  0  0  0  0  0  0  0  0  0
   -6.1890    4.3581   -4.1729 Cl  0  0  0  0  0  0  0  0  0  0  0  0
   -5.9558    1.7439   -4.8430 C   0  0  0  0  0  0  0  0  0  0  0  0
   -6.4842    2.0863   -6.0167 F   0  0  0  0  0  0  0  0  0  0  0  0
   -5.6061    0.4230   -4.6014 C   0  0  0  0  0  0  0  0  0  0  0  0
   -5.0752    0.0587   -3.3699 C   0  0  0  0  0  0  0  0  0  0  0  0
   -5.4939    1.8620    0.5785 C   0  0  0  0  0  0  0  0  0  0  0  0
   -6.7554    1.8005   -0.0915 C   0  0  0  0  0  0  0  0  0  0  0  0
   -7.7943    1.7629   -0.6051 N   0  0  0  0  0  0  0  0  0  0  0  0
   -5.4432    2.4690    1.8677 C   0  0  0  0  0  0  0  0  0  0  0  0
   -4.3928    2.4761    2.6358 N   0  0  0  0  0  0  0  0  0  0  0  0
    0.4532   -1.2817    2.6259 O   0  0  0  0  0  0  0  0  0  0  0  0
    5.9012   -3.9843    1.3963 N   0  0  0  0  0  0  0  0  0  0  0  0
    5.5689   -5.0131    0.5826 C   0  0  0  0  0  0  0  0  0  0  0  0
    5.1035   -6.2707    1.2849 C   0  0  0  0  0  0  0  0  0  0  0  0
    5.6127   -4.9468   -0.6409 O   0  0  0  0  0  0  0  0  0  0  0  0
    5.1893   -2.4700    0.1545 H   0  0  0  0  0  0  0  0  0  0  0  0
    7.5516   -2.9101   -0.8628 N   0  0  0  0  0  0  0  0  0  0  0  0
    8.7738   -2.7650   -1.6053 C   0  0  0  0  0  0  0  0  0  0  0  0
    6.5229   -1.6221    2.7820 H   0  0  0  0  0  0  0  0  0  0  0  0
    5.5602   -0.6341    1.6901 H   0  0  0  0  0  0  0  0  0  0  0  0
    3.9297   -0.1313    0.3877 H   0  0  0  0  0  0  0  0  0  0  0  0
    2.4255    0.1392   -0.4725 H   0  0  0  0  0  0  0  0  0  0  0  0
    1.8678   -2.7909   -0.9298 H   0  0  0  0  0  0  0  0  0  0  0  0
    2.9865   -3.1528   -2.2829 H   0  0  0  0  0  0  0  0  0  0  0  0
    1.8999   -1.7261   -2.3675 H   0  0  0  0  0  0  0  0  0  0  0  0
    5.2575   -0.4265   -1.3998 H   0  0  0  0  0  0  0  0  0  0  0  0
    3.9408   -0.1668   -2.5826 H   0  0  0  0  0  0  0  0  0  0  0  0
    4.9083   -1.6763   -2.6178 H   0  0  0  0  0  0  0  0  0  0  0  0
    0.4052    0.0146   -0.1621 H   0  0  0  0  0  0  0  0  0  0  0  0
   -1.8269    0.2623   -0.4995 H   0  0  0  0  0  0  0  0  0  0  0  0
    1.4463    2.4196    2.1427 H   0  0  0  0  0  0  0  0  0  0  0  0
    1.9640    0.8301    2.7665 H   0  0  0  0  0  0  0  0  0  0  0  0
    1.6763    3.3839    4.4605 H   0  0  0  0  0  0  0  0  0  0  0  0
    3.2085    2.6253    3.9298 H   0  0  0  0  0  0  0  0  0  0  0  0
    2.1404    1.7709    5.0708 H   0  0  0  0  0  0  0  0  0  0  0  0
   -2.1618    2.3796    3.9607 H   0  0  0  0  0  0  0  0  0  0  0  0
   -3.6345   -0.1410   -1.2182 H   0  0  0  0  0  0  0  0  0  0  0  0
   -5.0265    3.1276   -1.8833 H   0  0  0  0  0  0  0  0  0  0  0  0
   -5.7741   -0.3165   -5.3857 H   0  0  0  0  0  0  0  0  0  0  0  0
   -4.8276   -0.9864   -3.1737 H   0  0  0  0  0  0  0  0  0  0  0  0
   -6.3555    2.9433    2.2487 H   0  0  0  0  0  0  0  0  0  0  0  0
    5.6487   -4.0712    2.3791 H   0  0  0  0  0  0  0  0  0  0  0  0
    5.5385   -6.3814    2.2877 H   0  0  0  0  0  0  0  0  0  0  0  0
    5.3545   -7.1414    0.6673 H   0  0  0  0  0  0  0  0  0  0  0  0
    4.0085   -6.2228    1.3881 H   0  0  0  0  0  0  0  0  0  0  0  0
    6.8636   -3.6199   -1.1272 H   0  0  0  0  0  0  0  0  0  0  0  0
    8.5756   -2.4678   -2.6479 H   0  0  0  0  0  0  0  0  0  0  0  0
    9.3584   -3.7004   -1.6194 H   0  0  0  0  0  0  0  0  0  0  0  0
    9.3752   -1.9831   -1.1237 H   0  0  0  0  0  0  0  0  0  0  0  0
    3.3474   -3.2146    1.1571 H   0  0  0  0  0  0  0  0  0  0  0  0
    2.1316   -2.9600    2.4428 H   0  0  0  0  0  0  0  0  0  0  0  0
  2  1  2  0  0  0  0
  2  3  1  0  0  0  0
  3 43  1  6  0  0  0
  3 39  1  0  0  0  0
  3  4  1  0  0  0  0
  4 46  1  0  0  0  0
  4  5  1  0  0  0  0
  6 78  1  0  0  0  0
  6  5  1  0  0  0  0
  7 12  1  1  0  0  0
  7  6  1  0  0  0  0
  8 48  1  0  0  0  0
  8  7  1  0  0  0  0
  9  8  1  0  0  0  0
 10  9  1  0  0  0  0
 10 50  1  0  0  0  0
 11 53  1  0  0  0  0
 11  9  1  0  0  0  0
 12 38  2  0  0  0  0
 13 14  1  0  0  0  0
 13 12  1  0  0  0  0
 14 16  1  0  0  0  0
 15 22  1  0  0  0  0
 15 14  2  0  0  0  0
 16 20  2  0  0  0  0
 16 17  1  0  0  0  0
 18 17  1  0  0  0  0
 18 19  1  0  0  0  0
 19 60  1  0  0  0  0
 19 62  1  0  0  0  0
 20 63  1  0  0  0  0
 21 37  1  0  0  0  0
 21 20  1  0  0  0  0
 22 21  2  0  0  0  0
 23 33  2  0  0  0  0
 23 22  1  0  0  0  0
 24 23  1  0  0  0  0
 25 24  1  0  0  0  0
 26 25  1  0  0  0  0
 26 65  1  0  0  0  0
 27 26  2  0  0  0  0
 28 27  1  0  0  0  0
 29 31  2  0  0  0  0
 29 27  1  0  0  0  0
 30 29  1  0  0  0  0
 31 32  1  0  0  0  0
 32 67  1  0  0  0  0
 32 25  2  0  0  0  0
 33 36  1  0  0  0  0
 34 33  1  0  0  0  0
 35 34  3  0  0  0  0
 36 68  1  0  0  0  0
 36 37  2  0  0  0  0
 39 69  1  0  0  0  0
 40 41  1  0  0  0  0
 40 39  1  0  0  0  0
 41 72  1  0  0  0  0
 41 70  1  0  0  0  0
 42 40  2  0  0  0  0
 44  2  1  0  0  0  0
 45 76  1  0  0  0  0
 45 44  1  0  0  0  0
 47  4  1  0  0  0  0
 49  8  1  0  0  0  0
 51 10  1  0  0  0  0
 52 10  1  0  0  0  0
 54 11  1  0  0  0  0
 55 11  1  0  0  0  0
 56 13  1  0  0  0  0
 57 15  1  0  0  0  0
 58 18  1  0  0  0  0
 59 18  1  0  0  0  0
 61 19  1  0  0  0  0
 64 24  1  0  0  0  0
 66 31  1  0  0  0  0
 71 41  1  0  0  0  0
 73 44  1  0  0  0  0
 74 45  1  0  0  0  0
 75 45  1  0  0  0  0
 77  6  1  0  0  0  0
M  END
