76
-1 1
O        -0.586562   -1.297739    1.648014
C        -0.257711   -0.406234    2.422986
C         0.840178    0.583203    2.055824
C         2.208149   -0.123775    2.248016
S         3.643372    0.951987    2.546585
C         4.024240    1.590948    0.814053
C         2.919094    2.278801    0.114891
C         2.646473    3.692055    0.506486
N         3.663556    4.661124    0.058439
C         3.856182    4.735869   -1.376623
C         2.817292    5.620490   -2.064945
O         2.759109    6.901408   -1.478833
C         2.481215    6.834107   -0.100195
C         3.527978    5.987382    0.624133
C         2.123870    1.492223   -0.732179
N         1.108530    2.174691   -1.479778
C        -0.090588    1.661660   -1.914557
C        -0.939585    2.508115   -2.687161
C        -2.150825    2.072914   -3.158743
C        -0.534082    0.371610   -1.633432
C        -1.799511   -0.070768   -2.071813
C        -2.620515    0.767807   -2.874613
N        -3.821503    0.377942   -3.396704
C        -4.240476   -0.816496   -3.106434
C        -3.546084   -1.739399   -2.262459
C        -4.247047   -2.936212   -1.912312
N        -4.878288   -3.875968   -1.660604
C        -2.301095   -1.381391   -1.730636
N        -1.561024   -2.158222   -0.879056
C        -1.506816   -3.550465   -0.801135
C        -1.251452   -4.142485    0.444182
C        -1.141504   -5.522822    0.547150
Cl        -0.823232   -6.264597    2.092769
C        -1.294629   -6.330003   -0.578096
F        -1.199184   -7.657017   -0.472925
C        -1.536819   -5.750259   -1.814859
C        -1.629564   -4.368925   -1.932479
O         2.208596    0.255826   -0.878290
N         0.771716    1.814742    2.810870
C        -0.195166    2.738004    2.514309
C         0.053880    4.133924    3.051816
O        -1.189840    2.457945    1.877112
H         0.695198    0.784365    0.988510
N        -0.768816   -0.282722    3.663523
C        -1.844916   -1.096396    4.165323
H         2.167713   -0.785498    3.126660
H         2.395406   -0.726362    1.350263
H         2.649493    3.777191    1.613184
H         1.617435    3.987398    0.202896
H         3.828799    3.711954   -1.782402
H         4.857285    5.157257   -1.582894
H         1.811816    5.148451   -2.019181
H         3.061587    5.764142   -3.128039
H         1.467715    6.409912    0.062766
H         2.474675    7.868344    0.277138
H         3.276039    5.904575    1.694766
H         4.499826    6.511027    0.551769
H         1.215957    3.172037   -1.587693
H        -0.600904    3.522786   -2.918234
H        -2.789146    2.716894   -3.766225
H         0.144400   -0.287586   -1.096280
H        -5.208272   -1.130920   -3.515963
H        -1.032529   -1.664080   -0.152323
H        -1.127291   -3.506376    1.321718
H        -1.643558   -6.398321   -2.685871
H        -1.798568   -3.920764   -2.912392
H         1.693111    2.155786    3.093608
H        -0.892461    4.547442    3.423696
H         0.394307    4.765587    2.217829
H         0.815256    4.162639    3.843444
H        -0.453879    0.525030    4.187328
H        -2.713072   -0.477764    4.440351
H        -1.534339   -1.684259    5.043881
H        -2.147801   -1.789370    3.370340
H         4.368598    0.711329    0.255498
H         4.877929    2.259447    1.010807
