-1 1
 OpenBabel05192410563D

 76 79  0  0  1  0  0  0  0  0999 V2000
   -0.5866   -1.2977    1.6480 O   0  0  0  0  0  0  0  0  0  0  0  0
   -0.2577   -0.4062    2.4230 C   0  0  0  0  0  0  0  0  0  0  0  0
    0.8402    0.5832    2.0558 C   0  0  2  0  0  0  0  0  0  0  0  0
    2.2081   -0.1238    2.2480 C   0  0  0  0  0  0  0  0  0  0  0  0
    3.6434    0.9520    2.5466 S   0  0  0  0  0  0  0  0  0  0  0  0
    4.0242    1.5909    0.8141 C   0  0  0  0  0  0  0  0  0  0  0  0
    2.9191    2.2788    0.1149 C   0  0  2  0  0  3  0  0  0  0  0  0
    2.6465    3.6921    0.5065 C   0  0  0  0  0  0  0  0  0  0  0  0
    3.6636    4.6611    0.0584 N   0  0  0  0  0  0  0  0  0  0  0  0
    3.8562    4.7359   -1.3766 C   0  0  0  0  0  0  0  0  0  0  0  0
    2.8173    5.6205   -2.0649 C   0  0  0  0  0  0  0  0  0  0  0  0
    2.7591    6.9014   -1.4788 O   0  0  0  0  0  0  0  0  0  0  0  0
    2.4812    6.8341   -0.1002 C   0  0  0  0  0  0  0  0  0  0  0  0
    3.5280    5.9874    0.6241 C   0  0  0  0  0  0  0  0  0  0  0  0
    2.1239    1.4922   -0.7322 C   0  0  0  0  0  0  0  0  0  0  0  0
    1.1085    2.1747   -1.4798 N   0  0  0  0  0  0  0  0  0  0  0  0
   -0.0906    1.6617   -1.9146 C   0  0  0  0  0  0  0  0  0  0  0  0
   -0.9396    2.5081   -2.6872 C   0  0  0  0  0  0  0  0  0  0  0  0
   -2.1508    2.0729   -3.1587 C   0  0  0  0  0  0  0  0  0  0  0  0
   -0.5341    0.3716   -1.6334 C   0  0  0  0  0  0  0  0  0  0  0  0
   -1.7995   -0.0708   -2.0718 C   0  0  0  0  0  0  0  0  0  0  0  0
   -2.6205    0.7678   -2.8746 C   0  0  0  0  0  0  0  0  0  0  0  0
   -3.8215    0.3779   -3.3967 N   0  0  0  0  0  0  0  0  0  0  0  0
   -4.2405   -0.8165   -3.1064 C   0  0  0  0  0  0  0  0  0  0  0  0
   -3.5461   -1.7394   -2.2625 C   0  0  0  0  0  0  0  0  0  0  0  0
   -4.2470   -2.9362   -1.9123 C   0  0  0  0  0  0  0  0  0  0  0  0
   -4.8783   -3.8760   -1.6606 N   0  0  0  0  0  0  0  0  0  0  0  0
   -2.3011   -1.3814   -1.7306 C   0  0  0  0  0  0  0  0  0  0  0  0
   -1.5610   -2.1582   -0.8791 N   0  0  0  0  0  0  0  0  0  0  0  0
   -1.5068   -3.5505   -0.8011 C   0  0  0  0  0  0  0  0  0  0  0  0
   -1.2515   -4.1425    0.4442 C   0  0  0  0  0  0  0  0  0  0  0  0
   -1.1415   -5.5228    0.5472 C   0  0  0  0  0  0  0  0  0  0  0  0
   -0.8232   -6.2646    2.0928 Cl  0  0  0  0  0  0  0  0  0  0  0  0
   -1.2946   -6.3300   -0.5781 C   0  0  0  0  0  0  0  0  0  0  0  0
   -1.1992   -7.6570   -0.4729 F   0  0  0  0  0  0  0  0  0  0  0  0
   -1.5368   -5.7503   -1.8149 C   0  0  0  0  0  0  0  0  0  0  0  0
   -1.6296   -4.3689   -1.9325 C   0  0  0  0  0  0  0  0  0  0  0  0
    2.2086    0.2558   -0.8783 O   0  0  0  0  0  0  0  0  0  0  0  0
    0.7717    1.8147    2.8109 N   0  0  0  0  0  0  0  0  0  0  0  0
   -0.1952    2.7380    2.5143 C   0  0  0  0  0  0  0  0  0  0  0  0
    0.0539    4.1339    3.0518 C   0  0  0  0  0  0  0  0  0  0  0  0
   -1.1898    2.4579    1.8771 O   0  0  0  0  0  0  0  0  0  0  0  0
    0.6952    0.7844    0.9885 H   0  0  0  0  0  0  0  0  0  0  0  0
   -0.7688   -0.2827    3.6635 N   0  0  0  0  0  0  0  0  0  0  0  0
   -1.8449   -1.0964    4.1653 C   0  0  0  0  0  0  0  0  0  0  0  0
    2.1677   -0.7855    3.1267 H   0  0  0  0  0  0  0  0  0  0  0  0
    2.3954   -0.7264    1.3503 H   0  0  0  0  0  0  0  0  0  0  0  0
    2.6495    3.7772    1.6132 H   0  0  0  0  0  0  0  0  0  0  0  0
    1.6174    3.9874    0.2029 H   0  0  0  0  0  0  0  0  0  0  0  0
    3.8288    3.7120   -1.7824 H   0  0  0  0  0  0  0  0  0  0  0  0
    4.8573    5.1573   -1.5829 H   0  0  0  0  0  0  0  0  0  0  0  0
    1.8118    5.1485   -2.0192 H   0  0  0  0  0  0  0  0  0  0  0  0
    3.0616    5.7641   -3.1280 H   0  0  0  0  0  0  0  0  0  0  0  0
    1.4677    6.4099    0.0628 H   0  0  0  0  0  0  0  0  0  0  0  0
    2.4747    7.8683    0.2771 H   0  0  0  0  0  0  0  0  0  0  0  0
    3.2760    5.9046    1.6948 H   0  0  0  0  0  0  0  0  0  0  0  0
    4.4998    6.5110    0.5518 H   0  0  0  0  0  0  0  0  0  0  0  0
    1.2160    3.1720   -1.5877 H   0  0  0  0  0  0  0  0  0  0  0  0
   -0.6009    3.5228   -2.9182 H   0  0  0  0  0  0  0  0  0  0  0  0
   -2.7891    2.7169   -3.7662 H   0  0  0  0  0  0  0  0  0  0  0  0
    0.1444   -0.2876   -1.0963 H   0  0  0  0  0  0  0  0  0  0  0  0
   -5.2083   -1.1309   -3.5160 H   0  0  0  0  0  0  0  0  0  0  0  0
   -1.0325   -1.6641   -0.1523 H   0  0  0  0  0  0  0  0  0  0  0  0
   -1.1273   -3.5064    1.3217 H   0  0  0  0  0  0  0  0  0  0  0  0
   -1.6436   -6.3983   -2.6859 H   0  0  0  0  0  0  0  0  0  0  0  0
   -1.7986   -3.9208   -2.9124 H   0  0  0  0  0  0  0  0  0  0  0  0
    1.6931    2.1558    3.0936 H   0  0  0  0  0  0  0  0  0  0  0  0
   -0.8925    4.5474    3.4237 H   0  0  0  0  0  0  0  0  0  0  0  0
    0.3943    4.7656    2.2178 H   0  0  0  0  0  0  0  0  0  0  0  0
    0.8153    4.1626    3.8434 H   0  0  0  0  0  0  0  0  0  0  0  0
   -0.4539    0.5250    4.1873 H   0  0  0  0  0  0  0  0  0  0  0  0
   -2.7131   -0.4778    4.4404 H   0  0  0  0  0  0  0  0  0  0  0  0
   -1.5343   -1.6843    5.0439 H   0  0  0  0  0  0  0  0  0  0  0  0
   -2.1478   -1.7894    3.3703 H   0  0  0  0  0  0  0  0  0  0  0  0
    4.3686    0.7113    0.2555 H   0  0  0  0  0  0  0  0  0  0  0  0
    4.8779    2.2594    1.0108 H   0  0  0  0  0  0  0  0  0  0  0  0
  1  2  2  0  0  0  0
  2 44  1  0  0  0  0
  3 43  1  6  0  0  0
  3  4  1  0  0  0  0
  3  2  1  0  0  0  0
  3 39  1  0  0  0  0
  4  5  1  0  0  0  0
  4 46  1  0  0  0  0
  6 76  1  0  0  0  0
  6  5  1  0  0  0  0
  7 15  1  1  0  0  0
  7  8  1  0  0  0  0
  7  6  1  0  0  0  0
  8 48  1  0  0  0  0
  9  8  1  0  0  0  0
  9 14  1  0  0  0  0
 10  9  1  0  0  0  0
 11 52  1  0  0  0  0
 11 12  1  0  0  0  0
 11 10  1  0  0  0  0
 12 13  1  0  0  0  0
 13 54  1  0  0  0  0
 13 55  1  0  0  0  0
 13 14  1  0  0  0  0
 14 56  1  0  0  0  0
 16 15  1  0  0  0  0
 17 20  1  0  0  0  0
 17 16  1  0  0  0  0
 18 17  2  0  0  0  0
 19 22  2  0  0  0  0
 19 18  1  0  0  0  0
 20 61  1  0  0  0  0
 21 28  1  0  0  0  0
 21 20  2  0  0  0  0
 22 21  1  0  0  0  0
 23 24  2  0  0  0  0
 23 22  1  0  0  0  0
 24 25  1  0  0  0  0
 25 26  1  0  0  0  0
 25 28  2  0  0  0  0
 26 27  3  0  0  0  0
 28 29  1  0  0  0  0
 29 30  1  0  0  0  0
 29 63  1  0  0  0  0
 30 31  1  0  0  0  0
 31 32  2  0  0  0  0
 31 64  1  0  0  0  0
 32 33  1  0  0  0  0
 34 35  1  0  0  0  0
 34 32  1  0  0  0  0
 36 34  2  0  0  0  0
 37 36  1  0  0  0  0
 37 30  2  0  0  0  0
 38 15  2  0  0  0  0
 39 67  1  0  0  0  0
 40 39  1  0  0  0  0
 40 41  1  0  0  0  0
 41 68  1  0  0  0  0
 41 70  1  0  0  0  0
 42 40  2  0  0  0  0
 44 45  1  0  0  0  0
 44 71  1  0  0  0  0
 45 72  1  0  0  0  0
 45 73  1  0  0  0  0
 47  4  1  0  0  0  0
 49  8  1  0  0  0  0
 50 10  1  0  0  0  0
 51 10  1  0  0  0  0
 53 11  1  0  0  0  0
 57 14  1  0  0  0  0
 58 16  1  0  0  0  0
 59 18  1  0  0  0  0
 60 19  1  0  0  0  0
 62 24  1  0  0  0  0
 65 36  1  0  0  0  0
 66 37  1  0  0  0  0
 69 41  1  0  0  0  0
 74 45  1  0  0  0  0
 75  6  1  0  0  0  0
M  END
