64
-1 1
O         2.085210   -4.037102   -2.201577
C         2.084234   -3.617206   -1.050571
C         2.129653   -2.112913   -0.751308
C         0.770540   -1.557506   -0.248363
S        -0.006664   -2.317714    1.197254
C         0.623014   -0.760555    2.812076
C         1.260037    0.336029    2.230362
S         0.553230    1.856000    1.638505
C         2.620616    0.198450    1.784104
O         3.372096   -0.749199    1.974101
N         2.997145    1.313165    1.010033
C         2.056433    2.271045    0.751440
O         2.181755    3.247870    0.052378
C        -0.656451   -0.673836    3.561392
C        -0.751478   -1.290467    4.814310
C        -1.927015   -1.241456    5.560267
O        -2.010416   -1.891637    6.755679
C        -2.035598   -1.062326    7.896966
C        -3.034014   -0.565795    5.036547
O        -4.206285   -0.505414    5.767989
C        -4.954491   -1.613458    5.908420
C        -5.983272   -1.586681    6.866585
Br        -6.227468   -0.037094    7.922811
C        -6.810740   -2.683916    7.047322
C        -6.628469   -3.834657    6.274194
C        -7.541366   -4.982437    6.512006
O        -7.271480   -6.026016    5.715468
C        -8.093868   -7.165268    5.876511
O        -8.432731   -4.996573    7.325101
C        -5.606361   -3.865510    5.319438
C        -4.778283   -2.767872    5.136063
C        -2.960586    0.053995    3.794318
C        -1.781183   -0.001587    3.061055
N         2.501802   -1.467008   -1.993207
C         3.451094   -0.517050   -2.144751
C         3.697486   -0.084249   -3.579911
O         4.066325    0.001711   -1.227274
H         2.898480   -1.903256    0.010012
N         2.049580   -4.411901    0.040528
C         1.800774   -5.826480   -0.065380
H         0.936892   -0.492615   -0.008426
H         0.056600   -1.584199   -1.086748
H         3.781649    1.193728    0.368364
H         0.098881   -1.832201    5.233258
H        -2.080022   -1.723583    8.772066
H        -2.917343   -0.399910    7.903904
H        -1.122558   -0.444759    7.956966
H        -7.607661   -2.665347    7.792208
H        -8.017496   -7.564225    6.898753
H        -7.736120   -7.907445    5.153889
H        -9.147964   -6.920806    5.678815
H        -5.460631   -4.760389    4.714194
H        -3.979880   -2.792636    4.393156
H        -3.845259    0.562135    3.406761
H        -1.742087    0.445192    2.066733
H         2.200342   -1.987808   -2.811551
H         3.207807   -0.724424   -4.326582
H         4.780980   -0.069500   -3.758801
H         3.329118    0.945811   -3.694250
H         1.762855   -3.939688    0.901116
H         2.124488   -6.165015   -1.057708
H         0.729268   -6.065002    0.049765
H         2.365337   -6.373050    0.704696
H         1.347075   -1.456560    3.239366
