-1 1
 OpenBabel05232414493D

 64 65  0  0  1  0  0  0  0  0999 V2000
    2.0852   -4.0371   -2.2016 O   0  0  0  0  0  0  0  0  0  0  0  0
    2.0842   -3.6172   -1.0506 C   0  0  0  0  0  0  0  0  0  0  0  0
    2.1297   -2.1129   -0.7513 C   0  0  2  0  0  0  0  0  0  0  0  0
    0.7705   -1.5575   -0.2484 C   0  0  0  0  0  0  0  0  0  0  0  0
   -0.0067   -2.3177    1.1973 S   0  0  0  0  0  1  0  0  0  0  0  0
    0.6230   -0.7606    2.8121 C   0  0  0  0  0  3  0  0  0  0  0  0
    1.2600    0.3360    2.2304 C   0  0  2  0  0  3  0  0  0  0  0  0
    0.5532    1.8560    1.6385 S   0  0  0  0  0  0  0  0  0  0  0  0
    2.6206    0.1984    1.7841 C   0  0  0  0  0  0  0  0  0  0  0  0
    3.3721   -0.7492    1.9741 O   0  0  0  0  0  0  0  0  0  0  0  0
    2.9971    1.3132    1.0100 N   0  0  0  0  0  0  0  0  0  0  0  0
    2.0564    2.2710    0.7514 C   0  0  0  0  0  0  0  0  0  0  0  0
    2.1818    3.2479    0.0524 O   0  0  0  0  0  0  0  0  0  0  0  0
   -0.6565   -0.6738    3.5614 C   0  0  0  0  0  0  0  0  0  0  0  0
   -0.7515   -1.2905    4.8143 C   0  0  0  0  0  0  0  0  0  0  0  0
   -1.9270   -1.2415    5.5603 C   0  0  0  0  0  0  0  0  0  0  0  0
   -2.0104   -1.8916    6.7557 O   0  0  0  0  0  0  0  0  0  0  0  0
   -2.0356   -1.0623    7.8970 C   0  0  0  0  0  0  0  0  0  0  0  0
   -3.0340   -0.5658    5.0365 C   0  0  0  0  0  0  0  0  0  0  0  0
   -4.2063   -0.5054    5.7680 O   0  0  0  0  0  0  0  0  0  0  0  0
   -4.9545   -1.6135    5.9084 C   0  0  0  0  0  0  0  0  0  0  0  0
   -5.9833   -1.5867    6.8666 C   0  0  0  0  0  0  0  0  0  0  0  0
   -6.2275   -0.0371    7.9228 Br  0  0  0  0  0  0  0  0  0  0  0  0
   -6.8107   -2.6839    7.0473 C   0  0  0  0  0  0  0  0  0  0  0  0
   -6.6285   -3.8347    6.2742 C   0  0  0  0  0  0  0  0  0  0  0  0
   -7.5414   -4.9824    6.5120 C   0  0  0  0  0  0  0  0  0  0  0  0
   -7.2715   -6.0260    5.7155 O   0  0  0  0  0  0  0  0  0  0  0  0
   -8.0939   -7.1653    5.8765 C   0  0  0  0  0  0  0  0  0  0  0  0
   -8.4327   -4.9966    7.3251 O   0  0  0  0  0  0  0  0  0  0  0  0
   -5.6064   -3.8655    5.3194 C   0  0  0  0  0  0  0  0  0  0  0  0
   -4.7783   -2.7679    5.1361 C   0  0  0  0  0  0  0  0  0  0  0  0
   -2.9606    0.0540    3.7943 C   0  0  0  0  0  0  0  0  0  0  0  0
   -1.7812   -0.0016    3.0611 C   0  0  0  0  0  0  0  0  0  0  0  0
    2.5018   -1.4670   -1.9932 N   0  0  0  0  0  0  0  0  0  0  0  0
    3.4511   -0.5171   -2.1448 C   0  0  0  0  0  0  0  0  0  0  0  0
    3.6975   -0.0842   -3.5799 C   0  0  0  0  0  0  0  0  0  0  0  0
    4.0663    0.0017   -1.2273 O   0  0  0  0  0  0  0  0  0  0  0  0
    2.8985   -1.9033    0.0100 H   0  0  0  0  0  0  0  0  0  0  0  0
    2.0496   -4.4119    0.0405 N   0  0  0  0  0  0  0  0  0  0  0  0
    1.8008   -5.8265   -0.0654 C   0  0  0  0  0  0  0  0  0  0  0  0
    0.9369   -0.4926   -0.0084 H   0  0  0  0  0  0  0  0  0  0  0  0
    0.0566   -1.5842   -1.0867 H   0  0  0  0  0  0  0  0  0  0  0  0
    3.7816    1.1937    0.3684 H   0  0  0  0  0  0  0  0  0  0  0  0
    0.0989   -1.8322    5.2333 H   0  0  0  0  0  0  0  0  0  0  0  0
   -2.0800   -1.7236    8.7721 H   0  0  0  0  0  0  0  0  0  0  0  0
   -2.9173   -0.3999    7.9039 H   0  0  0  0  0  0  0  0  0  0  0  0
   -1.1226   -0.4448    7.9570 H   0  0  0  0  0  0  0  0  0  0  0  0
   -7.6077   -2.6653    7.7922 H   0  0  0  0  0  0  0  0  0  0  0  0
   -8.0175   -7.5642    6.8988 H   0  0  0  0  0  0  0  0  0  0  0  0
   -7.7361   -7.9074    5.1539 H   0  0  0  0  0  0  0  0  0  0  0  0
   -9.1480   -6.9208    5.6788 H   0  0  0  0  0  0  0  0  0  0  0  0
   -5.4606   -4.7604    4.7142 H   0  0  0  0  0  0  0  0  0  0  0  0
   -3.9799   -2.7926    4.3932 H   0  0  0  0  0  0  0  0  0  0  0  0
   -3.8453    0.5621    3.4068 H   0  0  0  0  0  0  0  0  0  0  0  0
   -1.7421    0.4452    2.0667 H   0  0  0  0  0  0  0  0  0  0  0  0
    2.2003   -1.9878   -2.8116 H   0  0  0  0  0  0  0  0  0  0  0  0
    3.2078   -0.7244   -4.3266 H   0  0  0  0  0  0  0  0  0  0  0  0
    4.7810   -0.0695   -3.7588 H   0  0  0  0  0  0  0  0  0  0  0  0
    3.3291    0.9458   -3.6942 H   0  0  0  0  0  0  0  0  0  0  0  0
    1.7629   -3.9397    0.9011 H   0  0  0  0  0  0  0  0  0  0  0  0
    2.1245   -6.1650   -1.0577 H   0  0  0  0  0  0  0  0  0  0  0  0
    0.7293   -6.0650    0.0498 H   0  0  0  0  0  0  0  0  0  0  0  0
    2.3653   -6.3731    0.7047 H   0  0  0  0  0  0  0  0  0  0  0  0
    1.3471   -1.4566    3.2394 H   0  0  0  0  0  0  0  0  0  0  0  0
  1  2  2  0  0  0  0
  2  3  1  0  0  0  0
  2 39  1  0  0  0  0
  3  4  1  0  0  0  0
  3 38  1  1  0  0  0
  4 41  1  0  0  0  0
  4  5  1  0  0  0  0
  6 64  1  0  0  0  0
  6 14  1  0  0  0  0
  7  6  1  6  0  0  0
  8  7  1  0  0  0  0
  9 10  2  0  0  0  0
  9  7  1  0  0  0  0
 11  9  1  0  0  0  0
 12 11  1  0  0  0  0
 12  8  1  0  0  0  0
 13 12  2  0  0  0  0
 14 15  1  0  0  0  0
 15 44  1  0  0  0  0
 15 16  2  0  0  0  0
 16 17  1  0  0  0  0
 17 18  1  0  0  0  0
 18 46  1  0  0  0  0
 18 47  1  0  0  0  0
 18 45  1  0  0  0  0
 19 16  1  0  0  0  0
 19 20  1  0  0  0  0
 20 21  1  0  0  0  0
 21 22  1  0  0  0  0
 22 24  2  0  0  0  0
 22 23  1  0  0  0  0
 24 48  1  0  0  0  0
 25 26  1  0  0  0  0
 25 24  1  0  0  0  0
 26 29  2  0  0  0  0
 27 28  1  0  0  0  0
 27 26  1  0  0  0  0
 28 49  1  0  0  0  0
 30 25  2  0  0  0  0
 31 30  1  0  0  0  0
 31 21  2  0  0  0  0
 32 19  2  0  0  0  0
 33 14  2  0  0  0  0
 33 32  1  0  0  0  0
 34  3  1  0  0  0  0
 35 34  1  0  0  0  0
 35 37  2  0  0  0  0
 36 35  1  0  0  0  0
 39 60  1  0  0  0  0
 40 39  1  0  0  0  0
 40 62  1  0  0  0  0
 40 63  1  0  0  0  0
 42  4  1  0  0  0  0
 43 11  1  0  0  0  0
 50 28  1  0  0  0  0
 51 28  1  0  0  0  0
 52 30  1  0  0  0  0
 53 31  1  0  0  0  0
 54 32  1  0  0  0  0
 55 33  1  0  0  0  0
 56 34  1  0  0  0  0
 57 36  1  0  0  0  0
 58 36  1  0  0  0  0
 59 36  1  0  0  0  0
 61 40  1  0  0  0  0
M  END
