-1 1
 OpenBabel05232413483D

 64 65  0  0  1  0  0  0  0  0999 V2000
    3.6501   -3.4176   -4.3488 O   0  0  0  0  0  0  0  0  0  0  0  0
    4.0799   -2.8023   -3.3752 C   0  0  0  0  0  0  0  0  0  0  0  0
    4.0751   -1.2637   -3.3489 C   0  0  2  0  0  0  0  0  0  0  0  0
    3.2144   -0.6917   -2.1954 C   0  0  0  0  0  0  0  0  0  0  0  0
    3.9048   -0.9119   -0.5194 S   0  0  0  0  0  1  0  0  0  0  0  0
    2.4860    2.1822   -0.0596 C   0  0  0  0  0  0  0  0  0  0  0  0
    2.4615    2.6895   -1.3006 C   0  0  0  0  0  0  0  0  0  0  0  0
    1.0525    2.9608   -2.3388 S   0  0  0  0  0  0  0  0  0  0  0  0
    3.7210    2.8426   -2.0897 C   0  0  0  0  0  0  0  0  0  0  0  0
    4.8383    2.8451   -1.6483 O   0  0  0  0  0  0  0  0  0  0  0  0
    3.4115    2.9500   -3.4463 N   0  0  0  0  0  0  0  0  0  0  0  0
    2.0924    2.9613   -3.8108 C   0  0  0  0  0  0  0  0  0  0  0  0
    1.6504    2.9743   -4.9299 O   0  0  0  0  0  0  0  0  0  0  0  0
    1.3029    1.8656    0.7569 C   0  0  0  0  0  0  0  0  0  0  0  0
    1.2251    0.6154    1.3910 C   0  0  0  0  0  0  0  0  0  0  0  0
    0.1100    0.2863    2.1522 C   0  0  0  0  0  0  0  0  0  0  0  0
   -0.0139   -0.9417    2.7252 O   0  0  0  0  0  0  0  0  0  0  0  0
    0.3348   -1.0050    4.0898 C   0  0  0  0  0  0  0  0  0  0  0  0
   -0.9342    1.2145    2.2874 C   0  0  0  0  0  0  0  0  0  0  0  0
   -2.0223    0.9060    3.0763 O   0  0  0  0  0  0  0  0  0  0  0  0
   -2.8737   -0.0652    2.6970 C   0  0  0  0  0  0  0  0  0  0  0  0
   -3.7966   -0.5270    3.6508 C   0  0  0  0  0  0  0  0  0  0  0  0
   -3.7548    0.1841    5.4025 Br  0  0  0  0  0  0  0  0  0  0  0  0
   -4.7257   -1.5018    3.3215 C   0  0  0  0  0  0  0  0  0  0  0  0
   -4.7511   -2.0382    2.0307 C   0  0  0  0  0  0  0  0  0  0  0  0
   -5.7640   -3.0848    1.7342 C   0  0  0  0  0  0  0  0  0  0  0  0
   -5.6887   -3.5278    0.4723 O   0  0  0  0  0  0  0  0  0  0  0  0
   -6.6118   -4.5347    0.1052 C   0  0  0  0  0  0  0  0  0  0  0  0
   -6.5728   -3.5029    2.5259 O   0  0  0  0  0  0  0  0  0  0  0  0
   -3.8328   -1.5824    1.0789 C   0  0  0  0  0  0  0  0  0  0  0  0
   -2.9053   -0.6044    1.4061 C   0  0  0  0  0  0  0  0  0  0  0  0
   -0.8681    2.4547    1.6684 C   0  0  0  0  0  0  0  0  0  0  0  0
    0.2515    2.7801    0.9051 C   0  0  0  0  0  0  0  0  0  0  0  0
    3.5871   -0.8568   -4.6522 N   0  0  0  0  0  0  0  0  0  0  0  0
    3.9713    0.2444   -5.3158 C   0  0  0  0  0  0  0  0  0  0  0  0
    3.3338    0.4552   -6.6731 C   0  0  0  0  0  0  0  0  0  0  0  0
    4.7552    1.0753   -4.8581 O   0  0  0  0  0  0  0  0  0  0  0  0
    5.1026   -0.8883   -3.2159 H   0  0  0  0  0  0  0  0  0  0  0  0
    4.5721   -3.3830   -2.2686 N   0  0  0  0  0  0  0  0  0  0  0  0
    4.5029   -4.8050   -2.0635 C   0  0  0  0  0  0  0  0  0  0  0  0
    3.1050    0.3822   -2.4123 H   0  0  0  0  0  0  0  0  0  0  0  0
    2.2030   -1.1283   -2.2734 H   0  0  0  0  0  0  0  0  0  0  0  0
    4.1083    2.6168   -4.1319 H   0  0  0  0  0  0  0  0  0  0  0  0
    2.0210   -0.1216    1.2237 H   0  0  0  0  0  0  0  0  0  0  0  0
    0.1892   -2.0443    4.4104 H   0  0  0  0  0  0  0  0  0  0  0  0
   -0.3055   -0.3467    4.7028 H   0  0  0  0  0  0  0  0  0  0  0  0
    1.3916   -0.7258    4.2417 H   0  0  0  0  0  0  0  0  0  0  0  0
   -5.4413   -1.8640    4.0610 H   0  0  0  0  0  0  0  0  0  0  0  0
   -6.4845   -5.4309    0.7299 H   0  0  0  0  0  0  0  0  0  0  0  0
   -6.4048   -4.7736   -0.9441 H   0  0  0  0  0  0  0  0  0  0  0  0
   -7.6467   -4.1791    0.2168 H   0  0  0  0  0  0  0  0  0  0  0  0
   -3.8450   -2.0012    0.0727 H   0  0  0  0  0  0  0  0  0  0  0  0
   -2.1850   -0.2552    0.6653 H   0  0  0  0  0  0  0  0  0  0  0  0
   -1.6955    3.1546    1.7958 H   0  0  0  0  0  0  0  0  0  0  0  0
    0.3156    3.7627    0.4322 H   0  0  0  0  0  0  0  0  0  0  0  0
    3.1035   -1.6041   -5.1451 H   0  0  0  0  0  0  0  0  0  0  0  0
    2.7927   -0.4255   -7.0450 H   0  0  0  0  0  0  0  0  0  0  0  0
    4.1146    0.7437   -7.3895 H   0  0  0  0  0  0  0  0  0  0  0  0
    2.6328    1.2987   -6.5783 H   0  0  0  0  0  0  0  0  0  0  0  0
    4.6473   -2.7523   -1.4463 H   0  0  0  0  0  0  0  0  0  0  0  0
    4.3837   -5.2995   -3.0363 H   0  0  0  0  0  0  0  0  0  0  0  0
    3.6476   -5.0855   -1.4247 H   0  0  0  0  0  0  0  0  0  0  0  0
    5.4239   -5.1699   -1.5831 H   0  0  0  0  0  0  0  0  0  0  0  0
    3.4761    1.9119    0.3216 H   0  0  0  0  0  0  0  0  0  0  0  0
  1  2  2  0  0  0  0
  2  3  1  0  0  0  0
  2 39  1  0  0  0  0
  3 38  1  1  0  0  0
  3  4  1  0  0  0  0
  4  5  1  0  0  0  0
  6 64  1  0  0  0  0
  6 14  1  0  0  0  0
  7  6  2  0  0  0  0
  8  7  1  0  0  0  0
  9 10  2  0  0  0  0
  9  7  1  0  0  0  0
 11  9  1  0  0  0  0
 12 11  1  0  0  0  0
 12  8  1  0  0  0  0
 13 12  2  0  0  0  0
 14 33  2  0  0  0  0
 14 15  1  0  0  0  0
 15 16  2  0  0  0  0
 16 19  1  0  0  0  0
 16 17  1  0  0  0  0
 17 18  1  0  0  0  0
 18 47  1  0  0  0  0
 18 45  1  0  0  0  0
 18 46  1  0  0  0  0
 19 20  1  0  0  0  0
 21 20  1  0  0  0  0
 21 22  1  0  0  0  0
 22 23  1  0  0  0  0
 24 22  2  0  0  0  0
 24 48  1  0  0  0  0
 25 24  1  0  0  0  0
 26 25  1  0  0  0  0
 26 29  2  0  0  0  0
 27 26  1  0  0  0  0
 28 51  1  0  0  0  0
 28 27  1  0  0  0  0
 28 49  1  0  0  0  0
 30 31  1  0  0  0  0
 30 25  2  0  0  0  0
 31 21  2  0  0  0  0
 32 54  1  0  0  0  0
 32 19  2  0  0  0  0
 33 32  1  0  0  0  0
 34  3  1  0  0  0  0
 35 37  2  0  0  0  0
 35 34  1  0  0  0  0
 36 59  1  0  0  0  0
 36 35  1  0  0  0  0
 39 40  1  0  0  0  0
 39 60  1  0  0  0  0
 40 63  1  0  0  0  0
 40 62  1  0  0  0  0
 41  4  1  0  0  0  0
 42  4  1  0  0  0  0
 43 11  1  0  0  0  0
 44 15  1  0  0  0  0
 50 28  1  0  0  0  0
 52 30  1  0  0  0  0
 53 31  1  0  0  0  0
 55 33  1  0  0  0  0
 56 34  1  0  0  0  0
 57 36  1  0  0  0  0
 58 36  1  0  0  0  0
 61 40  1  0  0  0  0
M  END
