64
-1 1
O         3.650103   -3.417557   -4.348774
C         4.079858   -2.802258   -3.375160
C         4.075145   -1.263686   -3.348918
C         3.214351   -0.691745   -2.195431
S         3.904824   -0.911864   -0.519364
C         2.485977    2.182234   -0.059590
C         2.461501    2.689458   -1.300635
S         1.052515    2.960795   -2.338825
C         3.720977    2.842566   -2.089725
O         4.838316    2.845121   -1.648341
N         3.411460    2.950040   -3.446347
C         2.092407    2.961285   -3.810805
O         1.650440    2.974312   -4.929865
C         1.302940    1.865621    0.756879
C         1.225077    0.615355    1.391006
C         0.109986    0.286336    2.152180
O        -0.013858   -0.941699    2.725211
C         0.334835   -1.004983    4.089760
C        -0.934189    1.214533    2.287428
O        -2.022321    0.905992    3.076314
C        -2.873705   -0.065241    2.696952
C        -3.796579   -0.526994    3.650834
Br        -3.754831    0.184063    5.402525
C        -4.725681   -1.501779    3.321456
C        -4.751140   -2.038201    2.030699
C        -5.764011   -3.084775    1.734181
O        -5.688658   -3.527764    0.472307
C        -6.611767   -4.534683    0.105191
O        -6.572796   -3.502871    2.525937
C        -3.832763   -1.582411    1.078930
C        -2.905342   -0.604350    1.406107
C        -0.868129    2.454691    1.668423
C         0.251527    2.780100    0.905102
N         3.587144   -0.856751   -4.652215
C         3.971311    0.244409   -5.315790
C         3.333781    0.455220   -6.673106
O         4.755194    1.075313   -4.858082
H         5.102581   -0.888345   -3.215877
N         4.572136   -3.382967   -2.268569
C         4.502924   -4.804963   -2.063450
H         3.104955    0.382198   -2.412314
H         2.202983   -1.128279   -2.273358
H         4.108309    2.616812   -4.131863
H         2.021041   -0.121617    1.223661
H         0.189204   -2.044332    4.410374
H        -0.305471   -0.346686    4.702836
H         1.391593   -0.725806    4.241683
H        -5.441348   -1.863968    4.061000
H        -6.484462   -5.430936    0.729933
H        -6.404820   -4.773600   -0.944063
H        -7.646693   -4.179059    0.216788
H        -3.845012   -2.001199    0.072661
H        -2.184983   -0.255160    0.665333
H        -1.695505    3.154607    1.795780
H         0.315589    3.762721    0.432219
H         3.103518   -1.604136   -5.145052
H         2.792686   -0.425527   -7.044968
H         4.114613    0.743707   -7.389540
H         2.632831    1.298749   -6.578264
H         4.647271   -2.752324   -1.446272
H         4.383701   -5.299510   -3.036328
H         3.647559   -5.085497   -1.424669
H         5.423885   -5.169942   -1.583125
H         3.476073    1.911868    0.321630
