-1 1
 OpenBabel05192410563D

 70 72  0  0  1  0  0  0  0  0999 V2000
   -7.7828   -2.3890    2.6315 O   0  0  0  0  0  0  0  0  0  0  0  0
   -6.8108   -2.6609    1.9374 C   0  0  0  0  0  0  0  0  0  0  0  0
   -6.5042   -1.8697    0.6554 C   0  0  2  0  0  0  0  0  0  0  0  0
   -5.1726   -1.0884    0.6951 C   0  0  0  0  0  0  0  0  0  0  0  0
   -3.6530   -2.1057    0.6798 S   0  0  0  0  0  0  0  0  0  0  0  0
   -2.6941   -1.5250    2.2304 C   0  0  2  0  0  0  0  0  0  0  0  0
   -1.3351   -2.0780    2.1871 C   0  0  0  0  0  3  0  0  0  0  0  0
   -0.2964   -1.3327    1.6255 C   0  0  0  0  0  0  0  0  0  0  0  0
    0.9766   -2.0076    1.6461 N   0  0  0  0  0  0  0  0  0  0  0  0
    2.1889   -1.5310    1.2597 C   0  0  0  0  0  0  0  0  0  0  0  0
    2.4081   -0.2938    0.6684 C   0  0  0  0  0  0  0  0  0  0  0  0
    3.3370   -2.3831    1.4704 C   0  0  0  0  0  0  0  0  0  0  0  0
    3.0408   -3.5781    2.0308 O   0  0  0  0  0  0  0  0  0  0  0  0
    4.0712   -4.5038    2.2717 C   0  0  0  0  0  0  0  0  0  0  0  0
    3.4573   -5.7422    2.8871 C   0  0  0  0  0  0  0  0  0  0  0  0
    4.6011   -1.9814    1.1166 C   0  0  0  0  0  0  0  0  0  0  0  0
    4.8277   -0.7028    0.5411 C   0  0  0  0  0  0  0  0  0  0  0  0
    3.7081    0.1441    0.3257 C   0  0  0  0  0  0  0  0  0  0  0  0
    3.9485    1.4390   -0.2432 C   0  0  0  0  0  0  0  0  0  0  0  0
    2.8753    2.2799   -0.4246 N   0  0  0  0  0  0  0  0  0  0  0  0
    2.6691    3.2358   -1.4270 C   0  0  0  0  0  0  0  0  0  0  0  0
    3.2653    3.1300   -2.6891 C   0  0  0  0  0  0  0  0  0  0  0  0
    3.0203    4.0956   -3.6577 C   0  0  0  0  0  0  0  0  0  0  0  0
    3.7851    3.9853   -5.2151 Cl  0  0  0  0  0  0  0  0  0  0  0  0
    2.1530    5.1533   -3.3947 C   0  0  0  0  0  0  0  0  0  0  0  0
    1.9174    6.0755   -4.3266 F   0  0  0  0  0  0  0  0  0  0  0  0
    1.5307    5.2471   -2.1578 C   0  0  0  0  0  0  0  0  0  0  0  0
    1.7945    4.3009   -1.1750 C   0  0  0  0  0  0  0  0  0  0  0  0
    5.2779    1.7840   -0.5219 C   0  0  0  0  0  0  0  0  0  0  0  0
    5.6804    3.0904   -0.9414 C   0  0  0  0  0  0  0  0  0  0  0  0
    6.0563    4.1379   -1.2675 N   0  0  0  0  0  0  0  0  0  0  0  0
    6.3058    0.8244   -0.2842 C   0  0  0  0  0  0  0  0  0  0  0  0
    6.1059   -0.3604    0.2183 N   0  0  0  0  0  0  0  0  0  0  0  0
   -0.3553   -0.1830    1.1494 O   0  0  0  0  0  0  0  0  0  0  0  0
   -3.4686   -1.8745    3.4948 C   0  0  0  0  0  0  0  0  0  0  0  0
   -7.6247   -0.9813    0.4601 N   0  0  0  0  0  0  0  0  0  0  0  0
   -7.9624   -0.4697   -0.7473 C   0  0  0  0  0  0  0  0  0  0  0  0
   -9.2107    0.3960   -0.7560 C   0  0  0  0  0  0  0  0  0  0  0  0
   -7.3115   -0.6609   -1.7590 O   0  0  0  0  0  0  0  0  0  0  0  0
   -6.4537   -2.5733   -0.1932 H   0  0  0  0  0  0  0  0  0  0  0  0
   -5.9606   -3.6674    2.2157 N   0  0  0  0  0  0  0  0  0  0  0  0
   -6.0671   -4.4027    3.4505 C   0  0  0  0  0  0  0  0  0  0  0  0
   -5.1609   -0.4439   -0.1941 H   0  0  0  0  0  0  0  0  0  0  0  0
   -5.1509   -0.4367    1.5827 H   0  0  0  0  0  0  0  0  0  0  0  0
    0.9857   -2.9359    2.0450 H   0  0  0  0  0  0  0  0  0  0  0  0
    1.5030    0.2899    0.5007 H   0  0  0  0  0  0  0  0  0  0  0  0
    4.8249   -4.0606    2.9486 H   0  0  0  0  0  0  0  0  0  0  0  0
    4.5854   -4.7493    1.3240 H   0  0  0  0  0  0  0  0  0  0  0  0
    2.9541   -5.4944    3.8328 H   0  0  0  0  0  0  0  0  0  0  0  0
    4.2355   -6.4921    3.0903 H   0  0  0  0  0  0  0  0  0  0  0  0
    2.7147   -6.1833    2.2068 H   0  0  0  0  0  0  0  0  0  0  0  0
    5.4765   -2.6119    1.2652 H   0  0  0  0  0  0  0  0  0  0  0  0
    2.0453    2.0188    0.0959 H   0  0  0  0  0  0  0  0  0  0  0  0
    3.9244    2.2950   -2.9263 H   0  0  0  0  0  0  0  0  0  0  0  0
    0.8505    6.0799   -1.9736 H   0  0  0  0  0  0  0  0  0  0  0  0
    1.3209    4.3853   -0.1953 H   0  0  0  0  0  0  0  0  0  0  0  0
    7.3369    1.1075   -0.5267 H   0  0  0  0  0  0  0  0  0  0  0  0
   -4.5171   -1.5345    3.4775 H   0  0  0  0  0  0  0  0  0  0  0  0
   -2.9714   -1.4055    4.3585 H   0  0  0  0  0  0  0  0  0  0  0  0
   -3.4665   -2.9640    3.6604 H   0  0  0  0  0  0  0  0  0  0  0  0
   -8.2470   -0.9246    1.2619 H   0  0  0  0  0  0  0  0  0  0  0  0
   -9.7763    0.3633    0.1854 H   0  0  0  0  0  0  0  0  0  0  0  0
   -9.8548    0.0724   -1.5847 H   0  0  0  0  0  0  0  0  0  0  0  0
   -8.9126    1.4352   -0.9576 H   0  0  0  0  0  0  0  0  0  0  0  0
   -5.0644   -3.6443    1.7172 H   0  0  0  0  0  0  0  0  0  0  0  0
   -5.7416   -3.8059    4.3201 H   0  0  0  0  0  0  0  0  0  0  0  0
   -5.4421   -5.3036    3.3897 H   0  0  0  0  0  0  0  0  0  0  0  0
   -7.1114   -4.6993    3.6194 H   0  0  0  0  0  0  0  0  0  0  0  0
   -1.1617   -3.0881    2.5722 H   0  0  0  0  0  0  0  0  0  0  0  0
   -2.6413   -0.4356    2.0855 H   0  0  0  0  0  0  0  0  0  0  0  0
  2 41  1  0  0  0  0
  2  1  2  0  0  0  0
  3 40  1  6  0  0  0
  3  4  1  0  0  0  0
  3  2  1  0  0  0  0
  4 44  1  0  0  0  0
  5  4  1  0  0  0  0
  5  6  1  0  0  0  0
  6 70  1  6  0  0  0
  6 35  1  0  0  0  0
  7  6  1  0  0  0  0
  7 69  1  0  0  0  0
  8  9  1  0  0  0  0
  8  7  1  0  0  0  0
  9 45  1  0  0  0  0
 10 12  1  0  0  0  0
 10  9  1  0  0  0  0
 11 10  2  0  0  0  0
 12 13  1  0  0  0  0
 13 14  1  0  0  0  0
 14 15  1  0  0  0  0
 14 47  1  0  0  0  0
 15 50  1  0  0  0  0
 15 49  1  0  0  0  0
 16 52  1  0  0  0  0
 16 12  2  0  0  0  0
 17 16  1  0  0  0  0
 18 17  1  0  0  0  0
 18 11  1  0  0  0  0
 19 18  2  0  0  0  0
 20 19  1  0  0  0  0
 20 53  1  0  0  0  0
 21 28  1  0  0  0  0
 21 20  1  0  0  0  0
 22 21  2  0  0  0  0
 23 25  2  0  0  0  0
 23 22  1  0  0  0  0
 24 23  1  0  0  0  0
 25 27  1  0  0  0  0
 26 25  1  0  0  0  0
 27 55  1  0  0  0  0
 27 28  2  0  0  0  0
 28 56  1  0  0  0  0
 29 32  2  0  0  0  0
 29 19  1  0  0  0  0
 30 29  1  0  0  0  0
 31 30  3  0  0  0  0
 32 33  1  0  0  0  0
 33 17  2  0  0  0  0
 34  8  2  0  0  0  0
 35 60  1  0  0  0  0
 35 59  1  0  0  0  0
 36  3  1  0  0  0  0
 36 61  1  0  0  0  0
 37 36  1  0  0  0  0
 38 37  1  0  0  0  0
 38 62  1  0  0  0  0
 39 37  2  0  0  0  0
 41 42  1  0  0  0  0
 42 68  1  0  0  0  0
 42 66  1  0  0  0  0
 43  4  1  0  0  0  0
 46 11  1  0  0  0  0
 48 14  1  0  0  0  0
 51 15  1  0  0  0  0
 54 22  1  0  0  0  0
 57 32  1  0  0  0  0
 58 35  1  0  0  0  0
 63 38  1  0  0  0  0
 64 38  1  0  0  0  0
 65 41  1  0  0  0  0
 67 42  1  0  0  0  0
M  END
