63
-1 1
O         1.669820    0.941245   -1.131418
C         2.272139   -0.121574   -1.091966
C         2.110286   -1.216534   -2.152316
C         3.396447   -1.326700   -3.020638
S         3.139679   -2.138375   -4.631911
C         4.072498   -4.619584   -1.638511
C         2.980552   -4.604654   -0.861224
C         2.951664   -3.777628    0.365978
N         1.693802   -3.594748    0.898330
C         1.419686   -2.558491    1.826209
C         2.033079   -2.538109    3.097049
C         1.774080   -1.497725    3.958594
C         0.570412   -1.540592    1.450722
C         0.323927   -0.444476    2.304976
C         0.923943   -0.425377    3.589899
N         0.747713    0.592521    4.486959
C         0.036633    1.604714    4.089312
C        -0.573256    1.746725    2.805547
C        -1.204290    3.006690    2.560018
N        -1.684153    4.057880    2.459466
C        -0.459955    0.699782    1.870969
N        -0.976995    0.681590    0.627497
C        -1.762809    1.656455   -0.024413
C        -3.042459    1.975750    0.435044
C        -3.793861    2.910265   -0.267770
Br        -5.516489    3.381041    0.378840
C        -3.314569    3.503999   -1.432470
C        -2.046647    3.148940   -1.892870
C        -1.262693    2.234873   -1.195489
O         3.939654   -3.238501    0.843667
C         4.169555   -5.230689   -2.986605
N         0.988010   -0.946361   -3.007730
C        -0.278689   -0.971169   -2.603522
C        -1.327234   -0.724455   -3.662749
O        -0.619882   -1.161779   -1.427013
H         1.949762   -2.180472   -1.636089
N         3.159134   -0.421898   -0.115512
C         3.405526    0.449533    1.004993
H         3.792173   -0.308492   -3.172840
H         4.145248   -1.865768   -2.416286
H         0.920159   -3.859844    0.300108
H         2.713968   -3.342905    3.375264
H         2.229303   -1.451503    4.949099
H         0.150987   -1.579305    0.443495
H        -0.095137    2.433355    4.796189
H        -0.646879   -0.033406   -0.033870
H        -3.434348    1.504328    1.336809
H        -3.921733    4.233977   -1.969338
H        -1.657940    3.607981   -2.804388
H        -0.256471    1.957042   -1.523023
H         3.380596   -5.975954   -3.163119
H         5.156404   -5.684467   -3.160693
H         4.026657   -4.409922   -3.726486
H         1.235807   -1.070410   -4.003510
H        -1.769136    0.266975   -3.480392
H        -2.126552   -1.468980   -3.550593
H        -0.921749   -0.757530   -4.682470
H         3.591772   -1.340435   -0.089411
H         3.431919   -0.138203    1.934034
H         2.593532    1.186105    1.064675
H         4.359115    0.994562    0.903398
H         4.938737   -4.056755   -1.269896
H         2.064566   -5.116874   -1.174247
