63
-1 1
O        -0.895460    3.928044   -1.292415
C        -0.354840    2.859944   -1.035875
C        -0.468721    1.628111   -1.950251
C         0.887165    1.331519   -2.615748
S         0.881795   -0.090186   -3.748769
C         1.247381   -1.730663   -2.040127
C         0.262505   -1.752670   -1.056061
C         0.290392   -0.875743    0.069885
N        -0.892959   -0.864507    0.840651
C        -1.128550    0.192435    1.744154
C        -0.381422    0.284213    2.941243
C        -0.591506    1.330069    3.807510
C        -2.050763    1.174024    1.443403
C        -2.235678    2.292260    2.287621
C        -1.518079    2.359635    3.508736
N        -1.644602    3.390555    4.400058
C        -2.420858    4.372645    4.054960
C        -3.130535    4.479039    2.819016
C        -3.812070    5.718741    2.606425
N        -4.329540    6.754521    2.534482
C        -3.049911    3.425535    1.890359
N        -3.616220    3.402142    0.663953
C        -4.418892    4.388344    0.050200
C        -5.705698    4.657122    0.521656
C        -6.474169    5.613448   -0.131226
Br        -8.207368    6.015670    0.534046
C        -6.003177    6.280410   -1.259014
C        -4.726886    5.976796   -1.732856
C        -3.926699    5.040513   -1.084839
O         1.219167   -0.118648    0.393623
C         1.399453   -2.903418   -2.971336
N        -1.482814    1.828468   -2.955523
C        -2.788764    1.857517   -2.672698
C        -3.731961    2.056939   -3.836377
O        -3.232305    1.751041   -1.527315
H        -0.758241    0.767069   -1.332187
N         0.410628    2.659002    0.053525
C         0.607795    3.691967    1.038058
H         1.210696    2.235305   -3.159335
H         1.618296    1.153816   -1.816238
H        -1.712006   -1.185308    0.338943
H         0.357264   -0.488453    3.156694
H        -0.038905    1.416197    4.744619
H        -2.573035    1.099430    0.488367
H        -2.522471    5.206056    4.761283
H        -3.270162    2.719074   -0.020406
H        -6.086587    4.131113    1.397614
H        -6.622527    7.028209   -1.756058
H        -4.344061    6.496441   -2.613945
H        -2.912219    4.807029   -1.422160
H         0.423675   -3.214525   -3.373691
H         1.819136   -3.757978   -2.412051
H         2.065715   -2.672951   -3.813446
H        -1.181345    1.716190   -3.917641
H        -4.182513    3.055964   -3.738618
H        -4.542017    1.319425   -3.763574
H        -3.241423    1.975615   -4.815467
H         0.775458    1.716884    0.243055
H         0.861601    3.228083    2.000081
H        -0.312603    4.282210    1.159902
H         1.415794    4.387812    0.753893
H         2.171675   -1.212090   -1.769464
H        -0.632361   -2.364079   -1.213282
