-1 1
 OpenBabel05232414493D

 71 72  0  0  1  0  0  0  0  0999 V2000
   -1.2483    4.9198   -4.2872 O   0  0  0  0  0  0  0  0  0  0  0  0
   -0.1348    4.6633   -3.8537 C   0  0  0  0  0  0  0  0  0  0  0  0
    0.2014    4.8367   -2.3581 C   0  0  2  0  0  0  0  0  0  0  0  0
    1.0817    3.7349   -1.7368 C   0  0  0  0  0  0  0  0  0  0  0  0
    2.8491    3.8939   -2.0997 S   0  0  0  0  0  1  0  0  0  0  0  0
    3.2216    5.5527   -0.4298 C   0  0  0  0  0  3  0  0  0  0  0  0
    3.9548    6.5139   -1.3380 C   0  0  0  0  0  0  0  0  0  0  0  0
    4.7035    7.4793   -0.6295 O   0  0  0  0  0  0  0  0  0  0  0  0
    3.9667    8.5089   -0.0495 C   0  0  0  0  0  0  0  0  0  0  0  0
    2.0203    5.9126    0.1688 C   0  0  0  0  0  3  0  0  0  0  0  0
    1.5049    5.2318    1.3229 C   0  0  0  0  0  0  0  0  0  0  0  0
    0.1247    5.4789    1.5319 N   0  0  0  0  0  0  0  0  0  0  0  0
   -0.6572    5.0732    2.5853 C   0  0  0  0  0  0  0  0  0  0  0  0
   -0.2410    4.2303    3.6047 C   0  0  0  0  0  0  0  0  0  0  0  0
   -2.0024    5.5690    2.6306 C   0  0  0  0  0  0  0  0  0  0  0  0
   -2.4156    6.4074    1.6297 O   0  0  0  0  0  0  0  0  0  0  0  0
   -2.0939    7.7673    1.8324 C   0  0  0  0  0  0  0  0  0  0  0  0
   -2.8657    5.2073    3.6304 C   0  0  0  0  0  0  0  0  0  0  0  0
   -2.4451    4.3588    4.6849 C   0  0  0  0  0  0  0  0  0  0  0  0
   -1.1053    3.8861    4.6694 C   0  0  0  0  0  0  0  0  0  0  0  0
   -0.6729    3.0482    5.7572 C   0  0  0  0  0  0  0  0  0  0  0  0
    0.6293    2.6164    5.7702 N   0  0  0  0  0  0  0  0  0  0  0  0
    1.1627    1.4281    6.2893 C   0  0  0  0  0  0  0  0  0  0  0  0
    0.4053    0.2533    6.3700 C   0  0  0  0  0  0  0  0  0  0  0  0
    0.9931   -0.8988    6.8785 C   0  0  0  0  0  0  0  0  0  0  0  0
   -0.0571   -2.4717    7.0206 Br  0  0  0  0  0  0  0  0  0  0  0  0
    2.3268   -0.9309    7.2773 C   0  0  0  0  0  0  0  0  0  0  0  0
    3.0793    0.2361    7.1585 C   0  0  0  0  0  0  0  0  0  0  0  0
    2.5073    1.4091    6.6802 C   0  0  0  0  0  0  0  0  0  0  0  0
   -1.6062    2.7791    6.7646 C   0  0  0  0  0  0  0  0  0  0  0  0
   -1.2811    2.1009    7.9814 C   0  0  0  0  0  0  0  0  0  0  0  0
   -1.0665    1.5764    8.9927 N   0  0  0  0  0  0  0  0  0  0  0  0
   -2.9330    3.2923    6.6381 C   0  0  0  0  0  0  0  0  0  0  0  0
   -3.3457    4.0412    5.6589 N   0  0  0  0  0  0  0  0  0  0  0  0
    2.1360    4.5113    2.0930 O   0  0  0  0  0  0  0  0  0  0  0  0
   -1.0241    5.0788   -1.6105 N   0  0  0  0  0  0  0  0  0  0  0  0
   -1.9822    4.0953   -1.4781 C   0  0  0  0  0  0  0  0  0  0  0  0
   -3.3532    4.6178   -1.0983 C   0  0  0  0  0  0  0  0  0  0  0  0
   -1.7495    2.9164   -1.6310 O   0  0  0  0  0  0  0  0  0  0  0  0
    0.7864    5.7674   -2.2923 H   0  0  0  0  0  0  0  0  0  0  0  0
    0.9053    4.2732   -4.6223 N   0  0  0  0  0  0  0  0  0  0  0  0
    0.7969    4.0941   -6.0442 C   0  0  0  0  0  0  0  0  0  0  0  0
    0.9495    3.8035   -0.6473 H   0  0  0  0  0  0  0  0  0  0  0  0
    0.7222    2.7421   -2.0328 H   0  0  0  0  0  0  0  0  0  0  0  0
    3.2320    7.0083   -2.0192 H   0  0  0  0  0  0  0  0  0  0  0  0
    4.6780    5.9712   -1.9602 H   0  0  0  0  0  0  0  0  0  0  0  0
    3.3122    8.1564    0.7679 H   0  0  0  0  0  0  0  0  0  0  0  0
    3.3242    9.0239   -0.7948 H   0  0  0  0  0  0  0  0  0  0  0  0
    4.6807    9.2422    0.3552 H   0  0  0  0  0  0  0  0  0  0  0  0
   -0.3866    5.8152    0.7212 H   0  0  0  0  0  0  0  0  0  0  0  0
    0.7743    3.8490    3.5106 H   0  0  0  0  0  0  0  0  0  0  0  0
   -2.4499    8.3183    0.9521 H   0  0  0  0  0  0  0  0  0  0  0  0
   -1.0049    7.9126    1.9351 H   0  0  0  0  0  0  0  0  0  0  0  0
   -2.5951    8.1612    2.7332 H   0  0  0  0  0  0  0  0  0  0  0  0
   -3.8894    5.5829    3.6356 H   0  0  0  0  0  0  0  0  0  0  0  0
    1.2578    3.1407    5.1728 H   0  0  0  0  0  0  0  0  0  0  0  0
   -0.6323    0.2401    6.0362 H   0  0  0  0  0  0  0  0  0  0  0  0
    2.7672   -1.8475    7.6705 H   0  0  0  0  0  0  0  0  0  0  0  0
    4.1291    0.2326    7.4589 H   0  0  0  0  0  0  0  0  0  0  0  0
    3.0984    2.3244    6.6099 H   0  0  0  0  0  0  0  0  0  0  0  0
   -3.6504    3.0510    7.4313 H   0  0  0  0  0  0  0  0  0  0  0  0
   -1.4171    5.9992   -1.7679 H   0  0  0  0  0  0  0  0  0  0  0  0
   -3.9863    3.7703   -0.8121 H   0  0  0  0  0  0  0  0  0  0  0  0
   -3.7956    5.1168   -1.9749 H   0  0  0  0  0  0  0  0  0  0  0  0
   -3.2911    5.3376   -0.2691 H   0  0  0  0  0  0  0  0  0  0  0  0
    1.8004    4.1148   -4.1464 H   0  0  0  0  0  0  0  0  0  0  0  0
   -0.2368    4.3168   -6.3390 H   0  0  0  0  0  0  0  0  0  0  0  0
    1.0339    3.0585   -6.3382 H   0  0  0  0  0  0  0  0  0  0  0  0
    1.4753    4.7705   -6.5908 H   0  0  0  0  0  0  0  0  0  0  0  0
    1.3662    6.6342   -0.3317 H   0  0  0  0  0  0  0  0  0  0  0  0
    3.8649    4.8971    0.1633 H   0  0  0  0  0  0  0  0  0  0  0  0
  1  2  2  0  0  0  0
  2  3  1  0  0  0  0
  3 40  1  1  0  0  0
  3  4  1  0  0  0  0
  3 36  1  0  0  0  0
  4 43  1  0  0  0  0
  5  4  1  0  0  0  0
  6 71  1  0  0  0  0
  6 10  1  0  0  0  0
  7  8  1  0  0  0  0
  7  6  1  0  0  0  0
  8  9  1  0  0  0  0
  9 49  1  0  0  0  0
  9 47  1  0  0  0  0
 10 11  1  0  0  0  0
 11 12  1  0  0  0  0
 11 35  2  0  0  0  0
 12 13  1  0  0  0  0
 13 15  2  0  0  0  0
 13 14  1  0  0  0  0
 14 20  2  0  0  0  0
 15 18  1  0  0  0  0
 16 17  1  0  0  0  0
 16 15  1  0  0  0  0
 17 53  1  0  0  0  0
 17 54  1  0  0  0  0
 18 55  1  0  0  0  0
 18 19  2  0  0  0  0
 19 34  1  0  0  0  0
 20 19  1  0  0  0  0
 20 21  1  0  0  0  0
 21 22  1  0  0  0  0
 21 30  2  0  0  0  0
 22 23  1  0  0  0  0
 23 24  2  0  0  0  0
 23 29  1  0  0  0  0
 24 25  1  0  0  0  0
 25 26  1  0  0  0  0
 25 27  2  0  0  0  0
 27 58  1  0  0  0  0
 28 27  1  0  0  0  0
 28 59  1  0  0  0  0
 29 28  2  0  0  0  0
 30 31  1  0  0  0  0
 31 32  3  0  0  0  0
 33 30  1  0  0  0  0
 33 61  1  0  0  0  0
 34 33  2  0  0  0  0
 36 37  1  0  0  0  0
 37 38  1  0  0  0  0
 38 63  1  0  0  0  0
 38 65  1  0  0  0  0
 39 37  2  0  0  0  0
 41 66  1  0  0  0  0
 41  2  1  0  0  0  0
 42 41  1  0  0  0  0
 44  4  1  0  0  0  0
 45  7  1  0  0  0  0
 46  7  1  0  0  0  0
 48  9  1  0  0  0  0
 50 12  1  0  0  0  0
 51 14  1  0  0  0  0
 52 17  1  0  0  0  0
 56 22  1  0  0  0  0
 57 24  1  0  0  0  0
 60 29  1  0  0  0  0
 62 36  1  0  0  0  0
 64 38  1  0  0  0  0
 67 42  1  0  0  0  0
 68 42  1  0  0  0  0
 69 42  1  0  0  0  0
 70 10  1  0  0  0  0
M  END
