71
-1 1
O        -2.325475    2.742064   -5.309180
C        -1.168575    3.027669   -5.624018
C         0.024767    2.337843   -4.932414
C         1.264936    2.105562   -5.812285
S         2.238275    3.630331   -6.094490
C         3.806933    1.486793   -2.285498
C         4.607921    1.814309   -3.514662
O         5.537682    2.837339   -3.280856
C         4.941070    4.107723   -3.199790
C         2.492303    1.248431   -2.283124
C         1.759751    0.950737   -1.026953
N         0.387783    0.942005   -1.202390
C        -0.583791    0.841468   -0.213728
C        -0.322003    0.436083    1.077308
C        -1.935939    1.189483   -0.565659
O        -2.108269    1.603446   -1.832381
C        -3.385122    2.017325   -2.284711
C        -2.946519    1.090208    0.361268
C        -2.680948    0.679048    1.691944
C        -1.345271    0.373907    2.057512
C        -1.077150    0.005026    3.416609
N         0.224117   -0.222496    3.795312
C         0.718719   -1.117977    4.753999
C         0.043119   -2.303193    5.068318
C         0.587096   -3.163788    6.014363
Br        -0.358818   -4.746099    6.457203
C         1.804906   -2.899231    6.635758
C         2.482968   -1.731849    6.289543
C         1.947136   -0.841214    5.366570
C        -2.170730   -0.043348    4.290959
C        -2.044458   -0.260348    5.699305
N        -1.992167   -0.416097    6.846599
C        -3.471451    0.243361    3.784070
N        -3.730074    0.592640    2.556823
O         2.297670    0.762855    0.050846
N        -0.467323    1.149422   -4.241648
C        -0.773989   -0.036573   -4.870368
C        -1.674942   -0.935417   -4.036553
O        -0.373039   -0.365545   -5.963820
H         0.346836    3.035528   -4.137716
N        -0.840176    3.963617   -6.523312
C        -1.815708    4.757310   -7.217637
H         1.882144    1.343154   -5.308284
H         0.955452    1.648467   -6.761834
H         3.939413    2.072948   -4.359812
H         5.191955    0.921522   -3.797462
H         4.340309    4.223389   -2.275750
H         4.277272    4.297459   -4.062991
H         5.751138    4.850753   -3.180633
H         0.067092    1.094932   -2.156914
H         0.707347    0.169711    1.301319
H        -3.247285    2.324057   -3.332165
H        -3.750038    2.866074   -1.684209
H        -4.107592    1.187090   -2.222658
H        -3.978966    1.332861    0.116363
H         0.926827    0.208025    3.206658
H        -0.899401   -2.549054    4.578417
H         2.213500   -3.589651    7.373933
H         3.441162   -1.506049    6.761736
H         2.474366    0.082475    5.119215
H        -4.314952    0.186505    4.482003
H        -1.166900    1.391272   -3.547583
H        -1.635004   -1.953497   -4.440801
H        -2.709260   -0.564049   -4.108011
H        -1.385785   -0.939389   -2.975485
H         0.177454    4.144578   -6.644334
H        -2.817533    4.438284   -6.901537
H        -1.729424    4.628897   -8.308841
H        -1.693698    5.829299   -6.989481
H         1.917445    1.306349   -3.211406
H         4.352479    1.445541   -1.334754
