71
-1 1
O        -1.354557   -0.548332   -4.814191
C        -0.262054   -0.013343   -4.801523
C         0.386859    0.490442   -3.495822
C         1.905687    0.257418   -3.341124
S         3.004716    1.333330   -4.315686
C         3.064070    2.895941   -3.211084
C         3.823803    3.910789   -4.068731
O         4.439121    4.940262   -3.340243
C         3.602011    5.963311   -2.890837
C         1.760981    3.344361   -2.695958
C         1.283554    2.890947   -1.468940
N        -0.045188    3.361411   -1.151706
C        -0.876020    2.911004   -0.169964
C        -0.639155    1.784959    0.612870
C        -2.102456    3.628403    0.049838
O        -2.338631    4.737295   -0.717882
C        -1.809517    5.930848   -0.180973
C        -3.015108    3.219863    0.985297
C        -2.771133    2.085533    1.801096
C        -1.553363    1.377538    1.608877
C        -1.296628    0.241679    2.454760
N        -0.113941   -0.437836    2.287972
C         0.153850   -1.804794    2.426036
C        -0.854131   -2.774186    2.356706
C        -0.513502   -4.116873    2.463580
Br        -1.897408   -5.411941    2.385748
C         0.805994   -4.535233    2.610107
C         1.802879   -3.561860    2.649150
C         1.487374   -2.211209    2.567485
C        -2.252824   -0.058184    3.430190
C        -2.052803   -1.040494    4.450707
N        -1.929958   -1.808463    5.310284
C        -3.450017    0.718196    3.493307
N        -3.710288    1.734658    2.724670
O         1.845092    2.133629   -0.651678
N        -0.335015   -0.023144   -2.356197
C        -0.377245   -1.347003   -2.050272
C        -1.362410   -1.715620   -0.958455
O         0.308408   -2.180794   -2.612202
H         0.240573    1.580352   -3.486646
N         0.450323    0.255162   -5.927706
C        -0.032831   -0.075706   -7.240960
H         2.150514    0.424945   -2.283836
H         2.158610   -0.779008   -3.596714
H         3.135184    4.332230   -4.831866
H         4.640734    3.402741   -4.606646
H         2.902161    5.624048   -2.109090
H         2.998514    6.388617   -3.719828
H         4.245307    6.760454   -2.487612
H        -0.444610    4.060000   -1.764884
H         0.299059    1.271005    0.407949
H        -2.035432    6.736166   -0.892375
H        -0.715812    5.863528   -0.046254
H        -2.272868    6.167614    0.792591
H        -3.943939    3.774430    1.123899
H         0.606338    0.085435    1.803182
H        -1.893272   -2.485682    2.202490
H         1.048965   -5.595178    2.685858
H         2.846853   -3.864355    2.752326
H         2.275790   -1.456775    2.607900
H        -4.194734    0.448372    4.251244
H        -0.960229    0.606103   -1.871650
H        -1.005946   -2.620477   -0.451256
H        -2.333900   -1.936031   -1.426381
H        -1.505247   -0.906714   -0.227265
H         1.316245    0.782749   -5.825683
H        -0.958963   -0.653000   -7.123871
H         0.699112   -0.684660   -7.795615
H        -0.255314    0.825994   -7.837201
H         1.114134    3.934476   -3.355106
H         3.705706    2.582997   -2.374633
