67
-1 1
O         1.865422    3.960141    7.354104
C         1.340193    3.392389    6.403241
C         0.687827    4.228802    5.277718
C         0.269282    3.484635    4.007936
S         1.628753    2.880000    2.950655
C         0.286430    1.199075    1.876377
C         0.334248    1.655101    0.445089
C         0.739384   -0.070052    2.236966
C         0.668545   -0.451836    3.600477
N         1.390815   -1.624320    3.991009
C         2.575991   -1.394434    4.714444
C         3.164973   -0.145153    4.773891
C         3.207491   -2.480430    5.383125
O         2.656546   -3.727115    5.314015
C         1.488126   -3.896181    6.090507
C         4.385846   -2.285092    6.065411
C         4.999030   -1.010316    6.130260
C         4.365879    0.079837    5.479307
C         4.983874    1.389900    5.534927
N         4.369260    2.435996    4.940221
C         4.673549    3.811819    5.091284
C         4.871021    4.580615    3.941537
C         5.082176    5.948471    4.075898
Br         5.304177    7.006258    2.515572
C         5.114711    6.560735    5.324349
C         4.915935    5.778183    6.457589
C         4.680224    4.413380    6.349534
C         6.223685    1.449872    6.200518
C         7.081920    2.594290    6.237335
N         7.864932    3.447480    6.302727
C         6.735892    0.275143    6.828428
N         6.173673   -0.897071    6.821666
O         0.139781    0.210543    4.501155
N         1.475848    5.393128    4.949550
C         1.476474    6.610010    5.558429
C         0.514212    6.800697    6.715179
O         2.204680    7.513691    5.183335
H        -0.249736    4.576962    5.744833
N         1.215844    2.055626    6.347286
C         1.701326    1.235868    7.429428
H        -0.367638    2.630637    4.288007
H        -0.353119    4.178216    3.421042
H         0.148801    2.732698    0.356067
H        -0.434548    1.112623   -0.132918
H         1.311452    1.435667   -0.009447
H         1.517197   -2.316354    3.258240
H         2.669996    0.674143    4.248896
H         1.131710   -4.920339    5.916111
H         0.703895   -3.180137    5.796843
H         1.711563   -3.773152    7.165153
H         4.869647   -3.121905    6.569888
H         3.520555    2.275689    4.382448
H         4.840229    4.106007    2.960728
H         5.251885    7.638199    5.406487
H         4.904825    6.250002    7.441209
H         4.460569    3.816154    7.234045
H         7.692348    0.370122    7.357414
H         2.168143    5.274150    4.212808
H         0.718691    6.051581    7.492558
H        -0.530996    6.689422    6.385718
H         0.658785    7.813762    7.107476
H         0.811991    1.566386    5.542724
H         1.472800    0.188541    7.195862
H         1.227667    1.515612    8.384224
H         2.791030    1.339288    7.558644
H         1.405091   -0.622548    1.567172
H        -0.537658    1.594830    2.475276
