-1 1
 OpenBabel05232414493D

 67 68  0  0  1  0  0  0  0  0999 V2000
    1.8654    3.9601    7.3541 O   0  0  0  0  0  0  0  0  0  0  0  0
    1.3402    3.3924    6.4032 C   0  0  0  0  0  0  0  0  0  0  0  0
    0.6878    4.2288    5.2777 C   0  0  2  0  0  0  0  0  0  0  0  0
    0.2693    3.4846    4.0079 C   0  0  0  0  0  0  0  0  0  0  0  0
    1.6288    2.8800    2.9507 S   0  0  0  0  0  1  0  0  0  0  0  0
    0.2864    1.1991    1.8764 C   0  0  0  0  0  3  0  0  0  0  0  0
    0.3342    1.6551    0.4451 C   0  0  0  0  0  0  0  0  0  0  0  0
    0.7394   -0.0701    2.2370 C   0  0  0  0  0  3  0  0  0  0  0  0
    0.6685   -0.4518    3.6005 C   0  0  0  0  0  0  0  0  0  0  0  0
    1.3908   -1.6243    3.9910 N   0  0  0  0  0  0  0  0  0  0  0  0
    2.5760   -1.3944    4.7144 C   0  0  0  0  0  0  0  0  0  0  0  0
    3.1650   -0.1452    4.7739 C   0  0  0  0  0  0  0  0  0  0  0  0
    3.2075   -2.4804    5.3831 C   0  0  0  0  0  0  0  0  0  0  0  0
    2.6565   -3.7271    5.3140 O   0  0  0  0  0  0  0  0  0  0  0  0
    1.4881   -3.8962    6.0905 C   0  0  0  0  0  0  0  0  0  0  0  0
    4.3858   -2.2851    6.0654 C   0  0  0  0  0  0  0  0  0  0  0  0
    4.9990   -1.0103    6.1303 C   0  0  0  0  0  0  0  0  0  0  0  0
    4.3659    0.0798    5.4793 C   0  0  0  0  0  0  0  0  0  0  0  0
    4.9839    1.3899    5.5349 C   0  0  0  0  0  0  0  0  0  0  0  0
    4.3693    2.4360    4.9402 N   0  0  0  0  0  0  0  0  0  0  0  0
    4.6735    3.8118    5.0913 C   0  0  0  0  0  0  0  0  0  0  0  0
    4.8710    4.5806    3.9415 C   0  0  0  0  0  0  0  0  0  0  0  0
    5.0822    5.9485    4.0759 C   0  0  0  0  0  0  0  0  0  0  0  0
    5.3042    7.0063    2.5156 Br  0  0  0  0  0  0  0  0  0  0  0  0
    5.1147    6.5607    5.3243 C   0  0  0  0  0  0  0  0  0  0  0  0
    4.9159    5.7782    6.4576 C   0  0  0  0  0  0  0  0  0  0  0  0
    4.6802    4.4134    6.3495 C   0  0  0  0  0  0  0  0  0  0  0  0
    6.2237    1.4499    6.2005 C   0  0  0  0  0  0  0  0  0  0  0  0
    7.0819    2.5943    6.2373 C   0  0  0  0  0  0  0  0  0  0  0  0
    7.8649    3.4475    6.3027 N   0  0  0  0  0  0  0  0  0  0  0  0
    6.7359    0.2751    6.8284 C   0  0  0  0  0  0  0  0  0  0  0  0
    6.1737   -0.8971    6.8217 N   0  0  0  0  0  0  0  0  0  0  0  0
    0.1398    0.2105    4.5012 O   0  0  0  0  0  0  0  0  0  0  0  0
    1.4758    5.3931    4.9496 N   0  0  0  0  0  0  0  0  0  0  0  0
    1.4765    6.6100    5.5584 C   0  0  0  0  0  0  0  0  0  0  0  0
    0.5142    6.8007    6.7152 C   0  0  0  0  0  0  0  0  0  0  0  0
    2.2047    7.5137    5.1833 O   0  0  0  0  0  0  0  0  0  0  0  0
   -0.2497    4.5770    5.7448 H   0  0  0  0  0  0  0  0  0  0  0  0
    1.2158    2.0556    6.3473 N   0  0  0  0  0  0  0  0  0  0  0  0
    1.7013    1.2359    7.4294 C   0  0  0  0  0  0  0  0  0  0  0  0
   -0.3676    2.6306    4.2880 H   0  0  0  0  0  0  0  0  0  0  0  0
   -0.3531    4.1782    3.4210 H   0  0  0  0  0  0  0  0  0  0  0  0
    0.1488    2.7327    0.3561 H   0  0  0  0  0  0  0  0  0  0  0  0
   -0.4345    1.1126   -0.1329 H   0  0  0  0  0  0  0  0  0  0  0  0
    1.3115    1.4357   -0.0094 H   0  0  0  0  0  0  0  0  0  0  0  0
    1.5172   -2.3164    3.2582 H   0  0  0  0  0  0  0  0  0  0  0  0
    2.6700    0.6741    4.2489 H   0  0  0  0  0  0  0  0  0  0  0  0
    1.1317   -4.9203    5.9161 H   0  0  0  0  0  0  0  0  0  0  0  0
    0.7039   -3.1801    5.7968 H   0  0  0  0  0  0  0  0  0  0  0  0
    1.7116   -3.7732    7.1652 H   0  0  0  0  0  0  0  0  0  0  0  0
    4.8696   -3.1219    6.5699 H   0  0  0  0  0  0  0  0  0  0  0  0
    3.5206    2.2757    4.3824 H   0  0  0  0  0  0  0  0  0  0  0  0
    4.8402    4.1060    2.9607 H   0  0  0  0  0  0  0  0  0  0  0  0
    5.2519    7.6382    5.4065 H   0  0  0  0  0  0  0  0  0  0  0  0
    4.9048    6.2500    7.4412 H   0  0  0  0  0  0  0  0  0  0  0  0
    4.4606    3.8162    7.2340 H   0  0  0  0  0  0  0  0  0  0  0  0
    7.6923    0.3701    7.3574 H   0  0  0  0  0  0  0  0  0  0  0  0
    2.1681    5.2741    4.2128 H   0  0  0  0  0  0  0  0  0  0  0  0
    0.7187    6.0516    7.4926 H   0  0  0  0  0  0  0  0  0  0  0  0
   -0.5310    6.6894    6.3857 H   0  0  0  0  0  0  0  0  0  0  0  0
    0.6588    7.8138    7.1075 H   0  0  0  0  0  0  0  0  0  0  0  0
    0.8120    1.5664    5.5427 H   0  0  0  0  0  0  0  0  0  0  0  0
    1.4728    0.1885    7.1959 H   0  0  0  0  0  0  0  0  0  0  0  0
    1.2277    1.5156    8.3842 H   0  0  0  0  0  0  0  0  0  0  0  0
    2.7910    1.3393    7.5586 H   0  0  0  0  0  0  0  0  0  0  0  0
    1.4051   -0.6225    1.5672 H   0  0  0  0  0  0  0  0  0  0  0  0
   -0.5377    1.5948    2.4753 H   0  0  0  0  0  0  0  0  0  0  0  0
  2  1  2  0  0  0  0
  3 38  1  1  0  0  0
  3  2  1  0  0  0  0
  4 41  1  0  0  0  0
  4  3  1  0  0  0  0
  5  4  1  0  0  0  0
  6  8  1  0  0  0  0
  6 67  1  0  0  0  0
  7  6  1  0  0  0  0
  8  9  1  0  0  0  0
  9 10  1  0  0  0  0
  9 33  2  0  0  0  0
 10 11  1  0  0  0  0
 11 12  2  0  0  0  0
 11 13  1  0  0  0  0
 12 18  1  0  0  0  0
 13 16  2  0  0  0  0
 14 13  1  0  0  0  0
 14 15  1  0  0  0  0
 15 50  1  0  0  0  0
 16 17  1  0  0  0  0
 16 51  1  0  0  0  0
 17 32  1  0  0  0  0
 18 19  1  0  0  0  0
 18 17  2  0  0  0  0
 19 28  2  0  0  0  0
 20 21  1  0  0  0  0
 20 19  1  0  0  0  0
 21 27  1  0  0  0  0
 22 23  1  0  0  0  0
 22 21  2  0  0  0  0
 23 25  2  0  0  0  0
 24 23  1  0  0  0  0
 25 54  1  0  0  0  0
 25 26  1  0  0  0  0
 26 55  1  0  0  0  0
 27 26  2  0  0  0  0
 27 56  1  0  0  0  0
 28 29  1  0  0  0  0
 28 31  1  0  0  0  0
 29 30  3  0  0  0  0
 31 57  1  0  0  0  0
 32 31  2  0  0  0  0
 34  3  1  0  0  0  0
 34 35  1  0  0  0  0
 35 36  1  0  0  0  0
 36 61  1  0  0  0  0
 36 59  1  0  0  0  0
 37 35  2  0  0  0  0
 39  2  1  0  0  0  0
 39 40  1  0  0  0  0
 40 65  1  0  0  0  0
 40 64  1  0  0  0  0
 42  4  1  0  0  0  0
 43  7  1  0  0  0  0
 44  7  1  0  0  0  0
 45  7  1  0  0  0  0
 46 10  1  0  0  0  0
 47 12  1  0  0  0  0
 48 15  1  0  0  0  0
 49 15  1  0  0  0  0
 52 20  1  0  0  0  0
 53 22  1  0  0  0  0
 58 34  1  0  0  0  0
 60 36  1  0  0  0  0
 62 39  1  0  0  0  0
 63 40  1  0  0  0  0
 66  8  1  0  0  0  0
M  END
