67
-1 1
O        -1.324165    1.428143    2.477971
C        -1.924126    0.800063    1.612782
C        -2.670885    1.579924    0.501748
C        -3.140700    0.795518   -0.721419
S        -1.801923    0.211587   -1.817309
C        -2.740893   -1.169286   -2.753779
C        -2.524017   -0.948187   -4.245368
C        -2.367838   -2.529701   -2.299832
C        -2.627536   -2.919959   -1.009385
N        -2.005668   -4.158564   -0.547574
C        -0.744220   -4.019902    0.004732
C        -0.124541   -2.785553    0.106326
C        -0.045829   -5.158387    0.511055
O        -0.631985   -6.390139    0.409929
C        -1.663842   -6.617629    1.347754
C         1.199870   -5.027362    1.078149
C         1.839263   -3.765739    1.176089
C         1.158315   -2.632521    0.665154
C         1.811136   -1.343408    0.704767
N         1.172455   -0.285320    0.140135
C         1.415775    1.096086    0.301993
C         1.426032    1.902354   -0.841307
C         1.558284    3.279156   -0.697224
Br         1.523232    4.374059   -2.246011
C         1.698106    3.868670    0.555267
C         1.694335    3.049609    1.680459
C         1.540939    1.673490    1.565234
C         3.086708   -1.315381    1.289390
C         3.942734   -0.169809    1.319285
N         4.710793    0.697753    1.370110
C         3.638981   -2.528080    1.809953
N         3.072765   -3.697120    1.763004
O        -3.240429   -2.256230   -0.127022
N        -1.954991    2.775743    0.121033
C        -1.949242    3.980206    0.762549
C        -2.918904    4.153715    1.914562
O        -1.215009    4.885356    0.407750
H        -3.599526    1.896731    1.005089
N        -2.054305   -0.533467    1.639363
C        -1.469727   -1.288457    2.719944
H        -3.696128   -0.100039   -0.408436
H        -3.808423    1.447610   -1.303896
H        -2.832933    0.058522   -4.560987
H        -3.101245   -1.695339   -4.813064
H        -1.462584   -1.077390   -4.510973
H        -2.107465   -4.979188   -1.134774
H        -0.677411   -1.925850   -0.264640
H        -2.076986   -7.613780    1.138789
H        -2.462878   -5.863441    1.256881
H        -1.267696   -6.603175    2.378668
H         1.716061   -5.906600    1.465362
H         0.346562   -0.488341   -0.421627
H         1.319990    1.447332   -1.826774
H         1.768774    4.951371    0.649994
H         1.772708    3.499027    2.671510
H         1.475383    1.047246    2.454512
H         4.632654   -2.467049    2.270738
H        -1.213335    2.674314   -0.567328
H        -2.680716    3.427844    2.704459
H        -3.960077    3.997241    1.591892
H        -2.809684    5.176617    2.292094
H        -2.527977   -1.085848    0.899075
H        -1.729352   -2.345058    2.578321
H        -1.842110   -0.940779    3.697074
H        -0.371333   -1.195874    2.732071
H        -1.704951   -3.128516   -2.930721
H        -3.783977   -0.932816   -2.488592
