67
-1 1
O        -1.312275   -0.143138    0.639435
C        -0.281117   -0.383466    0.029252
C         1.022121    0.369622    0.284476
C         2.097541   -0.589219    0.858341
S         3.110344   -1.373216   -0.430643
C         4.578277    0.570654   -0.481400
C         5.233893    0.252414   -1.798085
C         5.347322    0.641281    0.674720
C         4.949749    1.369134    1.840588
N         5.920052    1.353428    2.871983
C         5.832400    1.918645    4.118764
C         4.731182    2.597399    4.609746
C         6.984853    1.793660    4.975082
O         8.014196    1.114386    4.422034
C         9.185331    0.931080    5.167364
C         6.997597    2.342215    6.233837
C         5.866001    3.034394    6.740389
C         4.717062    3.142764    5.916639
C         3.565244    3.816857    6.445201
N         2.428619    3.874213    5.678403
C         1.426641    4.857467    5.669500
C         1.729017    6.206106    5.890125
C         0.706066    7.145357    5.847954
Br         1.121391    8.965144    6.187040
C        -0.607972    6.788491    5.555801
C        -0.890625    5.446031    5.311162
C         0.110019    4.483257    5.379242
C         3.666482    4.327803    7.746857
C         2.569551    4.906442    8.459790
N         1.714174    5.369217    9.090953
C         4.896637    4.181972    8.452528
N         5.948321    3.568030    7.991407
O         3.899708    1.993438    2.013299
N         0.786697    1.513998    1.121488
C         1.288186    2.739173    0.816409
C         1.152871    3.779510    1.909427
O         1.839766    2.994574   -0.238840
H         1.399431    0.767806   -0.668310
N        -0.157809   -1.360289   -0.903320
C        -1.211414   -2.296057   -1.186187
H         2.755174    0.005386    1.504987
H         1.622090   -1.356937    1.491701
H         4.492597    0.025269   -2.574898
H         5.916548   -0.605989   -1.704570
H         5.830509    1.122856   -2.124133
H         6.784812    0.865602    2.681677
H         3.897082    2.689641    3.918266
H         9.874223    0.356033    4.536753
H         8.989509    0.368099    6.096207
H         9.653739    1.895688    5.428769
H         7.862113    2.272108    6.892220
H         2.389824    3.213567    4.910982
H         2.755258    6.512913    6.094766
H        -1.393882    7.543386    5.522583
H        -1.913927    5.144579    5.079025
H        -0.122528    3.429230    5.215930
H         4.956908    4.601248    9.463781
H         0.221937    1.382540    1.948698
H         0.918192    4.753891    1.462549
H         2.140243    3.854264    2.390270
H         0.393580    3.529451    2.664323
H         0.795697   -1.552655   -1.227684
H        -1.403396   -2.366364   -2.269188
H        -2.123319   -1.943511   -0.686640
H        -0.975490   -3.307010   -0.812031
H         6.292425    0.088287    0.712260
H         3.718451    1.248299   -0.525702
