67
-1 1
O        -4.185895   -2.764280   -3.006163
C        -3.181706   -3.047602   -3.633844
C        -1.816804   -2.420910   -3.361912
C        -0.882727   -3.461306   -2.689277
S         0.186142   -4.335581   -3.867264
C         1.529540   -2.981467   -4.013805
C         2.306743   -3.302069   -5.286131
C         2.383345   -2.848524   -2.815892
C         2.097498   -1.960391   -1.789891
N         3.112277   -1.879393   -0.770687
C         3.031656   -1.263354    0.437952
C         1.896832   -0.641768    0.941694
C         4.216561   -1.250550    1.265551
O         5.279945   -1.880741    0.714379
C         6.484736   -1.921608    1.423092
C         4.227902   -0.633612    2.492268
C         3.063254   -0.001420    3.005421
C         1.884435   -0.031207    2.215426
C         0.700465    0.573669    2.751532
N        -0.464090    0.472218    2.023399
C        -1.512116    1.387311    1.888218
C        -1.331558    2.761375    2.089307
C        -2.407170    3.620803    1.900275
Br        -2.152912    5.477079    2.204712
C        -3.655337    3.164509    1.485055
C        -3.815585    1.797521    1.263654
C        -2.764436    0.913331    1.472979
C         0.795478    1.165777    4.016611
C        -0.332108    1.685633    4.726454
N        -1.218250    2.106097    5.344813
C         2.055144    1.164493    4.686045
N         3.137809    0.608612    4.220199
O         1.079445   -1.234336   -1.650982
N        -1.924453   -1.204562   -2.607327
C        -1.259172   -0.079828   -3.009532
C        -1.095103    0.984887   -1.951655
O        -0.811232    0.047321   -4.134290
H        -1.370899   -2.116064   -4.319807
N        -3.144466   -3.994592   -4.612546
C        -4.278218   -4.815200   -4.943190
H        -0.224223   -2.924862   -1.992615
H        -1.458261   -4.212979   -2.127697
H         1.647451   -3.380555   -6.164232
H         2.858999   -4.251243   -5.183414
H         3.044247   -2.505905   -5.469119
H         3.994496   -2.328915   -0.971892
H         1.043998   -0.639032    0.265457
H         7.199660   -2.474821    0.801411
H         6.369820   -2.441167    2.390560
H         6.879678   -0.908017    1.611950
H         5.117413   -0.601932    3.119940
H        -0.449498   -0.258588    1.321591
H        -0.357391    3.154134    2.380352
H        -4.481793    3.859970    1.337866
H        -4.782757    1.414547    0.932041
H        -2.905888   -0.158432    1.317351
H         2.113348    1.646622    5.668951
H        -2.243335   -1.269064   -1.651375
H        -1.090213    1.974239   -2.425005
H        -0.107941    0.797943   -1.500298
H        -1.869951    0.950027   -1.171833
H        -2.233304   -4.210024   -5.010724
H        -4.527913   -4.747188   -6.014608
H        -5.133290   -4.451619   -4.358456
H        -4.105560   -5.875478   -4.693394
H         3.265715   -3.493396   -2.743425
H         0.942048   -2.060419   -4.156705
