83
-1 1
O         3.245873   -3.171684    0.780217
C         2.675101   -2.098978    0.693549
C         3.062143   -0.910210    1.570003
C         2.111610   -0.822979    2.788371
S         2.306714    0.707393    3.764669
C         0.382114    2.819010    1.563748
C         0.540252    4.108326    2.334610
N        -0.440385    4.247413    3.406061
C        -0.310381    3.329887    4.531817
C        -1.267838    3.757084    5.632236
O        -2.600747    3.816528    5.178874
C        -2.732380    4.674771    4.079850
C        -1.812213    4.269164    2.936728
C         1.975289    4.274434    2.841188
C         0.499841    2.716770    0.233965
C         0.263170    1.427586   -0.447308
O        -0.350700    0.503837    0.059331
N         0.755509    1.353081   -1.738307
C         0.534138    0.264811   -2.589529
C         1.633861   -0.256153   -3.338783
O         2.796923    0.371126   -3.142424
C         3.989624   -0.241360   -3.586732
C         1.433471   -1.314208   -4.199347
C         0.158210   -1.915439   -4.337808
N         0.037732   -2.924841   -5.248419
C        -1.134772   -3.471081   -5.391898
C        -2.280730   -3.117187   -4.631855
C        -3.515983   -3.807890   -4.823750
N        -4.538598   -4.340158   -4.955763
C        -2.190738   -2.104159   -3.661992
N        -3.293990   -1.778828   -2.917838
C        -3.290135   -1.299019   -1.578431
C        -2.521481   -1.933710   -0.599078
C        -2.478164   -1.422929    0.692222
Cl        -1.489894   -2.160228    1.899112
C        -3.221111   -0.284257    1.008546
F        -3.166305    0.224344    2.229766
C        -4.019445    0.325203    0.051216
C        -4.051692   -0.178228   -1.246243
C        -0.925708   -1.437143   -3.545906
C        -0.705110   -0.311580   -2.710164
N         3.024291    0.361696    0.879419
C         3.888908    0.668473   -0.110133
C         3.957961    2.141226   -0.480888
O         4.582929   -0.154753   -0.689577
H         4.086009   -1.123743    1.916596
N         1.607638   -1.907449   -0.131583
C         1.054578   -3.016181   -0.860304
H         1.074786   -0.889488    2.418633
H         2.294463   -1.716160    3.404259
H         0.336844    4.941763    1.636591
H         0.717212    3.344215    4.918444
H        -0.516965    2.277724    4.252253
H        -0.958748    4.750261    6.019749
H        -1.242854    3.034276    6.459563
H        -2.493394    5.718671    4.374130
H        -3.785113    4.635314    3.761286
H        -1.907646    4.997521    2.113534
H        -2.142371    3.280126    2.547437
H         2.653367    4.429567    1.988691
H         2.319769    3.373509    3.369979
H         2.029645    5.153627    3.501113
H         1.545802    1.945060   -1.964068
H         4.036958   -1.283262   -3.237291
H         4.810200    0.304314   -3.111130
H         4.065124   -0.199943   -4.686825
H         2.239771   -1.729570   -4.801132
H        -1.234192   -4.270405   -6.135839
H        -4.152577   -2.239006   -3.204692
H        -1.920032   -2.808558   -0.848239
H        -4.588562    1.211907    0.333583
H        -4.641858    0.317586   -2.018653
H        -1.515153    0.112490   -2.127485
H         2.713986    1.102979    1.527436
H         3.817251    2.236709   -1.567815
H         4.967380    2.509055   -0.245852
H         3.221840    2.757362    0.052735
H         1.041412   -1.070059   -0.018983
H         1.866054   -3.610134   -1.302769
H         0.409940   -2.641290   -1.665151
H         0.463703   -3.694028   -0.216219
H         0.760234    3.585236   -0.382813
H         0.178148    1.910759    2.143987
