-1 1
 OpenBabel05232414493D

 83 85  0  0  1  0  0  0  0  0999 V2000
    4.6861   -3.6028   -3.7455 O   0  0  0  0  0  0  0  0  0  0  0  0
    4.1902   -2.5000   -3.8975 C   0  0  0  0  0  0  0  0  0  0  0  0
    4.7796   -1.2539   -3.2310 C   0  0  2  0  0  0  0  0  0  0  0  0
    3.9615   -0.8768   -1.9753 C   0  0  0  0  0  0  0  0  0  0  0  0
    4.4107    0.7343   -1.2439 S   0  0  0  0  0  1  0  0  0  0  0  0
    2.3691    2.1814   -2.4245 C   0  0  0  0  0  3  0  0  0  0  0  0
    2.3585    3.4270   -1.5600 C   0  0  1  0  0  0  0  0  0  0  0  0
    1.0839    4.1456   -1.7683 N   0  0  0  0  0  0  0  0  0  0  0  0
   -0.1220    3.3498   -1.6154 C   0  0  0  0  0  0  0  0  0  0  0  0
   -1.3324    4.2668   -1.5496 C   0  0  0  0  0  0  0  0  0  0  0  0
   -1.4172    5.0910   -2.6874 O   0  0  0  0  0  0  0  0  0  0  0  0
   -0.2474    5.8486   -2.8609 C   0  0  0  0  0  0  0  0  0  0  0  0
    0.9873    4.9611   -2.9579 C   0  0  0  0  0  0  0  0  0  0  0  0
    2.5749    3.1982   -0.0688 C   0  0  0  0  0  0  0  0  0  0  0  0
    2.5459    2.2597   -3.7770 C   0  0  0  0  0  3  0  0  0  0  0  0
    2.0726    1.2018   -4.6417 C   0  0  0  0  0  0  0  0  0  0  0  0
    1.4656    0.2031   -4.2479 O   0  0  0  0  0  0  0  0  0  0  0  0
    2.3177    1.3940   -5.9972 N   0  0  0  0  0  0  0  0  0  0  0  0
    1.8518    0.6295   -7.0541 C   0  0  0  0  0  0  0  0  0  0  0  0
    2.3185    0.9681   -8.3671 C   0  0  0  0  0  0  0  0  0  0  0  0
    3.1914    1.9981   -8.4015 O   0  0  0  0  0  0  0  0  0  0  0  0
    3.7864    2.3460   -9.6237 C   0  0  0  0  0  0  0  0  0  0  0  0
    1.8869    0.2647   -9.4656 C   0  0  0  0  0  0  0  0  0  0  0  0
    0.9590   -0.8028   -9.3372 C   0  0  0  0  0  0  0  0  0  0  0  0
    0.6091   -1.4706  -10.4735 N   0  0  0  0  0  0  0  0  0  0  0  0
   -0.2180   -2.4690  -10.3506 C   0  0  0  0  0  0  0  0  0  0  0  0
   -0.7980   -2.8794   -9.1212 C   0  0  0  0  0  0  0  0  0  0  0  0
   -1.7336   -3.9585   -9.0938 C   0  0  0  0  0  0  0  0  0  0  0  0
   -2.4993   -4.8283   -9.0358 N   0  0  0  0  0  0  0  0  0  0  0  0
   -0.4772   -2.2019   -7.9321 C   0  0  0  0  0  0  0  0  0  0  0  0
   -1.0301   -2.6166   -6.7497 N   0  0  0  0  0  0  0  0  0  0  0  0
   -1.2649   -1.8306   -5.5886 C   0  0  0  0  0  0  0  0  0  0  0  0
   -0.7674   -2.2633   -4.3590 C   0  0  0  0  0  0  0  0  0  0  0  0
   -0.9404   -1.4798   -3.2233 C   0  0  0  0  0  0  0  0  0  0  0  0
   -0.2649   -1.9671   -1.7077 Cl  0  0  0  0  0  0  0  0  0  0  0  0
   -1.6141   -0.2642   -3.3217 C   0  0  0  0  0  0  0  0  0  0  0  0
   -1.7704    0.4954   -2.2427 F   0  0  0  0  0  0  0  0  0  0  0  0
   -2.1235    0.1667   -4.5388 C   0  0  0  0  0  0  0  0  0  0  0  0
   -1.9624   -0.6224   -5.6717 C   0  0  0  0  0  0  0  0  0  0  0  0
    0.4706   -1.1280   -8.0427 C   0  0  0  0  0  0  0  0  0  0  0  0
    0.9604   -0.4112   -6.9229 C   0  0  0  0  0  0  0  0  0  0  0  0
    4.8248   -0.0985   -4.1001 N   0  0  0  0  0  0  0  0  0  0  0  0
    5.4646   -0.0782   -5.2918 C   0  0  0  0  0  0  0  0  0  0  0  0
    5.6376    1.3058   -5.9015 C   0  0  0  0  0  0  0  0  0  0  0  0
    5.8685   -1.0733   -5.8677 O   0  0  0  0  0  0  0  0  0  0  0  0
    5.7987   -1.5493   -2.9317 H   0  0  0  0  0  0  0  0  0  0  0  0
    3.0531   -2.3043   -4.6115 N   0  0  0  0  0  0  0  0  0  0  0  0
    2.4430   -3.3977   -5.3141 C   0  0  0  0  0  0  0  0  0  0  0  0
    2.8942   -0.8582   -2.2482 H   0  0  0  0  0  0  0  0  0  0  0  0
    4.0945   -1.6819   -1.2379 H   0  0  0  0  0  0  0  0  0  0  0  0
    3.1459    4.1088   -1.9224 H   0  0  0  0  0  0  0  0  0  0  0  0
   -0.0669    2.7515   -0.6941 H   0  0  0  0  0  0  0  0  0  0  0  0
   -0.2641    2.6433   -2.4591 H   0  0  0  0  0  0  0  0  0  0  0  0
   -1.2715    4.8886   -0.6328 H   0  0  0  0  0  0  0  0  0  0  0  0
   -2.2579    3.6741   -1.5123 H   0  0  0  0  0  0  0  0  0  0  0  0
   -0.1184    6.5531   -2.0132 H   0  0  0  0  0  0  0  0  0  0  0  0
   -0.3767    6.4331   -3.7842 H   0  0  0  0  0  0  0  0  0  0  0  0
    1.8860    5.5936   -3.0456 H   0  0  0  0  0  0  0  0  0  0  0  0
    0.9141    4.3506   -3.8851 H   0  0  0  0  0  0  0  0  0  0  0  0
    3.5992    2.8653    0.1333 H   0  0  0  0  0  0  0  0  0  0  0  0
    1.9129    2.4099    0.3198 H   0  0  0  0  0  0  0  0  0  0  0  0
    2.3659    4.1361    0.4669 H   0  0  0  0  0  0  0  0  0  0  0  0
    2.9096    2.1715   -6.2579 H   0  0  0  0  0  0  0  0  0  0  0  0
    4.3460    1.4973  -10.0510 H   0  0  0  0  0  0  0  0  0  0  0  0
    4.4819    3.1667   -9.4116 H   0  0  0  0  0  0  0  0  0  0  0  0
    3.0336    2.6869  -10.3548 H   0  0  0  0  0  0  0  0  0  0  0  0
    2.2399    0.4830  -10.4721 H   0  0  0  0  0  0  0  0  0  0  0  0
   -0.4925   -3.0162  -11.2602 H   0  0  0  0  0  0  0  0  0  0  0  0
   -1.5371   -3.4949   -6.7924 H   0  0  0  0  0  0  0  0  0  0  0  0
   -0.1922   -3.1864   -4.2940 H   0  0  0  0  0  0  0  0  0  0  0  0
   -2.6379    1.1277   -4.5806 H   0  0  0  0  0  0  0  0  0  0  0  0
   -2.3440   -0.2854   -6.6369 H   0  0  0  0  0  0  0  0  0  0  0  0
    0.6567   -0.6546   -5.9154 H   0  0  0  0  0  0  0  0  0  0  0  0
    4.7137    0.7703   -3.5663 H   0  0  0  0  0  0  0  0  0  0  0  0
    5.1065    1.3388   -6.8631 H   0  0  0  0  0  0  0  0  0  0  0  0
    6.7068    1.4617   -6.1036 H   0  0  0  0  0  0  0  0  0  0  0  0
    5.2713    2.1139   -5.2521 H   0  0  0  0  0  0  0  0  0  0  0  0
    2.5984   -1.3934   -4.5962 H   0  0  0  0  0  0  0  0  0  0  0  0
    3.1964   -3.9404   -5.9048 H   0  0  0  0  0  0  0  0  0  0  0  0
    1.6728   -3.0119   -5.9957 H   0  0  0  0  0  0  0  0  0  0  0  0
    1.9796   -4.1333   -4.6303 H   0  0  0  0  0  0  0  0  0  0  0  0
    3.0424    3.1267   -4.2245 H   0  0  0  0  0  0  0  0  0  0  0  0
    1.8210    1.3155   -2.0457 H   0  0  0  0  0  0  0  0  0  0  0  0
  2  1  2  0  0  0  0
  2  3  1  0  0  0  0
  3 46  1  1  0  0  0
  3  4  1  0  0  0  0
  4  5  1  0  0  0  0
  4 50  1  0  0  0  0
  6 83  1  0  0  0  0
  6  7  1  0  0  0  0
  7 51  1  6  0  0  0
  7 14  1  0  0  0  0
  8  9  1  0  0  0  0
  8  7  1  0  0  0  0
  9 10  1  0  0  0  0
  9 52  1  0  0  0  0
 10 55  1  0  0  0  0
 10 54  1  0  0  0  0
 11 10  1  0  0  0  0
 12 11  1  0  0  0  0
 12 56  1  0  0  0  0
 13 12  1  0  0  0  0
 13  8  1  0  0  0  0
 14 60  1  0  0  0  0
 14 61  1  0  0  0  0
 14 62  1  0  0  0  0
 15  6  1  0  0  0  0
 16 17  2  0  0  0  0
 16 15  1  0  0  0  0
 18 16  1  0  0  0  0
 19 41  1  0  0  0  0
 19 18  1  0  0  0  0
 20 19  2  0  0  0  0
 21 20  1  0  0  0  0
 22 65  1  0  0  0  0
 22 21  1  0  0  0  0
 23 24  2  0  0  0  0
 23 20  1  0  0  0  0
 24 40  1  0  0  0  0
 25 26  2  0  0  0  0
 25 24  1  0  0  0  0
 26 27  1  0  0  0  0
 27 28  1  0  0  0  0
 27 30  2  0  0  0  0
 28 29  3  0  0  0  0
 30 31  1  0  0  0  0
 31 32  1  0  0  0  0
 32 33  1  0  0  0  0
 33 70  1  0  0  0  0
 33 34  2  0  0  0  0
 34 35  1  0  0  0  0
 36 34  1  0  0  0  0
 36 37  1  0  0  0  0
 38 36  2  0  0  0  0
 39 32  2  0  0  0  0
 39 38  1  0  0  0  0
 40 30  1  0  0  0  0
 40 41  2  0  0  0  0
 41 73  1  0  0  0  0
 42 74  1  0  0  0  0
 42  3  1  0  0  0  0
 43 42  1  0  0  0  0
 44 43  1  0  0  0  0
 44 77  1  0  0  0  0
 45 43  2  0  0  0  0
 47 78  1  0  0  0  0
 47  2  1  0  0  0  0
 48 81  1  0  0  0  0
 48 47  1  0  0  0  0
 49  4  1  0  0  0  0
 53  9  1  0  0  0  0
 57 12  1  0  0  0  0
 58 13  1  0  0  0  0
 59 13  1  0  0  0  0
 63 18  1  0  0  0  0
 64 22  1  0  0  0  0
 66 22  1  0  0  0  0
 67 23  1  0  0  0  0
 68 26  1  0  0  0  0
 69 31  1  0  0  0  0
 71 38  1  0  0  0  0
 72 39  1  0  0  0  0
 75 44  1  0  0  0  0
 76 44  1  0  0  0  0
 79 48  1  0  0  0  0
 80 48  1  0  0  0  0
 82 15  1  0  0  0  0
M  END
