-1 1
 OpenBabel05232413483D

 78 79  0  0  1  0  0  0  0  0999 V2000
    0.1164   -4.1871    3.5841 O   0  0  0  0  0  0  0  0  0  0  0  0
    1.2762   -4.4495    3.3068 C   0  0  0  0  0  0  0  0  0  0  0  0
    2.3697   -3.3581    3.2018 C   0  0  2  0  0  0  0  0  0  0  0  0
    1.7511   -1.9520    3.3962 C   0  0  0  0  0  0  0  0  0  0  0  0
    2.7512   -0.5785    2.7185 S   0  0  0  0  0  1  0  0  0  0  0  0
   -0.3915   -2.5938   -0.1568 C   0  0  0  0  0  0  0  0  0  0  0  0
    0.0033   -3.9930    0.1991 C   0  0  0  0  0  0  0  0  0  0  0  0
   -0.1659   -4.9343   -0.8963 N   0  0  0  0  0  0  0  0  0  0  0  0
    0.6954   -4.6272   -2.0144 C   0  0  0  0  0  0  0  0  0  0  0  0
    0.0073   -6.2939   -0.4463 C   0  0  0  0  0  0  0  0  0  0  0  0
    0.3397   -1.5241    0.1650 C   0  0  0  0  0  0  0  0  0  0  0  0
   -0.1273   -0.1406   -0.1158 C   0  0  0  0  0  0  0  0  0  0  0  0
   -1.1148    0.1043   -0.7937 O   0  0  0  0  0  0  0  0  0  0  0  0
    0.6721    0.8187    0.4570 N   0  0  0  0  0  0  0  0  0  0  0  0
    0.5034    2.1919    0.3386 C   0  0  0  0  0  0  0  0  0  0  0  0
    1.6368    3.0234    0.6589 C   0  0  0  0  0  0  0  0  0  0  0  0
    2.7495    2.3581    0.9675 O   0  0  0  0  0  0  0  0  0  0  0  0
    3.8824    3.0542    1.4440 C   0  0  0  0  0  0  0  0  0  0  0  0
    4.9830    2.0518    1.7048 C   0  0  0  0  0  0  0  0  0  0  0  0
    1.5189    4.3958    0.6372 C   0  0  0  0  0  0  0  0  0  0  0  0
    0.3151    5.0231    0.2307 C   0  0  0  0  0  0  0  0  0  0  0  0
    0.2703    6.3855    0.2682 N   0  0  0  0  0  0  0  0  0  0  0  0
   -0.8410    6.9658   -0.0855 C   0  0  0  0  0  0  0  0  0  0  0  0
   -1.9864    6.2699   -0.5520 C   0  0  0  0  0  0  0  0  0  0  0  0
   -3.1471    6.9909   -0.9692 C   0  0  0  0  0  0  0  0  0  0  0  0
   -4.1077    7.5468   -1.3082 N   0  0  0  0  0  0  0  0  0  0  0  0
   -1.9644    4.8672   -0.6311 C   0  0  0  0  0  0  0  0  0  0  0  0
   -3.0809    4.2018   -1.0834 N   0  0  0  0  0  0  0  0  0  0  0  0
   -3.1334    3.0337   -1.8717 C   0  0  0  0  0  0  0  0  0  0  0  0
   -2.1133    2.7135   -2.7739 C   0  0  0  0  0  0  0  0  0  0  0  0
   -2.2004    1.5334   -3.5010 C   0  0  0  0  0  0  0  0  0  0  0  0
   -0.7748    1.0661   -4.6579 Br  0  0  0  0  0  0  0  0  0  0  0  0
   -3.2966    0.6828   -3.3923 C   0  0  0  0  0  0  0  0  0  0  0  0
   -4.3243    1.0349   -2.5219 C   0  0  0  0  0  0  0  0  0  0  0  0
   -4.2447    2.1936   -1.7564 C   0  0  0  0  0  0  0  0  0  0  0  0
   -0.7800    4.2081   -0.1745 C   0  0  0  0  0  0  0  0  0  0  0  0
   -0.6671    2.7955   -0.0651 C   0  0  0  0  0  0  0  0  0  0  0  0
    3.0881   -3.3751    1.9357 N   0  0  0  0  0  0  0  0  0  0  0  0
    4.0427   -4.2481    1.5684 C   0  0  0  0  0  0  0  0  0  0  0  0
    4.8189   -3.8539    0.3284 C   0  0  0  0  0  0  0  0  0  0  0  0
    4.2683   -5.3194    2.1329 O   0  0  0  0  0  0  0  0  0  0  0  0
    3.0945   -3.5618    4.0131 H   0  0  0  0  0  0  0  0  0  0  0  0
    1.7198   -5.7124    3.1001 N   0  0  0  0  0  0  0  0  0  0  0  0
    0.8498   -6.8534    3.1753 C   0  0  0  0  0  0  0  0  0  0  0  0
    0.7550   -1.9590    2.9305 H   0  0  0  0  0  0  0  0  0  0  0  0
    1.5791   -1.8116    4.4720 H   0  0  0  0  0  0  0  0  0  0  0  0
   -0.6309   -4.3195    1.0417 H   0  0  0  0  0  0  0  0  0  0  0  0
    1.0459   -3.9946    0.5837 H   0  0  0  0  0  0  0  0  0  0  0  0
    0.5216   -3.5975   -2.3599 H   0  0  0  0  0  0  0  0  0  0  0  0
    0.4860   -5.3091   -2.8538 H   0  0  0  0  0  0  0  0  0  0  0  0
    1.7784   -4.7168   -1.7626 H   0  0  0  0  0  0  0  0  0  0  0  0
   -0.7033   -6.5190    0.3636 H   0  0  0  0  0  0  0  0  0  0  0  0
    1.0325   -6.4936   -0.0556 H   0  0  0  0  0  0  0  0  0  0  0  0
   -0.1822   -6.9969   -1.2732 H   0  0  0  0  0  0  0  0  0  0  0  0
    1.4366    0.4832    1.0795 H   0  0  0  0  0  0  0  0  0  0  0  0
    3.6113    3.5971    2.3673 H   0  0  0  0  0  0  0  0  0  0  0  0
    4.1964    3.8037    0.6935 H   0  0  0  0  0  0  0  0  0  0  0  0
    5.2683    1.5423    0.7733 H   0  0  0  0  0  0  0  0  0  0  0  0
    4.6465    1.2885    2.4220 H   0  0  0  0  0  0  0  0  0  0  0  0
    5.8670    2.5680    2.1081 H   0  0  0  0  0  0  0  0  0  0  0  0
    2.3411    5.0514    0.9171 H   0  0  0  0  0  0  0  0  0  0  0  0
   -0.8813    8.0604   -0.0363 H   0  0  0  0  0  0  0  0  0  0  0  0
   -3.9295    4.7574   -1.1032 H   0  0  0  0  0  0  0  0  0  0  0  0
   -1.2447    3.3643   -2.8752 H   0  0  0  0  0  0  0  0  0  0  0  0
   -3.3356   -0.2457   -3.9619 H   0  0  0  0  0  0  0  0  0  0  0  0
   -5.1885    0.3761   -2.4156 H   0  0  0  0  0  0  0  0  0  0  0  0
   -5.0310    2.4417   -1.0407 H   0  0  0  0  0  0  0  0  0  0  0  0
   -1.5033    2.1462   -0.2986 H   0  0  0  0  0  0  0  0  0  0  0  0
    3.1956   -2.3946    1.6104 H   0  0  0  0  0  0  0  0  0  0  0  0
    4.4072   -4.4047   -0.5313 H   0  0  0  0  0  0  0  0  0  0  0  0
    5.8652   -4.1602    0.4547 H   0  0  0  0  0  0  0  0  0  0  0  0
    4.7636   -2.7775    0.1163 H   0  0  0  0  0  0  0  0  0  0  0  0
    2.7122   -5.8251    2.8656 H   0  0  0  0  0  0  0  0  0  0  0  0
    1.0589   -7.4753    4.0634 H   0  0  0  0  0  0  0  0  0  0  0  0
    0.9517   -7.4890    2.2813 H   0  0  0  0  0  0  0  0  0  0  0  0
   -0.1858   -6.4947    3.2441 H   0  0  0  0  0  0  0  0  0  0  0  0
    1.2973   -1.6239    0.6840 H   0  0  0  0  0  0  0  0  0  0  0  0
   -1.3500   -2.4499   -0.6692 H   0  0  0  0  0  0  0  0  0  0  0  0
  2  1  2  0  0  0  0
  3  2  1  0  0  0  0
  3  4  1  0  0  0  0
  3 42  1  1  0  0  0
  4 46  1  0  0  0  0
  5  4  1  0  0  0  0
  6 11  2  0  0  0  0
  6  7  1  0  0  0  0
  7 48  1  0  0  0  0
  7 47  1  0  0  0  0
  8 10  1  0  0  0  0
  8  7  1  0  0  0  0
  9 51  1  0  0  0  0
  9  8  1  0  0  0  0
 10 53  1  0  0  0  0
 10 52  1  0  0  0  0
 11 77  1  0  0  0  0
 12 11  1  0  0  0  0
 12 14  1  0  0  0  0
 13 12  2  0  0  0  0
 14 55  1  0  0  0  0
 15 14  1  0  0  0  0
 15 16  1  0  0  0  0
 16 17  1  0  0  0  0
 17 18  1  0  0  0  0
 18 19  1  0  0  0  0
 18 56  1  0  0  0  0
 19 60  1  0  0  0  0
 19 59  1  0  0  0  0
 20 16  2  0  0  0  0
 20 61  1  0  0  0  0
 21 22  1  0  0  0  0
 21 20  1  0  0  0  0
 23 62  1  0  0  0  0
 23 22  2  0  0  0  0
 24 23  1  0  0  0  0
 25 24  1  0  0  0  0
 26 25  3  0  0  0  0
 27 24  2  0  0  0  0
 27 36  1  0  0  0  0
 28 27  1  0  0  0  0
 29 35  1  0  0  0  0
 29 28  1  0  0  0  0
 30 29  2  0  0  0  0
 31 33  2  0  0  0  0
 31 30  1  0  0  0  0
 32 31  1  0  0  0  0
 33 34  1  0  0  0  0
 34 66  1  0  0  0  0
 34 35  2  0  0  0  0
 35 67  1  0  0  0  0
 36 37  1  0  0  0  0
 36 21  2  0  0  0  0
 37 15  2  0  0  0  0
 38  3  1  0  0  0  0
 39 38  1  0  0  0  0
 39 41  2  0  0  0  0
 40 71  1  0  0  0  0
 40 39  1  0  0  0  0
 43 44  1  0  0  0  0
 43  2  1  0  0  0  0
 44 76  1  0  0  0  0
 44 74  1  0  0  0  0
 45  4  1  0  0  0  0
 49  9  1  0  0  0  0
 50  9  1  0  0  0  0
 54 10  1  0  0  0  0
 57 18  1  0  0  0  0
 58 19  1  0  0  0  0
 63 28  1  0  0  0  0
 64 30  1  0  0  0  0
 65 33  1  0  0  0  0
 68 37  1  0  0  0  0
 69 38  1  0  0  0  0
 70 40  1  0  0  0  0
 72 40  1  0  0  0  0
 73 43  1  0  0  0  0
 75 44  1  0  0  0  0
 78  6  1  0  0  0  0
M  END
