-1 1
 OpenBabel05232413483D

 78 79  0  0  1  0  0  0  0  0999 V2000
    3.3878   -0.3034   -2.0919 O   0  0  0  0  0  0  0  0  0  0  0  0
    2.8994   -1.1225   -1.3247 C   0  0  0  0  0  0  0  0  0  0  0  0
    3.5764   -1.4586    0.0052 C   0  0  2  0  0  0  0  0  0  0  0  0
    4.3437   -2.8022   -0.0446 C   0  0  0  0  0  0  0  0  0  0  0  0
    4.9746   -3.3228    1.5924 S   0  0  0  0  0  1  0  0  0  0  0  0
    1.2175   -4.8129    1.3621 C   0  0  0  0  0  0  0  0  0  0  0  0
    2.2277   -5.6089    2.1074 C   0  0  0  0  0  0  0  0  0  0  0  0
    2.6684   -6.7665    1.3619 N   0  0  0  0  0  0  0  0  0  0  0  0
    3.9954   -7.2040    1.7296 C   0  0  0  0  0  0  0  0  0  0  0  0
    1.6994   -7.8300    1.3407 C   0  0  0  0  0  0  0  0  0  0  0  0
    0.1038   -4.2449    1.8454 C   0  0  0  0  0  0  0  0  0  0  0  0
   -0.6444   -3.3007    0.9857 C   0  0  0  0  0  0  0  0  0  0  0  0
   -0.2982   -3.0265   -0.1521 O   0  0  0  0  0  0  0  0  0  0  0  0
   -1.7324   -2.6920    1.5665 N   0  0  0  0  0  0  0  0  0  0  0  0
   -2.4383   -1.6286    0.9778 C   0  0  0  0  0  0  0  0  0  0  0  0
   -3.8568   -1.5992    1.0984 C   0  0  0  0  0  0  0  0  0  0  0  0
   -4.3846   -2.5989    1.8383 O   0  0  0  0  0  0  0  0  0  0  0  0
   -5.7837   -2.6667    1.9987 C   0  0  0  0  0  0  0  0  0  0  0  0
   -6.1015   -3.8711    2.8566 C   0  0  0  0  0  0  0  0  0  0  0  0
   -4.5773   -0.6032    0.4752 C   0  0  0  0  0  0  0  0  0  0  0  0
   -3.9262    0.4069   -0.2789 C   0  0  0  0  0  0  0  0  0  0  0  0
   -4.7124    1.3161   -0.9274 N   0  0  0  0  0  0  0  0  0  0  0  0
   -4.0970    2.1974   -1.6625 C   0  0  0  0  0  0  0  0  0  0  0  0
   -2.6851    2.3431   -1.7838 C   0  0  0  0  0  0  0  0  0  0  0  0
   -2.2330    3.3091   -2.7359 C   0  0  0  0  0  0  0  0  0  0  0  0
   -1.9549    4.0912   -3.5457 N   0  0  0  0  0  0  0  0  0  0  0  0
   -1.8391    1.5021   -1.0291 C   0  0  0  0  0  0  0  0  0  0  0  0
   -0.4975    1.6132   -0.9326 N   0  0  0  0  0  0  0  0  0  0  0  0
    0.3272    2.7203   -1.2456 C   0  0  0  0  0  0  0  0  0  0  0  0
   -0.0557    4.0271   -0.9267 C   0  0  0  0  0  0  0  0  0  0  0  0
    0.8150    5.0729   -1.2084 C   0  0  0  0  0  0  0  0  0  0  0  0
    0.2691    6.8504   -0.8146 Br  0  0  0  0  0  0  0  0  0  0  0  0
    2.0718    4.8491   -1.7629 C   0  0  0  0  0  0  0  0  0  0  0  0
    2.4533    3.5355   -2.0325 C   0  0  0  0  0  0  0  0  0  0  0  0
    1.5933    2.4712   -1.7838 C   0  0  0  0  0  0  0  0  0  0  0  0
   -2.5100    0.4234   -0.3305 C   0  0  0  0  0  0  0  0  0  0  0  0
   -1.7952   -0.6197    0.2991 C   0  0  0  0  0  0  0  0  0  0  0  0
    2.6543   -1.5376    1.1208 N   0  0  0  0  0  0  0  0  0  0  0  0
    1.6834   -0.6701    1.4016 C   0  0  0  0  0  0  0  0  0  0  0  0
    1.0194   -0.8318    2.7522 C   0  0  0  0  0  0  0  0  0  0  0  0
    1.3188    0.2197    0.6246 O   0  0  0  0  0  0  0  0  0  0  0  0
    4.2960   -0.6423    0.1774 H   0  0  0  0  0  0  0  0  0  0  0  0
    1.7823   -1.8234   -1.6161 N   0  0  0  0  0  0  0  0  0  0  0  0
    0.9730   -1.4880   -2.7588 C   0  0  0  0  0  0  0  0  0  0  0  0
    3.6630   -3.5691   -0.4552 H   0  0  0  0  0  0  0  0  0  0  0  0
    5.1649   -2.6832   -0.7667 H   0  0  0  0  0  0  0  0  0  0  0  0
    1.8704   -5.8607    3.1338 H   0  0  0  0  0  0  0  0  0  0  0  0
    3.0986   -4.9187    2.2049 H   0  0  0  0  0  0  0  0  0  0  0  0
    4.6917   -6.3538    1.6630 H   0  0  0  0  0  0  0  0  0  0  0  0
    4.3349   -7.9904    1.0366 H   0  0  0  0  0  0  0  0  0  0  0  0
    4.0430   -7.6218    2.7627 H   0  0  0  0  0  0  0  0  0  0  0  0
    0.7262   -7.4547    0.9864 H   0  0  0  0  0  0  0  0  0  0  0  0
    1.5353   -8.2936    2.3436 H   0  0  0  0  0  0  0  0  0  0  0  0
    2.0222   -8.6284    0.6535 H   0  0  0  0  0  0  0  0  0  0  0  0
   -2.1303   -3.0999    2.4025 H   0  0  0  0  0  0  0  0  0  0  0  0
   -6.2689   -2.7496    1.0094 H   0  0  0  0  0  0  0  0  0  0  0  0
   -6.1529   -1.7377    2.4704 H   0  0  0  0  0  0  0  0  0  0  0  0
   -5.7350   -4.7918    2.3805 H   0  0  0  0  0  0  0  0  0  0  0  0
   -7.1881   -3.9597    2.9983 H   0  0  0  0  0  0  0  0  0  0  0  0
   -5.6282   -3.7795    3.8449 H   0  0  0  0  0  0  0  0  0  0  0  0
   -5.6646   -0.5568    0.5101 H   0  0  0  0  0  0  0  0  0  0  0  0
   -4.7209    2.8961   -2.2333 H   0  0  0  0  0  0  0  0  0  0  0  0
    0.0196    0.9250   -0.3672 H   0  0  0  0  0  0  0  0  0  0  0  0
   -1.0233    4.2250   -0.4648 H   0  0  0  0  0  0  0  0  0  0  0  0
    2.7410    5.6842   -1.9735 H   0  0  0  0  0  0  0  0  0  0  0  0
    3.4413    3.3292   -2.4483 H   0  0  0  0  0  0  0  0  0  0  0  0
    1.9228    1.4504   -1.9924 H   0  0  0  0  0  0  0  0  0  0  0  0
   -0.7117   -0.6640    0.2257 H   0  0  0  0  0  0  0  0  0  0  0  0
    3.0358   -2.1754    1.8414 H   0  0  0  0  0  0  0  0  0  0  0  0
   -0.0689   -0.8991    2.6176 H   0  0  0  0  0  0  0  0  0  0  0  0
    1.2238    0.0726    3.3434 H   0  0  0  0  0  0  0  0  0  0  0  0
    1.3779   -1.7133    3.3001 H   0  0  0  0  0  0  0  0  0  0  0  0
    1.3268   -2.3695   -0.8882 H   0  0  0  0  0  0  0  0  0  0  0  0
    1.6104   -1.3350   -3.6405 H   0  0  0  0  0  0  0  0  0  0  0  0
    0.3936   -0.5608   -2.5964 H   0  0  0  0  0  0  0  0  0  0  0  0
    0.2658   -2.3051   -2.9512 H   0  0  0  0  0  0  0  0  0  0  0  0
   -0.2144   -4.3958    2.8825 H   0  0  0  0  0  0  0  0  0  0  0  0
    1.4716   -4.6173    0.3142 H   0  0  0  0  0  0  0  0  0  0  0  0
  1  2  2  0  0  0  0
  2  3  1  0  0  0  0
  3 42  1  1  0  0  0
  3 38  1  0  0  0  0
  4  3  1  0  0  0  0
  4  5  1  0  0  0  0
  6 11  2  0  0  0  0
  6  7  1  0  0  0  0
  7 48  1  0  0  0  0
  7 47  1  0  0  0  0
  8  9  1  0  0  0  0
  8  7  1  0  0  0  0
  9 51  1  0  0  0  0
 10  8  1  0  0  0  0
 10 53  1  0  0  0  0
 11 77  1  0  0  0  0
 12 14  1  0  0  0  0
 12 11  1  0  0  0  0
 13 12  2  0  0  0  0
 14 55  1  0  0  0  0
 15 16  1  0  0  0  0
 15 14  1  0  0  0  0
 16 17  1  0  0  0  0
 17 18  1  0  0  0  0
 18 57  1  0  0  0  0
 18 19  1  0  0  0  0
 19 59  1  0  0  0  0
 19 60  1  0  0  0  0
 20 61  1  0  0  0  0
 20 16  2  0  0  0  0
 21 20  1  0  0  0  0
 22 21  2  0  0  0  0
 23 22  1  0  0  0  0
 24 23  2  0  0  0  0
 24 27  1  0  0  0  0
 25 24  1  0  0  0  0
 26 25  3  0  0  0  0
 27 28  1  0  0  0  0
 27 36  2  0  0  0  0
 28 63  1  0  0  0  0
 29 28  1  0  0  0  0
 29 30  1  0  0  0  0
 30 64  1  0  0  0  0
 31 30  2  0  0  0  0
 31 32  1  0  0  0  0
 33 31  1  0  0  0  0
 34 35  1  0  0  0  0
 34 33  2  0  0  0  0
 35 29  2  0  0  0  0
 36 21  1  0  0  0  0
 36 37  1  0  0  0  0
 37 15  2  0  0  0  0
 38 39  1  0  0  0  0
 38 69  1  0  0  0  0
 39 40  1  0  0  0  0
 40 72  1  0  0  0  0
 40 71  1  0  0  0  0
 41 39  2  0  0  0  0
 43  2  1  0  0  0  0
 43 73  1  0  0  0  0
 44 75  1  0  0  0  0
 44 43  1  0  0  0  0
 45  4  1  0  0  0  0
 46  4  1  0  0  0  0
 49  9  1  0  0  0  0
 50  9  1  0  0  0  0
 52 10  1  0  0  0  0
 54 10  1  0  0  0  0
 56 18  1  0  0  0  0
 58 19  1  0  0  0  0
 62 23  1  0  0  0  0
 65 33  1  0  0  0  0
 66 34  1  0  0  0  0
 67 35  1  0  0  0  0
 68 37  1  0  0  0  0
 70 40  1  0  0  0  0
 74 44  1  0  0  0  0
 76 44  1  0  0  0  0
 78  6  1  0  0  0  0
M  END
