-1 1
 OpenBabel05192410563D

 78 80  0  0  1  0  0  0  0  0999 V2000
    1.9875   -0.2399   -2.5921 O   0  0  0  0  0  0  0  0  0  0  0  0
    1.5697   -0.9933   -1.7241 C   0  0  0  0  0  0  0  0  0  0  0  0
    2.5408   -1.7129   -0.7621 C   0  0  2  0  0  0  0  0  0  0  0  0
    2.4875   -3.2315   -1.0309 C   0  0  0  0  0  0  0  0  0  0  0  0
    3.3208   -4.3173    0.1732 S   0  0  0  0  0  0  0  0  0  0  0  0
    1.8093   -4.9456    1.1734 C   0  0  1  0  0  0  0  0  0  0  0  0
    2.3675   -6.0716    2.0526 C   0  0  0  0  0  0  0  0  0  0  0  0
    1.4356   -7.1665    2.2672 N   0  0  0  0  0  0  0  0  0  0  0  0
    2.0865   -8.3036    2.8655 C   0  0  0  0  0  0  0  0  0  0  0  0
    0.2315   -6.8045    2.9809 C   0  0  0  0  0  0  0  0  0  0  0  0
    1.0518   -3.9016    1.9040 C   0  0  0  0  0  3  0  0  0  0  0  0
   -0.0490   -3.2719    1.3247 C   0  0  0  0  0  0  0  0  0  0  0  0
   -0.4788   -3.4590    0.1522 O   0  0  0  0  0  0  0  0  0  0  0  0
   -0.7015   -2.2604    2.0861 N   0  0  0  0  0  0  0  0  0  0  0  0
   -1.5877   -1.4094    1.4042 C   0  0  0  0  0  0  0  0  0  0  0  0
   -2.8682   -1.9115    1.0215 C   0  0  0  0  0  0  0  0  0  0  0  0
   -3.1657   -3.1617    1.4064 O   0  0  0  0  0  0  0  0  0  0  0  0
   -3.7124   -4.0501    0.4496 C   0  0  0  0  0  0  0  0  0  0  0  0
   -3.1539   -5.4311    0.7173 C   0  0  0  0  0  0  0  0  0  0  0  0
   -3.7320   -1.1168    0.2957 C   0  0  0  0  0  0  0  0  0  0  0  0
   -3.3580    0.1785   -0.1341 C   0  0  0  0  0  0  0  0  0  0  0  0
   -4.2553    0.8945   -0.8778 N   0  0  0  0  0  0  0  0  0  0  0  0
   -3.8407    2.0240   -1.3689 C   0  0  0  0  0  0  0  0  0  0  0  0
   -2.5214    2.5559   -1.2388 C   0  0  0  0  0  0  0  0  0  0  0  0
   -2.2543    3.7178   -2.0292 C   0  0  0  0  0  0  0  0  0  0  0  0
   -2.1495    4.6531   -2.7076 N   0  0  0  0  0  0  0  0  0  0  0  0
   -1.5813    1.8606   -0.4542 C   0  0  0  0  0  0  0  0  0  0  0  0
   -0.2695    2.1810   -0.3185 N   0  0  0  0  0  0  0  0  0  0  0  0
    0.4112    3.3046   -0.8355 C   0  0  0  0  0  0  0  0  0  0  0  0
    0.0793    4.5945   -0.4140 C   0  0  0  0  0  0  0  0  0  0  0  0
    0.7807    5.6739   -0.9367 C   0  0  0  0  0  0  0  0  0  0  0  0
    0.2977    7.4325   -0.4035 Br  0  0  0  0  0  0  0  0  0  0  0  0
    1.8249    5.4950   -1.8397 C   0  0  0  0  0  0  0  0  0  0  0  0
    2.1664    4.1971   -2.2192 C   0  0  0  0  0  0  0  0  0  0  0  0
    1.4672    3.0988   -1.7292 C   0  0  0  0  0  0  0  0  0  0  0  0
   -2.0638    0.6592    0.1871 C   0  0  0  0  0  0  0  0  0  0  0  0
   -1.2313   -0.1428    1.0020 C   0  0  0  0  0  0  0  0  0  0  0  0
    2.2841   -1.4544    0.6368 N   0  0  0  0  0  0  0  0  0  0  0  0
    2.1429   -0.2446    1.1854 C   0  0  0  0  0  0  0  0  0  0  0  0
    2.0833   -0.2257    2.7016 C   0  0  0  0  0  0  0  0  0  0  0  0
    2.0744    0.8013    0.5396 O   0  0  0  0  0  0  0  0  0  0  0  0
    3.5322   -1.3139   -1.0276 H   0  0  0  0  0  0  0  0  0  0  0  0
    0.2671   -1.3007   -1.5722 N   0  0  0  0  0  0  0  0  0  0  0  0
   -0.7180   -0.7805   -2.4868 C   0  0  0  0  0  0  0  0  0  0  0  0
    1.4414   -3.5658   -1.0597 H   0  0  0  0  0  0  0  0  0  0  0  0
    2.9325   -3.4189   -2.0177 H   0  0  0  0  0  0  0  0  0  0  0  0
    2.7189   -5.6378    3.0198 H   0  0  0  0  0  0  0  0  0  0  0  0
    3.2553   -6.5065    1.5662 H   0  0  0  0  0  0  0  0  0  0  0  0
    2.9445   -8.6219    2.2528 H   0  0  0  0  0  0  0  0  0  0  0  0
    1.3854   -9.1511    2.9307 H   0  0  0  0  0  0  0  0  0  0  0  0
    2.4651   -8.1036    3.8969 H   0  0  0  0  0  0  0  0  0  0  0  0
   -0.2897   -5.9841    2.4724 H   0  0  0  0  0  0  0  0  0  0  0  0
    0.4344   -6.4703    4.0256 H   0  0  0  0  0  0  0  0  0  0  0  0
   -0.4434   -7.6742    3.0288 H   0  0  0  0  0  0  0  0  0  0  0  0
   -0.1321   -1.8204    2.7956 H   0  0  0  0  0  0  0  0  0  0  0  0
   -3.4289   -3.7150   -0.5618 H   0  0  0  0  0  0  0  0  0  0  0  0
   -4.8168   -4.0396    0.5162 H   0  0  0  0  0  0  0  0  0  0  0  0
   -2.0627   -5.3996    0.5887 H   0  0  0  0  0  0  0  0  0  0  0  0
   -3.5832   -6.1623    0.0154 H   0  0  0  0  0  0  0  0  0  0  0  0
   -3.3861   -5.7522    1.7435 H   0  0  0  0  0  0  0  0  0  0  0  0
   -4.7245   -1.4721    0.0167 H   0  0  0  0  0  0  0  0  0  0  0  0
   -4.5546    2.6034   -1.9674 H   0  0  0  0  0  0  0  0  0  0  0  0
    0.3846    1.4579   -0.0025 H   0  0  0  0  0  0  0  0  0  0  0  0
   -0.7309    4.7443    0.3004 H   0  0  0  0  0  0  0  0  0  0  0  0
    2.3622    6.3559   -2.2396 H   0  0  0  0  0  0  0  0  0  0  0  0
    2.9871    4.0407   -2.9221 H   0  0  0  0  0  0  0  0  0  0  0  0
    1.7267    2.0796   -2.0309 H   0  0  0  0  0  0  0  0  0  0  0  0
   -0.2350    0.2073    1.2564 H   0  0  0  0  0  0  0  0  0  0  0  0
    2.1514   -2.2826    1.2343 H   0  0  0  0  0  0  0  0  0  0  0  0
    1.2249    0.3764    3.0317 H   0  0  0  0  0  0  0  0  0  0  0  0
    2.9903    0.2769    3.0679 H   0  0  0  0  0  0  0  0  0  0  0  0
    2.0389   -1.2322    3.1409 H   0  0  0  0  0  0  0  0  0  0  0  0
   -0.0304   -2.0334   -0.9079 H   0  0  0  0  0  0  0  0  0  0  0  0
   -0.5785   -1.1766   -3.5072 H   0  0  0  0  0  0  0  0  0  0  0  0
   -0.6569    0.3164   -2.5516 H   0  0  0  0  0  0  0  0  0  0  0  0
   -1.7165   -1.0602   -2.1275 H   0  0  0  0  0  0  0  0  0  0  0  0
    1.2874   -3.7255    2.9591 H   0  0  0  0  0  0  0  0  0  0  0  0
    1.1809   -5.3960    0.3912 H   0  0  0  0  0  0  0  0  0  0  0  0
  1  2  2  0  0  0  0
  2 43  1  0  0  0  0
  2  3  1  0  0  0  0
  3 42  1  6  0  0  0
  3 38  1  0  0  0  0
  4  3  1  0  0  0  0
  4  5  1  0  0  0  0
  5  6  1  0  0  0  0
  6 78  1  6  0  0  0
  6 11  1  0  0  0  0
  6  7  1  0  0  0  0
  7  8  1  0  0  0  0
  7 47  1  0  0  0  0
  8  9  1  0  0  0  0
  8 10  1  0  0  0  0
  9 50  1  0  0  0  0
  9 51  1  0  0  0  0
 10 54  1  0  0  0  0
 10 53  1  0  0  0  0
 11 77  1  0  0  0  0
 12 11  1  0  0  0  0
 12 14  1  0  0  0  0
 13 12  2  0  0  0  0
 14 55  1  0  0  0  0
 15 14  1  0  0  0  0
 16 15  1  0  0  0  0
 16 17  1  0  0  0  0
 18 57  1  0  0  0  0
 18 19  1  0  0  0  0
 18 17  1  0  0  0  0
 19 60  1  0  0  0  0
 20 16  2  0  0  0  0
 21 36  1  0  0  0  0
 21 20  1  0  0  0  0
 22 21  2  0  0  0  0
 23 24  2  0  0  0  0
 23 22  1  0  0  0  0
 24 27  1  0  0  0  0
 25 24  1  0  0  0  0
 26 25  3  0  0  0  0
 27 28  1  0  0  0  0
 27 36  2  0  0  0  0
 28 63  1  0  0  0  0
 29 30  1  0  0  0  0
 29 28  1  0  0  0  0
 30 64  1  0  0  0  0
 31 30  2  0  0  0  0
 31 32  1  0  0  0  0
 33 31  1  0  0  0  0
 34 33  2  0  0  0  0
 34 35  1  0  0  0  0
 35 29  2  0  0  0  0
 36 37  1  0  0  0  0
 37 68  1  0  0  0  0
 37 15  2  0  0  0  0
 38 39  1  0  0  0  0
 38 69  1  0  0  0  0
 39 40  1  0  0  0  0
 40 70  1  0  0  0  0
 40 71  1  0  0  0  0
 40 72  1  0  0  0  0
 41 39  2  0  0  0  0
 43 73  1  0  0  0  0
 44 76  1  0  0  0  0
 44 43  1  0  0  0  0
 45  4  1  0  0  0  0
 46  4  1  0  0  0  0
 48  7  1  0  0  0  0
 49  9  1  0  0  0  0
 52 10  1  0  0  0  0
 56 18  1  0  0  0  0
 58 19  1  0  0  0  0
 59 19  1  0  0  0  0
 61 20  1  0  0  0  0
 62 23  1  0  0  0  0
 65 33  1  0  0  0  0
 66 34  1  0  0  0  0
 67 35  1  0  0  0  0
 74 44  1  0  0  0  0
 75 44  1  0  0  0  0
M  END
