-1 1
 OpenBabel05232414493D

 78 79  0  0  1  0  0  0  0  0999 V2000
   -0.4351    3.9805   -5.3625 O   0  0  0  0  0  0  0  0  0  0  0  0
   -0.8213    3.1719   -4.5291 C   0  0  0  0  0  0  0  0  0  0  0  0
    0.1786    2.4412   -3.6157 C   0  0  2  0  0  0  0  0  0  0  0  0
    0.1973    0.9244   -3.9214 C   0  0  0  0  0  0  0  0  0  0  0  0
    1.0630   -0.0972   -2.6844 S   0  0  0  0  0  1  0  0  0  0  0  0
   -0.8272   -0.8817   -1.5151 C   0  0  0  0  0  3  0  0  0  0  0  0
   -0.1088   -1.9438   -0.7097 C   0  0  0  0  0  0  0  0  0  0  0  0
   -0.9715   -3.0675   -0.3661 N   0  0  0  0  0  0  0  0  0  0  0  0
   -0.2117   -4.2421   -0.0196 C   0  0  0  0  0  0  0  0  0  0  0  0
   -1.9770   -2.7690    0.6253 C   0  0  0  0  0  0  0  0  0  0  0  0
   -1.5653    0.1066   -0.8560 C   0  0  0  0  0  3  0  0  0  0  0  0
   -2.5832    0.8499   -1.5266 C   0  0  0  0  0  0  0  0  0  0  0  0
   -2.9560    0.6604   -2.7000 O   0  0  0  0  0  0  0  0  0  0  0  0
   -3.1808    1.8860   -0.8089 N   0  0  0  0  0  0  0  0  0  0  0  0
   -4.0824    2.7497   -1.4620 C   0  0  0  0  0  0  0  0  0  0  0  0
   -5.3682    2.2593   -1.8334 C   0  0  0  0  0  0  0  0  0  0  0  0
   -5.6655    1.0087   -1.4503 O   0  0  0  0  0  0  0  0  0  0  0  0
   -6.2763    0.1401   -2.3870 C   0  0  0  0  0  0  0  0  0  0  0  0
   -5.7734   -1.2624   -2.1216 C   0  0  0  0  0  0  0  0  0  0  0  0
   -6.2281    3.0647   -2.5537 C   0  0  0  0  0  0  0  0  0  0  0  0
   -5.8394    4.3563   -2.9822 C   0  0  0  0  0  0  0  0  0  0  0  0
   -6.7301    5.0849   -3.7215 N   0  0  0  0  0  0  0  0  0  0  0  0
   -6.3017    6.2107   -4.2103 C   0  0  0  0  0  0  0  0  0  0  0  0
   -4.9778    6.7306   -4.0807 C   0  0  0  0  0  0  0  0  0  0  0  0
   -4.7006    7.8948   -4.8638 C   0  0  0  0  0  0  0  0  0  0  0  0
   -4.5852    8.8338   -5.5352 N   0  0  0  0  0  0  0  0  0  0  0  0
   -4.0428    6.0238   -3.2992 C   0  0  0  0  0  0  0  0  0  0  0  0
   -2.7304    6.3259   -3.1583 N   0  0  0  0  0  0  0  0  0  0  0  0
   -2.0299    7.4438   -3.6627 C   0  0  0  0  0  0  0  0  0  0  0  0
   -2.3539    8.7368   -3.2440 C   0  0  0  0  0  0  0  0  0  0  0  0
   -1.6295    9.8085   -3.7511 C   0  0  0  0  0  0  0  0  0  0  0  0
   -2.0998   11.5715   -3.2220 Br  0  0  0  0  0  0  0  0  0  0  0  0
   -0.5709    9.6181   -4.6350 C   0  0  0  0  0  0  0  0  0  0  0  0
   -0.2390    8.3169   -5.0115 C   0  0  0  0  0  0  0  0  0  0  0  0
   -0.9608    7.2259   -4.5374 C   0  0  0  0  0  0  0  0  0  0  0  0
   -4.5390    4.8228   -2.6653 C   0  0  0  0  0  0  0  0  0  0  0  0
   -3.7100    4.0111   -1.8591 C   0  0  0  0  0  0  0  0  0  0  0  0
   -0.0822    2.6110   -2.2021 N   0  0  0  0  0  0  0  0  0  0  0  0
   -0.3324    3.7611   -1.5743 C   0  0  0  0  0  0  0  0  0  0  0  0
   -0.3297    3.6914   -0.0598 C   0  0  0  0  0  0  0  0  0  0  0  0
   -0.5587    4.8262   -2.1517 O   0  0  0  0  0  0  0  0  0  0  0  0
    1.1558    2.8849   -3.8642 H   0  0  0  0  0  0  0  0  0  0  0  0
   -2.1146    2.8188   -4.3931 N   0  0  0  0  0  0  0  0  0  0  0  0
   -3.1184    3.3431   -5.2840 C   0  0  0  0  0  0  0  0  0  0  0  0
   -0.8368    0.5583   -3.9854 H   0  0  0  0  0  0  0  0  0  0  0  0
    0.6617    0.7853   -4.9080 H   0  0  0  0  0  0  0  0  0  0  0  0
    0.3413   -1.4800    0.1996 H   0  0  0  0  0  0  0  0  0  0  0  0
    0.7211   -2.3422   -1.3083 H   0  0  0  0  0  0  0  0  0  0  0  0
    0.4797   -4.5064   -0.8343 H   0  0  0  0  0  0  0  0  0  0  0  0
   -0.8878   -5.0976    0.1402 H   0  0  0  0  0  0  0  0  0  0  0  0
    0.3936   -4.1179    0.9103 H   0  0  0  0  0  0  0  0  0  0  0  0
   -2.5918   -1.9189    0.3013 H   0  0  0  0  0  0  0  0  0  0  0  0
   -1.5387   -2.5126    1.6199 H   0  0  0  0  0  0  0  0  0  0  0  0
   -2.6358   -3.6413    0.7644 H   0  0  0  0  0  0  0  0  0  0  0  0
   -2.7427    2.1939    0.0472 H   0  0  0  0  0  0  0  0  0  0  0  0
   -6.0048    0.4579   -3.4075 H   0  0  0  0  0  0  0  0  0  0  0  0
   -7.3768    0.1995   -2.2929 H   0  0  0  0  0  0  0  0  0  0  0  0
   -4.6844   -1.2884   -2.2696 H   0  0  0  0  0  0  0  0  0  0  0  0
   -6.2498   -1.9767   -2.8099 H   0  0  0  0  0  0  0  0  0  0  0  0
   -6.0000   -1.5672   -1.0893 H   0  0  0  0  0  0  0  0  0  0  0  0
   -7.2253    2.7223   -2.8317 H   0  0  0  0  0  0  0  0  0  0  0  0
   -7.0101    6.7991   -4.8066 H   0  0  0  0  0  0  0  0  0  0  0  0
   -2.0913    5.6010   -2.8113 H   0  0  0  0  0  0  0  0  0  0  0  0
   -3.1743    8.8956   -2.5434 H   0  0  0  0  0  0  0  0  0  0  0  0
   -0.0151   10.4729   -5.0224 H   0  0  0  0  0  0  0  0  0  0  0  0
    0.5923    8.1515   -5.6999 H   0  0  0  0  0  0  0  0  0  0  0  0
   -0.7102    6.2041   -4.8401 H   0  0  0  0  0  0  0  0  0  0  0  0
   -2.7076    4.3449   -1.6072 H   0  0  0  0  0  0  0  0  0  0  0  0
    0.1624    1.7763   -1.6598 H   0  0  0  0  0  0  0  0  0  0  0  0
   -1.2136    4.2169    0.3285 H   0  0  0  0  0  0  0  0  0  0  0  0
    0.5554    4.2308    0.3083 H   0  0  0  0  0  0  0  0  0  0  0  0
   -0.3023    2.6609    0.3198 H   0  0  0  0  0  0  0  0  0  0  0  0
   -2.3932    2.0622   -3.7557 H   0  0  0  0  0  0  0  0  0  0  0  0
   -2.9888    2.9692   -6.3140 H   0  0  0  0  0  0  0  0  0  0  0  0
   -3.0717    4.4415   -5.3270 H   0  0  0  0  0  0  0  0  0  0  0  0
   -4.1082    3.0423   -4.9169 H   0  0  0  0  0  0  0  0  0  0  0  0
   -1.3147    0.3659    0.1789 H   0  0  0  0  0  0  0  0  0  0  0  0
   -1.2554   -1.2462   -2.4527 H   0  0  0  0  0  0  0  0  0  0  0  0
  1  2  2  0  0  0  0
  2 43  1  0  0  0  0
  2  3  1  0  0  0  0
  3 42  1  6  0  0  0
  3 38  1  0  0  0  0
  4  3  1  0  0  0  0
  4  5  1  0  0  0  0
  6 11  1  0  0  0  0
  6  7  1  0  0  0  0
  7  8  1  0  0  0  0
  7 47  1  0  0  0  0
  8  9  1  0  0  0  0
  8 10  1  0  0  0  0
  9 50  1  0  0  0  0
  9 51  1  0  0  0  0
 10 54  1  0  0  0  0
 10 53  1  0  0  0  0
 11 77  1  0  0  0  0
 12 11  1  0  0  0  0
 12 14  1  0  0  0  0
 13 12  2  0  0  0  0
 14 55  1  0  0  0  0
 15 14  1  0  0  0  0
 16 15  1  0  0  0  0
 16 17  1  0  0  0  0
 18 57  1  0  0  0  0
 18 19  1  0  0  0  0
 18 17  1  0  0  0  0
 19 60  1  0  0  0  0
 20 16  2  0  0  0  0
 21 36  1  0  0  0  0
 21 20  1  0  0  0  0
 22 21  2  0  0  0  0
 23 24  2  0  0  0  0
 23 22  1  0  0  0  0
 24 27  1  0  0  0  0
 25 24  1  0  0  0  0
 26 25  3  0  0  0  0
 27 28  1  0  0  0  0
 27 36  2  0  0  0  0
 28 63  1  0  0  0  0
 29 30  1  0  0  0  0
 29 28  1  0  0  0  0
 30 64  1  0  0  0  0
 31 30  2  0  0  0  0
 31 32  1  0  0  0  0
 33 31  1  0  0  0  0
 34 33  2  0  0  0  0
 34 35  1  0  0  0  0
 35 29  2  0  0  0  0
 36 37  1  0  0  0  0
 37 68  1  0  0  0  0
 37 15  2  0  0  0  0
 38 69  1  0  0  0  0
 38 39  1  0  0  0  0
 39 40  1  0  0  0  0
 40 71  1  0  0  0  0
 40 72  1  0  0  0  0
 40 70  1  0  0  0  0
 41 39  2  0  0  0  0
 43 73  1  0  0  0  0
 44 76  1  0  0  0  0
 44 43  1  0  0  0  0
 45  4  1  0  0  0  0
 46  4  1  0  0  0  0
 48  7  1  0  0  0  0
 49  9  1  0  0  0  0
 52 10  1  0  0  0  0
 56 18  1  0  0  0  0
 58 19  1  0  0  0  0
 59 19  1  0  0  0  0
 61 20  1  0  0  0  0
 62 23  1  0  0  0  0
 65 33  1  0  0  0  0
 66 34  1  0  0  0  0
 67 35  1  0  0  0  0
 74 44  1  0  0  0  0
 75 44  1  0  0  0  0
 78  6  1  0  0  0  0
M  END
