83
-1 1
O        -1.366524    1.533307   -4.012396
C        -2.335503    2.184954   -3.652464
C        -2.168495    3.379847   -2.704922
C        -1.834839    2.907166   -1.268152
S        -3.267597    2.570136   -0.214428
C        -3.504350    0.570117   -0.433625
C        -4.972989    0.409476   -0.823195
N        -5.922528    1.076786    0.041665
C        -6.091363    0.432566    1.342326
C        -5.476595    1.215941    2.511641
C        -7.531021    0.003649    1.648969
C        -6.971299    1.948749   -0.467287
C        -7.114137    3.216212    0.387543
C        -6.762169    2.372493   -1.921780
C        -2.572141   -0.031787   -1.348011
C        -1.288960   -0.440394   -0.938793
N        -0.395508   -0.638345   -2.042843
C         0.873611   -1.138273   -2.027561
C         1.609778   -1.150817   -3.255221
C         2.874809   -1.669438   -3.325114
C         1.497901   -1.644041   -0.886978
C         2.791296   -2.202322   -0.954474
C         3.508523   -2.224988   -2.183303
N         4.766636   -2.734773   -2.314914
C         5.322487   -3.256133   -1.261865
C         4.704583   -3.324672    0.025571
C         5.387122   -4.060776    1.044587
N         5.970593   -4.680441    1.831961
C         3.437067   -2.763846    0.203854
N         2.745928   -2.770337    1.393987
C         3.227136   -2.623267    2.698134
C         4.447617   -1.994059    2.977559
C         4.858545   -1.865366    4.298680
Br         6.531659   -1.042092    4.654913
C         4.080712   -2.312799    5.363013
C         2.852871   -2.906443    5.073880
C         2.429489   -3.070901    3.760917
O        -0.881467   -0.599642    0.222896
N        -3.306426    4.267394   -2.676713
C        -3.521958    5.252322   -3.587331
C        -4.733704    6.124798   -3.307206
O        -2.807639    5.434820   -4.554697
H        -1.301315    3.922995   -3.110472
N        -3.604929    1.909202   -4.028494
C        -3.957650    0.764914   -4.824906
H        -1.220192    1.997711   -1.331083
H        -1.245422    3.686457   -0.765781
H        -5.169095   -0.683311   -0.865597
H        -5.066783    0.771611   -1.852268
H        -5.511237   -0.503510    1.276702
H        -6.043959    2.129395    2.741904
H        -4.447155    1.515241    2.270341
H        -5.455747    0.594941    3.422223
H        -8.199776    0.863603    1.811164
H        -7.551687   -0.603341    2.566873
H        -7.947174   -0.603567    0.830335
H        -7.955267    1.429745   -0.444557
H        -7.401995    2.984190    1.421563
H        -7.890495    3.880191   -0.026415
H        -6.152956    3.752956    0.415889
H        -6.791707    1.525254   -2.621812
H        -5.798341    2.892776   -2.033043
H        -7.564854    3.066735   -2.212074
H        -0.692851   -0.184389   -2.903470
H         1.141291   -0.724530   -4.146578
H         3.434574   -1.674906   -4.262128
H         0.933055   -1.541313    0.038988
H         6.326155   -3.683791   -1.371251
H         1.745005   -2.644696    1.294426
H         5.066466   -1.603186    2.170251
H         4.424940   -2.199280    6.391163
H         2.220184   -3.259298    5.890994
H         1.473944   -3.553123    3.544781
H        -3.891139    4.170324   -1.845230
H        -5.311173    6.230216   -4.235510
H        -4.385592    7.127726   -3.019532
H        -5.381928    5.731711   -2.511500
H        -4.332586    2.496064   -3.643111
H        -3.026160    0.292116   -5.160843
H        -4.548137    1.057990   -5.707109
H        -4.530270    0.026971   -4.238727
H        -2.794589   -0.004118   -2.414444
H        -3.304300    0.256842    0.599532
