-1 1
 OpenBabel05232413483D

 83 84  0  0  1  0  0  0  0  0999 V2000
   -2.5426    0.4904   -3.7224 O   0  0  0  0  0  0  0  0  0  0  0  0
   -2.9477    1.6073   -3.3759 C   0  0  0  0  0  0  0  0  0  0  0  0
   -2.0015    2.6333   -2.7278 C   0  0  2  0  0  0  0  0  0  0  0  0
   -2.5411    3.2828   -1.4399 C   0  0  0  0  0  0  0  0  0  0  0  0
   -3.9310    4.4564   -1.6834 S   0  0  0  0  0  1  0  0  0  0  0  0
   -3.9224    0.2718    0.0797 C   0  0  0  0  0  0  0  0  0  0  0  0
   -5.2183    0.9503   -0.2495 C   0  0  0  0  0  0  0  0  0  0  0  0
   -6.1592    0.9585    0.8441 N   0  0  0  0  0  0  0  0  0  0  0  0
   -6.6973   -0.3492    1.1924 C   0  0  0  0  0  0  0  0  0  0  0  0
   -7.0403   -0.4376    2.6800 C   0  0  0  0  0  0  0  0  0  0  0  0
   -7.8706   -0.8201    0.3192 C   0  0  0  0  0  0  0  0  0  0  0  0
   -7.0563    2.1144    0.8966 C   0  0  0  0  0  0  0  0  0  0  0  0
   -6.3446    3.3145    1.5248 C   0  0  0  0  0  0  0  0  0  0  0  0
   -7.6744    2.5068   -0.4551 C   0  0  0  0  0  0  0  0  0  0  0  0
   -3.2137   -0.4286   -0.8099 C   0  0  0  0  0  0  0  0  0  0  0  0
   -1.7952   -0.8160   -0.5613 C   0  0  0  0  0  0  0  0  0  0  0  0
   -1.0217   -0.6413   -1.6851 N   0  0  0  0  0  0  0  0  0  0  0  0
    0.3647   -0.6952   -1.7788 C   0  0  0  0  0  0  0  0  0  0  0  0
    0.9533   -0.1046   -2.9357 C   0  0  0  0  0  0  0  0  0  0  0  0
    2.3123   -0.1142   -3.1026 C   0  0  0  0  0  0  0  0  0  0  0  0
    1.1787   -1.2572   -0.8102 C   0  0  0  0  0  0  0  0  0  0  0  0
    2.5836   -1.2965   -0.9877 C   0  0  0  0  0  0  0  0  0  0  0  0
    3.1700   -0.7179   -2.1464 C   0  0  0  0  0  0  0  0  0  0  0  0
    4.5154   -0.6950   -2.3725 N   0  0  0  0  0  0  0  0  0  0  0  0
    5.2875   -1.2620   -1.4944 C   0  0  0  0  0  0  0  0  0  0  0  0
    4.8259   -1.9071   -0.3070 C   0  0  0  0  0  0  0  0  0  0  0  0
    5.7909   -2.6107    0.4804 C   0  0  0  0  0  0  0  0  0  0  0  0
    6.6056   -3.1805    1.0766 N   0  0  0  0  0  0  0  0  0  0  0  0
    3.4569   -1.9068   -0.0224 C   0  0  0  0  0  0  0  0  0  0  0  0
    2.9022   -2.5016    1.0870 N   0  0  0  0  0  0  0  0  0  0  0  0
    3.4124   -2.5900    2.3886 C   0  0  0  0  0  0  0  0  0  0  0  0
    4.3189   -1.6495    2.8935 C   0  0  0  0  0  0  0  0  0  0  0  0
    4.7765   -1.7810    4.1992 C   0  0  0  0  0  0  0  0  0  0  0  0
    6.0328   -0.5212    4.8558 Br  0  0  0  0  0  0  0  0  0  0  0  0
    4.3347   -2.8024    5.0363 C   0  0  0  0  0  0  0  0  0  0  0  0
    3.4077   -3.7128    4.5322 C   0  0  0  0  0  0  0  0  0  0  0  0
    2.9551   -3.6195    3.2214 C   0  0  0  0  0  0  0  0  0  0  0  0
   -1.3683   -1.1828    0.5207 O   0  0  0  0  0  0  0  0  0  0  0  0
   -1.6646    3.6707   -3.6771 N   0  0  0  0  0  0  0  0  0  0  0  0
   -0.6467    3.5798   -4.5589 C   0  0  0  0  0  0  0  0  0  0  0  0
   -0.4493    4.7980   -5.4439 C   0  0  0  0  0  0  0  0  0  0  0  0
    0.0812    2.6035   -4.6602 O   0  0  0  0  0  0  0  0  0  0  0  0
   -1.0803    2.0774   -2.5015 H   0  0  0  0  0  0  0  0  0  0  0  0
   -4.2106    2.0141   -3.5465 N   0  0  0  0  0  0  0  0  0  0  0  0
   -5.2335    1.1921   -4.1337 C   0  0  0  0  0  0  0  0  0  0  0  0
   -2.8179    2.4738   -0.7479 H   0  0  0  0  0  0  0  0  0  0  0  0
   -1.6927    3.8115   -0.9777 H   0  0  0  0  0  0  0  0  0  0  0  0
   -5.6275    0.5151   -1.1882 H   0  0  0  0  0  0  0  0  0  0  0  0
   -4.9669    1.9973   -0.5046 H   0  0  0  0  0  0  0  0  0  0  0  0
   -5.8666   -1.0554    1.0207 H   0  0  0  0  0  0  0  0  0  0  0  0
   -7.8904    0.2121    2.9430 H   0  0  0  0  0  0  0  0  0  0  0  0
   -6.1759   -0.1279    3.2843 H   0  0  0  0  0  0  0  0  0  0  0  0
   -7.3158   -1.4674    2.9564 H   0  0  0  0  0  0  0  0  0  0  0  0
   -8.7673   -0.2021    0.4877 H   0  0  0  0  0  0  0  0  0  0  0  0
   -8.1358   -1.8641    0.5492 H   0  0  0  0  0  0  0  0  0  0  0  0
   -7.6154   -0.7664   -0.7504 H   0  0  0  0  0  0  0  0  0  0  0  0
   -7.8837    1.8298    1.5675 H   0  0  0  0  0  0  0  0  0  0  0  0
   -5.9323    3.0404    2.5068 H   0  0  0  0  0  0  0  0  0  0  0  0
   -7.0406    4.1586    1.6549 H   0  0  0  0  0  0  0  0  0  0  0  0
   -5.5225    3.6670    0.8796 H   0  0  0  0  0  0  0  0  0  0  0  0
   -8.1543    1.6497   -0.9503 H   0  0  0  0  0  0  0  0  0  0  0  0
   -6.9091    2.9216   -1.1303 H   0  0  0  0  0  0  0  0  0  0  0  0
   -8.4377    3.2873   -0.3110 H   0  0  0  0  0  0  0  0  0  0  0  0
   -1.5077   -0.2623   -2.5159 H   0  0  0  0  0  0  0  0  0  0  0  0
    0.3176    0.4076   -3.6653 H   0  0  0  0  0  0  0  0  0  0  0  0
    2.7705    0.3591   -3.9718 H   0  0  0  0  0  0  0  0  0  0  0  0
    0.6944   -1.6262    0.0914 H   0  0  0  0  0  0  0  0  0  0  0  0
    6.3669   -1.2579   -1.6867 H   0  0  0  0  0  0  0  0  0  0  0  0
    1.9213   -2.7354    0.9982 H   0  0  0  0  0  0  0  0  0  0  0  0
    4.6610   -0.8218    2.2719 H   0  0  0  0  0  0  0  0  0  0  0  0
    4.7069   -2.8841    6.0577 H   0  0  0  0  0  0  0  0  0  0  0  0
    3.0437   -4.5198    5.1713 H   0  0  0  0  0  0  0  0  0  0  0  0
    2.2468   -4.3516    2.8279 H   0  0  0  0  0  0  0  0  0  0  0  0
   -2.2573    4.4996   -3.6014 H   0  0  0  0  0  0  0  0  0  0  0  0
   -0.5871    4.4935   -6.4914 H   0  0  0  0  0  0  0  0  0  0  0  0
    0.5887    5.1422   -5.3360 H   0  0  0  0  0  0  0  0  0  0  0  0
   -1.1346    5.6248   -5.2129 H   0  0  0  0  0  0  0  0  0  0  0  0
   -4.4510    2.9282   -3.1052 H   0  0  0  0  0  0  0  0  0  0  0  0
   -4.8033    0.2132   -4.3826 H   0  0  0  0  0  0  0  0  0  0  0  0
   -5.6319    1.6474   -5.0552 H   0  0  0  0  0  0  0  0  0  0  0  0
   -6.0726    1.0508   -3.4330 H   0  0  0  0  0  0  0  0  0  0  0  0
   -3.6029   -0.5827   -1.8209 H   0  0  0  0  0  0  0  0  0  0  0  0
   -3.5045    0.4691    1.0739 H   0  0  0  0  0  0  0  0  0  0  0  0
  1  2  2  0  0  0  0
  2  3  1  0  0  0  0
  3 43  1  1  0  0  0
  3  4  1  0  0  0  0
  4 47  1  0  0  0  0
  4 46  1  0  0  0  0
  5  4  1  0  0  0  0
  6 83  1  0  0  0  0
  7  6  1  0  0  0  0
  7  8  1  0  0  0  0
  8 12  1  0  0  0  0
  8  9  1  0  0  0  0
  9 10  1  0  0  0  0
 10 51  1  0  0  0  0
 10 53  1  0  0  0  0
 10 52  1  0  0  0  0
 11 54  1  0  0  0  0
 11 55  1  0  0  0  0
 11  9  1  0  0  0  0
 12 13  1  0  0  0  0
 12 57  1  0  0  0  0
 13 59  1  0  0  0  0
 13 58  1  0  0  0  0
 14 63  1  0  0  0  0
 14 12  1  0  0  0  0
 15 16  1  0  0  0  0
 15  6  2  0  0  0  0
 16 38  2  0  0  0  0
 17 16  1  0  0  0  0
 18 17  1  0  0  0  0
 18 21  1  0  0  0  0
 19 18  2  0  0  0  0
 20 19  1  0  0  0  0
 20 23  2  0  0  0  0
 21 67  1  0  0  0  0
 22 21  2  0  0  0  0
 22 29  1  0  0  0  0
 23 22  1  0  0  0  0
 24 23  1  0  0  0  0
 24 25  2  0  0  0  0
 25 26  1  0  0  0  0
 26 29  2  0  0  0  0
 26 27  1  0  0  0  0
 27 28  3  0  0  0  0
 29 30  1  0  0  0  0
 30 31  1  0  0  0  0
 31 32  2  0  0  0  0
 31 37  1  0  0  0  0
 32 33  1  0  0  0  0
 33 34  1  0  0  0  0
 33 35  2  0  0  0  0
 35 71  1  0  0  0  0
 36 35  1  0  0  0  0
 36 72  1  0  0  0  0
 37 36  2  0  0  0  0
 39 74  1  0  0  0  0
 39  3  1  0  0  0  0
 40 39  1  0  0  0  0
 41 76  1  0  0  0  0
 41 77  1  0  0  0  0
 41 40  1  0  0  0  0
 42 40  2  0  0  0  0
 44  2  1  0  0  0  0
 44 78  1  0  0  0  0
 45 44  1  0  0  0  0
 45 81  1  0  0  0  0
 48  7  1  0  0  0  0
 49  7  1  0  0  0  0
 50  9  1  0  0  0  0
 56 11  1  0  0  0  0
 60 13  1  0  0  0  0
 61 14  1  0  0  0  0
 62 14  1  0  0  0  0
 64 17  1  0  0  0  0
 65 19  1  0  0  0  0
 66 20  1  0  0  0  0
 68 25  1  0  0  0  0
 69 30  1  0  0  0  0
 70 32  1  0  0  0  0
 73 37  1  0  0  0  0
 75 41  1  0  0  0  0
 79 45  1  0  0  0  0
 80 45  1  0  0  0  0
 82 15  1  0  0  0  0
M  END
