-1 1
 OpenBabel05192410563D

 75 77  0  0  1  0  0  0  0  0999 V2000
   -1.8840   -1.2421    0.0168 O   0  0  0  0  0  0  0  0  0  0  0  0
   -1.8073   -2.1613   -0.7900 C   0  0  0  0  0  0  0  0  0  0  0  0
   -0.4657   -2.6139   -1.3791 C   0  0  2  0  0  0  0  0  0  0  0  0
    0.3115   -3.3643   -0.2904 C   0  0  0  0  0  0  0  0  0  0  0  0
    1.7322   -4.3310   -0.8498 S   0  0  0  0  0  0  0  0  0  0  0  0
    3.1920   -3.1197   -0.6767 C   0  0  1  0  0  0  0  0  0  0  0  0
    3.1401   -2.3424    0.5788 C   0  0  0  0  0  3  0  0  0  0  0  0
    2.6709   -1.0450    0.5609 C   0  0  0  0  0  0  0  0  0  0  0  0
    2.6816   -0.3460    1.8129 N   0  0  0  0  0  0  0  0  0  0  0  0
    1.8159    0.6425    2.1777 C   0  0  0  0  0  0  0  0  0  0  0  0
    0.6695    0.9811    1.4598 C   0  0  0  0  0  0  0  0  0  0  0  0
    2.0644    1.3936    3.3655 C   0  0  0  0  0  0  0  0  0  0  0  0
    3.2088    1.0541    4.0941 O   0  0  0  0  0  0  0  0  0  0  0  0
    3.0573    0.3922    5.2506 C   0  0  0  0  0  0  0  0  0  0  0  0
    2.3473   -0.7269    5.1087 F   0  0  0  0  0  0  0  0  0  0  0  0
    4.2633    0.0699    5.6936 F   0  0  0  0  0  0  0  0  0  0  0  0
    2.4540    1.1219    6.1923 F   0  0  0  0  0  0  0  0  0  0  0  0
    1.2862    2.4501    3.7597 C   0  0  0  0  0  0  0  0  0  0  0  0
    0.1509    2.8206    3.0035 C   0  0  0  0  0  0  0  0  0  0  0  0
   -0.1668    2.0393    1.8593 C   0  0  0  0  0  0  0  0  0  0  0  0
   -1.3395    2.3979    1.0965 C   0  0  0  0  0  0  0  0  0  0  0  0
   -1.7066    1.6063    0.0436 N   0  0  0  0  0  0  0  0  0  0  0  0
   -2.2834    2.0044   -1.1677 C   0  0  0  0  0  0  0  0  0  0  0  0
   -3.1054    1.0983   -1.8454 C   0  0  0  0  0  0  0  0  0  0  0  0
   -3.6107    1.4128   -3.0987 C   0  0  0  0  0  0  0  0  0  0  0  0
   -4.6064    0.2724   -3.9499 Cl  0  0  0  0  0  0  0  0  0  0  0  0
   -3.3251    2.6468   -3.6775 C   0  0  0  0  0  0  0  0  0  0  0  0
   -3.8168    2.9566   -4.8778 F   0  0  0  0  0  0  0  0  0  0  0  0
   -2.5221    3.5588   -3.0063 C   0  0  0  0  0  0  0  0  0  0  0  0
   -1.9909    3.2388   -1.7626 C   0  0  0  0  0  0  0  0  0  0  0  0
   -2.0390    3.5341    1.5174 C   0  0  0  0  0  0  0  0  0  0  0  0
   -3.2693    3.9609    0.9245 C   0  0  0  0  0  0  0  0  0  0  0  0
   -4.2751    4.3472    0.4965 N   0  0  0  0  0  0  0  0  0  0  0  0
   -1.5849    4.2542    2.6666 C   0  0  0  0  0  0  0  0  0  0  0  0
   -0.5588    3.9214    3.3911 N   0  0  0  0  0  0  0  0  0  0  0  0
    2.2316   -0.4065   -0.4385 O   0  0  0  0  0  0  0  0  0  0  0  0
    4.4709   -3.9576   -0.8640 C   0  0  0  0  0  0  0  0  0  0  0  0
    5.0189   -3.9371   -2.2104 N   0  0  0  0  0  0  0  0  0  0  0  0
    6.3527   -4.4781   -2.2484 C   0  0  0  0  0  0  0  0  0  0  0  0
    4.1680   -4.5392   -3.2093 C   0  0  0  0  0  0  0  0  0  0  0  0
    0.2511   -1.4749   -1.8750 N   0  0  0  0  0  0  0  0  0  0  0  0
   -0.3086   -0.7391   -2.8582 C   0  0  0  0  0  0  0  0  0  0  0  0
    0.4405    0.5185   -3.2370 C   0  0  0  0  0  0  0  0  0  0  0  0
   -1.3634   -1.0645   -3.3973 O   0  0  0  0  0  0  0  0  0  0  0  0
   -0.6692   -3.3077   -2.2132 H   0  0  0  0  0  0  0  0  0  0  0  0
   -2.8807   -2.8925   -1.1648 N   0  0  0  0  0  0  0  0  0  0  0  0
   -4.2244   -2.5589   -0.7580 C   0  0  0  0  0  0  0  0  0  0  0  0
    0.6577   -2.6701    0.4935 H   0  0  0  0  0  0  0  0  0  0  0  0
   -0.3681   -4.0847    0.1880 H   0  0  0  0  0  0  0  0  0  0  0  0
    3.3711   -0.6286    2.4937 H   0  0  0  0  0  0  0  0  0  0  0  0
    0.4694    0.4299    0.5456 H   0  0  0  0  0  0  0  0  0  0  0  0
    1.5360    3.0283    4.6483 H   0  0  0  0  0  0  0  0  0  0  0  0
   -1.5189    0.6004    0.1220 H   0  0  0  0  0  0  0  0  0  0  0  0
   -3.3232    0.1323   -1.3956 H   0  0  0  0  0  0  0  0  0  0  0  0
   -2.3082    4.5172   -3.4814 H   0  0  0  0  0  0  0  0  0  0  0  0
   -1.3339    3.9468   -1.2556 H   0  0  0  0  0  0  0  0  0  0  0  0
   -2.1581    5.1374    2.9731 H   0  0  0  0  0  0  0  0  0  0  0  0
    4.3042   -5.0037   -0.5087 H   0  0  0  0  0  0  0  0  0  0  0  0
    5.2333   -3.5228   -0.2007 H   0  0  0  0  0  0  0  0  0  0  0  0
    7.0053   -3.9373   -1.5451 H   0  0  0  0  0  0  0  0  0  0  0  0
    6.7797   -4.3672   -3.2581 H   0  0  0  0  0  0  0  0  0  0  0  0
    6.3977   -5.5621   -1.9833 H   0  0  0  0  0  0  0  0  0  0  0  0
    3.1794   -4.0614   -3.2194 H   0  0  0  0  0  0  0  0  0  0  0  0
    4.0079   -5.6303   -3.0412 H   0  0  0  0  0  0  0  0  0  0  0  0
    4.6184   -4.4128   -4.2068 H   0  0  0  0  0  0  0  0  0  0  0  0
    1.0783   -1.1066   -1.3461 H   0  0  0  0  0  0  0  0  0  0  0  0
    1.3201    0.6840   -2.6005 H   0  0  0  0  0  0  0  0  0  0  0  0
   -0.2505    1.3697   -3.1490 H   0  0  0  0  0  0  0  0  0  0  0  0
    0.7447    0.4482   -4.2913 H   0  0  0  0  0  0  0  0  0  0  0  0
   -2.7614   -3.4608   -1.9931 H   0  0  0  0  0  0  0  0  0  0  0  0
   -4.1679   -1.9937    0.1805 H   0  0  0  0  0  0  0  0  0  0  0  0
   -4.8137   -3.4724   -0.5916 H   0  0  0  0  0  0  0  0  0  0  0  0
   -4.7367   -1.9356   -1.5098 H   0  0  0  0  0  0  0  0  0  0  0  0
    3.1104   -2.4206   -1.5205 H   0  0  0  0  0  0  0  0  0  0  0  0
    3.4096   -2.8250    1.5228 H   0  0  0  0  0  0  0  0  0  0  0  0
  2  1  2  0  0  0  0
  3 45  1  6  0  0  0
  3  2  1  0  0  0  0
  3  4  1  0  0  0  0
  4 49  1  0  0  0  0
  4 48  1  0  0  0  0
  5  6  1  0  0  0  0
  5  4  1  0  0  0  0
  6 74  1  6  0  0  0
  6  7  1  0  0  0  0
  7 75  1  0  0  0  0
  8  7  1  0  0  0  0
  8  9  1  0  0  0  0
  9 10  1  0  0  0  0
  9 50  1  0  0  0  0
 10 12  1  0  0  0  0
 11 20  1  0  0  0  0
 11 10  2  0  0  0  0
 12 18  2  0  0  0  0
 12 13  1  0  0  0  0
 13 14  1  0  0  0  0
 14 16  1  0  0  0  0
 14 17  1  0  0  0  0
 15 14  1  0  0  0  0
 18 52  1  0  0  0  0
 19 35  1  0  0  0  0
 19 18  1  0  0  0  0
 20 19  2  0  0  0  0
 21 31  2  0  0  0  0
 21 20  1  0  0  0  0
 22 53  1  0  0  0  0
 22 21  1  0  0  0  0
 23 22  1  0  0  0  0
 24 54  1  0  0  0  0
 24 23  2  0  0  0  0
 25 24  1  0  0  0  0
 26 25  1  0  0  0  0
 27 25  2  0  0  0  0
 27 29  1  0  0  0  0
 28 27  1  0  0  0  0
 29 30  2  0  0  0  0
 30 56  1  0  0  0  0
 30 23  1  0  0  0  0
 31 34  1  0  0  0  0
 32 31  1  0  0  0  0
 33 32  3  0  0  0  0
 34 57  1  0  0  0  0
 34 35  2  0  0  0  0
 36  8  2  0  0  0  0
 37  6  1  0  0  0  0
 37 58  1  0  0  0  0
 37 59  1  0  0  0  0
 38 37  1  0  0  0  0
 39 38  1  0  0  0  0
 39 62  1  0  0  0  0
 39 60  1  0  0  0  0
 40 64  1  0  0  0  0
 40 38  1  0  0  0  0
 41  3  1  0  0  0  0
 41 66  1  0  0  0  0
 42 41  1  0  0  0  0
 43 68  1  0  0  0  0
 43 42  1  0  0  0  0
 43 67  1  0  0  0  0
 44 42  2  0  0  0  0
 46  2  1  0  0  0  0
 46 47  1  0  0  0  0
 47 72  1  0  0  0  0
 47 71  1  0  0  0  0
 51 11  1  0  0  0  0
 55 29  1  0  0  0  0
 61 39  1  0  0  0  0
 63 40  1  0  0  0  0
 65 40  1  0  0  0  0
 69 43  1  0  0  0  0
 70 46  1  0  0  0  0
 73 47  1  0  0  0  0
M  END
