-1 1
 OpenBabel05232413483D

 80 82  0  0  1  0  0  0  0  0999 V2000
   -2.1515    0.3560    3.4490 O   0  0  0  0  0  0  0  0  0  0  0  0
   -2.2983   -0.5219    2.6101 C   0  0  0  0  0  0  0  0  0  0  0  0
   -1.3636   -0.6352    1.3855 C   0  0  2  0  0  0  0  0  0  0  0  0
   -0.6555   -2.0004    1.2392 C   0  0  0  0  0  0  0  0  0  0  0  0
   -1.6962   -3.4769    0.9550 S   0  0  0  0  0  1  0  0  0  0  0  0
   -1.9320   -2.3552   -2.1645 C   0  0  0  0  0  0  0  0  0  0  0  0
   -3.2628   -3.0395   -2.2438 C   0  0  0  0  0  0  0  0  0  0  0  0
   -4.3932   -2.1385   -2.0989 N   0  0  0  0  0  0  0  0  0  0  0  0
   -5.6318   -2.5968   -2.6996 C   0  0  0  0  0  0  0  0  0  0  0  0
   -6.3628   -3.6221   -1.8325 C   0  0  0  0  0  0  0  0  0  0  0  0
   -6.6066   -3.1061   -0.5514 O   0  0  0  0  0  0  0  0  0  0  0  0
   -5.4056   -2.7193    0.0932 C   0  0  0  0  0  0  0  0  0  0  0  0
   -4.6363   -1.6924   -0.7276 C   0  0  0  0  0  0  0  0  0  0  0  0
   -1.7548   -1.0312   -2.2210 C   0  0  0  0  0  0  0  0  0  0  0  0
   -0.4088   -0.4292   -2.1176 C   0  0  0  0  0  0  0  0  0  0  0  0
    0.6355   -1.0604   -2.1349 O   0  0  0  0  0  0  0  0  0  0  0  0
   -0.4540    0.9457   -2.0070 N   0  0  0  0  0  0  0  0  0  0  0  0
    0.5896    1.8137   -1.7451 C   0  0  0  0  0  0  0  0  0  0  0  0
    0.2417    3.2072   -1.6947 C   0  0  0  0  0  0  0  0  0  0  0  0
   -1.0450    3.4744   -1.9715 O   0  0  0  0  0  0  0  0  0  0  0  0
   -1.6405    4.6097   -1.3933 C   0  0  0  0  0  0  0  0  0  0  0  0
    1.1930    4.1535   -1.3998 C   0  0  0  0  0  0  0  0  0  0  0  0
    2.5422    3.7817   -1.1737 C   0  0  0  0  0  0  0  0  0  0  0  0
    3.4537    4.7790   -0.9834 N   0  0  0  0  0  0  0  0  0  0  0  0
    4.7020    4.4405   -0.8316 C   0  0  0  0  0  0  0  0  0  0  0  0
    5.1633    3.0958   -0.7989 C   0  0  0  0  0  0  0  0  0  0  0  0
    6.5449    2.8100   -0.5692 C   0  0  0  0  0  0  0  0  0  0  0  0
    7.6604    2.5480   -0.3878 N   0  0  0  0  0  0  0  0  0  0  0  0
    4.2465    2.0471   -0.9505 C   0  0  0  0  0  0  0  0  0  0  0  0
    4.6584    0.7323   -0.9058 N   0  0  0  0  0  0  0  0  0  0  0  0
    3.9939   -0.2549   -0.1207 C   0  0  0  0  0  0  0  0  0  0  0  0
    3.5442    0.0543    1.1650 C   0  0  0  0  0  0  0  0  0  0  0  0
    2.9393   -0.9267    1.9410 C   0  0  0  0  0  0  0  0  0  0  0  0
    2.3679   -0.5528    3.5403 Cl  0  0  0  0  0  0  0  0  0  0  0  0
    2.7929   -2.2220    1.4432 C   0  0  0  0  0  0  0  0  0  0  0  0
    2.2598   -3.1642    2.2018 F   0  0  0  0  0  0  0  0  0  0  0  0
    3.2179   -2.5261    0.1571 C   0  0  0  0  0  0  0  0  0  0  0  0
    3.8150   -1.5435   -0.6248 C   0  0  0  0  0  0  0  0  0  0  0  0
    2.8828    2.4008   -1.1947 C   0  0  0  0  0  0  0  0  0  0  0  0
    1.8894    1.4346   -1.4999 C   0  0  0  0  0  0  0  0  0  0  0  0
   -0.3568    0.4012    1.4868 N   0  0  0  0  0  0  0  0  0  0  0  0
   -0.6043    1.7081    1.2264 C   0  0  0  0  0  0  0  0  0  0  0  0
    0.4508    2.6518    1.7737 C   0  0  0  0  0  0  0  0  0  0  0  0
   -1.5540    2.1021    0.5653 O   0  0  0  0  0  0  0  0  0  0  0  0
   -1.9608   -0.4338    0.4837 H   0  0  0  0  0  0  0  0  0  0  0  0
   -3.2841   -1.4453    2.6538 N   0  0  0  0  0  0  0  0  0  0  0  0
   -4.1405   -1.5391    3.8062 C   0  0  0  0  0  0  0  0  0  0  0  0
    0.0466   -1.8804    0.3984 H   0  0  0  0  0  0  0  0  0  0  0  0
   -0.0474   -2.1530    2.1482 H   0  0  0  0  0  0  0  0  0  0  0  0
   -3.2397   -3.8590   -1.5001 H   0  0  0  0  0  0  0  0  0  0  0  0
   -3.3297   -3.5197   -3.2378 H   0  0  0  0  0  0  0  0  0  0  0  0
   -5.4309   -3.0106   -3.7016 H   0  0  0  0  0  0  0  0  0  0  0  0
   -6.2985   -1.7246   -2.8299 H   0  0  0  0  0  0  0  0  0  0  0  0
   -5.7625   -4.5548   -1.7672 H   0  0  0  0  0  0  0  0  0  0  0  0
   -7.3392   -3.8817   -2.2719 H   0  0  0  0  0  0  0  0  0  0  0  0
   -4.7633   -3.6017    0.2819 H   0  0  0  0  0  0  0  0  0  0  0  0
   -5.6823   -2.2955    1.0688 H   0  0  0  0  0  0  0  0  0  0  0  0
   -3.6790   -1.4899   -0.2305 H   0  0  0  0  0  0  0  0  0  0  0  0
   -5.2133   -0.7514   -0.7661 H   0  0  0  0  0  0  0  0  0  0  0  0
   -1.3673    1.3735   -1.8943 H   0  0  0  0  0  0  0  0  0  0  0  0
   -1.5073    4.5886   -0.3010 H   0  0  0  0  0  0  0  0  0  0  0  0
   -2.7112    4.5488   -1.6213 H   0  0  0  0  0  0  0  0  0  0  0  0
   -1.2371    5.5447   -1.8179 H   0  0  0  0  0  0  0  0  0  0  0  0
    0.9566    5.2160   -1.3632 H   0  0  0  0  0  0  0  0  0  0  0  0
    5.4348    5.2452   -0.6990 H   0  0  0  0  0  0  0  0  0  0  0  0
    5.6668    0.6117   -0.9320 H   0  0  0  0  0  0  0  0  0  0  0  0
    3.6706    1.0603    1.5685 H   0  0  0  0  0  0  0  0  0  0  0  0
    3.0481   -3.5340   -0.2223 H   0  0  0  0  0  0  0  0  0  0  0  0
    4.1227   -1.7643   -1.6474 H   0  0  0  0  0  0  0  0  0  0  0  0
    2.1182    0.3753   -1.5464 H   0  0  0  0  0  0  0  0  0  0  0  0
    0.3374    0.2271    2.2050 H   0  0  0  0  0  0  0  0  0  0  0  0
    1.4270    2.4360    1.3123 H   0  0  0  0  0  0  0  0  0  0  0  0
    0.5434    2.5256    2.8627 H   0  0  0  0  0  0  0  0  0  0  0  0
    0.1734    3.6873    1.5472 H   0  0  0  0  0  0  0  0  0  0  0  0
   -3.0932   -2.3020    2.0926 H   0  0  0  0  0  0  0  0  0  0  0  0
   -4.4757   -0.5358    4.1054 H   0  0  0  0  0  0  0  0  0  0  0  0
   -3.6327   -1.9926    4.6765 H   0  0  0  0  0  0  0  0  0  0  0  0
   -5.0190   -2.1532    3.5606 H   0  0  0  0  0  0  0  0  0  0  0  0
   -2.6265   -0.3746   -2.2987 H   0  0  0  0  0  0  0  0  0  0  0  0
   -1.0556   -2.9998   -2.0536 H   0  0  0  0  0  0  0  0  0  0  0  0
  2 46  1  0  0  0  0
  2  1  2  0  0  0  0
  3 45  1  6  0  0  0
  3 41  1  0  0  0  0
  3  2  1  0  0  0  0
  4  3  1  0  0  0  0
  4 49  1  0  0  0  0
  5  4  1  0  0  0  0
  6 80  1  0  0  0  0
  7  6  1  0  0  0  0
  7  8  1  0  0  0  0
  7 50  1  0  0  0  0
  8 13  1  0  0  0  0
  9  8  1  0  0  0  0
  9 10  1  0  0  0  0
 10 54  1  0  0  0  0
 10 11  1  0  0  0  0
 11 12  1  0  0  0  0
 12 56  1  0  0  0  0
 12 57  1  0  0  0  0
 13 58  1  0  0  0  0
 13 12  1  0  0  0  0
 14  6  2  0  0  0  0
 14 15  1  0  0  0  0
 15 17  1  0  0  0  0
 16 15  2  0  0  0  0
 17 60  1  0  0  0  0
 17 18  1  0  0  0  0
 18 19  2  0  0  0  0
 18 40  1  0  0  0  0
 19 22  1  0  0  0  0
 20 19  1  0  0  0  0
 20 21  1  0  0  0  0
 21 61  1  0  0  0  0
 22 64  1  0  0  0  0
 22 23  2  0  0  0  0
 23 24  1  0  0  0  0
 24 25  2  0  0  0  0
 25 26  1  0  0  0  0
 25 65  1  0  0  0  0
 26 27  1  0  0  0  0
 27 28  3  0  0  0  0
 29 30  1  0  0  0  0
 29 26  2  0  0  0  0
 30 31  1  0  0  0  0
 31 32  1  0  0  0  0
 32 67  1  0  0  0  0
 32 33  2  0  0  0  0
 33 34  1  0  0  0  0
 35 33  1  0  0  0  0
 35 36  1  0  0  0  0
 37 35  2  0  0  0  0
 38 31  2  0  0  0  0
 38 37  1  0  0  0  0
 39 23  1  0  0  0  0
 39 29  1  0  0  0  0
 40 39  2  0  0  0  0
 41 71  1  0  0  0  0
 42 41  1  0  0  0  0
 42 43  1  0  0  0  0
 43 73  1  0  0  0  0
 44 42  2  0  0  0  0
 46 47  1  0  0  0  0
 47 76  1  0  0  0  0
 47 77  1  0  0  0  0
 48  4  1  0  0  0  0
 51  7  1  0  0  0  0
 52  9  1  0  0  0  0
 53  9  1  0  0  0  0
 55 10  1  0  0  0  0
 59 13  1  0  0  0  0
 62 21  1  0  0  0  0
 63 21  1  0  0  0  0
 66 30  1  0  0  0  0
 68 37  1  0  0  0  0
 69 38  1  0  0  0  0
 70 40  1  0  0  0  0
 72 43  1  0  0  0  0
 74 43  1  0  0  0  0
 75 46  1  0  0  0  0
 78 47  1  0  0  0  0
 79 14  1  0  0  0  0
M  END
