-1 1
 OpenBabel05192410563D

 80 83  0  0  1  0  0  0  0  0999 V2000
   -3.5357    1.3246    4.5202 O   0  0  0  0  0  0  0  0  0  0  0  0
   -2.5031    0.8054    4.1453 C   0  0  0  0  0  0  0  0  0  0  0  0
   -2.3053    0.3507    2.6956 C   0  0  2  0  0  0  0  0  0  0  0  0
   -2.7758   -1.1277    2.5917 C   0  0  0  0  0  0  0  0  0  0  0  0
   -4.1805   -1.5031    1.5138 S   0  0  0  0  0  0  0  0  0  0  0  0
   -3.3187   -1.5210   -0.1443 C   0  0  1  0  0  0  0  0  0  0  0  0
   -4.2350   -2.3137   -1.0818 C   0  0  0  0  0  0  0  0  0  0  0  0
   -3.7186   -2.4076   -2.4388 N   0  0  0  0  0  0  0  0  0  0  0  0
   -2.3344   -2.8350   -2.5876 C   0  0  0  0  0  0  0  0  0  0  0  0
   -2.1860   -4.3430   -2.4120 C   0  0  0  0  0  0  0  0  0  0  0  0
   -3.0225   -5.0428   -3.3120 O   0  0  0  0  0  0  0  0  0  0  0  0
   -4.3751   -4.6863   -3.1649 C   0  0  0  0  0  0  0  0  0  0  0  0
   -4.5678   -3.1765   -3.3272 C   0  0  0  0  0  0  0  0  0  0  0  0
   -2.9273   -0.1784   -0.6235 C   0  0  0  0  0  3  0  0  0  0  0  0
   -1.6087    0.2000   -0.6482 C   0  0  0  0  0  0  0  0  0  0  0  0
   -0.5952   -0.5169   -0.3631 O   0  0  0  0  0  0  0  0  0  0  0  0
   -1.3783    1.5874   -0.9532 N   0  0  0  0  0  0  0  0  0  0  0  0
   -0.1578    2.1850   -1.0866 C   0  0  0  0  0  0  0  0  0  0  0  0
   -0.0202    3.5336   -0.6057 C   0  0  0  0  0  0  0  0  0  0  0  0
   -1.1503    4.0540   -0.0921 O   0  0  0  0  0  0  0  0  0  0  0  0
   -1.0566    5.1167    0.8245 C   0  0  0  0  0  0  0  0  0  0  0  0
    1.1893    4.1822   -0.6623 C   0  0  0  0  0  0  0  0  0  0  0  0
    2.3429    3.5357   -1.1779 C   0  0  0  0  0  0  0  0  0  0  0  0
    3.4977    4.2596   -1.2298 N   0  0  0  0  0  0  0  0  0  0  0  0
    4.5563    3.6820   -1.7200 C   0  0  0  0  0  0  0  0  0  0  0  0
    4.5868    2.3323   -2.1626 C   0  0  0  0  0  0  0  0  0  0  0  0
    5.8048    1.7594   -2.6404 C   0  0  0  0  0  0  0  0  0  0  0  0
    6.7772    1.2658   -3.0382 N   0  0  0  0  0  0  0  0  0  0  0  0
    3.4223    1.5497   -2.1030 C   0  0  0  0  0  0  0  0  0  0  0  0
    3.4605    0.2458   -2.5410 N   0  0  0  0  0  0  0  0  0  0  0  0
    2.7272   -0.8357   -1.9891 C   0  0  0  0  0  0  0  0  0  0  0  0
    2.6283   -0.9991   -0.6045 C   0  0  0  0  0  0  0  0  0  0  0  0
    1.8457   -2.0188   -0.0822 C   0  0  0  0  0  0  0  0  0  0  0  0
    1.6482   -2.1933    1.6321 Cl  0  0  0  0  0  0  0  0  0  0  0  0
    1.1850   -2.8961   -0.9387 C   0  0  0  0  0  0  0  0  0  0  0  0
    0.4115   -3.8546   -0.4391 F   0  0  0  0  0  0  0  0  0  0  0  0
    1.3234   -2.7740   -2.3124 C   0  0  0  0  0  0  0  0  0  0  0  0
    2.0872   -1.7378   -2.8391 C   0  0  0  0  0  0  0  0  0  0  0  0
    2.2278    2.1864   -1.6274 C   0  0  0  0  0  0  0  0  0  0  0  0
    0.9575    1.5575   -1.6120 C   0  0  0  0  0  0  0  0  0  0  0  0
   -0.9171    0.4421    2.2794 N   0  0  0  0  0  0  0  0  0  0  0  0
   -0.2266    1.6170    2.3667 C   0  0  0  0  0  0  0  0  0  0  0  0
    1.1920    1.5289    1.8477 C   0  0  0  0  0  0  0  0  0  0  0  0
   -0.6753    2.6201    2.8999 O   0  0  0  0  0  0  0  0  0  0  0  0
   -2.9515    0.9962    2.0820 H   0  0  0  0  0  0  0  0  0  0  0  0
   -1.4890    0.4526    4.9856 N   0  0  0  0  0  0  0  0  0  0  0  0
   -1.4482    0.8830    6.3564 C   0  0  0  0  0  0  0  0  0  0  0  0
   -1.9278   -1.7564    2.2802 H   0  0  0  0  0  0  0  0  0  0  0  0
   -3.0832   -1.4912    3.5822 H   0  0  0  0  0  0  0  0  0  0  0  0
   -5.2142   -1.8041   -1.1432 H   0  0  0  0  0  0  0  0  0  0  0  0
   -4.4292   -3.3035   -0.6139 H   0  0  0  0  0  0  0  0  0  0  0  0
   -1.6799   -2.2811   -1.8985 H   0  0  0  0  0  0  0  0  0  0  0  0
   -2.0103   -2.5723   -3.6111 H   0  0  0  0  0  0  0  0  0  0  0  0
   -2.4221   -4.6308   -1.3671 H   0  0  0  0  0  0  0  0  0  0  0  0
   -1.1579   -4.6754   -2.6151 H   0  0  0  0  0  0  0  0  0  0  0  0
   -4.7496   -5.0137   -2.1727 H   0  0  0  0  0  0  0  0  0  0  0  0
   -4.9395   -5.2393   -3.9322 H   0  0  0  0  0  0  0  0  0  0  0  0
   -5.6233   -2.9070   -3.1575 H   0  0  0  0  0  0  0  0  0  0  0  0
   -4.3208   -2.9083   -4.3711 H   0  0  0  0  0  0  0  0  0  0  0  0
   -2.1170    2.2118   -0.6570 H   0  0  0  0  0  0  0  0  0  0  0  0
   -0.3954    4.8408    1.6614 H   0  0  0  0  0  0  0  0  0  0  0  0
   -2.0679    5.2785    1.2157 H   0  0  0  0  0  0  0  0  0  0  0  0
   -0.7039    6.0433    0.3396 H   0  0  0  0  0  0  0  0  0  0  0  0
    1.3162    5.2018   -0.3008 H   0  0  0  0  0  0  0  0  0  0  0  0
    5.4804    4.2698   -1.7750 H   0  0  0  0  0  0  0  0  0  0  0  0
    4.3144   -0.0186   -3.0216 H   0  0  0  0  0  0  0  0  0  0  0  0
    3.1290   -0.3012    0.0674 H   0  0  0  0  0  0  0  0  0  0  0  0
    0.7924   -3.4712   -2.9613 H   0  0  0  0  0  0  0  0  0  0  0  0
    2.1563   -1.5966   -3.9187 H   0  0  0  0  0  0  0  0  0  0  0  0
    0.8268    0.5357   -1.9475 H   0  0  0  0  0  0  0  0  0  0  0  0
   -0.6461   -0.1570    1.4812 H   0  0  0  0  0  0  0  0  0  0  0  0
    1.2426    0.8632    0.9766 H   0  0  0  0  0  0  0  0  0  0  0  0
    1.8313    1.1154    2.6435 H   0  0  0  0  0  0  0  0  0  0  0  0
    1.5570    2.5285    1.5844 H   0  0  0  0  0  0  0  0  0  0  0  0
   -0.6375    0.1344    4.5399 H   0  0  0  0  0  0  0  0  0  0  0  0
   -2.4613    1.2000    6.6360 H   0  0  0  0  0  0  0  0  0  0  0  0
   -0.7666    1.7390    6.5002 H   0  0  0  0  0  0  0  0  0  0  0  0
   -1.1328    0.0640    7.0219 H   0  0  0  0  0  0  0  0  0  0  0  0
   -3.7100    0.5179   -0.9349 H   0  0  0  0  0  0  0  0  0  0  0  0
   -2.4038   -2.1031    0.0436 H   0  0  0  0  0  0  0  0  0  0  0  0
  2  1  2  0  0  0  0
  2 46  1  0  0  0  0
  3 45  1  6  0  0  0
  3  2  1  0  0  0  0
  4  3  1  0  0  0  0
  4 49  1  0  0  0  0
  5  4  1  0  0  0  0
  6 80  1  1  0  0  0
  6  5  1  0  0  0  0
  7 51  1  0  0  0  0
  7  6  1  0  0  0  0
  8  7  1  0  0  0  0
  9  8  1  0  0  0  0
  9 10  1  0  0  0  0
  9 52  1  0  0  0  0
 10 54  1  0  0  0  0
 11 12  1  0  0  0  0
 11 10  1  0  0  0  0
 12 56  1  0  0  0  0
 13 12  1  0  0  0  0
 13 58  1  0  0  0  0
 13  8  1  0  0  0  0
 14  6  1  0  0  0  0
 15 14  1  0  0  0  0
 15 16  2  0  0  0  0
 17 60  1  0  0  0  0
 17 15  1  0  0  0  0
 18 17  1  0  0  0  0
 18 19  1  0  0  0  0
 19 20  1  0  0  0  0
 20 21  1  0  0  0  0
 21 62  1  0  0  0  0
 21 61  1  0  0  0  0
 22 19  2  0  0  0  0
 22 64  1  0  0  0  0
 23 22  1  0  0  0  0
 24 23  1  0  0  0  0
 25 24  2  0  0  0  0
 26 29  2  0  0  0  0
 26 25  1  0  0  0  0
 27 26  1  0  0  0  0
 28 27  3  0  0  0  0
 29 39  1  0  0  0  0
 30 29  1  0  0  0  0
 30 31  1  0  0  0  0
 31 32  1  0  0  0  0
 32 33  2  0  0  0  0
 32 67  1  0  0  0  0
 33 34  1  0  0  0  0
 35 36  1  0  0  0  0
 35 33  1  0  0  0  0
 37 35  2  0  0  0  0
 38 37  1  0  0  0  0
 38 31  2  0  0  0  0
 39 40  1  0  0  0  0
 39 23  2  0  0  0  0
 40 18  2  0  0  0  0
 41 42  1  0  0  0  0
 41  3  1  0  0  0  0
 42 44  2  0  0  0  0
 43 42  1  0  0  0  0
 43 73  1  0  0  0  0
 46 47  1  0  0  0  0
 47 77  1  0  0  0  0
 47 76  1  0  0  0  0
 47 78  1  0  0  0  0
 48  4  1  0  0  0  0
 50  7  1  0  0  0  0
 53  9  1  0  0  0  0
 55 10  1  0  0  0  0
 57 12  1  0  0  0  0
 59 13  1  0  0  0  0
 63 21  1  0  0  0  0
 65 25  1  0  0  0  0
 66 30  1  0  0  0  0
 68 37  1  0  0  0  0
 69 38  1  0  0  0  0
 70 40  1  0  0  0  0
 71 41  1  0  0  0  0
 72 43  1  0  0  0  0
 74 43  1  0  0  0  0
 75 46  1  0  0  0  0
 79 14  1  0  0  0  0
M  END
