80
-1 1
O        -2.151453    0.356016    3.448985
C        -2.298305   -0.521895    2.610100
C        -1.363615   -0.635227    1.385512
C        -0.655532   -2.000431    1.239185
S        -1.696182   -3.476918    0.954953
C        -1.932015   -2.355239   -2.164528
C        -3.262803   -3.039484   -2.243787
N        -4.393222   -2.138490   -2.098914
C        -5.631828   -2.596783   -2.699585
C        -6.362778   -3.622115   -1.832458
O        -6.606611   -3.106103   -0.551359
C        -5.405628   -2.719288    0.093215
C        -4.636327   -1.692373   -0.727610
C        -1.754847   -1.031212   -2.220955
C        -0.408835   -0.429207   -2.117615
O         0.635452   -1.060413   -2.134879
N        -0.453996    0.945690   -2.007000
C         0.589566    1.813707   -1.745117
C         0.241718    3.207167   -1.694670
O        -1.045022    3.474377   -1.971466
C        -1.640484    4.609741   -1.393277
C         1.192974    4.153483   -1.399792
C         2.542196    3.781709   -1.173665
N         3.453739    4.778982   -0.983406
C         4.701993    4.440471   -0.831573
C         5.163282    3.095820   -0.798876
C         6.544897    2.810029   -0.569224
N         7.660353    2.548027   -0.387770
C         4.246527    2.047149   -0.950545
N         4.658413    0.732345   -0.905815
C         3.993942   -0.254869   -0.120670
C         3.544195    0.054316    1.165008
C         2.939261   -0.926745    1.940959
Cl         2.367949   -0.552769    3.540284
C         2.792857   -2.221960    1.443234
F         2.259780   -3.164155    2.201815
C         3.217866   -2.526055    0.157061
C         3.814992   -1.543507   -0.624834
C         2.882805    2.400814   -1.194684
C         1.889446    1.434565   -1.499890
N        -0.356799    0.401184    1.486784
C        -0.604335    1.708125    1.226356
C         0.450762    2.651786    1.773749
O        -1.554010    2.102060    0.565274
H        -1.960790   -0.433799    0.483741
N        -3.284125   -1.445260    2.653757
C        -4.140500   -1.539066    3.806188
H         0.046558   -1.880409    0.398393
H        -0.047447   -2.152960    2.148175
H        -3.239750   -3.858991   -1.500107
H        -3.329724   -3.519666   -3.237777
H        -5.430929   -3.010568   -3.701633
H        -6.298491   -1.724571   -2.829914
H        -5.762539   -4.554760   -1.767153
H        -7.339244   -3.881726   -2.271875
H        -4.763324   -3.601724    0.281910
H        -5.682303   -2.295498    1.068753
H        -3.678966   -1.489877   -0.230505
H        -5.213306   -0.751364   -0.766100
H        -1.367277    1.373507   -1.894310
H        -1.507341    4.588578   -0.301012
H        -2.711190    4.548808   -1.621346
H        -1.237087    5.544680   -1.817925
H         0.956602    5.215959   -1.363231
H         5.434759    5.245174   -0.698960
H         5.666793    0.611710   -0.932028
H         3.670569    1.060290    1.568476
H         3.048099   -3.533977   -0.222337
H         4.122737   -1.764310   -1.647398
H         2.118183    0.375275   -1.546430
H         0.337414    0.227081    2.204986
H         1.426962    2.435970    1.312320
H         0.543440    2.525601    2.862711
H         0.173431    3.687274    1.547197
H        -3.093191   -2.301959    2.092569
H        -4.475722   -0.535825    4.105364
H        -3.632740   -1.992640    4.676476
H        -5.019049   -2.153197    3.560628
H        -2.626537   -0.374627   -2.298726
H        -1.055600   -2.999845   -2.053554
