62
-1 1
O         4.291062   -2.645639    0.520842
C         3.074178   -2.532788    0.510086
C         2.248089   -2.712217    1.798812
C         1.331370   -1.498800    2.060306
S        -0.243662   -1.584247    1.158214
C        -1.166264    0.350976    1.929106
C        -2.435180    0.578106    1.383302
S        -3.987653   -0.056946    1.973488
C        -2.592428    1.246700    0.123891
O        -1.745013    1.765524   -0.588450
N        -3.961275    1.244399   -0.235833
C        -4.867349    0.620095    0.578336
O        -6.060266    0.538053    0.400079
C        -0.938613    0.139342    3.385937
C         0.010070    0.924951    4.054019
C         0.270556    0.718033    5.403361
C        -0.400627   -0.275825    6.110570
O        -0.178946   -0.416580    7.466281
C         0.953539   -1.001708    7.921367
C         1.125141   -0.992155    9.311494
C         2.222846   -1.603198    9.904795
C         2.405252   -1.589175   11.398088
C         3.164498   -2.244839    9.067288
C         4.301627   -2.893716    9.658973
N         5.206145   -3.405791   10.171053
C         2.992416   -2.253925    7.677717
C         1.893966   -1.627201    7.100090
C        -1.351859   -1.080532    5.460953
O        -2.081577   -2.049963    6.060932
C        -1.488144   -2.908588    7.004586
C        -1.603878   -0.854985    4.106110
N         3.187972   -2.939214    2.869996
C         2.938224   -3.472851    4.089269
C         1.529549   -3.979639    4.345224
O         3.815078   -3.566701    4.937049
H         1.605364   -3.599745    1.661342
N         2.348269   -2.238656   -0.587053
C         2.955717   -1.953163   -1.861757
H         1.123210   -1.457965    3.139310
H         1.874140   -0.569597    1.814176
H        -0.417060    0.988799    1.451225
H        -4.265964    1.688233   -1.093436
H         0.551005    1.700876    3.508719
H         1.002900    1.328658    5.935713
H         0.368152   -0.491795    9.918568
H         1.582563   -1.056999   11.893776
H         3.352042   -1.100035   11.674261
H         2.449944   -2.613103   11.799864
H         3.698405   -2.767821    7.020082
H         1.771945   -1.635789    6.017198
H        -2.094618   -3.824281    7.020595
H        -1.474145   -2.471642    8.014800
H        -0.457237   -3.175947    6.718298
H        -2.307317   -1.526370    3.611915
H         4.158881   -2.730650    2.646559
H         0.758510   -3.215569    4.165478
H         1.476603   -4.323297    5.385003
H         1.302725   -4.823785    3.675577
H         1.353123   -2.029536   -0.448381
H         4.025199   -2.189558   -1.796418
H         2.843478   -0.890589   -2.131449
H         2.500827   -2.561907   -2.658475
