62
-1 1
O         3.938977   -1.524384   -3.587043
C         2.738233   -1.309807   -3.569068
C         1.929475   -1.418488   -2.261981
C         1.100639   -0.145530   -2.001511
S        -0.535947   -0.216214   -2.787790
C        -1.313247    1.419152   -2.047370
C        -2.620991    1.709955   -2.604713
S        -4.147710    0.903226   -2.176740
C        -2.760450    2.523699   -3.746842
O        -1.919394    3.179056   -4.367756
N        -4.124914    2.505937   -4.164629
C        -5.020360    1.721861   -3.499685
O        -6.203033    1.598188   -3.739514
C        -1.173822    1.289503   -0.549743
C        -0.336560    2.163034    0.154935
C        -0.124321    1.983736    1.516339
C        -0.740506    0.940231    2.202938
O        -0.520397    0.810204    3.562186
C         0.626028    0.243767    4.005652
C         0.805970    0.234896    5.394556
C         1.919411   -0.363676    5.971715
C         2.110363   -0.369313    7.464001
C         2.868513   -0.974436    5.119532
C         4.021167   -1.611234    5.693815
N         4.939109   -2.114955    6.190042
C         2.688263   -0.964822    3.730903
C         1.575391   -0.349727    3.169971
C        -1.606355    0.066708    1.523564
O        -2.303573   -0.947795    2.085041
C        -1.770880   -1.704657    3.143681
C        -1.800291    0.259923    0.152504
N         2.863491   -1.692536   -1.199241
C         2.579271   -2.151249    0.046728
C         1.144412   -2.568370    0.315308
O         3.446577   -2.247587    0.901630
H         1.231280   -2.267138   -2.378336
N         2.014180   -0.956941   -4.653053
C         2.613251   -0.741144   -5.946947
H         0.959527   -0.037589   -0.917819
H         1.650533    0.748275   -2.340583
H        -0.636747    2.196063   -2.429455
H        -4.419616    3.054629   -4.962493
H         0.164666    2.977054   -0.372917
H         0.536540    2.648703    2.076564
H         0.043132    0.710162    6.014353
H         1.280460    0.138941    7.972534
H         3.048964    0.134067    7.742469
H         2.177285   -1.398261    7.849507
H         3.399917   -1.455414    3.062158
H         1.447381   -0.344598    2.088281
H        -2.352949   -2.635093    3.181265
H        -1.857282   -1.189099    4.112045
H        -0.712375   -1.960435    2.968975
H        -2.437685   -0.459578   -0.364747
H         3.843731   -1.538401   -1.423204
H         0.422885   -1.752706    0.155018
H         1.081271   -2.912867    1.354008
H         0.850261   -3.389781   -0.356072
H         1.041657   -0.678242   -4.512273
H         3.661818   -1.059555   -5.897455
H         2.577833    0.322166   -6.232475
H         2.095186   -1.326854   -6.721554
