-1 1
 OpenBabel05232414493D

 62 63  0  0  1  0  0  0  0  0999 V2000
    4.2911   -2.6456    0.5208 O   0  0  0  0  0  0  0  0  0  0  0  0
    3.0742   -2.5328    0.5101 C   0  0  0  0  0  0  0  0  0  0  0  0
    2.2481   -2.7122    1.7988 C   0  0  2  0  0  0  0  0  0  0  0  0
    1.3314   -1.4988    2.0603 C   0  0  0  0  0  0  0  0  0  0  0  0
   -0.2437   -1.5842    1.1582 S   0  0  0  0  0  1  0  0  0  0  0  0
   -1.1663    0.3510    1.9291 C   0  0  0  0  0  3  0  0  0  0  0  0
   -2.4352    0.5781    1.3833 C   0  0  2  0  0  3  0  0  0  0  0  0
   -3.9877   -0.0569    1.9735 S   0  0  0  0  0  0  0  0  0  0  0  0
   -2.5924    1.2467    0.1239 C   0  0  0  0  0  0  0  0  0  0  0  0
   -1.7450    1.7655   -0.5885 O   0  0  0  0  0  0  0  0  0  0  0  0
   -3.9613    1.2444   -0.2358 N   0  0  0  0  0  0  0  0  0  0  0  0
   -4.8673    0.6201    0.5783 C   0  0  0  0  0  0  0  0  0  0  0  0
   -6.0603    0.5381    0.4001 O   0  0  0  0  0  0  0  0  0  0  0  0
   -0.9386    0.1393    3.3859 C   0  0  0  0  0  0  0  0  0  0  0  0
    0.0101    0.9250    4.0540 C   0  0  0  0  0  0  0  0  0  0  0  0
    0.2706    0.7180    5.4034 C   0  0  0  0  0  0  0  0  0  0  0  0
   -0.4006   -0.2758    6.1106 C   0  0  0  0  0  0  0  0  0  0  0  0
   -0.1789   -0.4166    7.4663 O   0  0  0  0  0  0  0  0  0  0  0  0
    0.9535   -1.0017    7.9214 C   0  0  0  0  0  0  0  0  0  0  0  0
    1.1251   -0.9922    9.3115 C   0  0  0  0  0  0  0  0  0  0  0  0
    2.2228   -1.6032    9.9048 C   0  0  0  0  0  0  0  0  0  0  0  0
    2.4053   -1.5892   11.3981 C   0  0  0  0  0  0  0  0  0  0  0  0
    3.1645   -2.2448    9.0673 C   0  0  0  0  0  0  0  0  0  0  0  0
    4.3016   -2.8937    9.6590 C   0  0  0  0  0  0  0  0  0  0  0  0
    5.2061   -3.4058   10.1711 N   0  0  0  0  0  0  0  0  0  0  0  0
    2.9924   -2.2539    7.6777 C   0  0  0  0  0  0  0  0  0  0  0  0
    1.8940   -1.6272    7.1001 C   0  0  0  0  0  0  0  0  0  0  0  0
   -1.3519   -1.0805    5.4610 C   0  0  0  0  0  0  0  0  0  0  0  0
   -2.0816   -2.0500    6.0609 O   0  0  0  0  0  0  0  0  0  0  0  0
   -1.4881   -2.9086    7.0046 C   0  0  0  0  0  0  0  0  0  0  0  0
   -1.6039   -0.8550    4.1061 C   0  0  0  0  0  0  0  0  0  0  0  0
    3.1880   -2.9392    2.8700 N   0  0  0  0  0  0  0  0  0  0  0  0
    2.9382   -3.4729    4.0893 C   0  0  0  0  0  0  0  0  0  0  0  0
    1.5295   -3.9796    4.3452 C   0  0  0  0  0  0  0  0  0  0  0  0
    3.8151   -3.5667    4.9370 O   0  0  0  0  0  0  0  0  0  0  0  0
    1.6054   -3.5997    1.6613 H   0  0  0  0  0  0  0  0  0  0  0  0
    2.3483   -2.2387   -0.5871 N   0  0  0  0  0  0  0  0  0  0  0  0
    2.9557   -1.9532   -1.8618 C   0  0  0  0  0  0  0  0  0  0  0  0
    1.1232   -1.4580    3.1393 H   0  0  0  0  0  0  0  0  0  0  0  0
    1.8741   -0.5696    1.8142 H   0  0  0  0  0  0  0  0  0  0  0  0
   -0.4171    0.9888    1.4512 H   0  0  0  0  0  0  0  0  0  0  0  0
   -4.2660    1.6882   -1.0934 H   0  0  0  0  0  0  0  0  0  0  0  0
    0.5510    1.7009    3.5087 H   0  0  0  0  0  0  0  0  0  0  0  0
    1.0029    1.3287    5.9357 H   0  0  0  0  0  0  0  0  0  0  0  0
    0.3682   -0.4918    9.9186 H   0  0  0  0  0  0  0  0  0  0  0  0
    1.5826   -1.0570   11.8938 H   0  0  0  0  0  0  0  0  0  0  0  0
    3.3520   -1.1000   11.6743 H   0  0  0  0  0  0  0  0  0  0  0  0
    2.4499   -2.6131   11.7999 H   0  0  0  0  0  0  0  0  0  0  0  0
    3.6984   -2.7678    7.0201 H   0  0  0  0  0  0  0  0  0  0  0  0
    1.7719   -1.6358    6.0172 H   0  0  0  0  0  0  0  0  0  0  0  0
   -2.0946   -3.8243    7.0206 H   0  0  0  0  0  0  0  0  0  0  0  0
   -1.4741   -2.4716    8.0148 H   0  0  0  0  0  0  0  0  0  0  0  0
   -0.4572   -3.1759    6.7183 H   0  0  0  0  0  0  0  0  0  0  0  0
   -2.3073   -1.5264    3.6119 H   0  0  0  0  0  0  0  0  0  0  0  0
    4.1589   -2.7306    2.6466 H   0  0  0  0  0  0  0  0  0  0  0  0
    0.7585   -3.2156    4.1655 H   0  0  0  0  0  0  0  0  0  0  0  0
    1.4766   -4.3233    5.3850 H   0  0  0  0  0  0  0  0  0  0  0  0
    1.3027   -4.8238    3.6756 H   0  0  0  0  0  0  0  0  0  0  0  0
    1.3531   -2.0295   -0.4484 H   0  0  0  0  0  0  0  0  0  0  0  0
    4.0252   -2.1896   -1.7964 H   0  0  0  0  0  0  0  0  0  0  0  0
    2.8435   -0.8906   -2.1314 H   0  0  0  0  0  0  0  0  0  0  0  0
    2.5008   -2.5619   -2.6585 H   0  0  0  0  0  0  0  0  0  0  0  0
  2  1  2  0  0  0  0
  2  3  1  0  0  0  0
  3 36  1  6  0  0  0
  3  4  1  0  0  0  0
  3 32  1  0  0  0  0
  4 39  1  0  0  0  0
  5  4  1  0  0  0  0
  6 14  1  0  0  0  0
  7  6  1  6  0  0  0
  7  8  1  0  0  0  0
  9  7  1  0  0  0  0
 10  9  2  0  0  0  0
 11  9  1  0  0  0  0
 11 12  1  0  0  0  0
 12  8  1  0  0  0  0
 13 12  2  0  0  0  0
 14 15  2  0  0  0  0
 14 31  1  0  0  0  0
 15 16  1  0  0  0  0
 16 44  1  0  0  0  0
 16 17  2  0  0  0  0
 17 18  1  0  0  0  0
 18 19  1  0  0  0  0
 19 20  1  0  0  0  0
 20 21  2  0  0  0  0
 20 45  1  0  0  0  0
 21 22  1  0  0  0  0
 22 47  1  0  0  0  0
 22 48  1  0  0  0  0
 22 46  1  0  0  0  0
 23 24  1  0  0  0  0
 23 21  1  0  0  0  0
 24 25  3  0  0  0  0
 26 23  2  0  0  0  0
 27 26  1  0  0  0  0
 27 19  2  0  0  0  0
 28 29  1  0  0  0  0
 28 17  1  0  0  0  0
 29 30  1  0  0  0  0
 30 51  1  0  0  0  0
 30 52  1  0  0  0  0
 31 28  2  0  0  0  0
 32 33  1  0  0  0  0
 33 34  1  0  0  0  0
 33 35  2  0  0  0  0
 34 57  1  0  0  0  0
 37 59  1  0  0  0  0
 37  2  1  0  0  0  0
 38 60  1  0  0  0  0
 38 37  1  0  0  0  0
 40  4  1  0  0  0  0
 41  6  1  0  0  0  0
 42 11  1  0  0  0  0
 43 15  1  0  0  0  0
 49 26  1  0  0  0  0
 50 27  1  0  0  0  0
 53 30  1  0  0  0  0
 54 31  1  0  0  0  0
 55 32  1  0  0  0  0
 56 34  1  0  0  0  0
 58 34  1  0  0  0  0
 61 38  1  0  0  0  0
 62 38  1  0  0  0  0
M  END
