-1 1
 OpenBabel05232413483D

 81 82  0  0  1  0  0  0  0  0999 V2000
    1.9712    1.5559    0.1282 O   0  0  0  0  0  0  0  0  0  0  0  0
    1.8460    0.6263   -0.6560 C   0  0  0  0  0  0  0  0  0  0  0  0
    1.8036   -0.8377   -0.2117 C   0  0  2  0  0  0  0  0  0  0  0  0
    0.6208   -1.0626    0.7424 C   0  0  0  0  0  0  0  0  0  0  0  0
    0.5428   -2.7523    1.4109 S   0  0  0  0  0  1  0  0  0  0  0  0
   -0.6213   -0.9155    4.2465 C   0  0  0  0  0  0  0  0  0  0  0  0
   -0.7332    0.3468    3.8213 C   0  0  0  0  0  0  0  0  0  0  0  0
   -1.3771    0.6881    2.5255 C   0  0  0  0  0  0  0  0  0  0  0  0
   -0.8350    1.8229    1.9564 N   0  0  0  0  0  0  0  0  0  0  0  0
   -1.0537    2.3255    0.6847 C   0  0  0  0  0  0  0  0  0  0  0  0
   -1.8606    1.7500   -0.2677 C   0  0  0  0  0  0  0  0  0  0  0  0
   -0.3412    3.5306    0.3654 C   0  0  0  0  0  0  0  0  0  0  0  0
    0.4824    3.9722    1.3357 O   0  0  0  0  0  0  0  0  0  0  0  0
    1.6612    4.6428    0.9515 C   0  0  0  0  0  0  0  0  0  0  0  0
   -0.5338    4.1613   -0.8385 C   0  0  0  0  0  0  0  0  0  0  0  0
   -1.4077    3.6113   -1.8099 C   0  0  0  0  0  0  0  0  0  0  0  0
   -2.0223    2.3599   -1.5376 C   0  0  0  0  0  0  0  0  0  0  0  0
   -2.8347    1.7773   -2.5543 C   0  0  0  0  0  0  0  0  0  0  0  0
   -3.3531    0.5022   -2.3974 N   0  0  0  0  0  0  0  0  0  0  0  0
   -2.4391   -0.5980   -2.2466 C   0  0  0  0  0  0  0  0  0  0  0  0
   -1.3585   -0.7109   -3.1215 C   0  0  0  0  0  0  0  0  0  0  0  0
   -0.5090   -1.8066   -3.0277 C   0  0  0  0  0  0  0  0  0  0  0  0
    0.8520   -1.9561   -4.1073 Cl  0  0  0  0  0  0  0  0  0  0  0  0
   -0.7341   -2.7914   -2.0672 C   0  0  0  0  0  0  0  0  0  0  0  0
    0.0648   -3.8425   -2.0175 F   0  0  0  0  0  0  0  0  0  0  0  0
   -1.7862   -2.6624   -1.1674 C   0  0  0  0  0  0  0  0  0  0  0  0
   -2.6387   -1.5664   -1.2605 C   0  0  0  0  0  0  0  0  0  0  0  0
   -3.0800    2.5469   -3.6971 C   0  0  0  0  0  0  0  0  0  0  0  0
   -3.9012    2.0321   -4.7489 C   0  0  0  0  0  0  0  0  0  0  0  0
   -4.5721    1.5968   -5.5889 N   0  0  0  0  0  0  0  0  0  0  0  0
   -2.4502    3.8159   -3.8321 C   0  0  0  0  0  0  0  0  0  0  0  0
   -1.6253    4.3171   -2.9564 N   0  0  0  0  0  0  0  0  0  0  0  0
   -2.2708    0.0425    2.0149 O   0  0  0  0  0  0  0  0  0  0  0  0
    0.0413   -1.2750    5.5431 C   0  0  0  0  0  0  0  0  0  0  0  0
    1.1521   -2.1938    5.4030 N   0  0  0  0  0  0  0  0  0  0  0  0
    2.2353   -1.6268    4.6128 C   0  0  0  0  0  0  0  0  0  0  0  0
    3.2211   -2.6546    4.0810 C   0  0  0  0  0  0  0  0  0  0  0  0
    1.5735   -2.7309    6.6804 C   0  0  0  0  0  0  0  0  0  0  0  0
    0.6367   -3.7997    7.2321 C   0  0  0  0  0  0  0  0  0  0  0  0
    3.0119   -1.2335    0.4684 N   0  0  0  0  0  0  0  0  0  0  0  0
    4.2229   -1.1583   -0.1214 C   0  0  0  0  0  0  0  0  0  0  0  0
    5.3568   -1.7986    0.6611 C   0  0  0  0  0  0  0  0  0  0  0  0
    4.4170   -0.5800   -1.1818 O   0  0  0  0  0  0  0  0  0  0  0  0
    1.6638   -1.4764   -1.1035 H   0  0  0  0  0  0  0  0  0  0  0  0
    1.6276    0.7958   -1.9863 N   0  0  0  0  0  0  0  0  0  0  0  0
    1.6922    2.0776   -2.6333 C   0  0  0  0  0  0  0  0  0  0  0  0
    0.7438   -0.3273    1.5547 H   0  0  0  0  0  0  0  0  0  0  0  0
   -0.3019   -0.7947    0.2022 H   0  0  0  0  0  0  0  0  0  0  0  0
   -0.0317    2.2386    2.4144 H   0  0  0  0  0  0  0  0  0  0  0  0
   -2.3789    0.8298   -0.0190 H   0  0  0  0  0  0  0  0  0  0  0  0
    2.2631    4.7589    1.8611 H   0  0  0  0  0  0  0  0  0  0  0  0
    1.4471    5.6434    0.5395 H   0  0  0  0  0  0  0  0  0  0  0  0
    2.2158    4.0291    0.2252 H   0  0  0  0  0  0  0  0  0  0  0  0
   -0.0309    5.0952   -1.0865 H   0  0  0  0  0  0  0  0  0  0  0  0
   -4.0868    0.2883   -3.0680 H   0  0  0  0  0  0  0  0  0  0  0  0
   -1.1805    0.0484   -3.8846 H   0  0  0  0  0  0  0  0  0  0  0  0
   -1.8752   -3.3970   -0.3672 H   0  0  0  0  0  0  0  0  0  0  0  0
   -3.4481   -1.4411   -0.5402 H   0  0  0  0  0  0  0  0  0  0  0  0
   -2.6422    4.3986   -4.7408 H   0  0  0  0  0  0  0  0  0  0  0  0
   -0.7243   -1.7517    6.1782 H   0  0  0  0  0  0  0  0  0  0  0  0
    0.3484   -0.3408    6.0756 H   0  0  0  0  0  0  0  0  0  0  0  0
    2.7708   -0.8328    5.1885 H   0  0  0  0  0  0  0  0  0  0  0  0
    1.7809   -1.1415    3.7370 H   0  0  0  0  0  0  0  0  0  0  0  0
    3.9828   -2.1446    3.4711 H   0  0  0  0  0  0  0  0  0  0  0  0
    2.6828   -3.3637    3.4349 H   0  0  0  0  0  0  0  0  0  0  0  0
    3.7529   -3.2032    4.8747 H   0  0  0  0  0  0  0  0  0  0  0  0
    1.7090   -1.9199    7.4372 H   0  0  0  0  0  0  0  0  0  0  0  0
    2.5657   -3.1849    6.5492 H   0  0  0  0  0  0  0  0  0  0  0  0
    1.0374   -4.2188    8.1683 H   0  0  0  0  0  0  0  0  0  0  0  0
    0.5225   -4.6114    6.4991 H   0  0  0  0  0  0  0  0  0  0  0  0
   -0.3661   -3.4038    7.4535 H   0  0  0  0  0  0  0  0  0  0  0  0
    2.8144   -1.9445    1.1822 H   0  0  0  0  0  0  0  0  0  0  0  0
    6.1657   -2.0558   -0.0338 H   0  0  0  0  0  0  0  0  0  0  0  0
    5.0286   -2.6956    1.2057 H   0  0  0  0  0  0  0  0  0  0  0  0
    5.7446   -1.0750    1.3946 H   0  0  0  0  0  0  0  0  0  0  0  0
    1.7720   -0.0250   -2.5616 H   0  0  0  0  0  0  0  0  0  0  0  0
    1.4934    2.8541   -1.8864 H   0  0  0  0  0  0  0  0  0  0  0  0
    0.9265    2.1564   -3.4206 H   0  0  0  0  0  0  0  0  0  0  0  0
    2.6841    2.2652   -3.0796 H   0  0  0  0  0  0  0  0  0  0  0  0
   -0.2756    1.1639    4.3928 H   0  0  0  0  0  0  0  0  0  0  0  0
   -0.9849   -1.7341    3.6140 H   0  0  0  0  0  0  0  0  0  0  0  0
  2  3  1  0  0  0  0
  2  1  2  0  0  0  0
  3 44  1  6  0  0  0
  3 40  1  0  0  0  0
  3  4  1  0  0  0  0
  4  5  1  0  0  0  0
  4 47  1  0  0  0  0
  6 34  1  0  0  0  0
  7  6  2  0  0  0  0
  7 80  1  0  0  0  0
  8  7  1  0  0  0  0
  9 49  1  0  0  0  0
  9  8  1  0  0  0  0
 10  9  1  0  0  0  0
 11 50  1  0  0  0  0
 11 10  2  0  0  0  0
 12 10  1  0  0  0  0
 12 13  1  0  0  0  0
 14 13  1  0  0  0  0
 14 51  1  0  0  0  0
 15 12  2  0  0  0  0
 16 17  1  0  0  0  0
 16 15  1  0  0  0  0
 17 11  1  0  0  0  0
 18 19  1  0  0  0  0
 18 17  2  0  0  0  0
 19 20  1  0  0  0  0
 20 27  1  0  0  0  0
 21 22  1  0  0  0  0
 21 20  2  0  0  0  0
 22 24  2  0  0  0  0
 23 22  1  0  0  0  0
 24 25  1  0  0  0  0
 24 26  1  0  0  0  0
 26 57  1  0  0  0  0
 27 26  2  0  0  0  0
 27 58  1  0  0  0  0
 28 18  1  0  0  0  0
 29 28  1  0  0  0  0
 30 29  3  0  0  0  0
 31 28  2  0  0  0  0
 31 32  1  0  0  0  0
 32 16  2  0  0  0  0
 33  8  2  0  0  0  0
 34 61  1  0  0  0  0
 34 60  1  0  0  0  0
 35 34  1  0  0  0  0
 35 38  1  0  0  0  0
 36 62  1  0  0  0  0
 36 35  1  0  0  0  0
 37 36  1  0  0  0  0
 37 66  1  0  0  0  0
 38 39  1  0  0  0  0
 38 67  1  0  0  0  0
 39 71  1  0  0  0  0
 39 69  1  0  0  0  0
 40 72  1  0  0  0  0
 41 40  1  0  0  0  0
 41 42  1  0  0  0  0
 42 74  1  0  0  0  0
 42 75  1  0  0  0  0
 43 41  2  0  0  0  0
 45  2  1  0  0  0  0
 46 45  1  0  0  0  0
 46 77  1  0  0  0  0
 48  4  1  0  0  0  0
 52 14  1  0  0  0  0
 53 14  1  0  0  0  0
 54 15  1  0  0  0  0
 55 19  1  0  0  0  0
 56 21  1  0  0  0  0
 59 31  1  0  0  0  0
 63 36  1  0  0  0  0
 64 37  1  0  0  0  0
 65 37  1  0  0  0  0
 68 38  1  0  0  0  0
 70 39  1  0  0  0  0
 73 42  1  0  0  0  0
 76 45  1  0  0  0  0
 78 46  1  0  0  0  0
 79 46  1  0  0  0  0
 81  6  1  0  0  0  0
M  END
