-1 1
 OpenBabel05192410563D

 81 83  0  0  1  0  0  0  0  0999 V2000
    2.1359    1.4604   -0.2163 O   0  0  0  0  0  0  0  0  0  0  0  0
    1.8627    0.4347   -0.8141 C   0  0  0  0  0  0  0  0  0  0  0  0
    1.8316   -0.9317   -0.1044 C   0  0  2  0  0  0  0  0  0  0  0  0
    0.5716   -0.9383    0.7643 C   0  0  0  0  0  0  0  0  0  0  0  0
    0.4578   -2.3046    1.9417 S   0  0  0  0  0  0  0  0  0  0  0  0
   -0.5147   -1.3923    3.4398 C   0  0  2  0  0  0  0  0  0  0  0  0
   -0.5125    0.0603    3.3537 C   0  0  0  0  0  3  0  0  0  0  0  0
   -1.3901    0.6389    2.4221 C   0  0  0  0  0  0  0  0  0  0  0  0
   -1.0890    2.0046    2.0780 N   0  0  0  0  0  0  0  0  0  0  0  0
   -1.1374    2.4779    0.7903 C   0  0  0  0  0  0  0  0  0  0  0  0
   -1.9566    1.9790   -0.2056 C   0  0  0  0  0  0  0  0  0  0  0  0
   -0.2229    3.5365    0.4407 C   0  0  0  0  0  0  0  0  0  0  0  0
    0.6190    3.8968    1.4296 O   0  0  0  0  0  0  0  0  0  0  0  0
    1.8467    4.4843    1.0745 C   0  0  0  0  0  0  0  0  0  0  0  0
   -0.2338    4.1062   -0.8092 C   0  0  0  0  0  0  0  0  0  0  0  0
   -1.0936    3.6162   -1.8240 C   0  0  0  0  0  0  0  0  0  0  0  0
   -1.9124    2.4917   -1.5223 C   0  0  0  0  0  0  0  0  0  0  0  0
   -2.6810    1.9302   -2.5822 C   0  0  0  0  0  0  0  0  0  0  0  0
   -3.4154    0.7637   -2.3916 N   0  0  0  0  0  0  0  0  0  0  0  0
   -2.7246   -0.4410   -2.0209 C   0  0  0  0  0  0  0  0  0  0  0  0
   -1.6812   -0.9071   -2.8247 C   0  0  0  0  0  0  0  0  0  0  0  0
   -1.0367   -2.0952   -2.5038 C   0  0  0  0  0  0  0  0  0  0  0  0
    0.2791   -2.6791   -3.4894 Cl  0  0  0  0  0  0  0  0  0  0  0  0
   -1.4292   -2.8216   -1.3796 C   0  0  0  0  0  0  0  0  0  0  0  0
   -0.8079   -3.9557   -1.0841 F   0  0  0  0  0  0  0  0  0  0  0  0
   -2.4484   -2.3504   -0.5643 C   0  0  0  0  0  0  0  0  0  0  0  0
   -3.0976   -1.1628   -0.8872 C   0  0  0  0  0  0  0  0  0  0  0  0
   -2.6703    2.5988   -3.8124 C   0  0  0  0  0  0  0  0  0  0  0  0
   -3.4195    2.0831   -4.9157 C   0  0  0  0  0  0  0  0  0  0  0  0
   -4.0339    1.6431   -5.7963 N   0  0  0  0  0  0  0  0  0  0  0  0
   -1.8619    3.7596   -3.9717 C   0  0  0  0  0  0  0  0  0  0  0  0
   -1.0850    4.2340   -3.0381 N   0  0  0  0  0  0  0  0  0  0  0  0
   -2.3173    0.0645    1.8248 O   0  0  0  0  0  0  0  0  0  0  0  0
   -0.0652   -2.0904    4.7286 C   0  0  0  0  0  0  0  0  0  0  0  0
    1.3570   -2.2923    4.9656 N   0  0  0  0  0  0  0  0  0  0  0  0
    2.1981   -1.1376    4.7238 C   0  0  0  0  0  0  0  0  0  0  0  0
    3.6674   -1.4942    4.5297 C   0  0  0  0  0  0  0  0  0  0  0  0
    1.6015   -2.9243    6.2448 C   0  0  0  0  0  0  0  0  0  0  0  0
    1.1018   -4.3622    6.3405 C   0  0  0  0  0  0  0  0  0  0  0  0
    3.0072   -1.1082    0.7067 N   0  0  0  0  0  0  0  0  0  0  0  0
    4.2454   -1.0829    0.1615 C   0  0  0  0  0  0  0  0  0  0  0  0
    5.3889   -1.3036    1.1334 C   0  0  0  0  0  0  0  0  0  0  0  0
    4.4338   -0.8591   -1.0230 O   0  0  0  0  0  0  0  0  0  0  0  0
    1.7825   -1.7327   -0.8652 H   0  0  0  0  0  0  0  0  0  0  0  0
    1.4653    0.3919   -2.1083 N   0  0  0  0  0  0  0  0  0  0  0  0
    1.3660    1.5605   -2.9420 C   0  0  0  0  0  0  0  0  0  0  0  0
    0.5794   -0.0222    1.3753 H   0  0  0  0  0  0  0  0  0  0  0  0
   -0.3131   -0.8847    0.1177 H   0  0  0  0  0  0  0  0  0  0  0  0
   -0.3147    2.3997    2.5984 H   0  0  0  0  0  0  0  0  0  0  0  0
   -2.6221    1.1690    0.0690 H   0  0  0  0  0  0  0  0  0  0  0  0
    2.4577    4.5063    1.9857 H   0  0  0  0  0  0  0  0  0  0  0  0
    1.7149    5.5191    0.7130 H   0  0  0  0  0  0  0  0  0  0  0  0
    2.3496    3.8718    0.3097 H   0  0  0  0  0  0  0  0  0  0  0  0
    0.4335    4.9253   -1.0741 H   0  0  0  0  0  0  0  0  0  0  0  0
   -4.0723    0.5918   -3.1482 H   0  0  0  0  0  0  0  0  0  0  0  0
   -1.3729   -0.3424   -3.7065 H   0  0  0  0  0  0  0  0  0  0  0  0
   -2.6898   -2.8982    0.3462 H   0  0  0  0  0  0  0  0  0  0  0  0
   -3.8674   -0.7701   -0.2239 H   0  0  0  0  0  0  0  0  0  0  0  0
   -1.8654    4.2709   -4.9416 H   0  0  0  0  0  0  0  0  0  0  0  0
   -0.5328   -3.0873    4.7452 H   0  0  0  0  0  0  0  0  0  0  0  0
   -0.5291   -1.5118    5.5613 H   0  0  0  0  0  0  0  0  0  0  0  0
    2.0948   -0.3666    5.5238 H   0  0  0  0  0  0  0  0  0  0  0  0
    1.8495   -0.6687    3.7967 H   0  0  0  0  0  0  0  0  0  0  0  0
    4.2259   -0.6199    4.1617 H   0  0  0  0  0  0  0  0  0  0  0  0
    3.7506   -2.3042    3.7884 H   0  0  0  0  0  0  0  0  0  0  0  0
    4.1627   -1.8321    5.4531 H   0  0  0  0  0  0  0  0  0  0  0  0
    1.1636   -2.3267    7.0820 H   0  0  0  0  0  0  0  0  0  0  0  0
    2.6873   -2.9355    6.4195 H   0  0  0  0  0  0  0  0  0  0  0  0
    1.4523   -4.8246    7.2764 H   0  0  0  0  0  0  0  0  0  0  0  0
    1.4828   -4.9509    5.4925 H   0  0  0  0  0  0  0  0  0  0  0  0
    0.0043   -4.4285    6.3338 H   0  0  0  0  0  0  0  0  0  0  0  0
    2.8442   -1.4491    1.6508 H   0  0  0  0  0  0  0  0  0  0  0  0
    6.2716   -1.6293    0.5703 H   0  0  0  0  0  0  0  0  0  0  0  0
    5.1424   -2.0426    1.9083 H   0  0  0  0  0  0  0  0  0  0  0  0
    5.6230   -0.3517    1.6342 H   0  0  0  0  0  0  0  0  0  0  0  0
    1.4133   -0.5196   -2.5455 H   0  0  0  0  0  0  0  0  0  0  0  0
    1.4329    2.4456   -2.2987 H   0  0  0  0  0  0  0  0  0  0  0  0
    0.3980    1.5911   -3.4670 H   0  0  0  0  0  0  0  0  0  0  0  0
    2.1773    1.6019   -3.6874 H   0  0  0  0  0  0  0  0  0  0  0  0
    0.3182    0.6539    3.7419 H   0  0  0  0  0  0  0  0  0  0  0  0
   -1.5324   -1.7336    3.2170 H   0  0  0  0  0  0  0  0  0  0  0  0
  2  1  2  0  0  0  0
  2  3  1  0  0  0  0
  3 44  1  6  0  0  0
  3 40  1  0  0  0  0
  3  4  1  0  0  0  0
  4 47  1  0  0  0  0
  4  5  1  0  0  0  0
  5  6  1  0  0  0  0
  6 81  1  6  0  0  0
  6 34  1  0  0  0  0
  7  6  1  0  0  0  0
  7 80  1  0  0  0  0
  8  7  1  0  0  0  0
  9  8  1  0  0  0  0
  9 49  1  0  0  0  0
 10  9  1  0  0  0  0
 11 50  1  0  0  0  0
 11 10  2  0  0  0  0
 12 10  1  0  0  0  0
 12 13  1  0  0  0  0
 14 13  1  0  0  0  0
 14 51  1  0  0  0  0
 15 12  2  0  0  0  0
 16 17  1  0  0  0  0
 16 15  1  0  0  0  0
 17 11  1  0  0  0  0
 18 19  1  0  0  0  0
 18 17  2  0  0  0  0
 19 20  1  0  0  0  0
 20 27  1  0  0  0  0
 21 22  1  0  0  0  0
 21 20  2  0  0  0  0
 22 24  2  0  0  0  0
 23 22  1  0  0  0  0
 24 25  1  0  0  0  0
 24 26  1  0  0  0  0
 26 57  1  0  0  0  0
 27 26  2  0  0  0  0
 27 58  1  0  0  0  0
 28 18  1  0  0  0  0
 29 28  1  0  0  0  0
 30 29  3  0  0  0  0
 31 28  2  0  0  0  0
 31 32  1  0  0  0  0
 32 16  2  0  0  0  0
 33  8  2  0  0  0  0
 34 60  1  0  0  0  0
 34 35  1  0  0  0  0
 34 61  1  0  0  0  0
 35 38  1  0  0  0  0
 36 35  1  0  0  0  0
 36 62  1  0  0  0  0
 37 36  1  0  0  0  0
 37 66  1  0  0  0  0
 38 39  1  0  0  0  0
 38 68  1  0  0  0  0
 38 67  1  0  0  0  0
 39 69  1  0  0  0  0
 40 72  1  0  0  0  0
 41 40  1  0  0  0  0
 41 42  1  0  0  0  0
 42 75  1  0  0  0  0
 42 74  1  0  0  0  0
 43 41  2  0  0  0  0
 45  2  1  0  0  0  0
 46 77  1  0  0  0  0
 46 45  1  0  0  0  0
 48  4  1  0  0  0  0
 52 14  1  0  0  0  0
 53 14  1  0  0  0  0
 54 15  1  0  0  0  0
 55 19  1  0  0  0  0
 56 21  1  0  0  0  0
 59 31  1  0  0  0  0
 63 36  1  0  0  0  0
 64 37  1  0  0  0  0
 65 37  1  0  0  0  0
 70 39  1  0  0  0  0
 71 39  1  0  0  0  0
 73 42  1  0  0  0  0
 76 45  1  0  0  0  0
 78 46  1  0  0  0  0
 79 46  1  0  0  0  0
M  END
