81
-1 1
O         0.810522   -0.015159   -1.708533
C         0.600952   -1.000027   -2.396865
C         0.541628   -2.414962   -1.800127
C        -0.705751   -2.482611   -0.913135
S        -0.854441   -3.948703    0.124283
C        -1.913978   -2.849483    1.884704
C        -1.866449   -1.459310    1.719452
C        -2.687811   -0.875586    0.703011
N        -2.302456    0.437933    0.327542
C        -2.390386    0.948672   -0.946900
C        -3.195300    0.447949   -1.949506
C        -1.523246    2.055818   -1.259453
O        -0.699326    2.421184   -0.258457
C         0.520785    3.037033   -0.593762
C        -1.565236    2.666078   -2.489128
C        -2.413994    2.176512   -3.513853
C        -3.183600    1.010768   -3.247738
C        -3.944570    0.458317   -4.317747
N        -4.622120   -0.745113   -4.160301
C        -3.869204   -1.929510   -3.848570
C        -2.787894   -2.285234   -4.657202
C        -2.086371   -3.456586   -4.399644
Cl        -0.729542   -3.908599   -5.397548
C        -2.458632   -4.275254   -3.333860
F        -1.788769   -5.395045   -3.106366
C        -3.514694   -3.911091   -2.509035
C        -4.220876   -2.740602   -2.768639
C        -3.981217    1.175497   -5.519422
C        -4.729978    0.676370   -6.630785
N        -5.343880    0.250453   -7.518405
C        -3.218989    2.371165   -5.643582
N        -2.445235    2.838949   -4.704189
O        -3.609906   -1.440051    0.111706
C        -1.362672   -3.569998    3.101658
N         0.077939   -3.685886    3.293702
C         0.895299   -2.580474    2.840741
C         2.354049   -2.964064    2.622514
C         0.400886   -4.141333    4.626697
C        -0.124301   -5.535390    4.953702
N         1.719269   -2.703998   -1.023241
C         2.948333   -2.693435   -1.586823
C         4.086753   -3.129837   -0.683610
O         3.142416   -2.319783   -2.733267
H         0.456674   -3.148181   -2.623671
N         0.296010   -0.948984   -3.717019
C         0.268488    0.273888   -4.473391
H        -0.664090   -1.613860   -0.232817
H        -1.590441   -2.340255   -1.549238
H        -1.514952    0.816383    0.840294
H        -3.829804   -0.395841   -1.704326
H         1.119879    3.063329    0.324940
H         0.372234    4.071502   -0.948777
H         1.045117    2.438243   -1.354747
H        -0.937082    3.523443   -2.727470
H        -5.288688   -0.917957   -4.908221
H        -2.494844   -1.650485   -5.495295
H        -3.734902   -4.529217   -1.638919
H        -5.023744   -2.430903   -2.099849
H        -3.256618    2.918753   -6.592693
H        -1.774352   -4.591456    3.089317
H        -1.826215   -3.059468    3.980669
H         0.836501   -1.699494    3.524303
H         0.498894   -2.258346    1.871998
H         2.880552   -2.154307    2.094884
H         2.400765   -3.875226    2.006051
H         2.903386   -3.158941    3.556770
H         0.033615   -3.423507    5.402658
H         1.496029   -4.160943    4.727423
H         0.280325   -5.878373    5.918589
H         0.180466   -6.246319    4.170783
H        -1.221169   -5.562298    5.028946
H         1.533082   -3.208728   -0.156883
H         4.899416   -3.520347   -1.308286
H         3.777430   -3.886985    0.049800
H         4.463523   -2.254492   -0.132809
H         0.328208   -1.824683   -4.223715
H         0.242482    1.112709   -3.768259
H        -0.633577    0.328374   -5.103359
H         1.158634    0.379726   -5.115864
H        -1.069857   -0.854181    2.157553
H        -2.862435   -3.276632    1.554044
