75
-1 1
O         1.387916   -0.143782    0.965647
C         0.714388   -0.179277    1.991824
C         0.081312   -1.476632    2.535030
C         0.740753   -2.706636    1.912012
S         0.015766   -4.303565    2.409124
C        -0.974720   -4.736038    0.846324
C        -1.700114   -6.046209    1.140310
N        -0.898666   -7.106034    1.721274
C        -1.704997   -8.220550    2.143792
C         0.209950   -7.513771    0.893695
C        -1.913465   -3.693636    0.364607
C        -1.501957   -2.764829   -0.596209
O        -0.359640   -2.623352   -1.065271
N        -2.520690   -1.829488   -1.000674
C        -2.291711   -0.617634   -1.598553
C        -3.372809   -0.024249   -2.333896
O        -4.526080   -0.736676   -2.301199
C        -5.632735   -0.256387   -3.007897
C        -3.203062    1.154697   -3.017539
C        -1.956937    1.831694   -3.003831
N        -1.841637    2.954780   -3.772291
C        -0.678687    3.534920   -3.801981
C         0.454481    3.127600   -3.037543
C         1.679834    3.815164   -3.298270
N         2.644412    4.398023   -3.573750
C         0.330441    2.045505   -2.146257
N         1.299919    1.653941   -1.272107
C         2.339787    2.424627   -0.724008
C         2.192337    3.784800   -0.434016
C         3.221214    4.479649    0.189634
Cl         3.046873    6.175272    0.540218
C         4.392608    3.820874    0.554146
F         5.377043    4.487951    1.155647
C         4.535838    2.464486    0.294294
C         3.518506    1.770212   -0.348184
C        -0.907132    1.304804   -2.206711
C        -1.099626    0.085481   -1.512156
N        -1.338261   -1.458228    2.248713
C        -2.241067   -0.782144    2.975078
C        -3.681505   -1.051509    2.592115
O        -1.945534   -0.007907    3.887555
H         0.212189   -1.481731    3.631381
N         0.438510    0.908440    2.735204
C         0.815287    2.232347    2.308257
H         0.702357   -2.630044    0.814469
H         1.799949   -2.718398    2.203789
H        -2.172764   -6.370668    0.182398
H        -2.525586   -5.831504    1.840696
H        -2.483340   -7.881888    2.845006
H        -1.083218   -8.965699    2.665113
H        -2.216284   -8.740468    1.297905
H         0.884549   -6.665575    0.713559
H        -0.113531   -7.921603   -0.093066
H         0.791460   -8.294160    1.408715
H        -3.472082   -2.167431   -1.044284
H        -6.448272   -0.972578   -2.846390
H        -5.425178   -0.185229   -4.090003
H        -5.948222    0.737449   -2.644424
H        -3.994796    1.605701   -3.614024
H        -0.561232    4.405536   -4.458704
H         1.141282    0.802831   -0.725106
H         1.269165    4.311076   -0.676037
H         5.458082    1.966562    0.597057
H         3.614679    0.701680   -0.540574
H        -0.297112   -0.388946   -0.949703
H        -1.657716   -2.166884    1.560229
H        -4.298866   -0.197044    2.894692
H        -4.035001   -1.949156    3.121999
H        -3.775553   -1.229046    1.511146
H        -0.303834    0.788185    3.433252
H         0.605747    2.946052    3.115305
H         0.265045    2.549475    1.406038
H         1.888435    2.271356    2.072552
H        -2.953248   -3.713622    0.708673
H        -0.199745   -4.881050    0.079314
