-1 1
 OpenBabel05232413483D

 75 76  0  0  1  0  0  0  0  0999 V2000
    1.4045   -0.0662    0.5743 O   0  0  0  0  0  0  0  0  0  0  0  0
    0.7070   -0.4235    1.5293 C   0  0  0  0  0  0  0  0  0  0  0  0
    0.9300   -1.7736    2.2314 C   0  0  2  0  0  0  0  0  0  0  0  0
    1.9101   -2.6633    1.4345 C   0  0  0  0  0  0  0  0  0  0  0  0
    1.9004   -4.4155    1.9540 S   0  0  0  0  0  1  0  0  0  0  0  0
   -1.5987   -4.7743    0.1277 C   0  0  0  0  0  0  0  0  0  0  0  0
   -2.2502   -6.0824    0.4765 C   0  0  0  0  0  0  0  0  0  0  0  0
   -2.1499   -6.4286    1.8833 N   0  0  0  0  0  0  0  0  0  0  0  0
   -3.1595   -7.3777    2.2813 C   0  0  0  0  0  0  0  0  0  0  0  0
   -0.8184   -6.8551    2.2705 C   0  0  0  0  0  0  0  0  0  0  0  0
   -2.2870   -3.7584   -0.4035 C   0  0  0  0  0  0  0  0  0  0  0  0
   -1.6365   -2.4797   -0.7956 C   0  0  0  0  0  0  0  0  0  0  0  0
   -0.4420   -2.2841   -0.7437 O   0  0  0  0  0  0  0  0  0  0  0  0
   -2.5302   -1.5308   -1.2516 N   0  0  0  0  0  0  0  0  0  0  0  0
   -2.2320   -0.2839   -1.7994 C   0  0  0  0  0  0  0  0  0  0  0  0
   -3.2797    0.3293   -2.5589 C   0  0  0  0  0  0  0  0  0  0  0  0
   -4.4371   -0.3740   -2.5927 O   0  0  0  0  0  0  0  0  0  0  0  0
   -5.5203    0.1434   -3.3158 C   0  0  0  0  0  0  0  0  0  0  0  0
   -3.0697    1.5245   -3.1998 C   0  0  0  0  0  0  0  0  0  0  0  0
   -1.8194    2.1885   -3.1086 C   0  0  0  0  0  0  0  0  0  0  0  0
   -1.6769    3.3434   -3.8224 N   0  0  0  0  0  0  0  0  0  0  0  0
   -0.5128    3.9234   -3.7714 C   0  0  0  0  0  0  0  0  0  0  0  0
    0.5847    3.4919   -2.9762 C   0  0  0  0  0  0  0  0  0  0  0  0
    1.8104    4.2089   -3.1408 C   0  0  0  0  0  0  0  0  0  0  0  0
    2.7742    4.8211   -3.3441 N   0  0  0  0  0  0  0  0  0  0  0  0
    0.4328    2.3658   -2.1382 C   0  0  0  0  0  0  0  0  0  0  0  0
    1.3495    1.9518   -1.2359 N   0  0  0  0  0  0  0  0  0  0  0  0
    2.3739    2.7109   -0.6338 C   0  0  0  0  0  0  0  0  0  0  0  0
    2.1813    4.0396   -0.2447 C   0  0  0  0  0  0  0  0  0  0  0  0
    3.2008    4.7291    0.4007 C   0  0  0  0  0  0  0  0  0  0  0  0
    2.9828    6.3938    0.8568 Cl  0  0  0  0  0  0  0  0  0  0  0  0
    4.4014    4.0874    0.6947 C   0  0  0  0  0  0  0  0  0  0  0  0
    5.3764    4.7487    1.3148 F   0  0  0  0  0  0  0  0  0  0  0  0
    4.5821    2.7546    0.3503 C   0  0  0  0  0  0  0  0  0  0  0  0
    3.5745    2.0675   -0.3149 C   0  0  0  0  0  0  0  0  0  0  0  0
   -0.8018    1.6262   -2.2980 C   0  0  0  0  0  0  0  0  0  0  0  0
   -1.0256    0.3720   -1.6678 C   0  0  0  0  0  0  0  0  0  0  0  0
   -0.2929   -2.5288    2.4707 N   0  0  0  0  0  0  0  0  0  0  0  0
   -1.2109   -2.2798    3.4181 C   0  0  0  0  0  0  0  0  0  0  0  0
   -2.0905   -3.4503    3.7979 C   0  0  0  0  0  0  0  0  0  0  0  0
   -1.3538   -1.1874    3.9787 O   0  0  0  0  0  0  0  0  0  0  0  0
    1.3804   -1.5279    3.2135 H   0  0  0  0  0  0  0  0  0  0  0  0
   -0.2316    0.3650    2.0690 N   0  0  0  0  0  0  0  0  0  0  0  0
   -0.4676    1.7132    1.6209 C   0  0  0  0  0  0  0  0  0  0  0  0
    1.6418   -2.5864    0.3740 H   0  0  0  0  0  0  0  0  0  0  0  0
    2.9114   -2.2242    1.5492 H   0  0  0  0  0  0  0  0  0  0  0  0
   -1.8064   -6.8804   -0.1667 H   0  0  0  0  0  0  0  0  0  0  0  0
   -3.3184   -6.0273    0.2114 H   0  0  0  0  0  0  0  0  0  0  0  0
   -4.1667   -6.9862    2.0673 H   0  0  0  0  0  0  0  0  0  0  0  0
   -3.0924   -7.5583    3.3650 H   0  0  0  0  0  0  0  0  0  0  0  0
   -3.0602   -8.3647    1.7709 H   0  0  0  0  0  0  0  0  0  0  0  0
   -0.0629   -6.0919    2.0201 H   0  0  0  0  0  0  0  0  0  0  0  0
   -0.5306   -7.8133    1.7807 H   0  0  0  0  0  0  0  0  0  0  0  0
   -0.7810   -7.0025    3.3603 H   0  0  0  0  0  0  0  0  0  0  0  0
   -3.5002   -1.8030   -1.3431 H   0  0  0  0  0  0  0  0  0  0  0  0
   -6.3454   -0.5704   -3.2033 H   0  0  0  0  0  0  0  0  0  0  0  0
   -5.2773    0.2492   -4.3869 H   0  0  0  0  0  0  0  0  0  0  0  0
   -5.8352    1.1257   -2.9241 H   0  0  0  0  0  0  0  0  0  0  0  0
   -3.8307    2.0042   -3.8131 H   0  0  0  0  0  0  0  0  0  0  0  0
   -0.3700    4.8215   -4.3846 H   0  0  0  0  0  0  0  0  0  0  0  0
    1.1907    1.0805   -0.6946 H   0  0  0  0  0  0  0  0  0  0  0  0
    1.2388    4.5498   -0.4450 H   0  0  0  0  0  0  0  0  0  0  0  0
    5.5239    2.2683    0.6080 H   0  0  0  0  0  0  0  0  0  0  0  0
    3.6974    1.0158   -0.5744 H   0  0  0  0  0  0  0  0  0  0  0  0
   -0.2436   -0.1246   -1.0956 H   0  0  0  0  0  0  0  0  0  0  0  0
   -0.0838   -3.5259    2.2718 H   0  0  0  0  0  0  0  0  0  0  0  0
   -1.6862   -3.8854    4.7254 H   0  0  0  0  0  0  0  0  0  0  0  0
   -2.1294   -4.2449    3.0383 H   0  0  0  0  0  0  0  0  0  0  0  0
   -3.1004   -3.0776    4.0150 H   0  0  0  0  0  0  0  0  0  0  0  0
   -0.7306   -0.0140    2.8906 H   0  0  0  0  0  0  0  0  0  0  0  0
   -1.0928    2.2291    2.3613 H   0  0  0  0  0  0  0  0  0  0  0  0
   -0.9895    1.7474    0.6501 H   0  0  0  0  0  0  0  0  0  0  0  0
    0.4792    2.2673    1.5161 H   0  0  0  0  0  0  0  0  0  0  0  0
   -3.3676   -3.8534   -0.5675 H   0  0  0  0  0  0  0  0  0  0  0  0
   -0.5181   -4.6579    0.3094 H   0  0  0  0  0  0  0  0  0  0  0  0
  1  2  2  0  0  0  0
  2 43  1  0  0  0  0
  2  3  1  0  0  0  0
  3 38  1  0  0  0  0
  3 42  1  1  0  0  0
  4 46  1  0  0  0  0
  4  5  1  0  0  0  0
  4  3  1  0  0  0  0
  6 75  1  0  0  0  0
  6  7  1  0  0  0  0
  7  8  1  0  0  0  0
  8 10  1  0  0  0  0
  8  9  1  0  0  0  0
  9 50  1  0  0  0  0
 10 54  1  0  0  0  0
 11  6  2  0  0  0  0
 12 13  2  0  0  0  0
 12 11  1  0  0  0  0
 14 12  1  0  0  0  0
 15 37  1  0  0  0  0
 15 14  1  0  0  0  0
 16 15  2  0  0  0  0
 17 16  1  0  0  0  0
 18 56  1  0  0  0  0
 18 58  1  0  0  0  0
 18 17  1  0  0  0  0
 19 20  2  0  0  0  0
 19 16  1  0  0  0  0
 20 36  1  0  0  0  0
 21 22  2  0  0  0  0
 21 20  1  0  0  0  0
 22 23  1  0  0  0  0
 23 26  2  0  0  0  0
 24 23  1  0  0  0  0
 25 24  3  0  0  0  0
 26 27  1  0  0  0  0
 27 61  1  0  0  0  0
 27 28  1  0  0  0  0
 28 35  2  0  0  0  0
 28 29  1  0  0  0  0
 29 30  2  0  0  0  0
 30 32  1  0  0  0  0
 30 31  1  0  0  0  0
 32 33  1  0  0  0  0
 34 63  1  0  0  0  0
 34 32  2  0  0  0  0
 35 34  1  0  0  0  0
 36 26  1  0  0  0  0
 36 37  2  0  0  0  0
 37 65  1  0  0  0  0
 38 39  1  0  0  0  0
 39 40  1  0  0  0  0
 39 41  2  0  0  0  0
 40 69  1  0  0  0  0
 40 67  1  0  0  0  0
 43 70  1  0  0  0  0
 44 43  1  0  0  0  0
 44 71  1  0  0  0  0
 45  4  1  0  0  0  0
 47  7  1  0  0  0  0
 48  7  1  0  0  0  0
 49  9  1  0  0  0  0
 51  9  1  0  0  0  0
 52 10  1  0  0  0  0
 53 10  1  0  0  0  0
 55 14  1  0  0  0  0
 57 18  1  0  0  0  0
 59 19  1  0  0  0  0
 60 22  1  0  0  0  0
 62 29  1  0  0  0  0
 64 35  1  0  0  0  0
 66 38  1  0  0  0  0
 68 40  1  0  0  0  0
 72 44  1  0  0  0  0
 73 44  1  0  0  0  0
 74 11  1  0  0  0  0
M  END
