-1 1
 OpenBabel05232414493D

 76 78  0  0  1  0  0  0  0  0999 V2000
   -5.8625    3.7841   -2.5049 O   0  0  0  0  0  0  0  0  0  0  0  0
   -5.0944    2.9347   -2.0803 C   0  0  0  0  0  0  0  0  0  0  0  0
   -4.0442    2.3008   -3.0051 C   0  0  2  0  0  0  0  0  0  0  0  0
   -4.4593    0.8833   -3.4403 C   0  0  0  0  0  0  0  0  0  0  0  0
   -3.2246    0.0689   -4.5081 S   0  0  0  0  0  1  0  0  0  0  0  0
   -2.2333   -2.0424   -3.5825 C   0  0  0  0  0  3  0  0  0  0  0  0
   -2.7430   -2.0924   -2.1669 C   0  0  0  0  0  0  0  0  0  0  0  0
   -4.1608   -1.8862   -1.9588 N   0  0  0  0  0  0  0  0  0  0  0  0
   -5.0773   -2.6257   -2.7952 C   0  0  0  0  0  0  0  0  0  0  0  0
   -5.1781   -4.1143   -2.4515 C   0  0  0  0  0  0  0  0  0  0  0  0
   -5.7375   -4.3819   -0.7339 S   0  0  0  0  0  0  0  0  0  0  0  0
   -4.5947   -3.2347    0.1075 C   0  0  0  0  0  0  0  0  0  0  0  0
   -4.5482   -1.8580   -0.5670 C   0  0  0  0  0  0  0  0  0  0  0  0
   -0.8704   -2.0201   -3.8035 C   0  0  0  0  0  3  0  0  0  0  0  0
   -0.3267   -2.3824   -5.0839 C   0  0  0  0  0  0  0  0  0  0  0  0
   -0.9638   -2.7957   -6.0488 O   0  0  0  0  0  0  0  0  0  0  0  0
    1.0793   -2.2462   -5.1599 N   0  0  0  0  0  0  0  0  0  0  0  0
    1.9185   -2.5764   -6.2022 C   0  0  0  0  0  0  0  0  0  0  0  0
    1.4669   -2.9932   -7.4488 C   0  0  0  0  0  0  0  0  0  0  0  0
    2.3771   -3.3496   -8.4682 C   0  0  0  0  0  0  0  0  0  0  0  0
    1.9276   -3.8226   -9.7547 C   0  0  0  0  0  0  0  0  0  0  0  0
    0.5796   -3.9495   -9.9694 N   0  0  0  0  0  0  0  0  0  0  0  0
   -0.1422   -3.8101  -11.1643 C   0  0  0  0  0  0  0  0  0  0  0  0
    0.3021   -2.9790  -12.1996 C   0  0  0  0  0  0  0  0  0  0  0  0
   -0.4640   -2.8644  -13.3533 C   0  0  0  0  0  0  0  0  0  0  0  0
    0.1706   -1.7666  -14.7637 Br  0  0  0  0  0  0  0  0  0  0  0  0
   -1.6815   -3.5245  -13.4970 C   0  0  0  0  0  0  0  0  0  0  0  0
   -2.1288   -4.3212  -12.4446 C   0  0  0  0  0  0  0  0  0  0  0  0
   -1.3679   -4.4749  -11.2916 C   0  0  0  0  0  0  0  0  0  0  0  0
    2.9135   -4.1718  -10.6830 C   0  0  0  0  0  0  0  0  0  0  0  0
    2.6302   -4.8038  -11.9349 C   0  0  0  0  0  0  0  0  0  0  0  0
    2.4594   -5.3351  -12.9508 N   0  0  0  0  0  0  0  0  0  0  0  0
    4.2897   -3.9899  -10.3420 C   0  0  0  0  0  0  0  0  0  0  0  0
    4.7142   -3.5507   -9.1953 N   0  0  0  0  0  0  0  0  0  0  0  0
    3.7770   -3.2463   -8.2510 C   0  0  0  0  0  0  0  0  0  0  0  0
    4.2182   -2.7922   -6.9825 C   0  0  0  0  0  0  0  0  0  0  0  0
    3.3257   -2.4768   -5.9920 C   0  0  0  0  0  0  0  0  0  0  0  0
   -2.6651    2.3525   -2.5044 N   0  0  0  0  0  0  0  0  0  0  0  0
   -2.1413    1.5038   -1.5855 C   0  0  0  0  0  0  0  0  0  0  0  0
   -0.6583    1.2505   -1.7278 C   0  0  0  0  0  0  0  0  0  0  0  0
   -2.7932    0.9586   -0.6991 O   0  0  0  0  0  0  0  0  0  0  0  0
   -4.0507    2.9525   -3.8881 H   0  0  0  0  0  0  0  0  0  0  0  0
   -5.1433    2.4367   -0.8220 N   0  0  0  0  0  0  0  0  0  0  0  0
   -6.0988    2.8913    0.1494 C   0  0  0  0  0  0  0  0  0  0  0  0
   -4.6069    0.2472   -2.5563 H   0  0  0  0  0  0  0  0  0  0  0  0
   -5.4291    0.9759   -3.9549 H   0  0  0  0  0  0  0  0  0  0  0  0
   -2.2131   -1.3384   -1.5639 H   0  0  0  0  0  0  0  0  0  0  0  0
   -2.4027   -3.0841   -1.7805 H   0  0  0  0  0  0  0  0  0  0  0  0
   -4.7869   -2.4942   -3.8481 H   0  0  0  0  0  0  0  0  0  0  0  0
   -6.0759   -2.1669   -2.6912 H   0  0  0  0  0  0  0  0  0  0  0  0
   -4.2118   -4.6208   -2.6031 H   0  0  0  0  0  0  0  0  0  0  0  0
   -5.9216   -4.6150   -3.0885 H   0  0  0  0  0  0  0  0  0  0  0  0
   -3.5927   -3.6898    0.1462 H   0  0  0  0  0  0  0  0  0  0  0  0
   -4.9620   -3.1503    1.1408 H   0  0  0  0  0  0  0  0  0  0  0  0
   -3.8452   -1.2028   -0.0283 H   0  0  0  0  0  0  0  0  0  0  0  0
   -5.5474   -1.3926   -0.4925 H   0  0  0  0  0  0  0  0  0  0  0  0
    1.5282   -1.9040   -4.3218 H   0  0  0  0  0  0  0  0  0  0  0  0
    0.3871   -3.0211   -7.5785 H   0  0  0  0  0  0  0  0  0  0  0  0
    0.0126   -3.9740   -9.1299 H   0  0  0  0  0  0  0  0  0  0  0  0
    1.2369   -2.4266  -12.1029 H   0  0  0  0  0  0  0  0  0  0  0  0
   -2.2674   -3.4172  -14.4101 H   0  0  0  0  0  0  0  0  0  0  0  0
   -3.0842   -4.8423  -12.5324 H   0  0  0  0  0  0  0  0  0  0  0  0
   -1.7168   -5.1161  -10.4797 H   0  0  0  0  0  0  0  0  0  0  0  0
    5.0402   -4.2535  -11.0966 H   0  0  0  0  0  0  0  0  0  0  0  0
    5.2948   -2.7121   -6.8243 H   0  0  0  0  0  0  0  0  0  0  0  0
    3.6935   -2.1389   -5.0188 H   0  0  0  0  0  0  0  0  0  0  0  0
   -2.0186    2.5556   -3.2572 H   0  0  0  0  0  0  0  0  0  0  0  0
   -0.1063    2.1596   -2.0075 H   0  0  0  0  0  0  0  0  0  0  0  0
   -0.5341    0.5101   -2.5350 H   0  0  0  0  0  0  0  0  0  0  0  0
   -0.2639    0.8458   -0.7883 H   0  0  0  0  0  0  0  0  0  0  0  0
   -4.4237    1.7538   -0.5675 H   0  0  0  0  0  0  0  0  0  0  0  0
   -6.7190    2.0601    0.5244 H   0  0  0  0  0  0  0  0  0  0  0  0
   -6.7528    3.6281   -0.3353 H   0  0  0  0  0  0  0  0  0  0  0  0
   -5.6078    3.3695    1.0141 H   0  0  0  0  0  0  0  0  0  0  0  0
   -0.1934   -1.6696   -3.0169 H   0  0  0  0  0  0  0  0  0  0  0  0
   -2.8172   -2.5418   -4.3569 H   0  0  0  0  0  0  0  0  0  0  0  0
  1  2  2  0  0  0  0
  2 43  1  0  0  0  0
  3 42  1  6  0  0  0
  3 38  1  0  0  0  0
  3  2  1  0  0  0  0
  4  3  1  0  0  0  0
  4 45  1  0  0  0  0
  5  4  1  0  0  0  0
  6  7  1  0  0  0  0
  7  8  1  0  0  0  0
  7 48  1  0  0  0  0
  7 47  1  0  0  0  0
  8 13  1  0  0  0  0
  9 50  1  0  0  0  0
  9 10  1  0  0  0  0
  9  8  1  0  0  0  0
 10 11  1  0  0  0  0
 11 12  1  0  0  0  0
 12 53  1  0  0  0  0
 12 54  1  0  0  0  0
 13 56  1  0  0  0  0
 13 55  1  0  0  0  0
 13 12  1  0  0  0  0
 14  6  1  0  0  0  0
 14 75  1  0  0  0  0
 15 14  1  0  0  0  0
 16 15  2  0  0  0  0
 17 15  1  0  0  0  0
 17 57  1  0  0  0  0
 18 37  1  0  0  0  0
 18 17  1  0  0  0  0
 19 18  2  0  0  0  0
 20 35  1  0  0  0  0
 20 19  1  0  0  0  0
 21 20  2  0  0  0  0
 22 21  1  0  0  0  0
 22 59  1  0  0  0  0
 23 22  1  0  0  0  0
 24 60  1  0  0  0  0
 24 23  2  0  0  0  0
 25 24  1  0  0  0  0
 26 25  1  0  0  0  0
 27 25  2  0  0  0  0
 27 28  1  0  0  0  0
 28 29  2  0  0  0  0
 29 23  1  0  0  0  0
 29 63  1  0  0  0  0
 30 33  2  0  0  0  0
 30 21  1  0  0  0  0
 31 30  1  0  0  0  0
 32 31  3  0  0  0  0
 33 34  1  0  0  0  0
 34 35  2  0  0  0  0
 35 36  1  0  0  0  0
 36 65  1  0  0  0  0
 36 37  2  0  0  0  0
 37 66  1  0  0  0  0
 38 39  1  0  0  0  0
 39 41  2  0  0  0  0
 40 39  1  0  0  0  0
 40 70  1  0  0  0  0
 43 71  1  0  0  0  0
 43 44  1  0  0  0  0
 44 72  1  0  0  0  0
 44 74  1  0  0  0  0
 46  4  1  0  0  0  0
 49  9  1  0  0  0  0
 51 10  1  0  0  0  0
 52 10  1  0  0  0  0
 58 19  1  0  0  0  0
 61 27  1  0  0  0  0
 62 28  1  0  0  0  0
 64 33  1  0  0  0  0
 67 38  1  0  0  0  0
 68 40  1  0  0  0  0
 69 40  1  0  0  0  0
 73 44  1  0  0  0  0
 76  6  1  0  0  0  0
M  END
