-1 1
 OpenBabel05192410563D

 76 79  0  0  1  0  0  0  0  0999 V2000
   -4.3090    5.0977    6.5608 O   0  0  0  0  0  0  0  0  0  0  0  0
   -3.7749    4.0407    6.2665 C   0  0  0  0  0  0  0  0  0  0  0  0
   -2.3839    4.0444    5.6025 C   0  0  2  0  0  0  0  0  0  0  0  0
   -2.4881    3.7224    4.1036 C   0  0  0  0  0  0  0  0  0  0  0  0
   -0.8859    4.0142    3.2787 S   0  0  0  0  0  0  0  0  0  0  0  0
   -0.5749    2.5483    2.2036 C   0  0  2  0  0  0  0  0  0  0  0  0
   -1.0940    1.1989    2.7217 C   0  0  0  0  0  0  0  0  0  0  0  0
   -2.5325    0.9434    2.6156 N   0  0  0  0  0  0  0  0  0  0  0  0
   -3.1054    1.1340    1.2914 C   0  0  0  0  0  0  0  0  0  0  0  0
   -2.5622    0.1833    0.2234 C   0  0  0  0  0  0  0  0  0  0  0  0
   -2.9042   -1.5622    0.6453 S   0  0  0  0  0  0  0  0  0  0  0  0
   -2.3583   -1.5567    2.3865 C   0  0  0  0  0  0  0  0  0  0  0  0
   -2.8909   -0.3508    3.1716 C   0  0  0  0  0  0  0  0  0  0  0  0
    0.9046    2.4973    1.9545 C   0  0  0  0  0  3  0  0  0  0  0  0
    1.3043    1.7958    0.8300 C   0  0  0  0  0  0  0  0  0  0  0  0
    0.5428    1.2339    0.0002 O   0  0  0  0  0  0  0  0  0  0  0  0
    2.7269    1.6920    0.6191 N   0  0  0  0  0  0  0  0  0  0  0  0
    3.3840    0.6790   -0.0220 C   0  0  0  0  0  0  0  0  0  0  0  0
    2.7226   -0.3100   -0.7505 C   0  0  0  0  0  0  0  0  0  0  0  0
    3.4216   -1.3843   -1.3286 C   0  0  0  0  0  0  0  0  0  0  0  0
    2.7242   -2.4607   -1.9908 C   0  0  0  0  0  0  0  0  0  0  0  0
    1.3525   -2.4225   -1.9842 N   0  0  0  0  0  0  0  0  0  0  0  0
    0.4209   -2.8912   -2.9152 C   0  0  0  0  0  0  0  0  0  0  0  0
    0.7508   -3.1233   -4.2563 C   0  0  0  0  0  0  0  0  0  0  0  0
   -0.2374   -3.5628   -5.1299 C   0  0  0  0  0  0  0  0  0  0  0  0
    0.2352   -3.9054   -6.9375 Br  0  0  0  0  0  0  0  0  0  0  0  0
   -1.5552   -3.7499   -4.7237 C   0  0  0  0  0  0  0  0  0  0  0  0
   -1.8769   -3.4773   -3.3939 C   0  0  0  0  0  0  0  0  0  0  0  0
   -0.9065   -3.0592   -2.4923 C   0  0  0  0  0  0  0  0  0  0  0  0
    3.5054   -3.4928   -2.5171 C   0  0  0  0  0  0  0  0  0  0  0  0
    2.9626   -4.7056   -3.0460 C   0  0  0  0  0  0  0  0  0  0  0  0
    2.5768   -5.7148   -3.4668 N   0  0  0  0  0  0  0  0  0  0  0  0
    4.9323   -3.4052   -2.4221 C   0  0  0  0  0  0  0  0  0  0  0  0
    5.5766   -2.4469   -1.8267 N   0  0  0  0  0  0  0  0  0  0  0  0
    4.8390   -1.4487   -1.2570 C   0  0  0  0  0  0  0  0  0  0  0  0
    5.5057   -0.4108   -0.5579 C   0  0  0  0  0  0  0  0  0  0  0  0
    4.8100    0.6057    0.0472 C   0  0  0  0  0  0  0  0  0  0  0  0
   -1.3569    3.2585    6.2877 N   0  0  0  0  0  0  0  0  0  0  0  0
   -1.2482    1.9064    6.2858 C   0  0  0  0  0  0  0  0  0  0  0  0
    0.1359    1.3725    6.5769 C   0  0  0  0  0  0  0  0  0  0  0  0
   -2.1808    1.1483    6.0466 O   0  0  0  0  0  0  0  0  0  0  0  0
   -2.0673    5.0900    5.7139 H   0  0  0  0  0  0  0  0  0  0  0  0
   -4.3506    2.8287    6.4175 N   0  0  0  0  0  0  0  0  0  0  0  0
   -5.6607    2.6648    6.9884 C   0  0  0  0  0  0  0  0  0  0  0  0
   -2.7877    2.6780    3.9292 H   0  0  0  0  0  0  0  0  0  0  0  0
   -3.2613    4.3735    3.6689 H   0  0  0  0  0  0  0  0  0  0  0  0
   -0.8163    1.0780    3.7801 H   0  0  0  0  0  0  0  0  0  0  0  0
   -0.5067    0.4568    2.1510 H   0  0  0  0  0  0  0  0  0  0  0  0
   -2.9311    2.1704    0.9652 H   0  0  0  0  0  0  0  0  0  0  0  0
   -4.1982    1.0075    1.3801 H   0  0  0  0  0  0  0  0  0  0  0  0
   -1.4817    0.3490    0.0768 H   0  0  0  0  0  0  0  0  0  0  0  0
   -3.0685    0.3535   -0.7379 H   0  0  0  0  0  0  0  0  0  0  0  0
   -1.2597   -1.5972    2.4205 H   0  0  0  0  0  0  0  0  0  0  0  0
   -2.7388   -2.4923    2.8219 H   0  0  0  0  0  0  0  0  0  0  0  0
   -2.5166   -0.3944    4.2068 H   0  0  0  0  0  0  0  0  0  0  0  0
   -3.9918   -0.4153    3.2183 H   0  0  0  0  0  0  0  0  0  0  0  0
    3.2917    2.2927    1.2034 H   0  0  0  0  0  0  0  0  0  0  0  0
    1.6469   -0.1683   -0.8454 H   0  0  0  0  0  0  0  0  0  0  0  0
    0.9609   -1.8086   -1.2780 H   0  0  0  0  0  0  0  0  0  0  0  0
    1.7644   -2.9536   -4.6181 H   0  0  0  0  0  0  0  0  0  0  0  0
   -2.3117   -4.0953   -5.4288 H   0  0  0  0  0  0  0  0  0  0  0  0
   -2.9056   -3.6016   -3.0491 H   0  0  0  0  0  0  0  0  0  0  0  0
   -1.1781   -2.8488   -1.4538 H   0  0  0  0  0  0  0  0  0  0  0  0
    5.5209   -4.2171   -2.8658 H   0  0  0  0  0  0  0  0  0  0  0  0
    6.5951   -0.4587   -0.5071 H   0  0  0  0  0  0  0  0  0  0  0  0
    5.3531    1.3825    0.5939 H   0  0  0  0  0  0  0  0  0  0  0  0
   -0.4759    3.7479    6.3740 H   0  0  0  0  0  0  0  0  0  0  0  0
    0.6928    2.0031    7.2842 H   0  0  0  0  0  0  0  0  0  0  0  0
    0.6945    1.3429    5.6273 H   0  0  0  0  0  0  0  0  0  0  0  0
    0.0537    0.3520    6.9682 H   0  0  0  0  0  0  0  0  0  0  0  0
   -3.7780    2.0115    6.1881 H   0  0  0  0  0  0  0  0  0  0  0  0
   -6.3270    2.1168    6.3032 H   0  0  0  0  0  0  0  0  0  0  0  0
   -6.0815    3.6618    7.1720 H   0  0  0  0  0  0  0  0  0  0  0  0
   -5.6218    2.1156    7.9439 H   0  0  0  0  0  0  0  0  0  0  0  0
    1.6070    2.8312    2.7222 H   0  0  0  0  0  0  0  0  0  0  0  0
   -1.0595    2.7524    1.2381 H   0  0  0  0  0  0  0  0  0  0  0  0
  2 43  1  0  0  0  0
  2  1  2  0  0  0  0
  3 42  1  1  0  0  0
  3  2  1  0  0  0  0
  3 38  1  0  0  0  0
  4  3  1  0  0  0  0
  5  4  1  0  0  0  0
  6 76  1  6  0  0  0
  6  7  1  0  0  0  0
  6  5  1  0  0  0  0
  7 47  1  0  0  0  0
  8  7  1  0  0  0  0
  8 13  1  0  0  0  0
  9 50  1  0  0  0  0
  9  8  1  0  0  0  0
 10 11  1  0  0  0  0
 10  9  1  0  0  0  0
 11 12  1  0  0  0  0
 12 53  1  0  0  0  0
 12 54  1  0  0  0  0
 12 13  1  0  0  0  0
 13 56  1  0  0  0  0
 13 55  1  0  0  0  0
 14  6  1  0  0  0  0
 14 75  1  0  0  0  0
 15 14  1  0  0  0  0
 16 15  2  0  0  0  0
 17 15  1  0  0  0  0
 17 57  1  0  0  0  0
 18 37  1  0  0  0  0
 18 17  1  0  0  0  0
 19 18  2  0  0  0  0
 20 35  1  0  0  0  0
 20 19  1  0  0  0  0
 21 22  1  0  0  0  0
 21 20  2  0  0  0  0
 22 59  1  0  0  0  0
 23 29  1  0  0  0  0
 23 22  1  0  0  0  0
 24 23  2  0  0  0  0
 25 27  2  0  0  0  0
 25 24  1  0  0  0  0
 26 25  1  0  0  0  0
 27 28  1  0  0  0  0
 28 62  1  0  0  0  0
 28 29  2  0  0  0  0
 29 63  1  0  0  0  0
 30 33  2  0  0  0  0
 30 21  1  0  0  0  0
 31 30  1  0  0  0  0
 32 31  3  0  0  0  0
 33 34  1  0  0  0  0
 34 35  2  0  0  0  0
 35 36  1  0  0  0  0
 36 65  1  0  0  0  0
 36 37  2  0  0  0  0
 37 66  1  0  0  0  0
 38 67  1  0  0  0  0
 39 38  1  0  0  0  0
 39 40  1  0  0  0  0
 40 70  1  0  0  0  0
 40 68  1  0  0  0  0
 41 39  2  0  0  0  0
 43 44  1  0  0  0  0
 44 73  1  0  0  0  0
 44 74  1  0  0  0  0
 45  4  1  0  0  0  0
 46  4  1  0  0  0  0
 48  7  1  0  0  0  0
 49  9  1  0  0  0  0
 51 10  1  0  0  0  0
 52 10  1  0  0  0  0
 58 19  1  0  0  0  0
 60 24  1  0  0  0  0
 61 27  1  0  0  0  0
 64 33  1  0  0  0  0
 69 40  1  0  0  0  0
 71 43  1  0  0  0  0
 72 44  1  0  0  0  0
M  END
