76
-1 1
O        -3.551449    2.730211   -0.119830
C        -2.830401    2.379339    0.801211
C        -1.757962    1.300797    0.585697
C        -2.200593   -0.047776    1.176722
S        -1.059930   -1.444909    0.881388
C        -0.288989   -1.482783    4.336514
C        -1.200314   -0.677428    5.219350
N        -2.472494   -0.401059    4.585355
C        -3.360044   -1.528592    4.401355
C        -4.089472   -1.967296    5.675150
S        -5.098884   -0.627260    6.392208
C        -3.839797    0.691193    6.372789
C        -3.144411    0.803368    5.012529
C         1.044377   -1.510834    4.433813
C         1.812030   -2.205882    3.364016
O         1.417888   -3.177923    2.765463
N         3.008565   -1.572789    3.029114
C         3.472426   -1.528802    1.686934
C         2.587429   -1.261447    0.658086
C         3.044525   -1.121753   -0.670521
C         2.146852   -0.766857   -1.756404
N         0.830308   -0.586786   -1.513680
C        -0.071396    0.173237   -2.284267
C         0.238017    1.487987   -2.651332
C        -0.730902    2.260985   -3.279617
Br        -0.304691    4.046648   -3.765449
C        -2.006515    1.767714   -3.535996
C        -2.300437    0.458443   -3.160337
C        -1.345740   -0.341876   -2.542368
C         2.748980   -0.629614   -3.022860
C         2.022314   -0.404225   -4.234508
N         1.511120   -0.241278   -5.262649
C         4.157109   -0.807492   -3.156908
N         4.977737   -1.097083   -2.191320
C         4.433760   -1.254199   -0.945772
C         5.313840   -1.542966    0.124996
C         4.847134   -1.682055    1.411608
N        -0.403401    1.688339    0.985716
C         0.075180    1.770713    2.245311
C         1.579672    1.704006    2.375421
O        -0.624337    1.896935    3.248027
H        -1.715527    1.204968   -0.503430
N        -2.956263    2.835500    2.071309
C        -3.932632    3.820356    2.444911
H        -2.332150    0.062776    2.264407
H        -3.189736   -0.262127    0.739590
H        -0.718405    0.289824    5.428562
H        -1.300544   -1.197580    6.201463
H        -2.787186   -2.376500    3.995062
H        -4.102734   -1.260699    3.630942
H        -3.378699   -2.328265    6.435536
H        -4.789050   -2.787452    5.458740
H        -3.106651    0.505150    7.174388
H        -4.374449    1.620939    6.617105
H        -2.404624    1.618806    5.038045
H        -3.892603    1.070627    4.245457
H         3.266388   -0.774399    3.597594
H         1.521692   -1.151034    0.896606
H         0.350518   -0.965358   -0.644853
H         1.225896    1.900226   -2.437732
H        -2.760825    2.399521   -4.004697
H        -3.301845    0.062873   -3.338571
H        -1.581876   -1.351484   -2.205673
H         4.582993   -0.695096   -4.161740
H         6.372684   -1.648599   -0.116416
H         5.529064   -1.910360    2.233898
H         0.289520    1.485359    0.276528
H         2.114163    1.920230    1.440565
H         1.827049    0.679445    2.685292
H         1.902933    2.395301    3.164066
H        -2.258744    2.508641    2.745970
H        -4.577078    3.457087    3.263247
H        -4.559718    4.028537    1.568090
H        -3.461500    4.763133    2.772009
H         1.581938   -0.901558    5.171331
H        -0.735587   -2.031416    3.495713
