-1 1
 OpenBabel05232414493D

 76 78  0  0  1  0  0  0  0  0999 V2000
    0.0817   -1.6938    4.9972 O   0  0  0  0  0  0  0  0  0  0  0  0
    0.5950   -0.8249    4.2880 C   0  0  0  0  0  0  0  0  0  0  0  0
    1.9380   -0.1749    4.6469 C   0  0  2  0  0  0  0  0  0  0  0  0
    3.0969   -0.3945    3.6392 C   0  0  0  0  0  0  0  0  0  0  0  0
    2.8182   -0.0165    1.8917 S   0  0  0  0  0  1  0  0  0  0  0  0
    2.4066   -2.2050    1.2970 C   0  0  0  0  0  3  0  0  0  0  0  0
    1.5872   -1.8990    0.0619 C   0  0  0  0  0  0  0  0  0  0  0  0
    1.1416   -3.0984   -0.6404 N   0  0  0  0  0  0  0  0  0  0  0  0
    0.3167   -2.8209   -1.7945 C   0  0  0  0  0  0  0  0  0  0  0  0
    1.0683   -2.2698   -3.0140 C   0  0  0  0  0  0  0  0  0  0  0  0
    2.3759   -3.4043   -3.5852 S   0  0  0  0  0  0  0  0  0  0  0  0
    3.1709   -3.7200   -1.9726 C   0  0  0  0  0  0  0  0  0  0  0  0
    2.1523   -4.1052   -0.8968 C   0  0  0  0  0  0  0  0  0  0  0  0
    1.8489   -2.9517    2.3353 C   0  0  0  0  0  3  0  0  0  0  0  0
    2.6660   -3.6232    3.3004 C   0  0  0  0  0  0  0  0  0  0  0  0
    3.8622   -3.8899    3.1948 O   0  0  0  0  0  0  0  0  0  0  0  0
    1.9490   -3.9486    4.4876 N   0  0  0  0  0  0  0  0  0  0  0  0
    2.4849   -4.2491    5.7165 C   0  0  0  0  0  0  0  0  0  0  0  0
    1.7509   -3.9439    6.8613 C   0  0  0  0  0  0  0  0  0  0  0  0
    2.2447   -4.2212    8.1549 C   0  0  0  0  0  0  0  0  0  0  0  0
    1.5271   -3.8751    9.3496 C   0  0  0  0  0  0  0  0  0  0  0  0
    0.2861   -3.2830    9.2362 N   0  0  0  0  0  0  0  0  0  0  0  0
   -0.2586   -2.2474   10.0060 C   0  0  0  0  0  0  0  0  0  0  0  0
   -1.6485   -2.0684    9.9823 C   0  0  0  0  0  0  0  0  0  0  0  0
   -2.2164   -1.0160   10.6901 C   0  0  0  0  0  0  0  0  0  0  0  0
   -4.1008   -0.7890   10.6391 Br  0  0  0  0  0  0  0  0  0  0  0  0
   -1.4424   -0.1354   11.4409 C   0  0  0  0  0  0  0  0  0  0  0  0
   -0.0622   -0.3262   11.4581 C   0  0  0  0  0  0  0  0  0  0  0  0
    0.5336   -1.3608   10.7466 C   0  0  0  0  0  0  0  0  0  0  0  0
    2.1215   -4.1938   10.5720 C   0  0  0  0  0  0  0  0  0  0  0  0
    1.4496   -4.0357   11.8257 C   0  0  0  0  0  0  0  0  0  0  0  0
    0.9375   -3.9436   12.8612 N   0  0  0  0  0  0  0  0  0  0  0  0
    3.4202   -4.7862   10.5822 C   0  0  0  0  0  0  0  0  0  0  0  0
    4.0978   -5.0808    9.5121 N   0  0  0  0  0  0  0  0  0  0  0  0
    3.5296   -4.8130    8.3030 C   0  0  0  0  0  0  0  0  0  0  0  0
    4.2641   -5.1120    7.1252 C   0  0  0  0  0  0  0  0  0  0  0  0
    3.7737   -4.8482    5.8736 C   0  0  0  0  0  0  0  0  0  0  0  0
    2.3094   -0.6803    5.9461 N   0  0  0  0  0  0  0  0  0  0  0  0
    3.1780   -0.0703    6.7870 C   0  0  0  0  0  0  0  0  0  0  0  0
    3.4432   -0.8515    8.0634 C   0  0  0  0  0  0  0  0  0  0  0  0
    3.7108    0.9979    6.5428 O   0  0  0  0  0  0  0  0  0  0  0  0
    1.7636    0.9119    4.7234 H   0  0  0  0  0  0  0  0  0  0  0  0
    0.0018   -0.3310    3.1878 N   0  0  0  0  0  0  0  0  0  0  0  0
   -1.2205   -0.8970    2.6775 C   0  0  0  0  0  0  0  0  0  0  0  0
    3.9269    0.2251    4.0042 H   0  0  0  0  0  0  0  0  0  0  0  0
    3.4165   -1.4426    3.7147 H   0  0  0  0  0  0  0  0  0  0  0  0
    2.1720   -1.2073   -0.5809 H   0  0  0  0  0  0  0  0  0  0  0  0
    0.6818   -1.3448    0.3599 H   0  0  0  0  0  0  0  0  0  0  0  0
   -0.4620   -2.0951   -1.5019 H   0  0  0  0  0  0  0  0  0  0  0  0
   -0.1980   -3.7518   -2.0920 H   0  0  0  0  0  0  0  0  0  0  0  0
    1.5142   -1.2877   -2.7941 H   0  0  0  0  0  0  0  0  0  0  0  0
    0.3852   -2.1425   -3.8666 H   0  0  0  0  0  0  0  0  0  0  0  0
    3.7469   -2.8314   -1.6705 H   0  0  0  0  0  0  0  0  0  0  0  0
    3.8852   -4.5378   -2.1456 H   0  0  0  0  0  0  0  0  0  0  0  0
    2.6754   -4.3270    0.0456 H   0  0  0  0  0  0  0  0  0  0  0  0
    1.6413   -5.0327   -1.2087 H   0  0  0  0  0  0  0  0  0  0  0  0
    1.0510   -3.4733    4.5461 H   0  0  0  0  0  0  0  0  0  0  0  0
    0.7964   -3.4307    6.7192 H   0  0  0  0  0  0  0  0  0  0  0  0
   -0.1984   -3.4648    8.3665 H   0  0  0  0  0  0  0  0  0  0  0  0
   -2.2766   -2.7565    9.4141 H   0  0  0  0  0  0  0  0  0  0  0  0
   -1.9056    0.6811   11.9952 H   0  0  0  0  0  0  0  0  0  0  0  0
    0.5671    0.3568   12.0318 H   0  0  0  0  0  0  0  0  0  0  0  0
    1.6179   -1.4747   10.7592 H   0  0  0  0  0  0  0  0  0  0  0  0
    3.8725   -5.0170   11.5537 H   0  0  0  0  0  0  0  0  0  0  0  0
    5.2499   -5.5616    7.2568 H   0  0  0  0  0  0  0  0  0  0  0  0
    4.3506   -5.0531    4.9742 H   0  0  0  0  0  0  0  0  0  0  0  0
    1.8636   -1.5483    6.2204 H   0  0  0  0  0  0  0  0  0  0  0  0
    4.0385   -1.7500    7.8371 H   0  0  0  0  0  0  0  0  0  0  0  0
    2.5013   -1.1869    8.5219 H   0  0  0  0  0  0  0  0  0  0  0  0
    3.9957   -0.2156    8.7646 H   0  0  0  0  0  0  0  0  0  0  0  0
    0.6459    0.1360    2.5329 H   0  0  0  0  0  0  0  0  0  0  0  0
   -1.0427   -1.8020    2.0694 H   0  0  0  0  0  0  0  0  0  0  0  0
   -1.7371   -0.1542    2.0536 H   0  0  0  0  0  0  0  0  0  0  0  0
   -1.8699   -1.1774    3.5170 H   0  0  0  0  0  0  0  0  0  0  0  0
    0.7694   -2.9274    2.4961 H   0  0  0  0  0  0  0  0  0  0  0  0
    3.4698   -2.3944    1.1203 H   0  0  0  0  0  0  0  0  0  0  0  0
  2  3  1  0  0  0  0
  2  1  2  0  0  0  0
  3 42  1  1  0  0  0
  3 38  1  0  0  0  0
  4 46  1  0  0  0  0
  4 45  1  0  0  0  0
  4  3  1  0  0  0  0
  5  4  1  0  0  0  0
  6 14  1  0  0  0  0
  7 48  1  0  0  0  0
  7  6  1  0  0  0  0
  8  7  1  0  0  0  0
  9 49  1  0  0  0  0
  9  8  1  0  0  0  0
 10 51  1  0  0  0  0
 10  9  1  0  0  0  0
 11 10  1  0  0  0  0
 11 12  1  0  0  0  0
 12 53  1  0  0  0  0
 12 13  1  0  0  0  0
 13  8  1  0  0  0  0
 13 55  1  0  0  0  0
 14 75  1  0  0  0  0
 14 15  1  0  0  0  0
 15 17  1  0  0  0  0
 16 15  2  0  0  0  0
 17 57  1  0  0  0  0
 17 18  1  0  0  0  0
 18 37  2  0  0  0  0
 18 19  1  0  0  0  0
 19 20  2  0  0  0  0
 20 35  1  0  0  0  0
 20 21  1  0  0  0  0
 21 30  2  0  0  0  0
 22 21  1  0  0  0  0
 22 23  1  0  0  0  0
 23 29  1  0  0  0  0
 24 23  2  0  0  0  0
 24 25  1  0  0  0  0
 25 27  2  0  0  0  0
 26 25  1  0  0  0  0
 27 28  1  0  0  0  0
 27 61  1  0  0  0  0
 28 62  1  0  0  0  0
 29 63  1  0  0  0  0
 29 28  2  0  0  0  0
 30 33  1  0  0  0  0
 30 31  1  0  0  0  0
 31 32  3  0  0  0  0
 33 64  1  0  0  0  0
 34 33  2  0  0  0  0
 35 34  1  0  0  0  0
 36 65  1  0  0  0  0
 36 35  2  0  0  0  0
 37 36  1  0  0  0  0
 38 67  1  0  0  0  0
 38 39  1  0  0  0  0
 39 40  1  0  0  0  0
 40 69  1  0  0  0  0
 40 70  1  0  0  0  0
 41 39  2  0  0  0  0
 43  2  1  0  0  0  0
 44 43  1  0  0  0  0
 44 74  1  0  0  0  0
 47  7  1  0  0  0  0
 50  9  1  0  0  0  0
 52 10  1  0  0  0  0
 54 12  1  0  0  0  0
 56 13  1  0  0  0  0
 58 19  1  0  0  0  0
 59 22  1  0  0  0  0
 60 24  1  0  0  0  0
 66 37  1  0  0  0  0
 68 40  1  0  0  0  0
 71 43  1  0  0  0  0
 72 44  1  0  0  0  0
 73 44  1  0  0  0  0
 76  6  1  0  0  0  0
M  END
