76
-1 1
O        -0.536609   -0.191882   -1.357635
C        -0.503969    0.924828   -1.890734
C         0.594129    1.955465   -1.574105
C         1.145076    2.709284   -2.804209
S         0.015323    3.867343   -3.645869
C         2.614680   -0.798365   -4.216627
C         2.049901   -0.075128   -5.410757
N         0.615574   -0.201067   -5.537946
C        -0.106236    0.972209   -5.998875
C         0.039155    1.252263   -7.493753
S        -0.560280   -0.135110   -8.516683
C         0.339411   -1.479539   -7.677473
C         0.170366   -1.435662   -6.155217
C         1.862339   -1.282176   -3.226200
C         2.444508   -1.924278   -2.012320
O         3.599660   -2.312044   -1.936918
N         1.533149   -1.977686   -0.990946
C         1.787855   -2.307957    0.340893
C         1.014170   -1.691028    1.309248
C         1.252832   -1.915676    2.680663
C         0.590245   -1.140830    3.701916
N        -0.149080   -0.062946    3.296575
C        -1.253845    0.534264    3.901829
C        -2.151495   -0.191707    4.695558
C        -3.249716    0.459798    5.244188
Br        -4.435459   -0.530233    6.349746
C        -3.506575    1.806239    5.003931
C        -2.625287    2.506298    4.179090
C        -1.507464    1.888292    3.633914
C         0.838963   -1.517883    5.027009
C         0.367752   -0.790796    6.165515
N         0.033259   -0.238682    7.128267
C         1.739540   -2.599496    5.284895
N         2.413657   -3.242345    4.378649
C         2.204496   -2.893057    3.074208
C         2.966303   -3.529851    2.063776
C         2.791759   -3.232018    0.732721
N         1.709160    1.313829   -0.903721
C         1.850085    1.196201    0.427829
C         3.194378    0.675091    0.892415
O         0.972281    1.534498    1.220527
H         0.156577    2.682482   -0.871315
N        -1.428402    1.322485   -2.761642
C        -2.475479    0.436337   -3.194884
H         2.029220    3.259935   -2.446444
H         1.517555    1.939640   -3.507281
H         2.606557   -0.406059   -6.314759
H         2.301044    0.995250   -5.305609
H         0.201455    1.862605   -5.422616
H        -1.174928    0.822838   -5.771907
H         1.086825    1.470312   -7.756867
H        -0.563539    2.126051   -7.778744
H         1.403793   -1.431187   -7.958164
H        -0.065250   -2.417985   -8.083648
H         0.723751   -2.276253   -5.704554
H        -0.895691   -1.583496   -5.911527
H         0.695800   -1.387814   -1.128864
H         0.239650   -0.992803    0.988117
H         0.226251    0.448613    2.484029
H        -1.996591   -1.255017    4.879088
H        -4.375618    2.294884    5.445031
H        -2.813191    3.560273    3.963866
H        -0.820658    2.435384    2.984872
H         1.905102   -2.880042    6.332111
H         3.708842   -4.262362    2.384771
H         3.409805   -3.695691   -0.033905
H         2.456826    0.977529   -1.499047
H         3.875341    1.532196    1.013066
H         3.643703   -0.033382    0.181482
H         3.081188    0.185193    1.866503
H        -1.269404    2.249895   -3.221245
H        -2.075929   -0.394559   -3.802422
H        -3.192843    1.003132   -3.802890
H        -2.999554   -0.004385   -2.333639
H         0.777882   -1.153980   -3.275569
H         3.703872   -0.907486   -4.156693
