76
-1 1
O        -1.664685    6.827620    0.349945
C        -0.937784    6.057803   -0.251362
C        -0.123190    4.966929    0.453803
C        -1.054935    3.792780    0.791617
S        -0.251580    2.442049    1.679971
C         0.453881    1.246141   -0.432894
C         0.615544   -0.133820    0.155946
N        -0.554182   -0.988562    0.038497
C        -0.279486   -2.409234    0.140784
C        -0.126126   -2.875931    1.588748
O        -1.259209   -2.538008    2.345537
C        -1.515961   -1.145872    2.315228
C        -1.688602   -0.639799    0.887844
C        -0.437713    1.494893   -1.454352
C        -0.310099    2.640323   -2.307755
O         0.621609    3.447745   -2.324962
N        -1.396348    2.800303   -3.198307
C        -1.580569    3.786503   -4.144279
C        -2.864672    4.090043   -4.577630
C        -3.101109    5.071320   -5.568409
C        -4.421145    5.438437   -5.998920
N        -5.509334    4.877130   -5.363789
C        -6.746654    4.521987   -5.917691
C        -7.887901    4.559383   -5.109570
C        -9.119510    4.162873   -5.619997
Cl       -10.538208    4.197845   -4.617609
C        -9.225932    3.751579   -6.946855
F       -10.405461    3.384764   -7.440020
C        -8.098313    3.717890   -7.755715
C        -6.860958    4.086306   -7.244086
C        -4.523620    6.390856   -7.014886
C        -5.775713    6.919561   -7.464228
N        -6.764206    7.382182   -7.853606
C        -3.331903    6.942504   -7.574843
N        -2.130599    6.648878   -7.173482
C        -1.998406    5.736557   -6.170758
C        -0.694568    5.413406   -5.714041
C        -0.480151    4.480645   -4.735093
N         0.472506    5.469584    1.666434
C         1.347965    6.499202    1.664450
C         1.935461    6.845785    3.023016
O         1.621965    7.142024    0.665185
H         0.660673    4.604744   -0.231914
N        -0.834570    6.015135   -1.605987
C        -1.514603    6.955951   -2.453748
H        -1.907379    4.178448    1.373137
H        -1.463921    3.395979   -0.156800
H         1.007975   -0.039377    1.187618
H         1.417843   -0.617647   -0.432194
H         0.622330   -2.659269   -0.441898
H        -1.126316   -2.961536   -0.306998
H         0.785264   -2.424849    2.035893
H        -0.015887   -3.970854    1.638865
H        -0.693662   -0.592551    2.810543
H        -2.429112   -0.975553    2.903433
H        -1.811328    0.452340    0.905153
H        -2.595536   -1.098690    0.452998
H        -2.210724    2.243899   -2.975106
H        -3.700636    3.539676   -4.140213
H        -5.365073    4.619098   -4.396433
H        -7.823564    4.910664   -4.078686
H        -8.205060    3.387740   -8.789824
H        -5.975721    4.039811   -7.879874
H        -3.435673    7.680402   -8.378723
H         0.140907    5.937318   -6.180924
H         0.523839    4.248789   -4.386163
H         0.437665    4.827603    2.453089
H         1.948625    5.992289    3.715989
H         1.332920    7.649742    3.472362
H         2.955480    7.224220    2.879214
H        -0.177471    5.349066   -2.008185
H        -2.217149    6.458340   -3.143733
H        -0.803392    7.545175   -3.055035
H        -2.079317    7.638283   -1.804929
H        -1.268620    0.801747   -1.610143
H         1.350867    1.865744   -0.393870
