-1 1
 OpenBabel05192410563D

 76 79  0  0  1  0  0  0  0  0999 V2000
    2.9762    3.7521    3.7211 O   0  0  0  0  0  0  0  0  0  0  0  0
    2.9321    2.7836    2.9690 C   0  0  0  0  0  0  0  0  0  0  0  0
    3.3033    1.3820    3.4652 C   0  0  2  0  0  0  0  0  0  0  0  0
    2.0083    0.6351    3.8333 C   0  0  0  0  0  0  0  0  0  0  0  0
    2.2365   -1.0824    4.3345 S   0  0  0  0  0  0  0  0  0  0  0  0
    2.7378   -1.8144    2.6565 C   0  0  1  0  0  0  0  0  0  0  0  0
    3.1324   -3.2817    2.8733 C   0  0  0  0  0  0  0  0  0  0  0  0
    2.0516   -4.2574    2.8028 N   0  0  0  0  0  0  0  0  0  0  0  0
    2.5082   -5.6302    2.6960 C   0  0  0  0  0  0  0  0  0  0  0  0
    2.9177   -6.2191    4.0471 C   0  0  0  0  0  0  0  0  0  0  0  0
    1.8707   -6.1138    4.9813 O   0  0  0  0  0  0  0  0  0  0  0  0
    1.4395   -4.7777    5.1453 C   0  0  0  0  0  0  0  0  0  0  0  0
    1.0072   -4.1723    3.8129 C   0  0  0  0  0  0  0  0  0  0  0  0
    1.7610   -1.5816    1.5724 C   0  0  0  0  0  3  0  0  0  0  0  0
    1.9016   -0.5498    0.6684 C   0  0  0  0  0  0  0  0  0  0  0  0
    2.8308    0.3065    0.5928 O   0  0  0  0  0  0  0  0  0  0  0  0
    0.8257   -0.4446   -0.2860 N   0  0  0  0  0  0  0  0  0  0  0  0
    0.6400    0.4485   -1.2956 C   0  0  0  0  0  0  0  0  0  0  0  0
   -0.6068    0.5419   -1.9224 C   0  0  0  0  0  0  0  0  0  0  0  0
   -0.8432    1.4406   -2.9861 C   0  0  0  0  0  0  0  0  0  0  0  0
   -2.1219    1.5790   -3.6206 C   0  0  0  0  0  0  0  0  0  0  0  0
   -3.1975    0.8597   -3.1276 N   0  0  0  0  0  0  0  0  0  0  0  0
   -4.2039    0.2094   -3.8472 C   0  0  0  0  0  0  0  0  0  0  0  0
   -5.4211   -0.0612   -3.2098 C   0  0  0  0  0  0  0  0  0  0  0  0
   -6.4271   -0.7487   -3.8798 C   0  0  0  0  0  0  0  0  0  0  0  0
   -7.9343   -1.0930   -3.0834 Cl  0  0  0  0  0  0  0  0  0  0  0  0
   -6.2403   -1.1516   -5.1999 C   0  0  0  0  0  0  0  0  0  0  0  0
   -7.2078   -1.7984   -5.8466 F   0  0  0  0  0  0  0  0  0  0  0  0
   -5.0388   -0.8823   -5.8404 C   0  0  0  0  0  0  0  0  0  0  0  0
   -4.0200   -0.2180   -5.1696 C   0  0  0  0  0  0  0  0  0  0  0  0
   -2.2292    2.4841   -4.6783 C   0  0  0  0  0  0  0  0  0  0  0  0
   -3.4776    2.7874   -5.3097 C   0  0  0  0  0  0  0  0  0  0  0  0
   -4.4700    3.0672   -5.8389 N   0  0  0  0  0  0  0  0  0  0  0  0
   -1.0737    3.2077   -5.0965 C   0  0  0  0  0  0  0  0  0  0  0  0
    0.0900    3.1122   -4.5201 N   0  0  0  0  0  0  0  0  0  0  0  0
    0.2183    2.2587   -3.4698 C   0  0  0  0  0  0  0  0  0  0  0  0
    1.4816    2.1485   -2.8272 C   0  0  0  0  0  0  0  0  0  0  0  0
    1.6971    1.2907   -1.7848 C   0  0  0  0  0  0  0  0  0  0  0  0
    4.2092    1.5124    4.5744 N   0  0  0  0  0  0  0  0  0  0  0  0
    5.3148    0.7416    4.7274 C   0  0  0  0  0  0  0  0  0  0  0  0
    6.1263    1.0404    5.9766 C   0  0  0  0  0  0  0  0  0  0  0  0
    5.6344   -0.1488    3.9611 O   0  0  0  0  0  0  0  0  0  0  0  0
    3.8038    0.8360    2.6539 H   0  0  0  0  0  0  0  0  0  0  0  0
    2.5174    2.8072    1.6913 N   0  0  0  0  0  0  0  0  0  0  0  0
    2.0435    4.0012    1.0458 C   0  0  0  0  0  0  0  0  0  0  0  0
    1.5126    1.1464    4.6732 H   0  0  0  0  0  0  0  0  0  0  0  0
    1.3207    0.6453    2.9740 H   0  0  0  0  0  0  0  0  0  0  0  0
    3.7311   -3.3480    3.8073 H   0  0  0  0  0  0  0  0  0  0  0  0
    3.8202   -3.5325    2.0497 H   0  0  0  0  0  0  0  0  0  0  0  0
    3.3464   -5.6900    1.9832 H   0  0  0  0  0  0  0  0  0  0  0  0
    1.6832   -6.2450    2.2905 H   0  0  0  0  0  0  0  0  0  0  0  0
    3.8231   -5.7016    4.4271 H   0  0  0  0  0  0  0  0  0  0  0  0
    3.1590   -7.2895    3.9535 H   0  0  0  0  0  0  0  0  0  0  0  0
    2.2491   -4.1673    5.5948 H   0  0  0  0  0  0  0  0  0  0  0  0
    0.6024   -4.7983    5.8589 H   0  0  0  0  0  0  0  0  0  0  0  0
    0.7003   -3.1263    3.9484 H   0  0  0  0  0  0  0  0  0  0  0  0
    0.1304   -4.7358    3.4442 H   0  0  0  0  0  0  0  0  0  0  0  0
    0.0390   -1.0475   -0.0853 H   0  0  0  0  0  0  0  0  0  0  0  0
   -1.4025   -0.1267   -1.5845 H   0  0  0  0  0  0  0  0  0  0  0  0
   -3.1539    0.6449   -2.1401 H   0  0  0  0  0  0  0  0  0  0  0  0
   -5.5938    0.2742   -2.1861 H   0  0  0  0  0  0  0  0  0  0  0  0
   -4.9102   -1.2121   -6.8722 H   0  0  0  0  0  0  0  0  0  0  0  0
   -3.0726   -0.0309   -5.6763 H   0  0  0  0  0  0  0  0  0  0  0  0
   -1.1736    3.9021   -5.9386 H   0  0  0  0  0  0  0  0  0  0  0  0
    2.2896    2.7749   -3.2097 H   0  0  0  0  0  0  0  0  0  0  0  0
    2.6679    1.1998   -1.3006 H   0  0  0  0  0  0  0  0  0  0  0  0
    4.0706    2.3418    5.1414 H   0  0  0  0  0  0  0  0  0  0  0  0
    5.9795    2.0624    6.3547 H   0  0  0  0  0  0  0  0  0  0  0  0
    7.1884    0.8735    5.7569 H   0  0  0  0  0  0  0  0  0  0  0  0
    5.8257    0.3308    6.7621 H   0  0  0  0  0  0  0  0  0  0  0  0
    2.5811    1.9160    1.1614 H   0  0  0  0  0  0  0  0  0  0  0  0
    1.0845    3.8153    0.5370 H   0  0  0  0  0  0  0  0  0  0  0  0
    2.7588    4.3702    0.2911 H   0  0  0  0  0  0  0  0  0  0  0  0
    1.9067    4.7837    1.8042 H   0  0  0  0  0  0  0  0  0  0  0  0
    0.9190   -2.2733    1.4871 H   0  0  0  0  0  0  0  0  0  0  0  0
    3.6749   -1.2810    2.4429 H   0  0  0  0  0  0  0  0  0  0  0  0
  2  3  1  0  0  0  0
  2  1  2  0  0  0  0
  3 43  1  6  0  0  0
  3  4  1  0  0  0  0
  3 39  1  0  0  0  0
  4  5  1  0  0  0  0
  4 46  1  0  0  0  0
  6 76  1  6  0  0  0
  6  7  1  0  0  0  0
  6  5  1  0  0  0  0
  7 48  1  0  0  0  0
  8  7  1  0  0  0  0
  8 13  1  0  0  0  0
  9  8  1  0  0  0  0
  9 10  1  0  0  0  0
 10 52  1  0  0  0  0
 10 11  1  0  0  0  0
 11 12  1  0  0  0  0
 12 54  1  0  0  0  0
 12 55  1  0  0  0  0
 13 56  1  0  0  0  0
 13 12  1  0  0  0  0
 14  6  1  0  0  0  0
 15 14  1  0  0  0  0
 16 15  2  0  0  0  0
 17 58  1  0  0  0  0
 17 15  1  0  0  0  0
 18 17  1  0  0  0  0
 19 59  1  0  0  0  0
 19 18  2  0  0  0  0
 20 19  1  0  0  0  0
 21 22  1  0  0  0  0
 21 20  2  0  0  0  0
 22 60  1  0  0  0  0
 23 24  1  0  0  0  0
 23 22  1  0  0  0  0
 24 61  1  0  0  0  0
 25 24  2  0  0  0  0
 25 26  1  0  0  0  0
 27 25  1  0  0  0  0
 28 27  1  0  0  0  0
 29 27  2  0  0  0  0
 29 30  1  0  0  0  0
 30 23  2  0  0  0  0
 31 21  1  0  0  0  0
 32 31  1  0  0  0  0
 33 32  3  0  0  0  0
 34 31  2  0  0  0  0
 34 35  1  0  0  0  0
 35 36  2  0  0  0  0
 36 20  1  0  0  0  0
 36 37  1  0  0  0  0
 37 38  2  0  0  0  0
 38 66  1  0  0  0  0
 38 18  1  0  0  0  0
 39 40  1  0  0  0  0
 39 67  1  0  0  0  0
 40 41  1  0  0  0  0
 41 68  1  0  0  0  0
 41 70  1  0  0  0  0
 42 40  2  0  0  0  0
 44  2  1  0  0  0  0
 45 44  1  0  0  0  0
 45 74  1  0  0  0  0
 47  4  1  0  0  0  0
 49  7  1  0  0  0  0
 50  9  1  0  0  0  0
 51  9  1  0  0  0  0
 53 10  1  0  0  0  0
 57 13  1  0  0  0  0
 62 29  1  0  0  0  0
 63 30  1  0  0  0  0
 64 34  1  0  0  0  0
 65 37  1  0  0  0  0
 69 41  1  0  0  0  0
 71 44  1  0  0  0  0
 72 45  1  0  0  0  0
 73 45  1  0  0  0  0
 75 14  1  0  0  0  0
M  END
