76
-1 1
O         1.861247   -1.332553   -0.330131
C         0.979132   -1.285326   -1.176278
C         0.746111   -0.067111   -2.075802
C         1.238004   -0.381110   -3.516403
S         1.532355    1.100301   -4.537105
C        -2.145017    0.446270   -4.712256
C        -1.982243    1.613594   -5.635225
N        -2.405899    2.872343   -5.048125
C        -1.391890    3.494045   -4.195751
C        -0.364983    4.281246   -5.001620
O        -0.989621    5.226169   -5.852299
C        -1.884928    4.609704   -6.738042
C        -2.962368    3.846454   -5.968739
C        -2.757431    0.489802   -3.525209
C        -2.737928   -0.679937   -2.620041
O        -2.372282   -1.799191   -2.952786
N        -3.110202   -0.390717   -1.327596
C        -2.852913   -1.285064   -0.254888
C        -1.858825   -0.978552    0.647946
C        -1.520718   -1.870732    1.689045
C        -0.389851   -1.626293    2.568025
N         0.324049   -0.498026    2.394111
C         1.476865   -0.079798    3.098670
C         1.387366    0.351030    4.422455
C         2.530487    0.784406    5.083034
Cl         2.453162    1.289325    6.745982
C         3.749888    0.819429    4.408974
F         4.843298    1.241051    5.040356
C         3.833588    0.422924    3.080421
C         2.698331   -0.034511    2.419786
C        -0.133806   -2.630268    3.521766
C         0.973564   -2.642153    4.427901
N         1.834447   -2.746878    5.198208
C        -0.990801   -3.770278    3.581139
N        -1.998269   -4.007441    2.794977
C        -2.254655   -3.076748    1.826138
C        -3.285041   -3.357122    0.893952
C        -3.573416   -2.492021   -0.135198
N         1.444984    1.089287   -1.585199
C         1.143390    1.719684   -0.454084
C         1.953980    2.954593   -0.136956
O         0.265691    1.336277    0.332862
H        -0.335363    0.151547   -2.106961
N         0.152861   -2.322931   -1.431037
C         0.221865   -3.559541   -0.695772
H         2.167866   -0.968612   -3.433898
H         0.485993   -1.044138   -3.971786
H        -0.918098    1.603375   -5.948018
H        -2.578411    1.415679   -6.544226
H        -0.865895    2.716134   -3.621438
H        -1.901898    4.174839   -3.490074
H         0.260370    3.581188   -5.588314
H         0.305834    4.840354   -4.334233
H        -1.343971    3.914539   -7.415147
H        -2.332450    5.403183   -7.357521
H        -3.658525    3.348577   -6.663351
H        -3.548819    4.579805   -5.385369
H        -3.162050    0.592325   -1.089877
H        -1.295412   -0.057761    0.484789
H         0.192690    0.045843    1.530012
H         0.431165    0.332316    4.945805
H         4.803103    0.462493    2.581432
H         2.730465   -0.374849    1.380167
H        -0.768782   -4.519771    4.350909
H        -3.823865   -4.297645    1.018317
H        -4.347461   -2.725130   -0.867666
H         1.967355    1.562734   -2.340132
H         1.273993    3.750279    0.195131
H         2.554852    3.302565   -0.987467
H         2.623500    2.717130    0.703678
H        -0.614729   -2.204287   -2.091157
H         0.835573   -4.316684   -1.213167
H        -0.791155   -3.961732   -0.556839
H         0.673041   -3.373261    0.288545
H        -1.688453   -0.497476   -5.028659
H        -3.196636    1.431983   -3.183946
