76
-1 1
O         4.484364   -4.845460    3.887561
C         3.556618   -4.765784    3.093305
C         3.079349   -3.437151    2.489645
C         3.418228   -3.387164    0.985964
S         3.025459   -1.809389    0.167966
C         0.569602   -2.479231   -0.256153
C         0.162018   -1.250061   -1.025247
N         1.084563   -0.711890   -2.003439
C         1.628186   -1.635537   -2.982715
C         0.641008   -1.925981   -4.109348
O         0.212202   -0.731124   -4.729848
C        -0.367565    0.163696   -3.812179
C         0.597805    0.480741   -2.667563
C        -0.108166   -2.793349    0.898144
C        -0.027432   -4.097637    1.505627
O         0.496685   -5.099272    1.008161
N        -0.569180   -4.169063    2.796924
C        -0.268079   -5.261745    3.639725
C         0.580209   -5.091656    4.713926
C         0.979574   -6.186799    5.512608
C         2.013394   -6.060093    6.523023
N         2.598196   -4.855142    6.693024
C         3.676746   -4.540511    7.553088
C         3.474382   -4.409075    8.926877
C         4.544261   -4.084048    9.751756
Cl         4.327578   -3.953104   11.473174
C         5.803089   -3.859248    9.197685
F         6.827246   -3.542680    9.987363
C         5.998374   -3.956124    7.825959
C         4.936811   -4.301958    6.996475
C         2.337661   -7.239449    7.218741
C         3.365090   -7.359072    8.207746
N         4.169528   -7.563160    9.018347
C         1.651023   -8.449687    6.895563
N         0.756119   -8.587743    5.964325
C         0.435260   -7.468615    5.245497
C        -0.455237   -7.613301    4.152709
C        -0.786069   -6.545206    3.353937
N         3.680218   -2.311061    3.158644
C         3.368552   -1.950120    4.406086
C         4.046508   -0.709261    4.939521
O         2.587789   -2.584507    5.121284
H         1.988888   -3.376379    2.613732
N         2.878553   -5.840835    2.642390
C         3.178493   -7.172790    3.102036
H         4.493788   -3.606748    0.873313
H         2.870948   -4.205094    0.498282
H        -0.822022   -1.524549   -1.476233
H        -0.056971   -0.448666   -0.300564
H         1.966810   -2.553064   -2.484101
H         2.531367   -1.172946   -3.416929
H        -0.235878   -2.485246   -3.720404
H         1.107173   -2.541070   -4.893479
H        -1.311311   -0.261832   -3.410104
H        -0.626939    1.075817   -4.371812
H         0.115936    1.146279   -1.932966
H         1.463617    1.024034   -3.087040
H        -0.664516   -3.275915    3.264168
H         1.002100   -4.097884    4.872239
H         2.475814   -4.141934    5.963066
H         2.487267   -4.580863    9.356451
H         6.996442   -3.773461    7.424726
H         5.059762   -4.405169    5.913940
H         1.919699   -9.344127    7.471286
H        -0.847376   -8.613470    3.961197
H        -1.443024   -6.667041    2.492149
H         4.110412   -1.632606    2.532789
H         3.293847   -0.079935    5.432307
H         4.566694   -0.131442    4.164218
H         4.772742   -1.020859    5.705013
H         2.070504   -5.699743    2.028939
H         4.016676   -7.625230    2.544869
H         2.289629   -7.805413    2.981010
H         3.457656   -7.153148    4.165852
H         0.992156   -3.321356   -0.809115
H        -0.625563   -2.002380    1.450897
