-1 1
 OpenBabel05232414493D

 83 84  0  0  1  0  0  0  0  0999 V2000
    3.6405    6.3907   -2.6119 O   0  0  0  0  0  0  0  0  0  0  0  0
    3.6601    5.1755   -2.6890 C   0  0  0  0  0  0  0  0  0  0  0  0
    2.3651    4.3602   -2.8211 C   0  0  2  0  0  0  0  0  0  0  0  0
    1.9397    3.7527   -1.4717 C   0  0  0  0  0  0  0  0  0  0  0  0
    2.8933    2.3190   -0.9191 S   0  0  0  0  0  1  0  0  0  0  0  0
    1.1050    0.7401   -1.0908 C   0  0  0  0  0  3  0  0  0  0  0  0
    0.9142    0.4609    0.3832 C   0  0  0  0  0  0  0  0  0  0  0  0
    2.0165   -0.2341    1.0166 N   0  0  0  0  0  0  0  0  0  0  0  0
    2.1583   -1.6239    0.6381 C   0  0  0  0  0  0  0  0  0  0  0  0
    1.1111   -2.6028    1.1906 C   0  0  0  0  0  0  0  0  0  0  0  0
    1.3545   -4.0308    0.7164 C   0  0  0  0  0  0  0  0  0  0  0  0
    2.1599    0.0301    2.4322 C   0  0  0  0  0  0  0  0  0  0  0  0
    2.8066    1.3782    2.7413 C   0  0  0  0  0  0  0  0  0  0  0  0
    2.9029    1.6485    4.2383 C   0  0  0  0  0  0  0  0  0  0  0  0
    0.0633    1.2699   -1.8430 C   0  0  0  0  0  3  0  0  0  0  0  0
    0.1070    1.1729   -3.2740 C   0  0  0  0  0  0  0  0  0  0  0  0
   -0.8204    1.9893   -3.9598 N   0  0  0  0  0  0  0  0  0  0  0  0
   -0.8054    2.1033   -5.3539 C   0  0  0  0  0  0  0  0  0  0  0  0
   -0.9891    0.9472   -6.1611 C   0  0  0  0  0  0  0  0  0  0  0  0
   -1.0598    1.0537   -7.5265 C   0  0  0  0  0  0  0  0  0  0  0  0
   -0.6273    3.3264   -5.9678 C   0  0  0  0  0  0  0  0  0  0  0  0
   -0.6174    3.4437   -7.3788 C   0  0  0  0  0  0  0  0  0  0  0  0
   -0.9032    2.3056   -8.1761 C   0  0  0  0  0  0  0  0  0  0  0  0
   -1.0325    2.3654   -9.5338 N   0  0  0  0  0  0  0  0  0  0  0  0
   -0.8289    3.5154  -10.1065 C   0  0  0  0  0  0  0  0  0  0  0  0
   -0.4130    4.7037   -9.4301 C   0  0  0  0  0  0  0  0  0  0  0  0
   -0.0159    5.8072  -10.2499 C   0  0  0  0  0  0  0  0  0  0  0  0
    0.2977    6.6595  -10.9701 N   0  0  0  0  0  0  0  0  0  0  0  0
   -0.2718    4.6769   -8.0376 C   0  0  0  0  0  0  0  0  0  0  0  0
    0.2524    5.6750   -7.2571 N   0  0  0  0  0  0  0  0  0  0  0  0
    0.1991    7.0548   -7.4156 C   0  0  0  0  0  0  0  0  0  0  0  0
   -0.8589    7.6933   -8.0776 C   0  0  0  0  0  0  0  0  0  0  0  0
   -0.8642    9.0804   -8.1647 C   0  0  0  0  0  0  0  0  0  0  0  0
   -2.2886    9.9264   -9.0966 Br  0  0  0  0  0  0  0  0  0  0  0  0
    0.1321    9.8631   -7.5895 C   0  0  0  0  0  0  0  0  0  0  0  0
    1.1588    9.2150   -6.9006 C   0  0  0  0  0  0  0  0  0  0  0  0
    1.2033    7.8302   -6.8117 C   0  0  0  0  0  0  0  0  0  0  0  0
    0.8872    0.4707   -3.9197 O   0  0  0  0  0  0  0  0  0  0  0  0
    2.4501    3.3126   -3.8124 N   0  0  0  0  0  0  0  0  0  0  0  0
    2.3952    3.5529   -5.1309 C   0  0  0  0  0  0  0  0  0  0  0  0
    2.5766    2.3522   -6.0263 C   0  0  0  0  0  0  0  0  0  0  0  0
    2.2244    4.6943   -5.5721 O   0  0  0  0  0  0  0  0  0  0  0  0
    1.6148    5.0967   -3.1453 H   0  0  0  0  0  0  0  0  0  0  0  0
    4.7942    4.4277   -2.6367 N   0  0  0  0  0  0  0  0  0  0  0  0
    6.0734    5.0161   -2.3401 C   0  0  0  0  0  0  0  0  0  0  0  0
    1.9484    4.5508   -0.7151 H   0  0  0  0  0  0  0  0  0  0  0  0
    0.8921    3.4091   -1.5906 H   0  0  0  0  0  0  0  0  0  0  0  0
   -0.0388   -0.1062    0.4930 H   0  0  0  0  0  0  0  0  0  0  0  0
    0.7512    1.4164    0.9010 H   0  0  0  0  0  0  0  0  0  0  0  0
    3.1620   -1.9664    0.9495 H   0  0  0  0  0  0  0  0  0  0  0  0
    2.1536   -1.6866   -0.4626 H   0  0  0  0  0  0  0  0  0  0  0  0
    0.1032   -2.2791    0.8828 H   0  0  0  0  0  0  0  0  0  0  0  0
    1.1224   -2.5700    2.2937 H   0  0  0  0  0  0  0  0  0  0  0  0
    1.3137   -4.0949   -0.3828 H   0  0  0  0  0  0  0  0  0  0  0  0
    0.6052   -4.7292    1.1194 H   0  0  0  0  0  0  0  0  0  0  0  0
    2.3486   -4.3904    1.0291 H   0  0  0  0  0  0  0  0  0  0  0  0
    2.7948   -0.7636    2.8640 H   0  0  0  0  0  0  0  0  0  0  0  0
    1.1867   -0.0417    2.9741 H   0  0  0  0  0  0  0  0  0  0  0  0
    2.2446    2.1846    2.2456 H   0  0  0  0  0  0  0  0  0  0  0  0
    3.8026    1.3992    2.2732 H   0  0  0  0  0  0  0  0  0  0  0  0
    1.9059    1.6687    4.7091 H   0  0  0  0  0  0  0  0  0  0  0  0
    3.3844    2.6171    4.4402 H   0  0  0  0  0  0  0  0  0  0  0  0
    3.4920    0.8707    4.7527 H   0  0  0  0  0  0  0  0  0  0  0  0
   -1.0979    2.8221   -3.4563 H   0  0  0  0  0  0  0  0  0  0  0  0
   -1.0956   -0.0190   -5.6683 H   0  0  0  0  0  0  0  0  0  0  0  0
   -1.2438    0.1817   -8.1563 H   0  0  0  0  0  0  0  0  0  0  0  0
   -0.4517    4.2116   -5.3555 H   0  0  0  0  0  0  0  0  0  0  0  0
   -0.9408    3.5644  -11.1964 H   0  0  0  0  0  0  0  0  0  0  0  0
    0.9317    5.3360   -6.5541 H   0  0  0  0  0  0  0  0  0  0  0  0
   -1.6708    7.1131   -8.5164 H   0  0  0  0  0  0  0  0  0  0  0  0
    0.1049   10.9499   -7.6719 H   0  0  0  0  0  0  0  0  0  0  0  0
    1.9455    9.8060   -6.4270 H   0  0  0  0  0  0  0  0  0  0  0  0
    2.0049    7.3268   -6.2661 H   0  0  0  0  0  0  0  0  0  0  0  0
    2.5676    2.3613   -3.4589 H   0  0  0  0  0  0  0  0  0  0  0  0
    3.6553    2.1768   -6.1644 H   0  0  0  0  0  0  0  0  0  0  0  0
    2.1301    2.5603   -7.0066 H   0  0  0  0  0  0  0  0  0  0  0  0
    2.1195    1.4563   -5.5800 H   0  0  0  0  0  0  0  0  0  0  0  0
    4.6558    3.4383   -2.4336 H   0  0  0  0  0  0  0  0  0  0  0  0
    6.3387    4.9154   -1.2733 H   0  0  0  0  0  0  0  0  0  0  0  0
    6.0215    6.0857   -2.5805 H   0  0  0  0  0  0  0  0  0  0  0  0
    6.8676    4.5494   -2.9429 H   0  0  0  0  0  0  0  0  0  0  0  0
   -0.7511    1.8257   -1.3676 H   0  0  0  0  0  0  0  0  0  0  0  0
    1.7575    0.0550   -1.6361 H   0  0  0  0  0  0  0  0  0  0  0  0
  2 44  1  0  0  0  0
  2  1  2  0  0  0  0
  3 43  1  6  0  0  0
  3  2  1  0  0  0  0
  3  4  1  0  0  0  0
  4  5  1  0  0  0  0
  4 46  1  0  0  0  0
  6  7  1  0  0  0  0
  7 48  1  0  0  0  0
  7 49  1  0  0  0  0
  7  8  1  0  0  0  0
  8 12  1  0  0  0  0
  9 50  1  0  0  0  0
  9  8  1  0  0  0  0
  9 10  1  0  0  0  0
 10 53  1  0  0  0  0
 11 56  1  0  0  0  0
 11 55  1  0  0  0  0
 11 10  1  0  0  0  0
 12 13  1  0  0  0  0
 12 57  1  0  0  0  0
 12 58  1  0  0  0  0
 13 14  1  0  0  0  0
 14 62  1  0  0  0  0
 14 61  1  0  0  0  0
 14 63  1  0  0  0  0
 15 82  1  0  0  0  0
 15  6  1  0  0  0  0
 16 15  1  0  0  0  0
 17 64  1  0  0  0  0
 17 16  1  0  0  0  0
 18 17  1  0  0  0  0
 19 65  1  0  0  0  0
 19 18  2  0  0  0  0
 20 19  1  0  0  0  0
 21 67  1  0  0  0  0
 21 18  1  0  0  0  0
 22 21  2  0  0  0  0
 23 20  2  0  0  0  0
 23 22  1  0  0  0  0
 24 23  1  0  0  0  0
 25 24  2  0  0  0  0
 25 26  1  0  0  0  0
 26 29  2  0  0  0  0
 27 26  1  0  0  0  0
 28 27  3  0  0  0  0
 29 22  1  0  0  0  0
 29 30  1  0  0  0  0
 30 69  1  0  0  0  0
 31 30  1  0  0  0  0
 31 37  1  0  0  0  0
 32 31  2  0  0  0  0
 33 32  1  0  0  0  0
 33 35  2  0  0  0  0
 34 33  1  0  0  0  0
 35 36  1  0  0  0  0
 36 37  2  0  0  0  0
 36 72  1  0  0  0  0
 37 73  1  0  0  0  0
 38 16  2  0  0  0  0
 39 74  1  0  0  0  0
 39  3  1  0  0  0  0
 40 39  1  0  0  0  0
 41 77  1  0  0  0  0
 41 40  1  0  0  0  0
 42 40  2  0  0  0  0
 44 78  1  0  0  0  0
 44 45  1  0  0  0  0
 45 79  1  0  0  0  0
 47  4  1  0  0  0  0
 51  9  1  0  0  0  0
 52 10  1  0  0  0  0
 54 11  1  0  0  0  0
 59 13  1  0  0  0  0
 60 13  1  0  0  0  0
 66 20  1  0  0  0  0
 68 25  1  0  0  0  0
 70 32  1  0  0  0  0
 71 35  1  0  0  0  0
 75 41  1  0  0  0  0
 76 41  1  0  0  0  0
 80 45  1  0  0  0  0
 81 45  1  0  0  0  0
 83  6  1  0  0  0  0
M  END
