83
-1 1
O         1.309939    2.875209    1.659835
C         1.923879    1.875118    2.001271
C         1.204069    0.538812    2.269360
C         1.308213    0.102782    3.752341
S         2.912459   -0.670741    4.187032
C         0.561889   -3.982079    3.172022
C         0.854729   -3.631681    4.592878
N         1.211595   -4.782890    5.394602
C         0.150859   -5.758459    5.546604
C        -1.058900   -5.343764    6.395452
C        -2.107429   -6.446958    6.477748
C         1.908902   -4.446733    6.622353
C         3.343649   -3.976427    6.397899
C         4.071107   -3.697222    7.707775
C        -0.293477   -3.313181    2.392844
C        -0.436330   -3.612208    0.945568
N        -1.047814   -2.581890    0.255293
C        -1.090930   -2.417535   -1.137146
C        -1.218219   -3.502298   -2.043284
C        -1.280701   -3.257267   -3.396666
C        -1.003697   -1.131766   -1.628727
C        -0.969404   -0.877560   -3.013132
C        -1.167835   -1.945513   -3.923127
N        -1.252249   -1.752986   -5.273375
C        -1.090729   -0.540565   -5.716280
C        -0.780798    0.599998   -4.907848
C        -0.407564    1.802904   -5.586578
N        -0.098778    2.746726   -6.183967
C        -0.699056    0.444884   -3.520982
N        -0.305515    1.388451   -2.610909
C        -0.637696    2.734779   -2.470344
C        -1.600951    3.380699   -3.256059
C        -1.890476    4.718580   -3.002883
Br        -3.184380    5.584904   -4.096093
C        -1.275829    5.433124   -1.980784
C        -0.349671    4.760929   -1.179650
C        -0.027105    3.432338   -1.412173
O        -0.048578   -4.632489    0.411054
N         1.715080   -0.547210    1.458610
C         1.774437   -0.506926    0.123711
C         2.435798   -1.678528   -0.560175
O         1.285286    0.423313   -0.524204
H         0.154361    0.742187    2.003328
N         3.261607    1.827634    2.191927
C         4.086254    3.001258    2.086857
H         1.110222    0.986112    4.378774
H         0.490072   -0.612590    3.946462
H         0.009834   -3.044622    5.018768
H         1.704445   -2.918984    4.563876
H         0.587784   -6.678157    5.976690
H        -0.207221   -6.038188    4.539591
H        -1.513949   -4.434071    5.970018
H        -0.721179   -5.073565    7.410221
H        -2.483179   -6.712427    5.476401
H        -2.971402   -6.144075    7.088342
H        -1.687824   -7.363329    6.924391
H         1.927472   -5.353365    7.253099
H         1.365932   -3.674009    7.213653
H         3.345193   -3.060672    5.784531
H         3.871778   -4.751300    5.818208
H         3.564858   -2.902931    8.279485
H         5.102346   -3.361027    7.524850
H         4.117770   -4.593606    8.349456
H        -1.143095   -1.719409    0.778030
H        -1.264845   -4.517020   -1.652234
H        -1.408819   -4.074078   -4.108910
H        -0.901558   -0.302700   -0.930292
H        -1.157634   -0.387610   -6.800192
H         0.264840    1.014625   -1.838543
H        -2.134175    2.854178   -4.045724
H        -1.524177    6.479989   -1.804059
H         0.126919    5.274516   -0.342322
H         0.666347    2.916276   -0.742480
H         2.301667   -1.196367    2.002587
H         3.149081   -1.294969   -1.301979
H         1.668576   -2.251631   -1.102383
H         2.948200   -2.349520    0.141314
H         3.602048    1.014374    2.725527
H         4.287088    3.456974    3.072106
H         3.563303    3.741941    1.468065
H         5.050732    2.755115    1.617103
H        -0.862718   -2.472084    2.805079
H         1.140727   -4.802292    2.731392
