-1 1
 OpenBabel05232414493D

 67 68  0  0  1  0  0  0  0  0999 V2000
   -2.1103   -3.6187    2.1004 O   0  0  0  0  0  0  0  0  0  0  0  0
   -1.3163   -2.8074    1.6319 C   0  0  0  0  0  0  0  0  0  0  0  0
   -0.1042   -2.3227    2.4601 C   0  0  2  0  0  0  0  0  0  0  0  0
    1.3051   -2.3855    1.8215 C   0  0  0  0  0  0  0  0  0  0  0  0
    1.5882   -1.6366    0.1875 S   0  0  0  0  0  1  0  0  0  0  0  0
    1.5813    0.6409    0.7835 C   0  0  0  0  0  3  0  0  0  0  0  0
    3.0056    0.8034    1.2602 C   0  0  0  0  0  0  0  0  0  0  0  0
    3.2069    0.4311    2.6041 O   0  0  0  0  0  0  0  0  0  0  0  0
    3.2468    1.4878    3.5114 C   0  0  0  0  0  0  0  0  0  0  0  0
    0.5091    0.9485    1.6167 C   0  0  0  0  0  3  0  0  0  0  0  0
   -0.8159    1.0115    1.0672 C   0  0  0  0  0  0  0  0  0  0  0  0
   -1.8442    1.0035    2.0457 N   0  0  0  0  0  0  0  0  0  0  0  0
   -3.0917    0.4253    1.7954 C   0  0  0  0  0  0  0  0  0  0  0  0
   -3.8895    0.8027    0.6846 C   0  0  0  0  0  0  0  0  0  0  0  0
   -5.0887    0.1702    0.4561 C   0  0  0  0  0  0  0  0  0  0  0  0
   -3.5428   -0.5693    2.6420 C   0  0  0  0  0  0  0  0  0  0  0  0
   -4.7626   -1.2365    2.4143 C   0  0  0  0  0  0  0  0  0  0  0  0
   -5.5576   -0.8698    1.2973 C   0  0  0  0  0  0  0  0  0  0  0  0
   -6.7296   -1.4974    0.9726 N   0  0  0  0  0  0  0  0  0  0  0  0
   -7.0985   -2.4910    1.7244 C   0  0  0  0  0  0  0  0  0  0  0  0
   -6.3790   -2.9770    2.8593 C   0  0  0  0  0  0  0  0  0  0  0  0
   -6.9777   -4.0422    3.6036 C   0  0  0  0  0  0  0  0  0  0  0  0
   -7.5279   -4.8903    4.1726 N   0  0  0  0  0  0  0  0  0  0  0  0
   -5.1780   -2.3539    3.2267 C   0  0  0  0  0  0  0  0  0  0  0  0
   -4.4222   -2.7221    4.2967 N   0  0  0  0  0  0  0  0  0  0  0  0
   -4.3365   -4.0378    4.8179 C   0  0  0  0  0  0  0  0  0  0  0  0
   -3.9724   -5.0970    3.9799 C   0  0  0  0  0  0  0  0  0  0  0  0
   -3.8327   -6.3639    4.5317 C   0  0  0  0  0  0  0  0  0  0  0  0
   -3.3182   -7.8060    3.4085 Br  0  0  0  0  0  0  0  0  0  0  0  0
   -4.0296   -6.5986    5.8922 C   0  0  0  0  0  0  0  0  0  0  0  0
   -4.3742   -5.5280    6.7140 C   0  0  0  0  0  0  0  0  0  0  0  0
   -4.5317   -4.2511    6.1819 C   0  0  0  0  0  0  0  0  0  0  0  0
   -1.1049    1.0133   -0.1266 O   0  0  0  0  0  0  0  0  0  0  0  0
   -0.0526   -3.0734    3.6983 N   0  0  0  0  0  0  0  0  0  0  0  0
   -0.9079   -2.9032    4.7254 C   0  0  0  0  0  0  0  0  0  0  0  0
   -0.8914   -3.9997    5.7687 C   0  0  0  0  0  0  0  0  0  0  0  0
   -1.6544   -1.9331    4.8324 O   0  0  0  0  0  0  0  0  0  0  0  0
   -0.3215   -1.2766    2.7127 H   0  0  0  0  0  0  0  0  0  0  0  0
   -1.4737   -2.2000    0.4512 N   0  0  0  0  0  0  0  0  0  0  0  0
   -2.6233   -2.4088   -0.3886 C   0  0  0  0  0  0  0  0  0  0  0  0
    1.9864   -1.9118    2.5448 H   0  0  0  0  0  0  0  0  0  0  0  0
    1.5937   -3.4486    1.7438 H   0  0  0  0  0  0  0  0  0  0  0  0
    3.2868    1.8685    1.1190 H   0  0  0  0  0  0  0  0  0  0  0  0
    3.6778    0.1946    0.6402 H   0  0  0  0  0  0  0  0  0  0  0  0
    4.1247    2.1453    3.3427 H   0  0  0  0  0  0  0  0  0  0  0  0
    3.3289    1.0602    4.5214 H   0  0  0  0  0  0  0  0  0  0  0  0
    2.3384    2.1166    3.4705 H   0  0  0  0  0  0  0  0  0  0  0  0
   -1.4998    0.8019    2.9770 H   0  0  0  0  0  0  0  0  0  0  0  0
   -3.5168    1.5729    0.0116 H   0  0  0  0  0  0  0  0  0  0  0  0
   -5.7131    0.4359   -0.3989 H   0  0  0  0  0  0  0  0  0  0  0  0
   -2.8720   -0.8859    3.4412 H   0  0  0  0  0  0  0  0  0  0  0  0
   -8.0386   -2.9960    1.4701 H   0  0  0  0  0  0  0  0  0  0  0  0
   -3.5677   -2.1912    4.4757 H   0  0  0  0  0  0  0  0  0  0  0  0
   -3.7502   -4.8940    2.9310 H   0  0  0  0  0  0  0  0  0  0  0  0
   -3.9136   -7.6033    6.3008 H   0  0  0  0  0  0  0  0  0  0  0  0
   -4.5320   -5.6978    7.7811 H   0  0  0  0  0  0  0  0  0  0  0  0
   -4.8135   -3.4068    6.8125 H   0  0  0  0  0  0  0  0  0  0  0  0
    0.4151   -3.9698    3.6433 H   0  0  0  0  0  0  0  0  0  0  0  0
    0.1040   -4.4518    5.8850 H   0  0  0  0  0  0  0  0  0  0  0  0
   -1.5989   -4.7861    5.4629 H   0  0  0  0  0  0  0  0  0  0  0  0
   -1.2289   -3.5875    6.7269 H   0  0  0  0  0  0  0  0  0  0  0  0
   -0.6801   -1.6567    0.0903 H   0  0  0  0  0  0  0  0  0  0  0  0
   -3.5054   -2.6033    0.2368 H   0  0  0  0  0  0  0  0  0  0  0  0
   -2.4906   -3.2639   -1.0733 H   0  0  0  0  0  0  0  0  0  0  0  0
   -2.7972   -1.4984   -0.9772 H   0  0  0  0  0  0  0  0  0  0  0  0
    0.6290    0.8513    2.6994 H   0  0  0  0  0  0  0  0  0  0  0  0
    1.4419    0.8868   -0.2734 H   0  0  0  0  0  0  0  0  0  0  0  0
  2  1  2  0  0  0  0
  2  3  1  0  0  0  0
  3 38  1  1  0  0  0
  3 34  1  0  0  0  0
  4  3  1  0  0  0  0
  4 41  1  0  0  0  0
  5  4  1  0  0  0  0
  6  7  1  0  0  0  0
  6 10  1  0  0  0  0
  7  8  1  0  0  0  0
  8  9  1  0  0  0  0
  9 46  1  0  0  0  0
 10 66  1  0  0  0  0
 11 10  1  0  0  0  0
 11 12  1  0  0  0  0
 12 48  1  0  0  0  0
 13 12  1  0  0  0  0
 13 16  1  0  0  0  0
 14 13  2  0  0  0  0
 15 14  1  0  0  0  0
 15 18  2  0  0  0  0
 16 51  1  0  0  0  0
 17 16  2  0  0  0  0
 17 24  1  0  0  0  0
 18 17  1  0  0  0  0
 19 18  1  0  0  0  0
 19 20  2  0  0  0  0
 20 21  1  0  0  0  0
 21 24  2  0  0  0  0
 21 22  1  0  0  0  0
 22 23  3  0  0  0  0
 24 25  1  0  0  0  0
 25 53  1  0  0  0  0
 25 26  1  0  0  0  0
 26 32  1  0  0  0  0
 27 28  1  0  0  0  0
 27 26  2  0  0  0  0
 28 30  2  0  0  0  0
 29 28  1  0  0  0  0
 30 55  1  0  0  0  0
 30 31  1  0  0  0  0
 31 56  1  0  0  0  0
 32 31  2  0  0  0  0
 32 57  1  0  0  0  0
 33 11  2  0  0  0  0
 34 35  1  0  0  0  0
 35 37  2  0  0  0  0
 35 36  1  0  0  0  0
 36 59  1  0  0  0  0
 36 61  1  0  0  0  0
 39  2  1  0  0  0  0
 40 63  1  0  0  0  0
 40 39  1  0  0  0  0
 42  4  1  0  0  0  0
 43  7  1  0  0  0  0
 44  7  1  0  0  0  0
 45  9  1  0  0  0  0
 47  9  1  0  0  0  0
 49 14  1  0  0  0  0
 50 15  1  0  0  0  0
 52 20  1  0  0  0  0
 54 27  1  0  0  0  0
 58 34  1  0  0  0  0
 60 36  1  0  0  0  0
 62 39  1  0  0  0  0
 64 40  1  0  0  0  0
 65 40  1  0  0  0  0
 67  6  1  0  0  0  0
M  END
