67
-1 1
O         0.149652   -0.820536   -0.627743
C         1.158097   -0.194394   -0.940731
C         2.414653   -0.180664   -0.048463
C         3.681552   -0.730731   -0.742531
S         4.394650    0.301994   -2.064483
C         3.987337    3.843251   -1.863511
C         5.415149    3.756515   -1.423913
O         5.664802    4.273793   -0.144645
C         5.738670    5.664932   -0.097480
C         2.952827    4.018737   -1.038201
C         1.562709    3.912908   -1.544336
N         0.661528    3.562867   -0.556908
C        -0.632627    3.068662   -0.782355
C        -1.467858    3.576325   -1.807935
C        -2.703909    3.013327   -2.017323
C        -1.079658    2.037736    0.018033
C        -2.344983    1.450488   -0.186504
C        -3.172913    1.930412   -1.233616
N        -4.388848    1.384597   -1.542369
C        -4.770844    0.359985   -0.840896
C        -4.032147   -0.229995    0.229321
C        -4.657606   -1.316554    0.919598
N        -5.238542   -2.175408    1.439694
C        -2.789864    0.315299    0.587767
N        -2.023733   -0.136349    1.612853
C        -2.022943   -1.477317    2.083111
C        -1.598457   -2.499766    1.228799
C        -1.549283   -3.798045    1.721367
Br        -0.945396   -5.192910    0.583732
C        -1.902641   -4.096561    3.036939
C        -2.309274   -3.061388    3.875954
C        -2.369940   -1.753121    3.404116
O         1.244928    4.086990   -2.705638
N         2.177571   -0.949899    1.157505
C         1.363079   -0.583551    2.158506
C         1.230072   -1.590699    3.284361
O         0.768500    0.494785    2.187245
H         2.607273    0.865703    0.239772
N         1.271569    0.565812   -2.040098
C         0.226654    0.661783   -3.027435
H         4.427759   -0.863157    0.058538
H         3.438605   -1.740093   -1.125394
H         6.073910    4.235217   -2.177171
H         5.653868    2.676006   -1.407439
H         6.563206    6.053488   -0.729503
H         5.934746    5.957248    0.944160
H         4.801395    6.152110   -0.427571
H         1.080702    3.245991    0.309655
H        -1.102899    4.381950   -2.441709
H        -3.359405    3.371665   -2.812700
H        -0.387970    1.633223    0.758827
H        -5.743297   -0.084967   -1.085552
H        -1.121769    0.320646    1.768402
H        -1.266285   -2.241606    0.221028
H        -1.858214   -5.124556    3.399170
H        -2.589724   -3.283745    4.907431
H        -2.697014   -0.934466    4.046409
H         2.553567   -1.889586    1.172943
H         2.208507   -2.004408    3.569619
H         0.581994   -2.422717    2.970388
H         0.770748   -1.097763    4.148622
H         2.243435    0.823894   -2.298981
H        -0.748451    0.529597   -2.539325
H         0.327947   -0.108232   -3.811620
H         0.261884    1.656621   -3.493164
H         3.126362    4.124460    0.037675
H         3.781335    3.665206   -2.923947
