67
-1 1
O        -3.451403   -2.598977   -0.182552
C        -2.435034   -1.964407    0.088268
C        -2.523505   -0.606871    0.811733
C        -1.636137   -0.470525    2.066863
S         0.178583   -0.452557    1.807024
C        -0.473248    4.823530    3.061355
C        -0.774107    5.184753    4.486412
O        -0.631176    6.556885    4.757467
C        -1.571020    7.359317    4.109618
C        -1.274971    4.099652    2.279652
C        -0.864195    3.734798    0.885567
N        -1.832278    3.042894    0.213999
C        -1.619591    2.322661   -0.979176
C        -2.627323    2.326147   -1.969003
C        -2.517711    1.523687   -3.081932
C        -0.516780    1.505639   -1.129546
C        -0.429281    0.614069   -2.219126
C        -1.419432    0.645845   -3.237133
N        -1.366983   -0.143376   -4.353796
C        -0.395526   -1.002439   -4.426433
C         0.601479   -1.211500   -3.423487
C         1.442116   -2.354762   -3.595988
N         2.067210   -3.311669   -3.793127
C         0.600985   -0.397286   -2.280652
N         1.421975   -0.528757   -1.203758
C         2.693488   -1.108451   -1.149289
C         3.049914   -1.839863   -0.006073
C         4.327533   -2.379437    0.074283
Br         4.808762   -3.378677    1.618055
C         5.263775   -2.221473   -0.945720
C         4.898088   -1.480241   -2.067244
C         3.632946   -0.914553   -2.169763
O         0.208417    4.050671    0.407193
N        -3.932357   -0.439647    1.116619
C        -4.551867    0.709988    1.408258
C        -6.052080    0.610805    1.610938
O        -3.992723    1.800509    1.524986
H        -2.213238    0.162692    0.089898
N        -1.195673   -2.354584   -0.239846
C        -0.937900   -3.597122   -0.920552
H        -1.929920    0.477365    2.540634
H        -1.903536   -1.281638    2.765024
H        -0.057704    4.672965    5.148615
H        -1.790285    4.833315    4.760150
H        -1.385106    8.400110    4.409790
H        -2.608561    7.090701    4.395393
H        -1.499819    7.291001    3.007928
H        -2.652753    2.720352    0.743283
H        -3.492707    2.978044   -1.831698
H        -3.276418    1.522590   -3.866007
H         0.238462    1.508277   -0.345490
H        -0.357051   -1.645041   -5.314879
H         0.991087   -0.313635   -0.276657
H         2.321240   -1.968047    0.799878
H         6.256813   -2.663976   -0.862099
H         5.618614   -1.335742   -2.874890
H         3.365340   -0.319683   -3.044605
H        -4.472723   -1.272658    0.882926
H        -6.546335    1.271764    0.884867
H        -6.292328    0.988278    2.614810
H        -6.444226   -0.409081    1.502228
H        -0.433297   -1.867663    0.264336
H         0.074525   -3.572252   -1.346998
H        -1.663013   -3.734791   -1.734794
H        -1.014650   -4.468969   -0.248241
H        -2.242184    3.731459    2.641150
H         0.485147    5.158734    2.647860
