-1 1
 OpenBabel05232414493D

 67 68  0  0  1  0  0  0  0  0999 V2000
    0.1847   -4.5911   -2.7312 O   0  0  0  0  0  0  0  0  0  0  0  0
   -0.5487   -3.6274   -2.9001 C   0  0  0  0  0  0  0  0  0  0  0  0
   -0.5025   -2.3642   -2.0125 C   0  0  2  0  0  0  0  0  0  0  0  0
    0.7289   -2.3403   -1.0929 C   0  0  0  0  0  0  0  0  0  0  0  0
    1.9491   -1.0464   -1.4731 S   0  0  0  0  0  1  0  0  0  0  0  0
    0.7223    0.8060   -1.0365 C   0  0  0  0  0  3  0  0  0  0  0  0
    0.4484    0.6231    0.4433 C   0  0  0  0  0  0  0  0  0  0  0  0
    0.1188    1.8203    1.1095 O   0  0  0  0  0  0  0  0  0  0  0  0
   -1.1651    2.3107    0.8789 C   0  0  0  0  0  0  0  0  0  0  0  0
   -0.3653    0.9439   -1.9208 C   0  0  0  0  0  3  0  0  0  0  0  0
   -0.0923    1.2358   -3.2894 C   0  0  0  0  0  0  0  0  0  0  0  0
   -1.1100    0.8442   -4.2321 N   0  0  0  0  0  0  0  0  0  0  0  0
   -0.7746   -0.1829   -5.1224 C   0  0  0  0  0  0  0  0  0  0  0  0
   -1.7151   -0.5989   -6.0999 C   0  0  0  0  0  0  0  0  0  0  0  0
   -1.4416   -1.6524   -6.9411 C   0  0  0  0  0  0  0  0  0  0  0  0
    0.4219   -0.8797   -5.0294 C   0  0  0  0  0  0  0  0  0  0  0  0
    0.6844   -2.0069   -5.8285 C   0  0  0  0  0  0  0  0  0  0  0  0
   -0.2358   -2.3877   -6.8367 C   0  0  0  0  0  0  0  0  0  0  0  0
   -0.0327   -3.4418   -7.6865 N   0  0  0  0  0  0  0  0  0  0  0  0
    1.0557   -4.1299   -7.5147 C   0  0  0  0  0  0  0  0  0  0  0  0
    2.0248   -3.9111   -6.4850 C   0  0  0  0  0  0  0  0  0  0  0  0
    3.1353   -4.8149   -6.4751 C   0  0  0  0  0  0  0  0  0  0  0  0
    3.9979   -5.5849   -6.5725 N   0  0  0  0  0  0  0  0  0  0  0  0
    1.8343   -2.8527   -5.5790 C   0  0  0  0  0  0  0  0  0  0  0  0
    2.6198   -2.5859   -4.5085 N   0  0  0  0  0  0  0  0  0  0  0  0
    3.6562   -3.4322   -4.0262 C   0  0  0  0  0  0  0  0  0  0  0  0
    3.3251   -4.5758   -3.2947 C   0  0  0  0  0  0  0  0  0  0  0  0
    4.3543   -5.3941   -2.8456 C   0  0  0  0  0  0  0  0  0  0  0  0
    3.9254   -6.9693   -1.8731 Br  0  0  0  0  0  0  0  0  0  0  0  0
    5.6916   -5.0930   -3.0934 C   0  0  0  0  0  0  0  0  0  0  0  0
    6.0011   -3.9346   -3.8022 C   0  0  0  0  0  0  0  0  0  0  0  0
    4.9884   -3.1014   -4.2675 C   0  0  0  0  0  0  0  0  0  0  0  0
    0.9686    1.6664   -3.7290 O   0  0  0  0  0  0  0  0  0  0  0  0
   -1.7369   -2.2306   -1.2437 N   0  0  0  0  0  0  0  0  0  0  0  0
   -2.8476   -1.6195   -1.7072 C   0  0  0  0  0  0  0  0  0  0  0  0
   -3.9235   -1.3433   -0.6788 C   0  0  0  0  0  0  0  0  0  0  0  0
   -2.9774   -1.2626   -2.8730 O   0  0  0  0  0  0  0  0  0  0  0  0
   -0.4734   -1.5006   -2.6890 H   0  0  0  0  0  0  0  0  0  0  0  0
   -1.4673   -3.5742   -3.8831 N   0  0  0  0  0  0  0  0  0  0  0  0
   -1.6074   -4.6486   -4.8342 C   0  0  0  0  0  0  0  0  0  0  0  0
    0.4045   -2.2371   -0.0442 H   0  0  0  0  0  0  0  0  0  0  0  0
    1.2352   -3.3132   -1.1653 H   0  0  0  0  0  0  0  0  0  0  0  0
    1.3417    0.2302    0.9465 H   0  0  0  0  0  0  0  0  0  0  0  0
   -0.3731   -0.1149    0.5723 H   0  0  0  0  0  0  0  0  0  0  0  0
   -1.3166    3.1706    1.5487 H   0  0  0  0  0  0  0  0  0  0  0  0
   -1.9404    1.5487    1.1119 H   0  0  0  0  0  0  0  0  0  0  0  0
   -1.3156    2.6310   -0.1667 H   0  0  0  0  0  0  0  0  0  0  0  0
   -2.0076    0.6429   -3.7960 H   0  0  0  0  0  0  0  0  0  0  0  0
   -2.6593   -0.0553   -6.1811 H   0  0  0  0  0  0  0  0  0  0  0  0
   -2.1500   -1.9618   -7.7122 H   0  0  0  0  0  0  0  0  0  0  0  0
    1.1482   -0.5394   -4.2933 H   0  0  0  0  0  0  0  0  0  0  0  0
    1.2389   -4.9653   -8.2018 H   0  0  0  0  0  0  0  0  0  0  0  0
    2.3017   -1.8922   -3.8204 H   0  0  0  0  0  0  0  0  0  0  0  0
    2.2735   -4.8058   -3.1016 H   0  0  0  0  0  0  0  0  0  0  0  0
    6.4805   -5.7562   -2.7362 H   0  0  0  0  0  0  0  0  0  0  0  0
    7.0460   -3.6869   -3.9990 H   0  0  0  0  0  0  0  0  0  0  0  0
    5.2145   -2.1975   -4.8348 H   0  0  0  0  0  0  0  0  0  0  0  0
   -1.7070   -2.5130   -0.2732 H   0  0  0  0  0  0  0  0  0  0  0  0
   -4.9064   -1.4492   -1.1540 H   0  0  0  0  0  0  0  0  0  0  0  0
   -3.8166   -0.2996   -0.3454 H   0  0  0  0  0  0  0  0  0  0  0  0
   -3.8627   -1.9988    0.2011 H   0  0  0  0  0  0  0  0  0  0  0  0
   -2.0135   -2.7196   -3.9816 H   0  0  0  0  0  0  0  0  0  0  0  0
   -2.1784   -4.2930   -5.7001 H   0  0  0  0  0  0  0  0  0  0  0  0
   -2.1177   -5.5220   -4.3944 H   0  0  0  0  0  0  0  0  0  0  0  0
   -0.6175   -4.9782   -5.1829 H   0  0  0  0  0  0  0  0  0  0  0  0
   -1.3182    0.4761   -1.6619 H   0  0  0  0  0  0  0  0  0  0  0  0
    1.5873    1.4401   -1.2524 H   0  0  0  0  0  0  0  0  0  0  0  0
  2  1  2  0  0  0  0
  2  3  1  0  0  0  0
  3 38  1  6  0  0  0
  3 34  1  0  0  0  0
  3  4  1  0  0  0  0
  4 41  1  0  0  0  0
  5  4  1  0  0  0  0
  6  7  1  0  0  0  0
  7 44  1  0  0  0  0
  7 43  1  0  0  0  0
  7  8  1  0  0  0  0
  9  8  1  0  0  0  0
  9 46  1  0  0  0  0
  9 45  1  0  0  0  0
 10 66  1  0  0  0  0
 10  6  1  0  0  0  0
 11 10  1  0  0  0  0
 12 48  1  0  0  0  0
 12 11  1  0  0  0  0
 13 16  1  0  0  0  0
 13 12  1  0  0  0  0
 14 13  2  0  0  0  0
 15 18  2  0  0  0  0
 15 14  1  0  0  0  0
 16 51  1  0  0  0  0
 17 24  1  0  0  0  0
 17 16  2  0  0  0  0
 18 17  1  0  0  0  0
 19 20  2  0  0  0  0
 19 18  1  0  0  0  0
 20 21  1  0  0  0  0
 21 22  1  0  0  0  0
 21 24  2  0  0  0  0
 23 22  3  0  0  0  0
 24 25  1  0  0  0  0
 25 26  1  0  0  0  0
 25 53  1  0  0  0  0
 26 27  1  0  0  0  0
 27 54  1  0  0  0  0
 27 28  2  0  0  0  0
 28 29  1  0  0  0  0
 30 28  1  0  0  0  0
 30 55  1  0  0  0  0
 31 30  2  0  0  0  0
 32 26  2  0  0  0  0
 32 31  1  0  0  0  0
 33 11  2  0  0  0  0
 34 58  1  0  0  0  0
 35 34  1  0  0  0  0
 35 36  1  0  0  0  0
 36 60  1  0  0  0  0
 36 61  1  0  0  0  0
 37 35  2  0  0  0  0
 39  2  1  0  0  0  0
 40 64  1  0  0  0  0
 40 39  1  0  0  0  0
 42  4  1  0  0  0  0
 47  9  1  0  0  0  0
 49 14  1  0  0  0  0
 50 15  1  0  0  0  0
 52 20  1  0  0  0  0
 56 31  1  0  0  0  0
 57 32  1  0  0  0  0
 59 36  1  0  0  0  0
 62 39  1  0  0  0  0
 63 40  1  0  0  0  0
 65 40  1  0  0  0  0
 67  6  1  0  0  0  0
M  END
