-1 1
 OpenBabel05192410563D

 67 69  0  0  1  0  0  0  0  0999 V2000
   -0.7365   -2.1077    0.4919 O   0  0  0  0  0  0  0  0  0  0  0  0
   -1.4884   -1.1585    0.3263 C   0  0  0  0  0  0  0  0  0  0  0  0
   -1.3375    0.1736    1.0956 C   0  0  2  0  0  0  0  0  0  0  0  0
   -0.0148    0.2540    1.8667 C   0  0  0  0  0  0  0  0  0  0  0  0
    0.9795    1.7621    1.6556 S   0  0  0  0  0  0  0  0  0  0  0  0
   -0.1740    3.2156    2.1600 C   0  0  2  0  0  0  0  0  0  0  0  0
   -0.5578    3.0329    3.6291 C   0  0  0  0  0  0  0  0  0  0  0  0
   -0.9173    4.2189    4.2903 O   0  0  0  0  0  0  0  0  0  0  0  0
   -2.1923    4.7151    4.0168 C   0  0  0  0  0  0  0  0  0  0  0  0
   -1.2917    3.4354    1.2252 C   0  0  0  0  0  3  0  0  0  0  0  0
   -1.0129    3.8915   -0.0595 C   0  0  0  0  0  0  0  0  0  0  0  0
   -2.0796    3.6720   -1.0540 N   0  0  0  0  0  0  0  0  0  0  0  0
   -1.9079    2.5652   -1.8599 C   0  0  0  0  0  0  0  0  0  0  0  0
   -2.9690    2.0713   -2.6719 C   0  0  0  0  0  0  0  0  0  0  0  0
   -2.8083    0.9477   -3.4457 C   0  0  0  0  0  0  0  0  0  0  0  0
   -0.7068    1.8609   -1.8722 C   0  0  0  0  0  0  0  0  0  0  0  0
   -0.5544    0.6664   -2.5968 C   0  0  0  0  0  0  0  0  0  0  0  0
   -1.5990    0.2075   -3.4388 C   0  0  0  0  0  0  0  0  0  0  0  0
   -1.5087   -0.9222   -4.2051 N   0  0  0  0  0  0  0  0  0  0  0  0
   -0.3995   -1.5967   -4.1394 C   0  0  0  0  0  0  0  0  0  0  0  0
    0.7028   -1.2833   -3.2833 C   0  0  0  0  0  0  0  0  0  0  0  0
    1.8627   -2.1110   -3.3986 C   0  0  0  0  0  0  0  0  0  0  0  0
    2.7790   -2.8027   -3.5630 N   0  0  0  0  0  0  0  0  0  0  0  0
    0.6133   -0.1709   -2.4356 C   0  0  0  0  0  0  0  0  0  0  0  0
    1.5287    0.1817   -1.4893 N   0  0  0  0  0  0  0  0  0  0  0  0
    2.4775   -0.6207   -0.8237 C   0  0  0  0  0  0  0  0  0  0  0  0
    2.1988   -1.9426   -0.4611 C   0  0  0  0  0  0  0  0  0  0  0  0
    3.1555   -2.6591    0.2461 C   0  0  0  0  0  0  0  0  0  0  0  0
    2.7777   -4.4567    0.7254 Br  0  0  0  0  0  0  0  0  0  0  0  0
    4.3691   -2.0930    0.6289 C   0  0  0  0  0  0  0  0  0  0  0  0
    4.6171   -0.7644    0.2893 C   0  0  0  0  0  0  0  0  0  0  0  0
    3.6853   -0.0310   -0.4369 C   0  0  0  0  0  0  0  0  0  0  0  0
    0.0649    4.3291   -0.4853 O   0  0  0  0  0  0  0  0  0  0  0  0
   -2.4695    0.3700    1.9940 N   0  0  0  0  0  0  0  0  0  0  0  0
   -3.6424    0.9328    1.6235 C   0  0  0  0  0  0  0  0  0  0  0  0
   -4.5735    1.3015    2.7585 C   0  0  0  0  0  0  0  0  0  0  0  0
   -3.9297    1.1764    0.4595 O   0  0  0  0  0  0  0  0  0  0  0  0
   -1.3815    0.9858    0.3552 H   0  0  0  0  0  0  0  0  0  0  0  0
   -2.5254   -1.1581   -0.5360 N   0  0  0  0  0  0  0  0  0  0  0  0
   -2.8797   -2.2998   -1.3406 C   0  0  0  0  0  0  0  0  0  0  0  0
   -0.1854    0.0538    2.9378 H   0  0  0  0  0  0  0  0  0  0  0  0
    0.6390   -0.5582    1.5176 H   0  0  0  0  0  0  0  0  0  0  0  0
    0.2996    2.6266    4.1862 H   0  0  0  0  0  0  0  0  0  0  0  0
   -1.3882    2.2965    3.6991 H   0  0  0  0  0  0  0  0  0  0  0  0
   -2.3626    5.5729    4.6849 H   0  0  0  0  0  0  0  0  0  0  0  0
   -2.9758    3.9549    4.2266 H   0  0  0  0  0  0  0  0  0  0  0  0
   -2.3047    5.0341    2.9671 H   0  0  0  0  0  0  0  0  0  0  0  0
   -3.0222    3.7372   -0.6841 H   0  0  0  0  0  0  0  0  0  0  0  0
   -3.9231    2.6042   -2.6718 H   0  0  0  0  0  0  0  0  0  0  0  0
   -3.6161    0.5806   -4.0821 H   0  0  0  0  0  0  0  0  0  0  0  0
    0.1040    2.2841   -1.2805 H   0  0  0  0  0  0  0  0  0  0  0  0
   -0.3066   -2.4853   -4.7753 H   0  0  0  0  0  0  0  0  0  0  0  0
    1.3548    1.0645   -1.0113 H   0  0  0  0  0  0  0  0  0  0  0  0
    1.2277   -2.3839   -0.6852 H   0  0  0  0  0  0  0  0  0  0  0  0
    5.1017   -2.6771    1.1868 H   0  0  0  0  0  0  0  0  0  0  0  0
    5.5566   -0.2968    0.5908 H   0  0  0  0  0  0  0  0  0  0  0  0
    3.8797    1.0082   -0.7071 H   0  0  0  0  0  0  0  0  0  0  0  0
   -2.3152    0.1769    2.9745 H   0  0  0  0  0  0  0  0  0  0  0  0
   -5.6110    1.2005    2.4178 H   0  0  0  0  0  0  0  0  0  0  0  0
   -4.3952    2.3579    3.0124 H   0  0  0  0  0  0  0  0  0  0  0  0
   -4.4160    0.6968    3.6627 H   0  0  0  0  0  0  0  0  0  0  0  0
   -3.0719   -0.2993   -0.6088 H   0  0  0  0  0  0  0  0  0  0  0  0
   -2.9216   -2.0296   -2.4061 H   0  0  0  0  0  0  0  0  0  0  0  0
   -3.8549   -2.7173   -1.0385 H   0  0  0  0  0  0  0  0  0  0  0  0
   -2.1105   -3.0698   -1.2021 H   0  0  0  0  0  0  0  0  0  0  0  0
   -2.2503    2.9598    1.4300 H   0  0  0  0  0  0  0  0  0  0  0  0
    0.5703    4.0245    2.0889 H   0  0  0  0  0  0  0  0  0  0  0  0
  2  1  2  0  0  0  0
  2  3  1  0  0  0  0
  3 38  1  6  0  0  0
  3  4  1  0  0  0  0
  3 34  1  0  0  0  0
  4 41  1  0  0  0  0
  5  4  1  0  0  0  0
  5  6  1  0  0  0  0
  6 67  1  6  0  0  0
  6  7  1  0  0  0  0
  7 44  1  0  0  0  0
  7 43  1  0  0  0  0
  7  8  1  0  0  0  0
  9 46  1  0  0  0  0
  9  8  1  0  0  0  0
  9 45  1  0  0  0  0
 10 66  1  0  0  0  0
 10  6  1  0  0  0  0
 11 10  1  0  0  0  0
 12 48  1  0  0  0  0
 12 11  1  0  0  0  0
 13 12  1  0  0  0  0
 14 49  1  0  0  0  0
 14 13  2  0  0  0  0
 15 18  2  0  0  0  0
 15 14  1  0  0  0  0
 16 13  1  0  0  0  0
 16 51  1  0  0  0  0
 17 24  1  0  0  0  0
 17 16  2  0  0  0  0
 18 17  1  0  0  0  0
 19 20  2  0  0  0  0
 19 18  1  0  0  0  0
 20 21  1  0  0  0  0
 21 24  2  0  0  0  0
 22 21  1  0  0  0  0
 23 22  3  0  0  0  0
 24 25  1  0  0  0  0
 25 53  1  0  0  0  0
 25 26  1  0  0  0  0
 26 27  2  0  0  0  0
 26 32  1  0  0  0  0
 27 28  1  0  0  0  0
 28 30  2  0  0  0  0
 28 29  1  0  0  0  0
 30 55  1  0  0  0  0
 31 56  1  0  0  0  0
 31 30  1  0  0  0  0
 32 31  2  0  0  0  0
 33 11  2  0  0  0  0
 34 58  1  0  0  0  0
 35 34  1  0  0  0  0
 35 36  1  0  0  0  0
 36 60  1  0  0  0  0
 36 61  1  0  0  0  0
 37 35  2  0  0  0  0
 39  2  1  0  0  0  0
 40 65  1  0  0  0  0
 40 64  1  0  0  0  0
 40 39  1  0  0  0  0
 42  4  1  0  0  0  0
 47  9  1  0  0  0  0
 50 15  1  0  0  0  0
 52 20  1  0  0  0  0
 54 27  1  0  0  0  0
 57 32  1  0  0  0  0
 59 36  1  0  0  0  0
 62 39  1  0  0  0  0
 63 40  1  0  0  0  0
M  END
