82
-1 1
O         2.498964   -5.307798    1.120882
C         2.206920   -4.972750    2.247693
C         0.901727   -5.402133    2.929897
C        -0.183763   -4.319517    2.824271
S        -0.921951   -4.030102    1.206595
C        -2.155988   -1.992926    2.136548
C        -2.092419   -1.169877    0.871170
N        -3.098783   -0.121055    0.818270
C        -4.488185   -0.531671    0.716149
C        -5.255735    0.749958    1.021175
C        -4.401028    1.369908    2.129558
C        -2.963669    1.024506    1.711938
C        -2.266246    2.160553    0.973850
O        -2.033137    3.226969    1.854576
C        -1.410643    4.315666    1.258933
C        -1.541339   -1.602713    3.306531
C        -1.833977   -2.323245    4.520671
N        -0.863170   -2.181438    5.540360
C        -0.565416   -3.110840    6.521097
C         0.601936   -2.906847    7.311390
C         0.954527   -3.795805    8.292979
C        -1.325784   -4.252466    6.748590
C        -0.952105   -5.201208    7.729131
C         0.189337   -4.962925    8.545142
N         0.597249   -5.781316    9.558947
C        -0.118005   -6.840498    9.795795
C        -1.268620   -7.209074    9.044037
C        -1.965973   -8.416160    9.359090
N        -2.554075   -9.387888    9.595342
C        -1.704030   -6.411255    7.974399
N        -2.812564   -6.774522    7.262353
C        -3.024523   -6.553803    5.866107
C        -4.174875   -5.886649    5.447476
C        -4.352765   -5.634866    4.089921
Br        -5.873957   -4.655708    3.530045
C        -3.414745   -6.039261    3.146018
C        -2.289323   -6.737847    3.578378
C        -2.089871   -7.001420    4.929789
O        -2.798778   -3.060488    4.692780
N         1.102779   -5.675494    4.350046
C         1.878392   -6.709983    4.787541
C         1.843849   -6.949343    6.286086
O         2.559710   -7.376785    4.033930
H         0.592472   -6.319691    2.406621
N         2.973443   -4.130641    3.004992
C         4.244449   -3.635342    2.556667
H        -0.978425   -4.604292    3.531989
H         0.245715   -3.375413    3.204111
H        -2.226873   -1.821948   -0.003677
H        -1.093048   -0.717064    0.770407
H        -4.764525   -1.316182    1.451351
H        -4.704179   -0.938714   -0.286732
H        -6.296596    0.565050    1.324514
H        -5.273115    1.402284    0.132498
H        -4.629353    0.880011    3.088854
H        -4.544668    2.451993    2.262796
H        -2.360114    0.781328    2.603706
H        -2.893862    2.487184    0.117478
H        -1.312050    1.787146    0.548898
H        -1.270377    5.093414    2.023479
H        -2.015792    4.742142    0.432441
H        -0.417349    4.052070    0.841652
H        -0.122276   -1.525658    5.330921
H         1.214782   -2.017683    7.137477
H         1.837233   -3.635534    8.914102
H        -2.221579   -4.371601    6.150828
H         0.197012   -7.497283   10.615146
H        -3.311714   -7.575024    7.638941
H        -4.885917   -5.517232    6.186626
H        -3.516607   -5.777983    2.092012
H        -1.545331   -7.042811    2.840563
H        -1.196034   -7.530302    5.266639
H         0.446045   -5.251238    4.999113
H         2.095981   -6.033281    6.839221
H         2.561223   -7.740044    6.531989
H         0.839658   -7.258070    6.616421
H         2.700532   -4.015315    3.971583
H         4.351086   -3.920909    1.501827
H         5.085248   -4.072590    3.122483
H         4.302104   -2.537115    2.633261
H        -0.662762   -0.948434    3.270659
H        -3.025823   -2.643067    2.251370
