68
-1 1
O        -1.190217    0.817806   -2.271496
C        -0.847029    1.675657   -1.471993
C         0.632989    1.960567   -1.156162
C         1.011227    3.409244   -1.495439
S         2.568866    3.972694   -0.783481
C         1.998138    4.557008    1.021792
O         2.311260    5.918043    1.137775
C         3.642743    6.283792    1.016738
O         4.472246    5.725538    1.990216
C         5.332588    4.705161    1.558860
C         0.596580    4.322513    1.361229
C         0.238044    3.098902    1.930644
N        -1.107574    3.018525    2.433119
C        -1.925890    1.911291    2.423197
C        -3.239336    2.041165    2.957136
C        -4.152840    1.022693    2.860043
C        -1.569920    0.693579    1.843077
C        -2.515858   -0.343382    1.695427
C        -3.832309   -0.192959    2.210193
N        -4.815199   -1.138178    2.095565
C        -4.513188   -2.228107    1.458687
C        -3.245261   -2.503701    0.861462
C        -3.099048   -3.791889    0.255033
N        -3.065090   -4.861943   -0.192141
C        -2.214793   -1.552747    0.951504
N        -0.991757   -1.711206    0.392181
C        -0.695894   -2.563121   -0.701002
C         0.267350   -3.561311   -0.547016
C         0.580823   -4.367313   -1.633868
Br         1.901424   -5.719598   -1.434770
C        -0.047062   -4.205436   -2.867031
C        -0.992245   -3.191041   -3.008121
C        -1.310060   -2.360052   -1.938006
O         0.947046    2.078674    1.998322
N         1.470228    1.014704   -1.845455
C         1.727511   -0.213613   -1.338415
C         2.400609   -1.184861   -2.282540
O         1.420883   -0.542692   -0.201773
H         0.793084    1.803013   -0.074816
N        -1.719623    2.465207   -0.803101
C        -3.145488    2.267657   -0.867485
H         1.084433    3.539712   -2.588030
H         0.225029    4.085013   -1.136724
H         3.650672    7.376637    1.149035
H         4.023527    6.035615    0.004486
H         5.843789    4.310089    2.447509
H         6.100367    5.084137    0.856701
H         4.798098    3.873555    1.066933
H        -1.539993    3.894430    2.691869
H        -3.521095    2.980560    3.442198
H        -5.162339    1.123579    3.262534
H        -0.542515    0.596375    1.493493
H        -5.290447   -2.997264    1.370505
H        -0.255644   -1.018494    0.553413
H         0.755951   -3.688452    0.418419
H         0.206583   -4.855790   -3.705198
H        -1.476509   -3.037425   -3.974500
H        -2.003970   -1.526872   -2.056061
H         1.595435    1.144181   -2.840797
H         3.031834   -1.867369   -1.700656
H         3.002063   -0.684149   -3.054314
H         1.616918   -1.782839   -2.774080
H        -1.342426    3.046406   -0.058364
H        -3.666712    3.235996   -0.845768
H        -3.512257    1.650155   -0.030534
H        -3.382145    1.753116   -1.807203
H        -0.100106    5.160273    1.281759
H         2.653969    3.930195    1.641985
