68
-1 1
O        -0.686124    0.881866   -3.086545
C        -0.834806    1.494020   -2.042864
C         0.228629    2.405791   -1.438224
C         0.294364    3.735912   -2.223225
S         1.731220    4.768379   -1.767839
C         2.257886    4.570681    1.894331
O         2.898309    5.711642    2.128223
C         3.536570    6.337413    1.012630
O         4.842407    5.940423    0.858596
C         5.029746    4.681460    0.250936
C         1.557312    3.930530    2.851226
C         0.857091    2.694787    2.470216
N        -0.288319    2.439714    3.206412
C        -1.317321    1.533016    2.925855
C        -2.488625    1.659591    3.719700
C        -3.571815    0.849903    3.512155
C        -1.270657    0.558822    1.936561
C        -2.397617   -0.274573    1.698239
C        -3.565718   -0.133835    2.493088
N        -4.696289   -0.886915    2.345660
C        -4.694494   -1.763444    1.386143
C        -3.608187   -2.005237    0.498532
C        -3.879614   -2.905262   -0.580049
N        -4.205641   -3.623156   -1.430608
C        -2.403964   -1.288250    0.654082
N        -1.312537   -1.462267   -0.115518
C        -1.018361   -2.564701   -0.945533
C        -1.081257   -3.867822   -0.441232
C        -0.767123   -4.931118   -1.277854
Br        -0.898407   -6.703401   -0.602927
C        -0.359255   -4.728759   -2.593204
C        -0.268645   -3.420622   -3.067246
C        -0.597130   -2.336774   -2.259190
O         1.213311    1.969104    1.560410
N         1.533927    1.801112   -1.462843
C         1.830822    0.635742   -0.886859
C         3.300992    0.347984   -0.696780
O         0.987105   -0.173673   -0.495450
H        -0.034125    2.624535   -0.388126
N        -2.006929    1.474268   -1.354247
C        -3.157661    0.748956   -1.833116
H         0.333273    3.487560   -3.295906
H        -0.650251    4.272098   -2.042734
H         3.550912    7.406185    1.259447
H         2.926245    6.141761    0.110481
H         4.858090    3.855086    0.964440
H         6.074197    4.634362   -0.086143
H         4.355551    4.543234   -0.613942
H        -0.519305    3.140223    3.897932
H        -2.521841    2.420375    4.505213
H        -4.477231    0.939572    4.114109
H        -0.355632    0.456529    1.352947
H        -5.606812   -2.354586    1.240177
H        -0.567031   -0.745835   -0.144952
H        -1.387336   -4.041304    0.591371
H        -0.119006   -5.577293   -3.234952
H         0.052590   -3.242694   -4.095545
H        -0.540098   -1.312995   -2.638803
H         2.261858    2.512417   -1.612455
H         3.545126    0.606973    0.344700
H         3.940122    0.934996   -1.370029
H         3.482112   -0.724678   -0.839951
H        -2.051129    1.941620   -0.458960
H        -3.603141    1.230136   -2.719235
H        -3.911762    0.700896   -1.036654
H        -2.881941   -0.278530   -2.113936
H         1.442931    4.367998    3.846573
H         2.270897    4.190283    0.859274
