-1 1
 OpenBabel05192410563D

 78 80  0  0  1  0  0  0  0  0999 V2000
    3.0016    2.7043   -0.2074 C   0  0  0  0  0  0  0  0  0  0  0  0
    2.0500    3.0656    0.9227 C   0  0  0  0  0  0  0  0  0  0  0  0
    0.8051    2.4162    0.8080 O   0  0  0  0  0  0  0  0  0  0  0  0
    0.7790    1.0557    1.1472 C   0  0  0  0  0  0  0  0  0  0  0  0
    1.7712    0.5816    1.7505 O   0  0  0  0  0  0  0  0  0  0  0  0
   -0.3714    0.3996    0.7532 C   0  0  0  0  0  3  0  0  0  0  0  0
   -0.4259   -1.0810    0.7980 C   0  0  1  0  0  0  0  0  0  0  0  0
   -1.4724   -1.8642    2.1428 S   0  0  0  0  0  0  0  0  0  0  0  0
   -0.2115   -2.4148    3.3321 C   0  0  0  0  0  0  0  0  0  0  0  0
   -0.0104   -1.4881    4.5247 C   0  0  2  0  0  0  0  0  0  0  0  0
    0.4944   -0.1859    4.1372 N   0  0  0  0  0  0  0  0  0  0  0  0
    0.1852    0.9171    4.8481 C   0  0  0  0  0  0  0  0  0  0  0  0
    0.5924    2.2316    4.2272 C   0  0  0  0  0  0  0  0  0  0  0  0
   -0.3931    0.8684    5.9367 O   0  0  0  0  0  0  0  0  0  0  0  0
   -0.9846   -1.3174    5.0143 H   0  0  0  0  0  0  0  0  0  0  0  0
    0.9014   -2.1588    5.5758 C   0  0  0  0  0  0  0  0  0  0  0  0
    0.9242   -1.4955    6.7583 N   0  0  0  0  0  0  0  0  0  0  0  0
    1.7722   -1.8902    7.8491 C   0  0  0  0  0  0  0  0  0  0  0  0
    1.5189   -3.1875    5.3566 O   0  0  0  0  0  0  0  0  0  0  0  0
   -0.8715   -1.7266   -0.5539 C   0  0  1  0  0  0  0  0  0  0  0  0
   -1.9743   -1.7243   -0.6045 H   0  0  0  0  0  0  0  0  0  0  0  0
   -0.3890   -0.8685   -1.6267 N   0  0  0  0  0  0  0  0  0  0  0  0
   -1.1334   -0.5139   -2.7018 C   0  0  0  0  0  0  0  0  0  0  0  0
   -0.7712    0.8217   -3.2609 C   0  0  0  0  0  0  0  0  0  0  0  0
   -0.9990    1.2716   -4.5347 C   0  0  0  0  0  0  0  0  0  0  0  0
   -1.5773    0.6254   -5.7385 C   0  0  0  0  0  0  0  0  0  0  0  0
   -0.5974    2.5558   -4.6415 O   0  0  0  0  0  0  0  0  0  0  0  0
   -0.1266    2.9584   -3.4290 C   0  0  0  0  0  0  0  0  0  0  0  0
    0.3264    4.3392   -3.2826 C   0  0  0  0  0  0  0  0  0  0  0  0
    0.5710    4.8565   -1.9997 C   0  0  0  0  0  0  0  0  0  0  0  0
    1.0219    6.1628   -1.8441 C   0  0  0  0  0  0  0  0  0  0  0  0
    1.2242    6.9790   -2.9588 C   0  0  0  0  0  0  0  0  0  0  0  0
    0.9689    6.4754   -4.2336 C   0  0  0  0  0  0  0  0  0  0  0  0
    0.5241    5.1654   -4.3976 C   0  0  0  0  0  0  0  0  0  0  0  0
   -0.2011    1.9262   -2.5429 C   0  0  0  0  0  0  0  0  0  0  0  0
   -2.0375   -1.1981   -3.1656 O   0  0  0  0  0  0  0  0  0  0  0  0
   -0.3584   -3.1599   -0.6917 C   0  0  0  0  0  0  0  0  0  0  0  0
   -0.8638   -3.8991   -1.9372 C   0  0  2  0  0  0  0  0  0  0  0  0
   -0.5715   -3.3321   -2.8309 H   0  0  0  0  0  0  0  0  0  0  0  0
   -2.3661   -4.2093   -1.9237 C   0  0  0  0  0  0  0  0  0  0  0  0
   -2.4574   -5.6023   -1.2825 C   0  0  0  0  0  0  0  0  0  0  0  0
   -1.1858   -6.1900   -1.6472 N   0  0  0  0  0  0  0  0  0  0  0  0
   -0.2173   -5.2831   -1.9813 C   0  0  0  0  0  0  0  0  0  0  0  0
    0.9402   -5.5498   -2.2213 O   0  0  0  0  0  0  0  0  0  0  0  0
    3.9388    3.2768   -0.1208 H   0  0  0  0  0  0  0  0  0  0  0  0
    2.5557    2.9238   -1.1899 H   0  0  0  0  0  0  0  0  0  0  0  0
    3.2423    1.6331   -0.1545 H   0  0  0  0  0  0  0  0  0  0  0  0
    1.8229    4.1445    0.9096 H   0  0  0  0  0  0  0  0  0  0  0  0
    2.5196    2.8250    1.8890 H   0  0  0  0  0  0  0  0  0  0  0  0
   -1.2009    0.9703    0.3305 H   0  0  0  0  0  0  0  0  0  0  0  0
    0.5919   -1.4359    1.0250 H   0  0  0  0  0  0  0  0  0  0  0  0
    0.7406   -2.5765    2.8055 H   0  0  0  0  0  0  0  0  0  0  0  0
   -0.5206   -3.3983    3.7097 H   0  0  0  0  0  0  0  0  0  0  0  0
    1.0204   -0.0680    3.2502 H   0  0  0  0  0  0  0  0  0  0  0  0
    1.6235    2.1780    3.8539 H   0  0  0  0  0  0  0  0  0  0  0  0
    0.4860    3.0258    4.9752 H   0  0  0  0  0  0  0  0  0  0  0  0
   -0.0467    2.4477    3.3578 H   0  0  0  0  0  0  0  0  0  0  0  0
    0.3921   -0.6211    6.7973 H   0  0  0  0  0  0  0  0  0  0  0  0
    2.2653   -2.8318    7.5739 H   0  0  0  0  0  0  0  0  0  0  0  0
    1.1923   -2.0509    8.7730 H   0  0  0  0  0  0  0  0  0  0  0  0
    2.5487   -1.1349    8.0582 H   0  0  0  0  0  0  0  0  0  0  0  0
    0.2297   -0.1469   -1.2606 H   0  0  0  0  0  0  0  0  0  0  0  0
   -0.8245    0.5189   -6.5356 H   0  0  0  0  0  0  0  0  0  0  0  0
   -2.4096    1.2253   -6.1378 H   0  0  0  0  0  0  0  0  0  0  0  0
   -1.9560   -0.3630   -5.4517 H   0  0  0  0  0  0  0  0  0  0  0  0
    0.3974    4.2291   -1.1217 H   0  0  0  0  0  0  0  0  0  0  0  0
    1.2102    6.5488   -0.8396 H   0  0  0  0  0  0  0  0  0  0  0  0
    1.5757    8.0056   -2.8325 H   0  0  0  0  0  0  0  0  0  0  0  0
    1.1207    7.1077   -5.1119 H   0  0  0  0  0  0  0  0  0  0  0  0
    0.3289    4.7686   -5.3954 H   0  0  0  0  0  0  0  0  0  0  0  0
    0.0890    1.9579   -1.4920 H   0  0  0  0  0  0  0  0  0  0  0  0
   -0.6445   -3.7162    0.2162 H   0  0  0  0  0  0  0  0  0  0  0  0
    0.7429   -3.1347   -0.7251 H   0  0  0  0  0  0  0  0  0  0  0  0
   -2.7450   -4.2426   -2.9554 H   0  0  0  0  0  0  0  0  0  0  0  0
   -2.9605   -3.4598   -1.3874 H   0  0  0  0  0  0  0  0  0  0  0  0
   -3.3016   -6.1911   -1.6750 H   0  0  0  0  0  0  0  0  0  0  0  0
   -2.5761   -5.5355   -0.1851 H   0  0  0  0  0  0  0  0  0  0  0  0
   -0.9301   -7.1480   -1.4481 H   0  0  0  0  0  0  0  0  0  0  0  0
  1 47  1  0  0  0  0
  1 45  1  0  0  0  0
  1  2  1  0  0  0  0
  2 49  1  0  0  0  0
  3  2  1  0  0  0  0
  3  4  1  0  0  0  0
  4  5  2  0  0  0  0
  6  7  1  0  0  0  0
  6  4  1  0  0  0  0
  7 51  1  1  0  0  0
  7  8  1  0  0  0  0
  8  9  1  0  0  0  0
  9 53  1  0  0  0  0
  9 10  1  0  0  0  0
 10 15  1  1  0  0  0
 10 16  1  0  0  0  0
 11 10  1  0  0  0  0
 11 12  1  0  0  0  0
 12 14  2  0  0  0  0
 13 12  1  0  0  0  0
 13 56  1  0  0  0  0
 16 17  1  0  0  0  0
 17 58  1  0  0  0  0
 17 18  1  0  0  0  0
 18 61  1  0  0  0  0
 18 60  1  0  0  0  0
 19 16  2  0  0  0  0
 20 21  1  6  0  0  0
 20  7  1  0  0  0  0
 22 62  1  0  0  0  0
 22 20  1  0  0  0  0
 23 22  1  0  0  0  0
 24 23  1  0  0  0  0
 24 35  1  0  0  0  0
 25 24  2  0  0  0  0
 26 65  1  0  0  0  0
 26 25  1  0  0  0  0
 27 25  1  0  0  0  0
 27 28  1  0  0  0  0
 28 29  1  0  0  0  0
 28 35  2  0  0  0  0
 29 30  1  0  0  0  0
 30 31  2  0  0  0  0
 30 66  1  0  0  0  0
 31 67  1  0  0  0  0
 32 68  1  0  0  0  0
 32 31  1  0  0  0  0
 33 32  2  0  0  0  0
 34 33  1  0  0  0  0
 34 29  2  0  0  0  0
 35 71  1  0  0  0  0
 36 23  2  0  0  0  0
 37 20  1  0  0  0  0
 37 72  1  0  0  0  0
 38 39  1  6  0  0  0
 38 40  1  0  0  0  0
 38 37  1  0  0  0  0
 40 75  1  0  0  0  0
 40 41  1  0  0  0  0
 41 77  1  0  0  0  0
 42 78  1  0  0  0  0
 42 41  1  0  0  0  0
 43 38  1  0  0  0  0
 43 42  1  0  0  0  0
 44 43  2  0  0  0  0
 46  1  1  0  0  0  0
 48  2  1  0  0  0  0
 50  6  1  0  0  0  0
 52  9  1  0  0  0  0
 54 11  1  0  0  0  0
 55 13  1  0  0  0  0
 57 13  1  0  0  0  0
 59 18  1  0  0  0  0
 63 26  1  0  0  0  0
 64 26  1  0  0  0  0
 69 33  1  0  0  0  0
 70 34  1  0  0  0  0
 73 37  1  0  0  0  0
 74 40  1  0  0  0  0
 76 41  1  0  0  0  0
M  END
