78
-1 1
C         9.863384    2.795835   -3.614286
C         8.362104    2.619060   -3.464672
O         7.801835    1.855930   -4.516355
C         7.920353    0.504542   -4.445825
O         8.512203   -0.027331   -3.514680
C         7.294996   -0.157213   -5.558808
C         7.362704   -1.519462   -5.674583
S         5.828310   -2.868912   -4.036359
C         7.179207   -3.842698   -3.308920
C         7.429911   -3.583300   -1.826077
N         7.730736   -2.179820   -1.583084
C         7.458284   -1.572304   -0.414731
C         7.554247   -0.062696   -0.423511
O         7.133501   -2.181625    0.606503
H         6.516515   -3.823907   -1.255008
C         8.558598   -4.491519   -1.286819
N         8.660617   -4.475266    0.067324
C         9.699403   -5.176451    0.768967
O         9.271159   -5.167720   -2.009737
C         6.868008   -2.237779   -6.918128
H         5.776840   -2.334350   -6.854000
N         7.122609   -1.420129   -8.099969
C         6.243074   -1.254054   -9.113987
C         6.640650   -0.212366  -10.107218
C         6.178872   -0.121474  -11.394687
C         5.231685   -0.941645  -12.188541
O         6.742715    0.942288  -12.003309
C         7.565552    1.563933  -11.119334
C         8.265279    2.762839  -11.577829
C         9.113377    3.469372  -10.710876
C         9.780701    4.609063  -11.146786
C         9.615501    5.066524  -12.454889
C         8.774392    4.371262  -13.322365
C         8.103866    3.229706  -12.890629
C         7.540981    0.890749   -9.932382
O         5.206902   -1.894095   -9.224581
C         7.491353   -3.630252   -7.043642
C         6.713818   -4.576610   -7.965996
H         6.617497   -4.126972   -8.963600
C         5.361300   -5.003670   -7.379975
C         5.696852   -6.258981   -6.563520
N         6.839155   -6.796265   -7.279290
C         7.489161   -5.890381   -8.066155
O         8.515460   -6.092717   -8.681515
H        10.249970    3.460222   -2.825998
H        10.105683    3.239319   -4.591985
H        10.368564    1.824000   -3.530353
H         7.849252    3.591186   -3.511825
H         8.125894    2.151789   -2.496537
H         6.688618    0.450389   -6.233195
H         8.104953   -2.036690   -5.063606
H         8.131230   -3.656482   -3.842960
H         6.995861   -4.921568   -3.423238
H         7.930737   -1.592165   -2.397373
H         8.241458    0.296071   -1.199863
H         7.861325    0.280396    0.572526
H         6.554300    0.344704   -0.638801
H         8.062041   -3.803177    0.556673
H        10.249169   -5.787345    0.040746
H         9.285096   -5.839280    1.546902
H        10.409904   -4.483940    1.252870
H         7.977194   -0.879967   -8.102365
H         5.739233   -1.410482  -13.046005
H         4.414394   -0.316094  -12.578988
H         4.810259   -1.714533  -11.535544
H         9.250724    3.124168   -9.684159
H        10.436101    5.145753  -10.457191
H        10.140596    5.961738  -12.795178
H         8.637337    4.720562  -14.348459
H         7.445776    2.686553  -13.570388
H         8.073816    1.165665   -9.024407
H         7.537484   -4.071978   -6.037350
H         8.527129   -3.533521   -7.409003
H         4.663352   -5.253024   -8.193307
H         4.897548   -4.235141   -6.748215
H         4.864523   -6.979224   -6.537418
H         5.949209   -5.992495   -5.521613
H         7.289496   -7.670502   -7.042717
