-1 1
 OpenBabel05232414493D

 78 79  0  0  1  0  0  0  0  0999 V2000
    9.8634    2.7958   -3.6143 C   0  0  0  0  0  0  0  0  0  0  0  0
    8.3621    2.6191   -3.4647 C   0  0  0  0  0  0  0  0  0  0  0  0
    7.8018    1.8559   -4.5164 O   0  0  0  0  0  0  0  0  0  0  0  0
    7.9204    0.5045   -4.4458 C   0  0  0  0  0  0  0  0  0  0  0  0
    8.5122   -0.0273   -3.5147 O   0  0  0  0  0  0  0  0  0  0  0  0
    7.2950   -0.1572   -5.5588 C   0  0  0  0  0  3  0  0  0  0  0  0
    7.3627   -1.5195   -5.6746 C   0  0  0  0  0  3  0  0  0  0  0  0
    5.8283   -2.8689   -4.0364 S   0  0  0  0  0  1  0  0  0  0  0  0
    7.1792   -3.8427   -3.3089 C   0  0  0  0  0  0  0  0  0  0  0  0
    7.4299   -3.5833   -1.8261 C   0  0  2  0  0  0  0  0  0  0  0  0
    7.7307   -2.1798   -1.5831 N   0  0  0  0  0  0  0  0  0  0  0  0
    7.4583   -1.5723   -0.4147 C   0  0  0  0  0  0  0  0  0  0  0  0
    7.5542   -0.0627   -0.4235 C   0  0  0  0  0  0  0  0  0  0  0  0
    7.1335   -2.1816    0.6065 O   0  0  0  0  0  0  0  0  0  0  0  0
    6.5165   -3.8239   -1.2550 H   0  0  0  0  0  0  0  0  0  0  0  0
    8.5586   -4.4915   -1.2868 C   0  0  0  0  0  0  0  0  0  0  0  0
    8.6606   -4.4753    0.0673 N   0  0  0  0  0  0  0  0  0  0  0  0
    9.6994   -5.1765    0.7690 C   0  0  0  0  0  0  0  0  0  0  0  0
    9.2712   -5.1677   -2.0097 O   0  0  0  0  0  0  0  0  0  0  0  0
    6.8680   -2.2378   -6.9181 C   0  0  1  0  0  0  0  0  0  0  0  0
    5.7768   -2.3344   -6.8540 H   0  0  0  0  0  0  0  0  0  0  0  0
    7.1226   -1.4201   -8.1000 N   0  0  0  0  0  0  0  0  0  0  0  0
    6.2431   -1.2541   -9.1140 C   0  0  0  0  0  0  0  0  0  0  0  0
    6.6406   -0.2124  -10.1072 C   0  0  0  0  0  0  0  0  0  0  0  0
    6.1789   -0.1215  -11.3947 C   0  0  0  0  0  0  0  0  0  0  0  0
    5.2317   -0.9416  -12.1885 C   0  0  0  0  0  0  0  0  0  0  0  0
    6.7427    0.9423  -12.0033 O   0  0  0  0  0  0  0  0  0  0  0  0
    7.5656    1.5639  -11.1193 C   0  0  0  0  0  0  0  0  0  0  0  0
    8.2653    2.7628  -11.5778 C   0  0  0  0  0  0  0  0  0  0  0  0
    9.1134    3.4694  -10.7109 C   0  0  0  0  0  0  0  0  0  0  0  0
    9.7807    4.6091  -11.1468 C   0  0  0  0  0  0  0  0  0  0  0  0
    9.6155    5.0665  -12.4549 C   0  0  0  0  0  0  0  0  0  0  0  0
    8.7744    4.3713  -13.3224 C   0  0  0  0  0  0  0  0  0  0  0  0
    8.1039    3.2297  -12.8906 C   0  0  0  0  0  0  0  0  0  0  0  0
    7.5410    0.8907   -9.9324 C   0  0  0  0  0  0  0  0  0  0  0  0
    5.2069   -1.8941   -9.2246 O   0  0  0  0  0  0  0  0  0  0  0  0
    7.4914   -3.6303   -7.0436 C   0  0  0  0  0  0  0  0  0  0  0  0
    6.7138   -4.5766   -7.9660 C   0  0  2  0  0  0  0  0  0  0  0  0
    6.6175   -4.1270   -8.9636 H   0  0  0  0  0  0  0  0  0  0  0  0
    5.3613   -5.0037   -7.3800 C   0  0  0  0  0  0  0  0  0  0  0  0
    5.6969   -6.2590   -6.5635 C   0  0  0  0  0  0  0  0  0  0  0  0
    6.8392   -6.7963   -7.2793 N   0  0  0  0  0  0  0  0  0  0  0  0
    7.4892   -5.8904   -8.0662 C   0  0  0  0  0  0  0  0  0  0  0  0
    8.5155   -6.0927   -8.6815 O   0  0  0  0  0  0  0  0  0  0  0  0
   10.2500    3.4602   -2.8260 H   0  0  0  0  0  0  0  0  0  0  0  0
   10.1057    3.2393   -4.5920 H   0  0  0  0  0  0  0  0  0  0  0  0
   10.3686    1.8240   -3.5304 H   0  0  0  0  0  0  0  0  0  0  0  0
    7.8493    3.5912   -3.5118 H   0  0  0  0  0  0  0  0  0  0  0  0
    8.1259    2.1518   -2.4965 H   0  0  0  0  0  0  0  0  0  0  0  0
    6.6886    0.4504   -6.2332 H   0  0  0  0  0  0  0  0  0  0  0  0
    8.1050   -2.0367   -5.0636 H   0  0  0  0  0  0  0  0  0  0  0  0
    8.1312   -3.6565   -3.8430 H   0  0  0  0  0  0  0  0  0  0  0  0
    6.9959   -4.9216   -3.4232 H   0  0  0  0  0  0  0  0  0  0  0  0
    7.9307   -1.5922   -2.3974 H   0  0  0  0  0  0  0  0  0  0  0  0
    8.2415    0.2961   -1.1999 H   0  0  0  0  0  0  0  0  0  0  0  0
    7.8613    0.2804    0.5725 H   0  0  0  0  0  0  0  0  0  0  0  0
    6.5543    0.3447   -0.6388 H   0  0  0  0  0  0  0  0  0  0  0  0
    8.0620   -3.8032    0.5567 H   0  0  0  0  0  0  0  0  0  0  0  0
   10.2492   -5.7873    0.0407 H   0  0  0  0  0  0  0  0  0  0  0  0
    9.2851   -5.8393    1.5469 H   0  0  0  0  0  0  0  0  0  0  0  0
   10.4099   -4.4839    1.2529 H   0  0  0  0  0  0  0  0  0  0  0  0
    7.9772   -0.8800   -8.1024 H   0  0  0  0  0  0  0  0  0  0  0  0
    5.7392   -1.4105  -13.0460 H   0  0  0  0  0  0  0  0  0  0  0  0
    4.4144   -0.3161  -12.5790 H   0  0  0  0  0  0  0  0  0  0  0  0
    4.8103   -1.7145  -11.5355 H   0  0  0  0  0  0  0  0  0  0  0  0
    9.2507    3.1242   -9.6842 H   0  0  0  0  0  0  0  0  0  0  0  0
   10.4361    5.1458  -10.4572 H   0  0  0  0  0  0  0  0  0  0  0  0
   10.1406    5.9617  -12.7952 H   0  0  0  0  0  0  0  0  0  0  0  0
    8.6373    4.7206  -14.3485 H   0  0  0  0  0  0  0  0  0  0  0  0
    7.4458    2.6866  -13.5704 H   0  0  0  0  0  0  0  0  0  0  0  0
    8.0738    1.1657   -9.0244 H   0  0  0  0  0  0  0  0  0  0  0  0
    7.5375   -4.0720   -6.0373 H   0  0  0  0  0  0  0  0  0  0  0  0
    8.5271   -3.5335   -7.4090 H   0  0  0  0  0  0  0  0  0  0  0  0
    4.6634   -5.2530   -8.1933 H   0  0  0  0  0  0  0  0  0  0  0  0
    4.8975   -4.2351   -6.7482 H   0  0  0  0  0  0  0  0  0  0  0  0
    4.8645   -6.9792   -6.5374 H   0  0  0  0  0  0  0  0  0  0  0  0
    5.9492   -5.9925   -5.5216 H   0  0  0  0  0  0  0  0  0  0  0  0
    7.2895   -7.6705   -7.0427 H   0  0  0  0  0  0  0  0  0  0  0  0
  1 47  1  0  0  0  0
  1  2  1  0  0  0  0
  1 45  1  0  0  0  0
  2 49  1  0  0  0  0
  3  4  1  0  0  0  0
  3  2  1  0  0  0  0
  4  5  2  0  0  0  0
  6  4  1  0  0  0  0
  7  6  1  0  0  0  0
  7 51  1  0  0  0  0
  8  9  1  0  0  0  0
  9 10  1  0  0  0  0
 10 11  1  0  0  0  0
 10 16  1  0  0  0  0
 10 15  1  1  0  0  0
 11 12  1  0  0  0  0
 12 14  2  0  0  0  0
 13 12  1  0  0  0  0
 13 56  1  0  0  0  0
 16 17  1  0  0  0  0
 17 58  1  0  0  0  0
 17 18  1  0  0  0  0
 18 61  1  0  0  0  0
 18 60  1  0  0  0  0
 19 16  2  0  0  0  0
 20 21  1  1  0  0  0
 20  7  1  0  0  0  0
 22 20  1  0  0  0  0
 23 22  1  0  0  0  0
 24 35  1  0  0  0  0
 24 23  1  0  0  0  0
 25 24  2  0  0  0  0
 26 65  1  0  0  0  0
 26 25  1  0  0  0  0
 27 25  1  0  0  0  0
 27 28  1  0  0  0  0
 28 35  2  0  0  0  0
 29 28  1  0  0  0  0
 29 30  1  0  0  0  0
 30 66  1  0  0  0  0
 31 30  2  0  0  0  0
 31 67  1  0  0  0  0
 32 31  1  0  0  0  0
 33 34  1  0  0  0  0
 33 32  2  0  0  0  0
 34 29  2  0  0  0  0
 35 71  1  0  0  0  0
 36 23  2  0  0  0  0
 37 20  1  0  0  0  0
 37 72  1  0  0  0  0
 38 39  1  6  0  0  0
 38 40  1  0  0  0  0
 38 37  1  0  0  0  0
 40 75  1  0  0  0  0
 40 41  1  0  0  0  0
 41 76  1  0  0  0  0
 41 77  1  0  0  0  0
 42 78  1  0  0  0  0
 42 41  1  0  0  0  0
 43 38  1  0  0  0  0
 43 42  1  0  0  0  0
 44 43  2  0  0  0  0
 46  1  1  0  0  0  0
 48  2  1  0  0  0  0
 50  6  1  0  0  0  0
 52  9  1  0  0  0  0
 53  9  1  0  0  0  0
 54 11  1  0  0  0  0
 55 13  1  0  0  0  0
 57 13  1  0  0  0  0
 59 18  1  0  0  0  0
 62 22  1  0  0  0  0
 63 26  1  0  0  0  0
 64 26  1  0  0  0  0
 68 32  1  0  0  0  0
 69 33  1  0  0  0  0
 70 34  1  0  0  0  0
 73 37  1  0  0  0  0
 74 40  1  0  0  0  0
M  END
