78
-1 1
C         1.560721    2.077298    4.483621
C         0.657746    3.054148    3.754560
O         0.311139    2.575725    2.458520
C        -0.649883    1.640962    2.383711
O        -1.303754    1.289198    3.337385
C        -0.773756    1.120751    1.007570
C        -1.381007   -0.045229    0.770347
S        -1.452939   -3.112688    2.843179
C         0.282459   -2.536525    2.836616
C         0.785523   -2.058358    4.200558
N        -0.166895   -1.118847    4.771768
C        -0.321252   -0.899437    6.090561
C        -1.580318   -0.144858    6.457762
O         0.485731   -1.271192    6.943399
H         0.869343   -2.918711    4.887983
C         2.177240   -1.394614    4.097827
N         2.767922   -1.197035    5.306361
C         4.007728   -0.484661    5.443451
O         2.693261   -1.077466    3.038963
C        -1.496448   -0.709803   -0.572457
H        -2.570390   -0.875932   -0.757102
N        -1.022473    0.107456   -1.671782
C        -1.838522    0.736625   -2.555059
C        -1.130521    1.543025   -3.591761
C        -1.705297    2.044544   -4.732258
C        -3.075478    1.973140   -5.296048
O        -0.782301    2.724308   -5.441904
C         0.399540    2.683761   -4.774553
C         1.536592    3.380592   -5.374543
C         2.795589    3.358027   -4.755018
C         3.876471    4.022309   -5.324851
C         3.722939    4.720233   -6.523469
C         2.476067    4.746647   -7.146236
C         1.390602    4.083959   -6.579093
C         0.240969    1.966408   -3.625056
O        -3.056093    0.653217   -2.516059
C        -0.770681   -2.060294   -0.552933
C        -1.234658   -3.015760   -1.657818
H        -1.245467   -2.496850   -2.628791
C        -2.564625   -3.698887   -1.312972
C        -2.133109   -4.928778   -0.500355
N        -0.840806   -5.237032   -1.092029
C        -0.247978   -4.184532   -1.720891
O         0.868393   -4.167087   -2.196464
H         1.902860    2.514526    5.434070
H         2.437607    1.823553    3.870733
H         1.022762    1.145295    4.702375
H         1.166210    4.011707    3.572215
H        -0.260444    3.245773    4.330804
H        -0.300681    1.702507    0.212853
H        -1.793857   -0.634220    1.604290
H         0.423520   -1.700824    2.128567
H         0.966157   -3.329990    2.498373
H        -0.970983   -0.937145    4.169331
H        -1.812303    0.620959    5.704455
H        -1.453010    0.306761    7.449144
H        -2.421429   -0.854385    6.492511
H         2.172321   -1.353439    6.125250
H         4.453558   -0.380541    4.445317
H         4.711643   -1.029524    6.093518
H         3.862655    0.525351    5.866099
H        -0.022220    0.141895   -1.816336
H        -3.069711    1.462779   -6.271728
H        -3.482770    2.984835   -5.446178
H        -3.714054    1.427358   -4.592685
H         2.932114    2.813349   -3.818663
H         4.848752    3.992795   -4.828145
H         4.573276    5.240378   -6.969810
H         2.344898    5.289512   -8.085185
H         0.415305    4.106112   -7.067332
H         1.010139    1.784135   -2.877984
H        -0.945866   -2.532894    0.431495
H         0.315231   -1.883051   -0.635836
H        -3.081895   -4.010658   -2.234216
H        -3.247361   -3.055199   -0.740704
H        -2.832534   -5.771468   -0.614602
H        -2.035831   -4.679742    0.573134
H        -0.275663   -6.023433   -0.799165
