-1 1
 OpenBabel05232413483D

 75 76  0  0  1  0  0  0  0  0999 V2000
   -4.2204    4.6205   -6.0546 C   0  0  0  0  0  0  0  0  0  0  0  0
   -3.6828    3.2237   -5.8406 C   0  0  0  0  0  0  0  0  0  0  0  0
   -3.8154    2.9109   -4.4610 O   0  0  0  0  0  0  0  0  0  0  0  0
   -3.3184    1.7287   -4.0573 C   0  0  0  0  0  0  0  0  0  0  0  0
   -2.7883    0.9527   -4.8164 O   0  0  0  0  0  0  0  0  0  0  0  0
   -3.5108    1.5434   -2.6045 C   0  0  0  0  0  0  0  0  0  0  0  0
   -2.9609    0.5024   -1.9693 C   0  0  0  0  0  0  0  0  0  0  0  0
   -0.0452    2.6474    0.2873 S   0  0  0  0  0  1  0  0  0  0  0  0
    1.4505    1.7535   -0.2563 C   0  0  0  0  0  0  0  0  0  0  0  0
    2.0271    2.2170   -1.5994 C   0  0  2  0  0  0  0  0  0  0  0  0
    0.9229    2.3829   -2.5341 N   0  0  0  0  0  0  0  0  0  0  0  0
    0.9662    3.1426   -3.6458 C   0  0  0  0  0  0  0  0  0  0  0  0
   -0.3829    3.4227   -4.2730 C   0  0  0  0  0  0  0  0  0  0  0  0
    2.0065    3.5501   -4.1624 O   0  0  0  0  0  0  0  0  0  0  0  0
    2.5367    3.1913   -1.4785 H   0  0  0  0  0  0  0  0  0  0  0  0
    3.0852    1.2034   -2.0926 C   0  0  0  0  0  0  0  0  0  0  0  0
    3.7046    1.5580   -3.2415 N   0  0  0  0  0  0  0  0  0  0  0  0
    4.6815    0.7191   -3.8800 C   0  0  0  0  0  0  0  0  0  0  0  0
    3.3598    0.1872   -1.4705 O   0  0  0  0  0  0  0  0  0  0  0  0
   -3.0936    0.1613   -0.5086 C   0  0  1  0  0  0  0  0  0  0  0  0
   -3.5637   -0.8372   -0.4844 H   0  0  0  0  0  0  0  0  0  0  0  0
   -1.7884   -0.0211    0.0803 N   0  0  0  0  0  0  0  0  0  0  0  0
   -1.3602   -1.2336    0.5011 C   0  0  0  0  0  0  0  0  0  0  0  0
    0.0122   -1.2112    1.0903 C   0  0  0  0  0  0  0  0  0  0  0  0
    0.6598   -2.3511    1.3529 C   0  0  0  0  0  0  0  0  0  0  0  0
    2.0469   -2.4150    1.8488 C   0  0  0  0  0  0  0  0  0  0  0  0
    2.4415   -3.3393    2.8274 C   0  0  0  0  0  0  0  0  0  0  0  0
    1.1711   -4.5476    3.5687 Br  0  0  0  0  0  0  0  0  0  0  0  0
    3.7495   -3.4110    3.3350 C   0  0  0  0  0  0  0  0  0  0  0  0
    4.6539   -2.5119    2.8162 C   0  0  0  0  0  0  0  0  0  0  0  0
    5.9795   -2.3796    3.0938 O   0  0  0  0  0  0  0  0  0  0  0  0
    6.3826   -1.1930    2.4295 C   0  0  0  0  0  0  0  0  0  0  0  0
    5.3970   -0.8794    1.4753 O   0  0  0  0  0  0  0  0  0  0  0  0
    4.2930   -1.5933    1.8322 C   0  0  0  0  0  0  0  0  0  0  0  0
    3.0166   -1.5231    1.3240 C   0  0  0  0  0  0  0  0  0  0  0  0
   -2.0204   -2.2642    0.4013 O   0  0  0  0  0  0  0  0  0  0  0  0
   -3.9539    1.1450    0.2898 C   0  0  0  0  0  0  0  0  0  0  0  0
   -3.9459    0.8951    1.8064 C   0  0  2  0  0  0  0  0  0  0  0  0
   -2.9731    1.2212    2.1997 H   0  0  0  0  0  0  0  0  0  0  0  0
   -4.2997   -0.5290    2.2612 C   0  0  0  0  0  0  0  0  0  0  0  0
   -5.8243   -0.5007    2.4350 C   0  0  0  0  0  0  0  0  0  0  0  0
   -6.0623    0.8827    2.7848 N   0  0  0  0  0  0  0  0  0  0  0  0
   -5.0600    1.7438    2.4240 C   0  0  0  0  0  0  0  0  0  0  0  0
   -5.1017    2.9487    2.5309 O   0  0  0  0  0  0  0  0  0  0  0  0
   -4.1394    4.8980   -7.1158 H   0  0  0  0  0  0  0  0  0  0  0  0
   -3.6511    5.3495   -5.4601 H   0  0  0  0  0  0  0  0  0  0  0  0
   -5.2772    4.6841   -5.7570 H   0  0  0  0  0  0  0  0  0  0  0  0
   -2.6236    3.1496   -6.1320 H   0  0  0  0  0  0  0  0  0  0  0  0
   -4.2316    2.4769   -6.4377 H   0  0  0  0  0  0  0  0  0  0  0  0
   -4.0978    2.3053   -2.0890 H   0  0  0  0  0  0  0  0  0  0  0  0
   -2.3542   -0.1956   -2.5572 H   0  0  0  0  0  0  0  0  0  0  0  0
    1.2290    0.6823   -0.3769 H   0  0  0  0  0  0  0  0  0  0  0  0
    2.2505    1.8210    0.4951 H   0  0  0  0  0  0  0  0  0  0  0  0
    0.0296    2.3603   -2.0205 H   0  0  0  0  0  0  0  0  0  0  0  0
   -0.7322    2.5160   -4.7898 H   0  0  0  0  0  0  0  0  0  0  0  0
   -0.2752    4.2358   -5.0008 H   0  0  0  0  0  0  0  0  0  0  0  0
   -1.1354    3.6902   -3.5164 H   0  0  0  0  0  0  0  0  0  0  0  0
    3.3389    2.3902   -3.7165 H   0  0  0  0  0  0  0  0  0  0  0  0
    5.6229    1.2644   -4.0593 H   0  0  0  0  0  0  0  0  0  0  0  0
    4.3187    0.3337   -4.8481 H   0  0  0  0  0  0  0  0  0  0  0  0
    4.8858   -0.1325   -3.2180 H   0  0  0  0  0  0  0  0  0  0  0  0
   -1.1999    0.8401    0.2004 H   0  0  0  0  0  0  0  0  0  0  0  0
    0.4632   -0.2336    1.2831 H   0  0  0  0  0  0  0  0  0  0  0  0
    0.1205   -3.2894    1.1846 H   0  0  0  0  0  0  0  0  0  0  0  0
    4.0314   -4.1340    4.0993 H   0  0  0  0  0  0  0  0  0  0  0  0
    7.3477   -1.3608    1.9291 H   0  0  0  0  0  0  0  0  0  0  0  0
    6.4692   -0.3704    3.1676 H   0  0  0  0  0  0  0  0  0  0  0  0
    2.7870   -0.8327    0.5066 H   0  0  0  0  0  0  0  0  0  0  0  0
   -4.9852    1.0973   -0.1021 H   0  0  0  0  0  0  0  0  0  0  0  0
   -3.5983    2.1746    0.1285 H   0  0  0  0  0  0  0  0  0  0  0  0
   -3.8308   -0.7158    3.2392 H   0  0  0  0  0  0  0  0  0  0  0  0
   -3.9527   -1.3234    1.5876 H   0  0  0  0  0  0  0  0  0  0  0  0
   -6.1685   -1.1850    3.2261 H   0  0  0  0  0  0  0  0  0  0  0  0
   -6.3464   -0.7825    1.5007 H   0  0  0  0  0  0  0  0  0  0  0  0
   -6.9609    1.2482    3.0702 H   0  0  0  0  0  0  0  0  0  0  0  0
  1  2  1  0  0  0  0
  1 47  1  0  0  0  0
  1 46  1  0  0  0  0
  2  3  1  0  0  0  0
  3  4  1  0  0  0  0
  4  6  1  0  0  0  0
  5  4  2  0  0  0  0
  6 50  1  0  0  0  0
  6  7  2  0  0  0  0
  7 20  1  0  0  0  0
  9  8  1  0  0  0  0
  9 53  1  0  0  0  0
 10 15  1  1  0  0  0
 10  9  1  0  0  0  0
 11 54  1  0  0  0  0
 11 10  1  0  0  0  0
 12 11  1  0  0  0  0
 13 12  1  0  0  0  0
 13 57  1  0  0  0  0
 14 12  2  0  0  0  0
 16 10  1  0  0  0  0
 16 19  2  0  0  0  0
 17 16  1  0  0  0  0
 18 17  1  0  0  0  0
 18 61  1  0  0  0  0
 20 21  1  1  0  0  0
 20 22  1  0  0  0  0
 20 37  1  0  0  0  0
 22 62  1  0  0  0  0
 22 23  1  0  0  0  0
 23 24  1  0  0  0  0
 24 63  1  0  0  0  0
 24 25  2  0  0  0  0
 25 26  1  0  0  0  0
 26 27  1  0  0  0  0
 27 29  2  0  0  0  0
 27 28  1  0  0  0  0
 29 65  1  0  0  0  0
 30 31  1  0  0  0  0
 30 29  1  0  0  0  0
 32 31  1  0  0  0  0
 32 67  1  0  0  0  0
 33 34  1  0  0  0  0
 33 32  1  0  0  0  0
 34 30  2  0  0  0  0
 35 34  1  0  0  0  0
 35 26  2  0  0  0  0
 36 23  2  0  0  0  0
 37 38  1  0  0  0  0
 38 39  1  1  0  0  0
 38 40  1  0  0  0  0
 38 43  1  0  0  0  0
 40 41  1  0  0  0  0
 40 71  1  0  0  0  0
 41 42  1  0  0  0  0
 41 73  1  0  0  0  0
 42 75  1  0  0  0  0
 43 44  2  0  0  0  0
 43 42  1  0  0  0  0
 45  1  1  0  0  0  0
 48  2  1  0  0  0  0
 49  2  1  0  0  0  0
 51  7  1  0  0  0  0
 52  9  1  0  0  0  0
 55 13  1  0  0  0  0
 56 13  1  0  0  0  0
 58 17  1  0  0  0  0
 59 18  1  0  0  0  0
 60 18  1  0  0  0  0
 64 25  1  0  0  0  0
 66 32  1  0  0  0  0
 68 35  1  0  0  0  0
 69 37  1  0  0  0  0
 70 37  1  0  0  0  0
 72 40  1  0  0  0  0
 74 41  1  0  0  0  0
M  END
