75
-1 1
C        -4.743119    3.039478   -6.376771
C        -3.491125    2.690125   -5.595817
O        -3.851752    2.538701   -4.249432
C        -2.864796    2.117293   -3.382110
O        -1.730244    1.859462   -3.853869
C        -3.264055    2.009062   -2.058055
C        -2.266506    1.547658   -1.097659
S        -1.026066    2.935046   -0.517629
C         0.547914    2.032887   -0.653157
C         1.501090    2.509691   -1.743433
N         0.862459    2.591445   -3.045864
C         1.349904    3.403455   -4.003405
C         0.479181    3.593577   -5.222064
O         2.443233    3.972357   -3.909435
H         1.876526    3.519574   -1.499107
C         2.733412    1.569876   -1.742500
N         3.764198    2.003825   -2.493889
C         4.974393    1.241515   -2.651359
O         2.765744    0.540262   -1.081280
C        -2.800239    0.802166    0.138539
H        -3.280795   -0.106196   -0.251980
N        -1.688948    0.341969    0.955821
C        -1.282489   -0.952942    1.005086
C         0.152514   -1.123976    1.395709
C         0.695307   -2.343059    1.482728
C         2.130990   -2.598919    1.694252
C         2.592677   -3.672076    2.470985
Br         1.356160   -4.828040    3.338055
C         3.956910   -3.937768    2.677923
C         4.845641   -3.080530    2.068103
O         6.205000   -3.123297    2.063644
C         6.618949   -1.920232    1.437601
O         5.503799   -1.378641    0.767862
C         4.412878   -2.013092    1.284234
C         3.080434   -1.748778    1.072578
O        -1.997822   -1.901808    0.719771
C        -3.818815    1.592201    0.959731
C        -4.239066    0.901611    2.267775
H        -3.391803    0.919498    2.966581
C        -4.818604   -0.510343    2.103809
C        -6.310056   -0.260271    1.845387
N        -6.541440    0.956765    2.596429
C        -5.411792    1.684250    2.858854
O        -5.382034    2.762788    3.409865
H        -4.509951    3.176697   -7.444107
H        -5.191280    3.969200   -5.994855
H        -5.492843    2.239414   -6.282481
H        -2.731760    3.485856   -5.711204
H        -3.030003    1.765252   -5.983489
H        -4.256632    2.346342   -1.761566
H        -1.563570    0.873616   -1.610432
H         0.323488    0.970696   -0.828886
H         1.091171    2.076459    0.301987
H        -0.101988    2.222786   -3.176045
H        -0.417916    2.961870   -5.188865
H         1.081984    3.390940   -6.118603
H         0.180190    4.651857   -5.258500
H         3.581491    2.840629   -3.061999
H         5.850778    1.907062   -2.632742
H         4.989858    0.677524   -3.600213
H         5.051245    0.522856   -1.824493
H        -1.016104    1.069078    1.177641
H         0.765001   -0.226987    1.532659
H         0.023300   -3.198834    1.356611
H         4.293198   -4.775716    3.287042
H         7.419639   -2.137091    0.715220
H         6.977729   -1.209209    2.208278
H         2.773979   -0.935458    0.408063
H        -4.702095    1.768992    0.325376
H        -3.411061    2.585197    1.209356
H        -4.706177   -1.057980    3.052469
H        -4.325859   -1.110897    1.328537
H        -6.944138   -1.084921    2.206600
H        -6.518129   -0.123145    0.767930
H        -7.453467    1.369302    2.739669
