75
-1 1
C        10.999871   -3.399775    1.310643
C        12.142280   -3.045225    2.248477
O        11.687997   -2.717741    3.543813
C        11.391295   -3.752683    4.381304
O        11.543404   -4.916195    3.997524
C        10.926330   -3.328995    5.657690
C        10.573355   -4.289119    6.586652
S        12.505964   -5.386239    7.633562
C        11.673089   -6.999906    7.611913
C        11.482726   -7.626448    6.211413
N        10.701661   -8.843433    6.297531
C         9.355992   -8.864996    6.280331
C         8.719366  -10.239391    6.386844
O         8.665538   -7.858982    6.181509
H        10.955312   -6.921597    5.555159
C        12.813213   -8.006620    5.568980
N        13.307569   -7.088238    4.726242
C        14.617081   -7.195320    4.145513
O        13.340309   -9.085997    5.826975
C         9.835578   -3.955840    7.866362
H         9.832598   -4.872615    8.475840
N        10.569190   -2.984452    8.664792
C        10.501361   -1.632969    8.630720
C        11.600912   -0.973427    9.416655
C        11.634524    0.359722    9.521145
C        12.625298    1.181705   10.233126
C        12.369095    2.566737   10.361312
C        13.288954    3.331736   11.043351
O        13.283067    4.677049   11.276095
C        14.338648    4.909735   12.184726
O        15.180907    3.774387   12.169675
C        14.445843    2.783272   11.588198
C        14.731937    1.438279   11.468226
C        13.800492    0.647208   10.782374
O         9.645412   -0.972974    8.061546
C         8.362330   -3.607358    7.615886
C         7.618779   -4.756335    6.941040
H         7.989652   -5.721824    7.337025
C         7.655074   -4.847633    5.409741
C         6.389656   -5.642710    5.072137
N         5.489493   -5.250221    6.140621
C         6.121465   -4.777507    7.253987
O         5.580244   -4.474221    8.296913
H        11.377408   -3.569078    0.289774
H        10.258866   -2.586747    1.278972
H        10.504845   -4.317174    1.657559
H        12.673621   -2.149555    1.891678
H        12.859365   -3.879539    2.300322
H        10.942925   -2.265224    5.898037
H        10.336077   -5.277428    6.197364
H        10.662254   -6.907933    8.047395
H        12.226407   -7.721208    8.234851
H        11.254052   -9.691593    6.376720
H         8.055859  -10.248200    7.263105
H         9.448181  -11.056862    6.474258
H         8.093036  -10.404538    5.498727
H        12.767756   -6.226376    4.589125
H        14.999118   -8.207354    4.332999
H        15.314087   -6.466532    4.591697
H        14.579420   -7.020035    3.058569
H        11.431200   -3.401609    9.011179
H        12.353030   -1.612552    9.889513
H        10.819921    0.892606    9.017381
H        11.469866    3.012890    9.934471
H        13.928166    5.054091   13.204708
H        14.908091    5.798164   11.873764
H        15.646427    1.014598   11.884141
H        14.007413   -0.417912   10.668030
H         8.282102   -2.684871    7.025690
H         7.882909   -3.411885    8.588188
H         8.555890   -5.335904    5.021461
H         7.601942   -3.834266    4.979778
H         6.605851   -6.724745    5.099131
H         5.975734   -5.385027    4.084624
H         4.519190   -5.529100    6.193238
