74
-1 1
C        -4.374084   -2.620498   -2.792059
C        -4.823548   -2.177873   -1.416419
O        -4.026206   -1.064293   -1.049794
C        -3.969382   -0.737900    0.252224
O        -4.717390   -1.192984    1.082328
C        -2.847349    0.191812    0.483885
C        -2.392447    0.438674    1.717384
S        -0.547461   -2.184722    2.343863
C        -0.876350   -2.611264    0.604781
C         0.393122   -2.862972   -0.227613
N         1.399081   -1.874286    0.124336
C         2.715499   -2.040371   -0.116479
C         3.631763   -1.025875    0.529339
O         3.172878   -2.929296   -0.837014
H         0.794993   -3.865532    0.006158
C         0.092572   -2.828047   -1.743847
N         1.026854   -3.456493   -2.493206
C         0.975253   -3.516625   -3.928574
O        -0.907893   -2.298914   -2.217625
C        -1.192159    1.271210    2.071115
H        -0.546359    0.602974    2.662125
N        -0.430185    1.631358    0.892156
C         0.921156    1.556891    0.813736
C         1.474262    1.547107   -0.582884
C         2.692102    2.229748   -0.839732
C         3.255918    2.200282   -2.088696
C         0.879229    0.805500   -1.578173
C         1.452289    0.738742   -2.876022
C         2.651230    1.459983   -3.143950
C         3.205497    1.402486   -4.451215
C         2.598516    0.662482   -5.437583
C         1.414051   -0.064585   -5.163082
C         0.854327   -0.033908   -3.908542
O         1.655794    1.498023    1.787772
C        -1.601486    2.487754    2.914477
C        -0.414058    3.293082    3.455783
H         0.182430    3.650462    2.605235
C         0.446665    2.554005    4.489085
C        -0.147630    2.965889    5.844877
N        -0.720110    4.263705    5.552049
C        -0.947179    4.501255    4.226438
O        -1.507491    5.475058    3.770443
H        -4.917695   -3.527154   -3.098189
H        -3.293497   -2.825310   -2.776996
H        -4.563126   -1.833356   -3.537540
H        -4.688662   -2.975971   -0.669592
H        -5.890234   -1.894184   -1.396199
H        -2.340598    0.523529   -0.424790
H        -2.933782    0.002900    2.561336
H        -1.439668   -1.804458    0.108912
H        -1.502393   -3.513901    0.526591
H         1.123718   -1.391263    0.997951
H         3.112036   -0.331649    1.202664
H         4.113228   -0.446419   -0.272909
H         4.421445   -1.564586    1.071570
H         1.919407   -3.615670   -2.012068
H        -0.023033   -3.198187   -4.256867
H         1.153482   -4.544758   -4.283590
H         1.723199   -2.853646   -4.394024
H        -0.935600    1.773117    0.028609
H         3.165980    2.770107   -0.017889
H         4.186117    2.738944   -2.288015
H        -0.013675    0.206796   -1.377819
H         4.125601    1.955218   -4.659095
H         3.034524    0.626503   -6.439013
H         0.950159   -0.661244   -5.952024
H        -0.040701   -0.615893   -3.669363
H        -2.221364    2.130322    3.755303
H        -2.239443    3.156837    2.313923
H         1.487010    2.899445    4.412562
H         0.466484    1.467175    4.343159
H         0.617455    3.031324    6.633985
H        -0.918148    2.250654    6.187364
H        -1.126639    4.871927    6.250435
