-1 1
 OpenBabel05192410563D

 74 76  0  0  1  0  0  0  0  0999 V2000
   -6.2790   -1.4780   -1.9871 C   0  0  0  0  0  0  0  0  0  0  0  0
   -5.7526   -1.6952   -0.5822 C   0  0  0  0  0  0  0  0  0  0  0  0
   -4.5102   -1.0505   -0.4827 O   0  0  0  0  0  0  0  0  0  0  0  0
   -3.8626   -1.1679    0.7328 C   0  0  0  0  0  0  0  0  0  0  0  0
   -4.3929   -1.7981    1.6420 O   0  0  0  0  0  0  0  0  0  0  0  0
   -2.6127   -0.5003    0.7434 C   0  0  0  0  0  3  0  0  0  0  0  0
   -1.7895   -0.5528    1.9116 C   0  0  1  0  0  0  0  0  0  0  0  0
   -0.5460   -2.2140    2.0483 S   0  0  0  0  0  0  0  0  0  0  0  0
   -0.6474   -2.8384    0.3628 C   0  0  0  0  0  0  0  0  0  0  0  0
    0.6994   -3.0003   -0.3690 C   0  0  2  0  0  0  0  0  0  0  0  0
    1.6766   -2.0301    0.0887 N   0  0  0  0  0  0  0  0  0  0  0  0
    3.0079   -2.2040   -0.0605 C   0  0  0  0  0  0  0  0  0  0  0  0
    3.8841   -1.1659    0.6004 C   0  0  0  0  0  0  0  0  0  0  0  0
    3.4939   -3.1197   -0.7225 O   0  0  0  0  0  0  0  0  0  0  0  0
    1.1107   -4.0066   -0.1778 H   0  0  0  0  0  0  0  0  0  0  0  0
    0.5149   -2.8596   -1.8995 C   0  0  0  0  0  0  0  0  0  0  0  0
    1.4675   -3.5031   -2.6147 N   0  0  0  0  0  0  0  0  0  0  0  0
    1.5473   -3.4170   -4.0496 C   0  0  0  0  0  0  0  0  0  0  0  0
   -0.3995   -2.2232   -2.4019 O   0  0  0  0  0  0  0  0  0  0  0  0
   -0.8535    0.6334    2.1579 C   0  0  1  0  0  0  0  0  0  0  0  0
   -0.0899    0.3520    2.8959 H   0  0  0  0  0  0  0  0  0  0  0  0
   -0.1330    0.9551    0.9396 N   0  0  0  0  0  0  0  0  0  0  0  0
    1.1800    1.2459    0.8755 C   0  0  0  0  0  0  0  0  0  0  0  0
    1.7505    1.3793   -0.5117 C   0  0  0  0  0  0  0  0  0  0  0  0
    2.9171    2.1737   -0.6688 C   0  0  0  0  0  0  0  0  0  0  0  0
    3.5163    2.3022   -1.8948 C   0  0  0  0  0  0  0  0  0  0  0  0
    1.2343    0.7032   -1.5942 C   0  0  0  0  0  0  0  0  0  0  0  0
    1.8409    0.8075   -2.8745 C   0  0  0  0  0  0  0  0  0  0  0  0
    2.9959    1.6257   -3.0341 C   0  0  0  0  0  0  0  0  0  0  0  0
    3.5894    1.7273   -4.3215 C   0  0  0  0  0  0  0  0  0  0  0  0
    3.0610    1.0471   -5.3924 C   0  0  0  0  0  0  0  0  0  0  0  0
    1.9165    0.2280   -5.2284 C   0  0  0  0  0  0  0  0  0  0  0  0
    1.3193    0.1071   -3.9968 C   0  0  0  0  0  0  0  0  0  0  0  0
    1.8971    1.3841    1.8613 O   0  0  0  0  0  0  0  0  0  0  0  0
   -1.6371    1.8462    2.6804 C   0  0  0  0  0  0  0  0  0  0  0  0
   -0.7703    3.0789    2.9717 C   0  0  2  0  0  0  0  0  0  0  0  0
   -0.2695    3.3841    2.0421 H   0  0  0  0  0  0  0  0  0  0  0  0
    0.2181    2.9150    4.1347 C   0  0  0  0  0  0  0  0  0  0  0  0
   -0.5626    3.4058    5.3632 C   0  0  0  0  0  0  0  0  0  0  0  0
   -1.4722    4.3692    4.7819 N   0  0  0  0  0  0  0  0  0  0  0  0
   -1.6734    4.2222    3.4363 C   0  0  0  0  0  0  0  0  0  0  0  0
   -2.4544    4.8642    2.7696 O   0  0  0  0  0  0  0  0  0  0  0  0
   -7.2563   -1.9689   -2.1167 H   0  0  0  0  0  0  0  0  0  0  0  0
   -5.5787   -1.8900   -2.7292 H   0  0  0  0  0  0  0  0  0  0  0  0
   -6.3976   -0.4038   -2.1949 H   0  0  0  0  0  0  0  0  0  0  0  0
   -5.6483   -2.7720   -0.3607 H   0  0  0  0  0  0  0  0  0  0  0  0
   -6.4575   -1.2983    0.1704 H   0  0  0  0  0  0  0  0  0  0  0  0
   -2.2853   -0.0588   -0.2011 H   0  0  0  0  0  0  0  0  0  0  0  0
   -2.3849   -0.7711    2.8058 H   0  0  0  0  0  0  0  0  0  0  0  0
   -1.3015   -2.1283   -0.1811 H   0  0  0  0  0  0  0  0  0  0  0  0
   -1.1648   -3.8074    0.3458 H   0  0  0  0  0  0  0  0  0  0  0  0
    1.3336   -1.4509    0.8604 H   0  0  0  0  0  0  0  0  0  0  0  0
    3.3524   -0.5348    1.3248 H   0  0  0  0  0  0  0  0  0  0  0  0
    4.2862   -0.5126   -0.1894 H   0  0  0  0  0  0  0  0  0  0  0  0
    4.7311   -1.6745    1.0796 H   0  0  0  0  0  0  0  0  0  0  0  0
    2.3085   -3.7443   -2.0834 H   0  0  0  0  0  0  0  0  0  0  0  0
    0.5554   -3.1564   -4.4417 H   0  0  0  0  0  0  0  0  0  0  0  0
    1.8547   -4.3854   -4.4732 H   0  0  0  0  0  0  0  0  0  0  0  0
    2.2622   -2.6455   -4.3817 H   0  0  0  0  0  0  0  0  0  0  0  0
   -0.6719    0.9202    0.0836 H   0  0  0  0  0  0  0  0  0  0  0  0
    3.3213    2.6658    0.2177 H   0  0  0  0  0  0  0  0  0  0  0  0
    4.4088    2.9227   -2.0114 H   0  0  0  0  0  0  0  0  0  0  0  0
    0.3765    0.0322   -1.4953 H   0  0  0  0  0  0  0  0  0  0  0  0
    4.4757    2.3554   -4.4457 H   0  0  0  0  0  0  0  0  0  0  0  0
    3.5265    1.1338   -6.3774 H   0  0  0  0  0  0  0  0  0  0  0  0
    1.5113   -0.3138   -6.0864 H   0  0  0  0  0  0  0  0  0  0  0  0
    0.4511   -0.5401   -3.8435 H   0  0  0  0  0  0  0  0  0  0  0  0
   -2.1709    1.5378    3.5961 H   0  0  0  0  0  0  0  0  0  0  0  0
   -2.4122    2.1130    1.9455 H   0  0  0  0  0  0  0  0  0  0  0  0
    1.0933    3.5597    3.9679 H   0  0  0  0  0  0  0  0  0  0  0  0
    0.5971    1.8920    4.2440 H   0  0  0  0  0  0  0  0  0  0  0  0
    0.0918    3.8712    6.1172 H   0  0  0  0  0  0  0  0  0  0  0  0
   -1.1054    2.5787    5.8580 H   0  0  0  0  0  0  0  0  0  0  0  0
   -2.0882    4.9622    5.3218 H   0  0  0  0  0  0  0  0  0  0  0  0
  1  2  1  0  0  0  0
  2  3  1  0  0  0  0
  2 46  1  0  0  0  0
  2 47  1  0  0  0  0
  3  4  1  0  0  0  0
  4  6  1  0  0  0  0
  4  5  2  0  0  0  0
  6  7  1  0  0  0  0
  7  8  1  0  0  0  0
  7 20  1  0  0  0  0
  7 49  1  1  0  0  0
  9  8  1  0  0  0  0
 10 15  1  1  0  0  0
 10 11  1  0  0  0  0
 10  9  1  0  0  0  0
 11 52  1  0  0  0  0
 12 11  1  0  0  0  0
 12 13  1  0  0  0  0
 13 55  1  0  0  0  0
 13 53  1  0  0  0  0
 14 12  2  0  0  0  0
 16 10  1  0  0  0  0
 17 56  1  0  0  0  0
 17 16  1  0  0  0  0
 18 17  1  0  0  0  0
 19 16  2  0  0  0  0
 20 35  1  0  0  0  0
 20 21  1  1  0  0  0
 22 20  1  0  0  0  0
 23 22  1  0  0  0  0
 23 34  2  0  0  0  0
 24 23  1  0  0  0  0
 25 24  1  0  0  0  0
 25 61  1  0  0  0  0
 26 25  2  0  0  0  0
 27 63  1  0  0  0  0
 27 24  2  0  0  0  0
 28 27  1  0  0  0  0
 29 28  1  0  0  0  0
 29 26  1  0  0  0  0
 30 29  2  0  0  0  0
 31 32  2  0  0  0  0
 31 30  1  0  0  0  0
 32 33  1  0  0  0  0
 33 67  1  0  0  0  0
 33 28  2  0  0  0  0
 35 36  1  0  0  0  0
 35 68  1  0  0  0  0
 36 37  1  6  0  0  0
 36 41  1  0  0  0  0
 36 38  1  0  0  0  0
 38 71  1  0  0  0  0
 38 39  1  0  0  0  0
 39 73  1  0  0  0  0
 39 72  1  0  0  0  0
 40 74  1  0  0  0  0
 40 39  1  0  0  0  0
 41 40  1  0  0  0  0
 42 41  2  0  0  0  0
 43  1  1  0  0  0  0
 44  1  1  0  0  0  0
 45  1  1  0  0  0  0
 48  6  1  0  0  0  0
 50  9  1  0  0  0  0
 51  9  1  0  0  0  0
 54 13  1  0  0  0  0
 57 18  1  0  0  0  0
 58 18  1  0  0  0  0
 59 18  1  0  0  0  0
 60 22  1  0  0  0  0
 62 26  1  0  0  0  0
 64 30  1  0  0  0  0
 65 31  1  0  0  0  0
 66 32  1  0  0  0  0
 69 35  1  0  0  0  0
 70 38  1  0  0  0  0
M  END
