74
-1 1
C        -6.278991   -1.478028   -1.987062
C        -5.752627   -1.695163   -0.582170
O        -4.510173   -1.050451   -0.482714
C        -3.862625   -1.167927    0.732778
O        -4.392860   -1.798056    1.641970
C        -2.612685   -0.500333    0.743365
C        -1.789509   -0.552770    1.911557
S        -0.545992   -2.214015    2.048262
C        -0.647450   -2.838429    0.362764
C         0.699448   -3.000323   -0.368966
N         1.676591   -2.030059    0.088677
C         3.007945   -2.204015   -0.060456
C         3.884090   -1.165870    0.600355
O         3.493874   -3.119654   -0.722517
H         1.110677   -4.006599   -0.177816
C         0.514934   -2.859554   -1.899483
N         1.467458   -3.503114   -2.614743
C         1.547278   -3.417027   -4.049639
O        -0.399527   -2.223164   -2.401850
C        -0.853533    0.633356    2.157867
H        -0.089918    0.351960    2.895912
N        -0.132970    0.955095    0.939560
C         1.180049    1.245881    0.875498
C         1.750461    1.379324   -0.511676
C         2.917149    2.173693   -0.668772
C         3.516280    2.302156   -1.894770
C         1.234333    0.703240   -1.594151
C         1.840893    0.807522   -2.874499
C         2.995921    1.625738   -3.034077
C         3.589403    1.727342   -4.321485
C         3.060971    1.047113   -5.392443
C         1.916531    0.227953   -5.228450
C         1.319331    0.107090   -3.996848
O         1.897148    1.384100    1.861339
C        -1.637113    1.846247    2.680353
C        -0.770296    3.078880    2.971658
H        -0.269456    3.384111    2.042147
C         0.218128    2.915003    4.134727
C        -0.562629    3.405832    5.363214
N        -1.472180    4.369225    4.781899
C        -1.673382    4.222160    3.436325
O        -2.454441    4.864221    2.769639
H        -7.256255   -1.968929   -2.116746
H        -5.578719   -1.889978   -2.729194
H        -6.397640   -0.403782   -2.194918
H        -5.648263   -2.772013   -0.360675
H        -6.457533   -1.298302    0.170351
H        -2.285291   -0.058797   -0.201094
H        -2.384903   -0.771127    2.805821
H        -1.301533   -2.128311   -0.181069
H        -1.164836   -3.807433    0.345779
H         1.333586   -1.450862    0.860426
H         3.352411   -0.534838    1.324770
H         4.286180   -0.512641   -0.189438
H         4.731096   -1.674550    1.079595
H         2.308523   -3.744322   -2.083404
H         0.555388   -3.156390   -4.441675
H         1.854663   -4.385423   -4.473233
H         2.262230   -2.645541   -4.381671
H        -0.671914    0.920173    0.083629
H         3.321348    2.665801    0.217656
H         4.408849    2.922688   -2.011418
H         0.376516    0.032197   -1.495328
H         4.475670    2.355430   -4.445709
H         3.526486    1.133829   -6.377366
H         1.511261   -0.313789   -6.086358
H         0.451128   -0.540083   -3.843459
H        -2.170899    1.537809    3.596086
H        -2.412187    2.113030    1.945502
H         1.093311    3.559666    3.967929
H         0.597149    1.892040    4.243955
H         0.091762    3.871162    6.117153
H        -1.105430    2.578700    5.857955
H        -2.088211    4.962238    5.321844
