-1 1
 OpenBabel05232414493D

 77 78  0  0  1  0  0  0  0  0999 V2000
    2.8037   -2.4284   -4.8710 C   0  0  0  0  0  0  0  0  0  0  0  0
    4.1449   -3.0393   -4.5020 C   0  0  0  0  0  0  0  0  0  0  0  0
    5.1872   -2.5952   -5.3453 O   0  0  0  0  0  0  0  0  0  0  0  0
    5.7319   -1.3750   -5.0759 C   0  0  0  0  0  0  0  0  0  0  0  0
    5.3119   -0.7094   -4.1293 O   0  0  0  0  0  0  0  0  0  0  0  0
    6.7554   -1.0172   -6.0079 C   0  0  0  0  0  3  0  0  0  0  0  0
    7.4138    0.1855   -5.9105 C   0  0  0  0  0  3  0  0  0  0  0  0
    9.5343   -0.0589   -4.5295 S   0  0  0  0  0  1  0  0  0  0  0  0
    8.5996   -0.6031   -3.0851 C   0  0  0  0  0  0  0  0  0  0  0  0
    7.8738    0.5368   -2.3321 C   0  0  2  0  0  0  0  0  0  0  0  0
    8.7790    1.5550   -1.8692 N   0  0  0  0  0  0  0  0  0  0  0  0
    9.0142    2.7253   -2.5002 C   0  0  0  0  0  0  0  0  0  0  0  0
   10.1807    3.5164   -1.9328 C   0  0  0  0  0  0  0  0  0  0  0  0
    8.3823    3.1335   -3.4616 O   0  0  0  0  0  0  0  0  0  0  0  0
    7.1467    1.0058   -3.0089 H   0  0  0  0  0  0  0  0  0  0  0  0
    7.1567   -0.0487   -1.1145 C   0  0  0  0  0  0  0  0  0  0  0  0
    5.9761   -0.6391   -1.3965 N   0  0  0  0  0  0  0  0  0  0  0  0
    5.2132   -1.3483   -0.4069 C   0  0  0  0  0  0  0  0  0  0  0  0
    7.6637   -0.0174    0.0006 O   0  0  0  0  0  0  0  0  0  0  0  0
    8.1810    0.8090   -7.0718 C   0  0  1  0  0  0  0  0  0  0  0  0
    9.1805    0.3556   -7.0862 H   0  0  0  0  0  0  0  0  0  0  0  0
    7.6151    0.4574   -8.3758 N   0  0  0  0  0  0  0  0  0  0  0  0
    6.3627    0.7715   -8.7917 C   0  0  0  0  0  0  0  0  0  0  0  0
    5.9555    0.1643  -10.1167 C   0  0  0  0  0  0  0  0  0  0  0  0
    6.4485   -1.0827  -10.5845 C   0  0  0  0  0  0  0  0  0  0  0  0
    6.0308   -1.5979  -11.7872 C   0  0  0  0  0  0  0  0  0  0  0  0
    5.0287    0.8466  -10.8719 C   0  0  0  0  0  0  0  0  0  0  0  0
    4.5876    0.3468  -12.1225 C   0  0  0  0  0  0  0  0  0  0  0  0
    5.0970   -0.8959  -12.5951 C   0  0  0  0  0  0  0  0  0  0  0  0
    4.6485   -1.3953  -13.8496 C   0  0  0  0  0  0  0  0  0  0  0  0
    3.7371   -0.7088  -14.6185 C   0  0  0  0  0  0  0  0  0  0  0  0
    3.2606   -1.2336  -15.9470 C   0  0  0  0  0  0  0  0  0  0  0  0
    3.2356    0.5336  -14.1335 C   0  0  0  0  0  0  0  0  0  0  0  0
    3.6448    1.0439  -12.9291 C   0  0  0  0  0  0  0  0  0  0  0  0
    5.6024    1.5027   -8.1865 O   0  0  0  0  0  0  0  0  0  0  0  0
    8.3188    2.3266   -6.8873 C   0  0  0  0  0  0  0  0  0  0  0  0
    9.5499    2.9064   -7.5960 C   0  0  2  0  0  0  0  0  0  0  0  0
    9.5730    2.5619   -8.6417 H   0  0  0  0  0  0  0  0  0  0  0  0
   10.8483    2.6262   -6.8254 C   0  0  0  0  0  0  0  0  0  0  0  0
   10.9215    3.7957   -5.8349 C   0  0  0  0  0  0  0  0  0  0  0  0
   10.3004    4.8677   -6.5926 N   0  0  0  0  0  0  0  0  0  0  0  0
    9.4592    4.4336   -7.5776 C   0  0  0  0  0  0  0  0  0  0  0  0
    8.7540    5.1385   -8.2680 O   0  0  0  0  0  0  0  0  0  0  0  0
    2.0028   -2.8543   -4.2462 H   0  0  0  0  0  0  0  0  0  0  0  0
    2.5662   -2.6264   -5.9269 H   0  0  0  0  0  0  0  0  0  0  0  0
    2.8310   -1.3415   -4.7146 H   0  0  0  0  0  0  0  0  0  0  0  0
    4.1211   -4.1330   -4.6232 H   0  0  0  0  0  0  0  0  0  0  0  0
    4.3899   -2.8132   -3.4520 H   0  0  0  0  0  0  0  0  0  0  0  0
    6.9888   -1.7384   -6.7932 H   0  0  0  0  0  0  0  0  0  0  0  0
    7.0320    0.8957   -5.1751 H   0  0  0  0  0  0  0  0  0  0  0  0
    9.2685   -1.1148   -2.3724 H   0  0  0  0  0  0  0  0  0  0  0  0
    7.8431   -1.3419   -3.3997 H   0  0  0  0  0  0  0  0  0  0  0  0
    9.2900    1.3191   -1.0274 H   0  0  0  0  0  0  0  0  0  0  0  0
   11.0928    3.2054   -2.4654 H   0  0  0  0  0  0  0  0  0  0  0  0
   10.3340    3.3451   -0.8571 H   0  0  0  0  0  0  0  0  0  0  0  0
   10.0131    4.5845   -2.1199 H   0  0  0  0  0  0  0  0  0  0  0  0
    5.6541   -0.6335   -2.3712 H   0  0  0  0  0  0  0  0  0  0  0  0
    4.2004   -0.9259   -0.2991 H   0  0  0  0  0  0  0  0  0  0  0  0
    5.7360   -1.2635    0.5549 H   0  0  0  0  0  0  0  0  0  0  0  0
    5.1122   -2.4174   -0.6609 H   0  0  0  0  0  0  0  0  0  0  0  0
    8.1832   -0.1134   -8.9827 H   0  0  0  0  0  0  0  0  0  0  0  0
    7.1412   -1.6596   -9.9668 H   0  0  0  0  0  0  0  0  0  0  0  0
    6.4062   -2.5654  -12.1306 H   0  0  0  0  0  0  0  0  0  0  0  0
    4.6330    1.7874  -10.4821 H   0  0  0  0  0  0  0  0  0  0  0  0
    5.0466   -2.3521  -14.2008 H   0  0  0  0  0  0  0  0  0  0  0  0
    2.1680   -1.3759  -15.9471 H   0  0  0  0  0  0  0  0  0  0  0  0
    3.7279   -2.1977  -16.1919 H   0  0  0  0  0  0  0  0  0  0  0  0
    3.4950   -0.5265  -16.7588 H   0  0  0  0  0  0  0  0  0  0  0  0
    2.5101    1.0846  -14.7389 H   0  0  0  0  0  0  0  0  0  0  0  0
    3.2513    1.9978  -12.5690 H   0  0  0  0  0  0  0  0  0  0  0  0
    8.3871    2.5374   -5.8082 H   0  0  0  0  0  0  0  0  0  0  0  0
    7.4035    2.8101   -7.2553 H   0  0  0  0  0  0  0  0  0  0  0  0
   11.7146    2.6579   -7.5057 H   0  0  0  0  0  0  0  0  0  0  0  0
   10.8467    1.6608   -6.3001 H   0  0  0  0  0  0  0  0  0  0  0  0
   11.9569    4.0478   -5.5572 H   0  0  0  0  0  0  0  0  0  0  0  0
   10.3501    3.5694   -4.9187 H   0  0  0  0  0  0  0  0  0  0  0  0
   10.2050    5.8117   -6.2423 H   0  0  0  0  0  0  0  0  0  0  0  0
  1 46  1  0  0  0  0
  1  2  1  0  0  0  0
  1 44  1  0  0  0  0
  2 48  1  0  0  0  0
  3  4  1  0  0  0  0
  3  2  1  0  0  0  0
  4  5  2  0  0  0  0
  6  7  1  0  0  0  0
  6  4  1  0  0  0  0
  7 50  1  0  0  0  0
  8  9  1  0  0  0  0
  9 51  1  0  0  0  0
  9 10  1  0  0  0  0
 10 15  1  6  0  0  0
 10 11  1  0  0  0  0
 10 16  1  0  0  0  0
 11 53  1  0  0  0  0
 12 13  1  0  0  0  0
 12 11  1  0  0  0  0
 13 55  1  0  0  0  0
 14 12  2  0  0  0  0
 16 19  2  0  0  0  0
 17 16  1  0  0  0  0
 17 18  1  0  0  0  0
 18 58  1  0  0  0  0
 18 59  1  0  0  0  0
 20 21  1  1  0  0  0
 20 36  1  0  0  0  0
 20  7  1  0  0  0  0
 22 20  1  0  0  0  0
 23 22  1  0  0  0  0
 23 35  2  0  0  0  0
 24 23  1  0  0  0  0
 25 24  1  0  0  0  0
 25 62  1  0  0  0  0
 26 25  2  0  0  0  0
 27 64  1  0  0  0  0
 27 24  2  0  0  0  0
 28 27  1  0  0  0  0
 29 28  1  0  0  0  0
 29 26  1  0  0  0  0
 30 29  2  0  0  0  0
 31 33  2  0  0  0  0
 31 30  1  0  0  0  0
 32 31  1  0  0  0  0
 33 34  1  0  0  0  0
 34 70  1  0  0  0  0
 34 28  2  0  0  0  0
 36 71  1  0  0  0  0
 37 38  1  6  0  0  0
 37 42  1  0  0  0  0
 37 36  1  0  0  0  0
 37 39  1  0  0  0  0
 39 74  1  0  0  0  0
 39 40  1  0  0  0  0
 40 75  1  0  0  0  0
 40 76  1  0  0  0  0
 41 77  1  0  0  0  0
 41 40  1  0  0  0  0
 42 41  1  0  0  0  0
 43 42  2  0  0  0  0
 45  1  1  0  0  0  0
 47  2  1  0  0  0  0
 49  6  1  0  0  0  0
 52  9  1  0  0  0  0
 54 13  1  0  0  0  0
 56 13  1  0  0  0  0
 57 17  1  0  0  0  0
 60 18  1  0  0  0  0
 61 22  1  0  0  0  0
 63 26  1  0  0  0  0
 65 30  1  0  0  0  0
 66 32  1  0  0  0  0
 67 32  1  0  0  0  0
 68 32  1  0  0  0  0
 69 33  1  0  0  0  0
 72 36  1  0  0  0  0
 73 39  1  0  0  0  0
M  END
