77
-1 1
C         2.803663   -2.428358   -4.871011
C         4.144939   -3.039276   -4.502015
O         5.187218   -2.595208   -5.345331
C         5.731903   -1.375026   -5.075868
O         5.311941   -0.709439   -4.129329
C         6.755355   -1.017239   -6.007901
C         7.413838    0.185543   -5.910527
S         9.534259   -0.058905   -4.529511
C         8.599550   -0.603054   -3.085087
C         7.873750    0.536812   -2.332094
N         8.779011    1.554965   -1.869228
C         9.014166    2.725291   -2.500209
C        10.180700    3.516442   -1.932762
O         8.382273    3.133487   -3.461630
H         7.146746    1.005805   -3.008926
C         7.156688   -0.048665   -1.114486
N         5.976114   -0.639085   -1.396540
C         5.213192   -1.348337   -0.406944
O         7.663736   -0.017400    0.000591
C         8.181032    0.809039   -7.071754
H         9.180474    0.355626   -7.086151
N         7.615113    0.457410   -8.375820
C         6.362710    0.771460   -8.791705
C         5.955484    0.164275  -10.116706
C         6.448485   -1.082699  -10.584479
C         6.030798   -1.597938  -11.787239
C         5.028712    0.846554  -10.871919
C         4.587633    0.346766  -12.122456
C         5.096963   -0.895940  -12.595089
C         4.648493   -1.395255  -13.849588
C         3.737127   -0.708756  -14.618514
C         3.260579   -1.233570  -15.947023
C         3.235587    0.533636  -14.133545
C         3.644812    1.043946  -12.929145
O         5.602413    1.502677   -8.186529
C         8.318844    2.326569   -6.887277
C         9.549869    2.906374   -7.595982
H         9.573045    2.561857   -8.641740
C        10.848319    2.626242   -6.825388
C        10.921453    3.795702   -5.834865
N        10.300377    4.867675   -6.592628
C         9.459216    4.433555   -7.577622
O         8.754017    5.138477   -8.268017
H         2.002840   -2.854326   -4.246243
H         2.566225   -2.626432   -5.926950
H         2.831025   -1.341461   -4.714612
H         4.121135   -4.132989   -4.623213
H         4.389890   -2.813170   -3.451955
H         6.988813   -1.738355   -6.793186
H         7.032008    0.895730   -5.175132
H         9.268527   -1.114756   -2.372440
H         7.843113   -1.341882   -3.399734
H         9.289975    1.319089   -1.027430
H        11.092815    3.205425   -2.465397
H        10.334029    3.345099   -0.857068
H        10.013053    4.584466   -2.119911
H         5.654070   -0.633484   -2.371163
H         4.200389   -0.925903   -0.299146
H         5.735996   -1.263452    0.554872
H         5.112189   -2.417444   -0.660934
H         8.183187   -0.113410   -8.982695
H         7.141227   -1.659579   -9.966774
H         6.406171   -2.565414  -12.130602
H         4.633005    1.787404  -10.482135
H         5.046560   -2.352131  -14.200757
H         2.168042   -1.375883  -15.947067
H         3.727856   -2.197738  -16.191918
H         3.495025   -0.526472  -16.758805
H         2.510123    1.084618  -14.738883
H         3.251307    1.997751  -12.569046
H         8.387138    2.537437   -5.808166
H         7.403462    2.810068   -7.255286
H        11.714605    2.657878   -7.505738
H        10.846691    1.660783   -6.300089
H        11.956912    4.047757   -5.557189
H        10.350068    3.569400   -4.918662
H        10.205047    5.811703   -6.242336
