-1 1
 OpenBabel05192410563D

 74 76  0  0  1  0  0  0  0  0999 V2000
    5.0662    0.1818    0.2816 C   0  0  0  0  0  0  0  0  0  0  0  0
    4.0531    0.9626    1.0952 C   0  0  0  0  0  0  0  0  0  0  0  0
    2.7990    0.8089    0.4868 O   0  0  0  0  0  0  0  0  0  0  0  0
    1.7016    1.2956    1.1842 C   0  0  0  0  0  0  0  0  0  0  0  0
    1.8964    1.7483    2.3420 O   0  0  0  0  0  0  0  0  0  0  0  0
    0.5113    1.1858    0.4880 C   0  0  0  0  0  3  0  0  0  0  0  0
   -0.7797    1.6494    1.0593 C   0  0  1  0  0  0  0  0  0  0  0  0
   -1.4598    3.1548    0.1828 S   0  0  0  0  0  0  0  0  0  0  0  0
   -0.0326    4.2304    0.4656 C   0  0  0  0  0  0  0  0  0  0  0  0
    0.2335    4.5397    1.9509 C   0  0  2  0  0  0  0  0  0  0  0  0
   -0.8085    5.3292    2.5512 N   0  0  0  0  0  0  0  0  0  0  0  0
   -1.7581    4.8034    3.3672 C   0  0  0  0  0  0  0  0  0  0  0  0
   -2.8022    5.7947    3.8494 C   0  0  0  0  0  0  0  0  0  0  0  0
   -1.8072    3.6276    3.6756 O   0  0  0  0  0  0  0  0  0  0  0  0
    0.3137    3.5968    2.5069 H   0  0  0  0  0  0  0  0  0  0  0  0
    1.5614    5.2839    2.0788 C   0  0  0  0  0  0  0  0  0  0  0  0
    2.6238    4.4688    2.2235 N   0  0  0  0  0  0  0  0  0  0  0  0
    3.9710    4.9659    2.2868 C   0  0  0  0  0  0  0  0  0  0  0  0
    1.6110    6.5071    2.0149 O   0  0  0  0  0  0  0  0  0  0  0  0
   -1.8985    0.5827    1.1601 C   0  0  1  0  0  0  0  0  0  0  0  0
   -2.8870    1.0479    1.0238 H   0  0  0  0  0  0  0  0  0  0  0  0
   -1.7302   -0.3868    0.0921 N   0  0  0  0  0  0  0  0  0  0  0  0
   -2.6884   -1.2153   -0.3496 C   0  0  0  0  0  0  0  0  0  0  0  0
   -2.2363   -2.2526   -1.3447 C   0  0  0  0  0  0  0  0  0  0  0  0
   -0.9941   -2.7517   -1.4251 C   0  0  0  0  0  0  0  0  0  0  0  0
   -0.7004   -3.8073   -2.3935 C   0  0  0  0  0  0  0  0  0  0  0  0
   -1.7928   -4.4515   -3.0076 C   0  0  0  0  0  0  0  0  0  0  0  0
   -3.0586   -4.0971   -2.7248 O   0  0  0  0  0  0  0  0  0  0  0  0
   -3.2987   -2.7708   -2.2722 C   0  0  0  0  0  0  0  0  0  0  0  0
   -1.5789   -5.5209   -3.8779 C   0  0  0  0  0  0  0  0  0  0  0  0
   -0.2835   -5.9442   -4.1629 C   0  0  0  0  0  0  0  0  0  0  0  0
    0.7970   -5.2950   -3.5678 C   0  0  0  0  0  0  0  0  0  0  0  0
    2.5659   -5.8669   -3.9608 Br  0  0  0  0  0  0  0  0  0  0  0  0
    0.5965   -4.2395   -2.6832 C   0  0  0  0  0  0  0  0  0  0  0  0
   -3.8619   -1.1765   -0.0029 O   0  0  0  0  0  0  0  0  0  0  0  0
   -1.9164   -0.0884    2.5451 C   0  0  0  0  0  0  0  0  0  0  0  0
   -0.5832   -0.6352    3.0423 C   0  0  2  0  0  0  0  0  0  0  0  0
    0.1414    0.1977    3.1309 H   0  0  0  0  0  0  0  0  0  0  0  0
    0.0876   -1.7620    2.2466 C   0  0  0  0  0  0  0  0  0  0  0  0
    0.9608   -2.4687    3.2906 C   0  0  0  0  0  0  0  0  0  0  0  0
    0.1975   -2.2730    4.5039 N   0  0  0  0  0  0  0  0  0  0  0  0
   -0.6782   -1.2205    4.4506 C   0  0  0  0  0  0  0  0  0  0  0  0
   -1.3680   -0.8402    5.3705 O   0  0  0  0  0  0  0  0  0  0  0  0
    6.0737    0.2833    0.7137 H   0  0  0  0  0  0  0  0  0  0  0  0
    5.0936    0.5440   -0.7571 H   0  0  0  0  0  0  0  0  0  0  0  0
    4.8020   -0.8864    0.2597 H   0  0  0  0  0  0  0  0  0  0  0  0
    4.3399    2.0314    1.1366 H   0  0  0  0  0  0  0  0  0  0  0  0
    4.0250    0.6119    2.1402 H   0  0  0  0  0  0  0  0  0  0  0  0
    0.5772    0.9113   -0.5690 H   0  0  0  0  0  0  0  0  0  0  0  0
   -0.6205    1.9975    2.0871 H   0  0  0  0  0  0  0  0  0  0  0  0
   -0.2145    5.1671   -0.0831 H   0  0  0  0  0  0  0  0  0  0  0  0
    0.8525    3.7380    0.0341 H   0  0  0  0  0  0  0  0  0  0  0  0
   -0.7354    6.3299    2.4109 H   0  0  0  0  0  0  0  0  0  0  0  0
   -3.1066    5.5190    4.8668 H   0  0  0  0  0  0  0  0  0  0  0  0
   -3.6841    5.7113    3.1965 H   0  0  0  0  0  0  0  0  0  0  0  0
   -2.4511    6.8366    3.8334 H   0  0  0  0  0  0  0  0  0  0  0  0
    2.4461    3.4518    2.3174 H   0  0  0  0  0  0  0  0  0  0  0  0
    4.5847    4.5781    1.4561 H   0  0  0  0  0  0  0  0  0  0  0  0
    4.4587    4.6800    3.2330 H   0  0  0  0  0  0  0  0  0  0  0  0
    3.9406    6.0616    2.2211 H   0  0  0  0  0  0  0  0  0  0  0  0
   -0.7796   -0.4597   -0.2567 H   0  0  0  0  0  0  0  0  0  0  0  0
   -0.1933   -2.4186   -0.7597 H   0  0  0  0  0  0  0  0  0  0  0  0
   -4.2610   -2.7788   -1.7461 H   0  0  0  0  0  0  0  0  0  0  0  0
   -3.3947   -2.0996   -3.1487 H   0  0  0  0  0  0  0  0  0  0  0  0
   -2.4435   -6.0121   -4.3266 H   0  0  0  0  0  0  0  0  0  0  0  0
   -0.1167   -6.7750   -4.8501 H   0  0  0  0  0  0  0  0  0  0  0  0
    1.4449   -3.7457   -2.2050 H   0  0  0  0  0  0  0  0  0  0  0  0
   -2.6724   -0.8914    2.5264 H   0  0  0  0  0  0  0  0  0  0  0  0
   -2.2620    0.6575    3.2776 H   0  0  0  0  0  0  0  0  0  0  0  0
    0.6747   -1.3770    1.4024 H   0  0  0  0  0  0  0  0  0  0  0  0
   -0.6766   -2.4600    1.8641 H   0  0  0  0  0  0  0  0  0  0  0  0
    1.9587   -1.9952    3.3518 H   0  0  0  0  0  0  0  0  0  0  0  0
    1.1048   -3.5385    3.0710 H   0  0  0  0  0  0  0  0  0  0  0  0
    0.4367   -2.6851    5.3955 H   0  0  0  0  0  0  0  0  0  0  0  0
  1 44  1  0  0  0  0
  1  2  1  0  0  0  0
  2 47  1  0  0  0  0
  2 48  1  0  0  0  0
  3  2  1  0  0  0  0
  3  4  1  0  0  0  0
  4  5  2  0  0  0  0
  6  7  1  0  0  0  0
  6  4  1  0  0  0  0
  7 20  1  0  0  0  0
  7 50  1  1  0  0  0
  8  9  1  0  0  0  0
  8  7  1  0  0  0  0
  9 10  1  0  0  0  0
 10 16  1  0  0  0  0
 10 15  1  1  0  0  0
 10 11  1  0  0  0  0
 11 12  1  0  0  0  0
 12 14  2  0  0  0  0
 12 13  1  0  0  0  0
 13 54  1  0  0  0  0
 16 17  1  0  0  0  0
 17 18  1  0  0  0  0
 17 57  1  0  0  0  0
 18 59  1  0  0  0  0
 19 16  2  0  0  0  0
 20 21  1  6  0  0  0
 20 36  1  0  0  0  0
 22 20  1  0  0  0  0
 23 35  2  0  0  0  0
 23 22  1  0  0  0  0
 24 23  1  0  0  0  0
 25 24  2  0  0  0  0
 25 62  1  0  0  0  0
 26 25  1  0  0  0  0
 27 28  1  0  0  0  0
 27 26  2  0  0  0  0
 28 29  1  0  0  0  0
 29 63  1  0  0  0  0
 29 24  1  0  0  0  0
 30 27  1  0  0  0  0
 31 30  2  0  0  0  0
 31 32  1  0  0  0  0
 32 34  2  0  0  0  0
 33 32  1  0  0  0  0
 34 26  1  0  0  0  0
 34 67  1  0  0  0  0
 36 37  1  0  0  0  0
 36 69  1  0  0  0  0
 37 38  1  1  0  0  0
 37 42  1  0  0  0  0
 39 37  1  0  0  0  0
 39 40  1  0  0  0  0
 40 72  1  0  0  0  0
 40 41  1  0  0  0  0
 41 74  1  0  0  0  0
 42 41  1  0  0  0  0
 42 43  2  0  0  0  0
 45  1  1  0  0  0  0
 46  1  1  0  0  0  0
 49  6  1  0  0  0  0
 51  9  1  0  0  0  0
 52  9  1  0  0  0  0
 53 11  1  0  0  0  0
 55 13  1  0  0  0  0
 56 13  1  0  0  0  0
 58 18  1  0  0  0  0
 60 18  1  0  0  0  0
 61 22  1  0  0  0  0
 64 29  1  0  0  0  0
 65 30  1  0  0  0  0
 66 31  1  0  0  0  0
 68 36  1  0  0  0  0
 70 39  1  0  0  0  0
 71 39  1  0  0  0  0
 73 40  1  0  0  0  0
M  END
