-1 1
 OpenBabel05232414493D

 74 75  0  0  1  0  0  0  0  0999 V2000
   17.4649    6.4372   -0.7049 C   0  0  0  0  0  0  0  0  0  0  0  0
   16.3163    7.3522   -0.3372 C   0  0  0  0  0  0  0  0  0  0  0  0
   15.1115    6.6695   -0.6079 O   0  0  0  0  0  0  0  0  0  0  0  0
   13.9560    7.2977   -0.2468 C   0  0  0  0  0  0  0  0  0  0  0  0
   14.0041    8.3838    0.3261 O   0  0  0  0  0  0  0  0  0  0  0  0
   12.8002    6.5317   -0.5981 C   0  0  0  0  0  3  0  0  0  0  0  0
   11.5066    6.9740   -0.3996 C   0  0  0  0  0  3  0  0  0  0  0  0
   10.7180    8.1046   -2.5181 S   0  0  0  0  0  1  0  0  0  0  0  0
   12.2055    9.1254   -2.5859 C   0  0  0  0  0  0  0  0  0  0  0  0
   12.2462   10.2444   -1.5186 C   0  0  2  0  0  0  0  0  0  0  0  0
   11.0494   11.0409   -1.4996 N   0  0  0  0  0  0  0  0  0  0  0  0
   10.0626   10.8516   -0.5870 C   0  0  0  0  0  0  0  0  0  0  0  0
    8.7585   11.5534   -0.9170 C   0  0  0  0  0  0  0  0  0  0  0  0
   10.1847   10.1683    0.4143 O   0  0  0  0  0  0  0  0  0  0  0  0
   12.3423    9.7835   -0.5276 H   0  0  0  0  0  0  0  0  0  0  0  0
   13.4478   11.1465   -1.7883 C   0  0  0  0  0  0  0  0  0  0  0  0
   14.5823   10.7560   -1.1603 N   0  0  0  0  0  0  0  0  0  0  0  0
   15.8382   11.4281   -1.3469 C   0  0  0  0  0  0  0  0  0  0  0  0
   13.3772   12.1022   -2.5483 O   0  0  0  0  0  0  0  0  0  0  0  0
   10.3396    6.0053   -0.3797 C   0  0  1  0  0  0  0  0  0  0  0  0
    9.4143    6.6054   -0.3806 H   0  0  0  0  0  0  0  0  0  0  0  0
   10.3865    5.2213   -1.6092 N   0  0  0  0  0  0  0  0  0  0  0  0
    9.5494    4.2259   -1.9532 C   0  0  0  0  0  0  0  0  0  0  0  0
    9.7231    3.7073   -3.3557 C   0  0  0  0  0  0  0  0  0  0  0  0
   10.8005    3.9101   -4.1288 C   0  0  0  0  0  0  0  0  0  0  0  0
   10.8538    3.3124   -5.4618 C   0  0  0  0  0  0  0  0  0  0  0  0
    9.9080    2.3137   -5.7675 C   0  0  0  0  0  0  0  0  0  0  0  0
    8.9748    1.9443   -4.8723 O   0  0  0  0  0  0  0  0  0  0  0  0
    8.5760    2.9014   -3.8989 C   0  0  0  0  0  0  0  0  0  0  0  0
    9.9653    1.6414   -6.9889 C   0  0  0  0  0  0  0  0  0  0  0  0
   10.9431    1.9703   -7.9236 C   0  0  0  0  0  0  0  0  0  0  0  0
   11.8665    2.9721   -7.6276 C   0  0  0  0  0  0  0  0  0  0  0  0
   13.1967    3.4255   -8.9066 Br  0  0  0  0  0  0  0  0  0  0  0  0
   11.8324    3.6367   -6.4056 C   0  0  0  0  0  0  0  0  0  0  0  0
    8.7076    3.7133   -1.2225 O   0  0  0  0  0  0  0  0  0  0  0  0
   10.3070    5.1688    0.9148 C   0  0  0  0  0  0  0  0  0  0  0  0
   11.4748    4.2272    1.1793 C   0  0  2  0  0  0  0  0  0  0  0  0
   12.4105    4.8154    1.1775 H   0  0  0  0  0  0  0  0  0  0  0  0
   11.6414    3.0140    0.2569 C   0  0  0  0  0  0  0  0  0  0  0  0
   12.3579    1.9773    1.1325 C   0  0  0  0  0  0  0  0  0  0  0  0
   11.8916    2.3243    2.4571 N   0  0  0  0  0  0  0  0  0  0  0  0
   11.4055    3.5978    2.5705 C   0  0  0  0  0  0  0  0  0  0  0  0
   11.0254    4.1138    3.5986 O   0  0  0  0  0  0  0  0  0  0  0  0
   18.4275    6.9366   -0.5183 H   0  0  0  0  0  0  0  0  0  0  0  0
   17.4163    6.1600   -1.7682 H   0  0  0  0  0  0  0  0  0  0  0  0
   17.4301    5.5132   -0.1091 H   0  0  0  0  0  0  0  0  0  0  0  0
   16.3564    8.2870   -0.9240 H   0  0  0  0  0  0  0  0  0  0  0  0
   16.3567    7.6443    0.7251 H   0  0  0  0  0  0  0  0  0  0  0  0
   12.9887    5.5809   -1.1012 H   0  0  0  0  0  0  0  0  0  0  0  0
   11.3435    7.8901    0.1770 H   0  0  0  0  0  0  0  0  0  0  0  0
   12.2911    9.5816   -3.5859 H   0  0  0  0  0  0  0  0  0  0  0  0
   13.0977    8.4881   -2.4485 H   0  0  0  0  0  0  0  0  0  0  0  0
   10.8757   11.6066   -2.3201 H   0  0  0  0  0  0  0  0  0  0  0  0
    8.2189   11.7642    0.0144 H   0  0  0  0  0  0  0  0  0  0  0  0
    8.1522   10.8660   -1.5265 H   0  0  0  0  0  0  0  0  0  0  0  0
    8.9067   12.4841   -1.4842 H   0  0  0  0  0  0  0  0  0  0  0  0
   14.5170    9.9569   -0.5231 H   0  0  0  0  0  0  0  0  0  0  0  0
   16.6145   10.7422   -1.7272 H   0  0  0  0  0  0  0  0  0  0  0  0
   16.2063   11.8739   -0.4074 H   0  0  0  0  0  0  0  0  0  0  0  0
   15.6882   12.2313   -2.0805 H   0  0  0  0  0  0  0  0  0  0  0  0
   10.7806    5.7915   -2.3670 H   0  0  0  0  0  0  0  0  0  0  0  0
   11.6580    4.4921   -3.7828 H   0  0  0  0  0  0  0  0  0  0  0  0
    8.0984    2.3491   -3.0814 H   0  0  0  0  0  0  0  0  0  0  0  0
    7.8168    3.5759   -4.3422 H   0  0  0  0  0  0  0  0  0  0  0  0
    9.2305    0.8612   -7.1928 H   0  0  0  0  0  0  0  0  0  0  0  0
   10.9823    1.4510   -8.8823 H   0  0  0  0  0  0  0  0  0  0  0  0
   12.5665    4.4099   -6.1706 H   0  0  0  0  0  0  0  0  0  0  0  0
    9.3701    4.5935    0.9159 H   0  0  0  0  0  0  0  0  0  0  0  0
   10.2536    5.8761    1.7570 H   0  0  0  0  0  0  0  0  0  0  0  0
   12.1932    3.2444   -0.6635 H   0  0  0  0  0  0  0  0  0  0  0  0
   10.6482    2.6368   -0.0303 H   0  0  0  0  0  0  0  0  0  0  0  0
   13.4578    2.0696    1.0501 H   0  0  0  0  0  0  0  0  0  0  0  0
   12.0879    0.9433    0.8665 H   0  0  0  0  0  0  0  0  0  0  0  0
   12.0786    1.7767    3.2860 H   0  0  0  0  0  0  0  0  0  0  0  0
  1 44  1  0  0  0  0
  1  2  1  0  0  0  0
  1 46  1  0  0  0  0
  2 48  1  0  0  0  0
  3  2  1  0  0  0  0
  3  4  1  0  0  0  0
  4  5  2  0  0  0  0
  6  7  1  0  0  0  0
  6  4  1  0  0  0  0
  7 20  1  0  0  0  0
  7 50  1  0  0  0  0
  9  8  1  0  0  0  0
  9 52  1  0  0  0  0
  9 10  1  0  0  0  0
 10 11  1  0  0  0  0
 10 15  1  1  0  0  0
 11 12  1  0  0  0  0
 12 14  2  0  0  0  0
 13 12  1  0  0  0  0
 13 54  1  0  0  0  0
 16 10  1  0  0  0  0
 16 17  1  0  0  0  0
 17 57  1  0  0  0  0
 18 17  1  0  0  0  0
 18 59  1  0  0  0  0
 19 16  2  0  0  0  0
 20 21  1  6  0  0  0
 20 36  1  0  0  0  0
 22 20  1  0  0  0  0
 23 22  1  0  0  0  0
 23 35  2  0  0  0  0
 24 23  1  0  0  0  0
 25 62  1  0  0  0  0
 25 24  2  0  0  0  0
 26 25  1  0  0  0  0
 27 26  1  0  0  0  0
 27 28  1  0  0  0  0
 28 29  1  0  0  0  0
 29 24  1  0  0  0  0
 29 63  1  0  0  0  0
 30 27  2  0  0  0  0
 31 32  2  0  0  0  0
 31 30  1  0  0  0  0
 32 34  1  0  0  0  0
 33 32  1  0  0  0  0
 34 67  1  0  0  0  0
 34 26  2  0  0  0  0
 36 68  1  0  0  0  0
 36 37  1  0  0  0  0
 36 69  1  0  0  0  0
 37 38  1  6  0  0  0
 37 42  1  0  0  0  0
 39 40  1  0  0  0  0
 39 37  1  0  0  0  0
 40 41  1  0  0  0  0
 41 42  1  0  0  0  0
 41 74  1  0  0  0  0
 42 43  2  0  0  0  0
 45  1  1  0  0  0  0
 47  2  1  0  0  0  0
 49  6  1  0  0  0  0
 51  9  1  0  0  0  0
 53 11  1  0  0  0  0
 55 13  1  0  0  0  0
 56 13  1  0  0  0  0
 58 18  1  0  0  0  0
 60 18  1  0  0  0  0
 61 22  1  0  0  0  0
 64 29  1  0  0  0  0
 65 30  1  0  0  0  0
 66 31  1  0  0  0  0
 70 39  1  0  0  0  0
 71 39  1  0  0  0  0
 72 40  1  0  0  0  0
 73 40  1  0  0  0  0
M  END
