74
-1 1
C         8.020260  -12.142458   -0.878915
C         9.095767  -11.643079    0.061922
O         8.673745  -10.403262    0.588107
C         9.475863   -9.830752    1.525612
O        10.488104  -10.414959    1.909288
C         8.976779   -8.563423    1.970668
C         9.681565   -7.820112    2.888437
S        11.280324   -6.198508    1.677071
C        11.928020   -7.534362    0.655386
C        13.063049   -8.360264    1.297949
N        14.185166   -7.532656    1.657159
C        14.550966   -7.238655    2.918198
C        15.644522   -6.196455    3.047832
O        14.049167   -7.752307    3.911817
H        12.690498   -8.837644    2.214436
C        13.544194   -9.417233    0.300073
N        12.812705  -10.554105    0.289589
C        13.062043  -11.615093   -0.647457
O        14.489354   -9.202461   -0.446663
C         9.066839   -6.761318    3.776871
H         8.478612   -7.313785    4.531539
N        10.123440   -6.096014    4.513891
C        10.070296   -5.849887    5.837669
C        11.355698   -5.466634    6.492975
C        12.563389   -5.895147    6.093448
C        13.741639   -5.551734    6.886140
C        13.600683   -4.567962    7.883254
O        12.407131   -3.980347    8.114414
C        11.239090   -4.726401    7.799863
C        14.710228   -4.141734    8.614348
C        15.956864   -4.716094    8.370445
C        16.104991   -5.711600    7.402159
C        14.999283   -6.121423    6.660068
O         9.049885   -5.941608    6.516033
C         8.131002   -5.792999    3.046851
C         7.438949   -4.777155    3.964599
H         8.208187   -4.195049    4.489863
C         6.408110   -5.377919    4.930756
C         5.079950   -5.304690    4.161930
N         5.288885   -4.162512    3.300221
C         6.602434   -3.826136    3.106943
O         6.997703   -2.957694    2.361913
H         8.315401  -13.106043   -1.320669
H         7.851682  -11.422414   -1.693056
H         7.069592  -12.280814   -0.343029
H        10.054500  -11.515910   -0.469886
H         9.281434  -12.358698    0.879878
H         8.052683   -8.207527    1.514114
H        10.553981   -8.308640    3.331436
H        12.300277   -7.119259   -0.296536
H        11.101874   -8.218816    0.392352
H        14.690639   -7.124981    0.881456
H        16.105761   -5.923617    2.088692
H        16.418340   -6.563098    3.735894
H        15.198898   -5.295562    3.494849
H        12.010778  -10.620754    0.925684
H        13.151732  -12.585370   -0.133212
H        14.003113  -11.398129   -1.169533
H        12.260702  -11.700410   -1.402836
H        10.990078   -5.972298    3.984660
H        12.714504   -6.513535    5.202284
H        10.409469   -4.008798    7.771667
H        11.024153   -5.439080    8.620951
H        14.573985   -3.364599    9.368590
H        16.821837   -4.384086    8.950406
H        17.083319   -6.162242    7.221680
H        15.074985   -6.883370    5.879121
H         7.365629   -6.382366    2.513859
H         8.714862   -5.261801    2.279526
H         6.350495   -4.760172    5.838353
H         6.660212   -6.393073    5.259089
H         4.216815   -5.155482    4.830109
H         4.894462   -6.227467    3.580128
H         4.574015   -3.761669    2.707925
