74
-1 1
C        -2.655521   -4.328580   -5.290272
C        -1.834922   -4.225302   -4.025046
O        -2.420154   -3.227600   -3.200520
C        -1.862104   -3.031033   -1.997177
O        -0.981080   -3.749231   -1.566005
C        -2.430804   -1.855821   -1.328437
C        -1.853973   -1.378786   -0.217654
S         0.297160    0.857896   -1.732797
C         0.751002   -0.628311   -2.674885
C         1.942867   -1.420522   -2.090226
N         3.069208   -0.552521   -1.868260
C         3.587349   -0.297703   -0.652011
C         4.510629    0.901372   -0.586529
O         3.330032   -0.963190    0.345933
H         1.660934   -1.833263   -1.110332
C         2.359798   -2.552590   -3.035455
N         1.627740   -3.693984   -2.916930
C         1.905651   -4.863445   -3.705905
O         3.259265   -2.420221   -3.848266
C        -2.276562   -0.185073    0.590682
H        -2.816352   -0.583642    1.468875
N        -1.092487    0.454230    1.121805
C        -1.008405    0.823270    2.414931
C         0.303442    1.335395    2.903832
C         1.505003    0.958405    2.437655
C         2.710063    1.434159    3.118576
C         2.572962    2.495069    4.034704
O         1.361388    3.032173    4.294909
C         0.239840    2.173469    4.155455
C         3.695680    3.046288    4.653050
C         4.957381    2.518568    4.384260
C         5.104121    1.444692    3.503931
C         3.983774    0.910104    2.870887
O        -1.944175    0.739133    3.210853
C        -3.196967    0.778240   -0.168234
C        -3.665196    1.984412    0.655838
H        -2.781907    2.560957    0.963165
C        -4.585507    1.650904    1.839465
C        -6.003178    1.729348    1.254097
N        -5.839557    2.693444    0.190162
C        -4.546952    2.869010   -0.230588
O        -4.205658    3.567743   -1.156743
H        -2.219696   -5.083439   -5.961028
H        -2.676442   -3.364673   -5.818541
H        -3.691275   -4.620543   -5.062594
H        -0.794747   -3.934398   -4.242560
H        -1.798713   -5.182025   -3.479530
H        -3.250210   -1.349183   -1.838991
H        -0.997022   -1.929190    0.185250
H         1.014438   -0.346715   -3.710387
H        -0.104184   -1.320401   -2.759967
H         3.276090    0.094625   -2.617126
H         4.882219    1.212378   -1.572668
H         5.357922    0.680786    0.075394
H         3.942401    1.736263   -0.149163
H         0.860868   -3.729188   -2.247985
H         2.174367   -5.724650   -3.072020
H         2.752342   -4.629717   -4.364333
H         1.045384   -5.157139   -4.331340
H        -0.348230    0.623061    0.416856
H         1.626006    0.295842    1.574581
H        -0.647952    2.817794    4.149380
H         0.161534    1.520216    5.047732
H         3.556576    3.881192    5.342265
H         5.834131    2.948390    4.875653
H         6.094037    1.028731    3.303754
H         4.063600    0.085258    2.156312
H        -4.081103    0.217210   -0.519182
H        -2.652155    1.136122   -1.057571
H        -4.465359    2.414751    2.621424
H        -4.359345    0.688061    2.311679
H        -6.744141    2.065904    1.996644
H        -6.341321    0.747850    0.869888
H        -6.602152    3.070992   -0.356022
