74
-1 1
C         8.563518   11.660725   -0.058109
C         8.870151   10.238944   -0.481729
O         9.303619    9.526265    0.653269
C         9.680240    8.216146    0.437299
O         9.633086    7.753688   -0.689562
C        10.090951    7.565566    1.647696
C        10.524151    6.247877    1.609257
S        12.866595    6.072399    1.138421
C        13.149364    7.836879    0.909929
C        13.711870    8.605844    2.144396
N        14.573039    7.761383    2.914076
C        15.494251    8.245517    3.776889
C        16.406002    7.200403    4.391158
O        15.628335    9.439902    3.998441
H        14.305572    9.464968    1.787064
C        12.579834    9.196774    2.990503
N        12.081909   10.362759    2.527993
C        10.913677   10.993946    3.095316
O        12.139104    8.655305    3.996967
C        10.467670    5.332758    2.822275
H        10.866601    4.352037    2.523585
N        11.293947    5.779611    3.933373
C        12.001180    4.878594    4.649930
C        13.029494    5.406428    5.604937
C        13.138052    6.679571    6.009545
C        14.241957    7.065861    6.881454
C        14.982449    6.040863    7.498050
O        14.656371    4.746348    7.312133
C        14.029627    4.389205    6.086255
C        16.043355    6.355488    8.345951
C        16.389442    7.687936    8.563257
C        15.666338    8.698106    7.932190
Cl        16.125813   10.370032    8.183340
C        14.591669    8.399778    7.101761
O        11.855676    3.663137    4.544635
C         8.994773    5.160150    3.238324
C         8.748830    4.122009    4.340589
H         9.330144    4.407276    5.227715
C         9.002302    2.666294    3.926330
C         7.631800    2.161182    3.448700
N         6.717576    2.981659    4.213037
C         7.264006    4.135555    4.704878
O         6.653320    5.007764    5.283360
H         8.204947   12.249127   -0.916331
H         9.461404   12.152991    0.345796
H         7.787997   11.676521    0.722344
H         9.645975   10.213426   -1.265841
H         7.979587    9.754390   -0.917861
H        10.067317    8.135693    2.577371
H        10.313092    5.729053    0.671147
H        12.186855    8.302902    0.630733
H        13.840429    7.979832    0.066876
H        14.391621    6.761502    2.792270
H        15.923735    6.215955    4.465778
H        16.726202    7.533357    5.385970
H        17.299213    7.099791    3.755139
H        12.428514   10.701861    1.641243
H        11.043470   12.086486    3.111750
H        10.800636   10.633501    4.124912
H        10.009864   10.734004    2.523631
H        11.610570    6.751436    3.920485
H        12.457644    7.458167    5.668272
H        13.527642    3.428853    6.251407
H        14.806931    4.222265    5.313179
H        16.597114    5.544390    8.821228
H        17.227363    7.942500    9.213709
H        14.043618    9.191799    6.589303
H         8.412884    4.892764    2.338519
H         8.608916    6.133350    3.577517
H         9.333358    2.087108    4.799945
H         9.786716    2.564733    3.167178
H         7.484074    1.089658    3.657182
H         7.499094    2.309681    2.360488
H         5.713219    2.863325    4.207325
