-1 1
 OpenBabel05192410563D

 91 93  0  0  1  0  0  0  0  0999 V2000
   -0.7860    2.4739    3.3056 C   0  0  0  0  0  0  0  0  0  0  0  0
   -0.1486    1.1018    3.4633 C   0  0  0  0  0  0  0  0  0  0  0  0
   -0.6795    0.1311    2.5846 O   0  0  0  0  0  0  0  0  0  0  0  0
   -0.5554    0.3966    1.2061 C   0  0  0  0  0  0  0  0  0  0  0  0
    0.4435    1.0808    0.8430 O   0  0  0  0  0  0  0  0  0  0  0  0
   -1.5511   -0.1893    0.4541 C   0  0  0  0  0  3  0  0  0  0  0  0
   -1.9784    0.1999   -0.9278 C   0  0  1  0  0  0  0  0  0  0  0  0
   -3.2798    1.5739   -0.8298 S   0  0  0  0  0  0  0  0  0  0  0  0
   -4.8795    0.7030   -0.7891 C   0  0  0  0  0  0  0  0  0  0  0  0
   -5.0951   -0.3041    0.3497 C   0  0  2  0  0  0  0  0  0  0  0  0
   -6.1829   -0.4105    0.5114 H   0  0  0  0  0  0  0  0  0  0  0  0
   -4.5150    0.1971    1.5782 N   0  0  0  0  0  0  0  0  0  0  0  0
   -4.8014   -0.2317    2.8240 C   0  0  0  0  0  0  0  0  0  0  0  0
   -3.9550    0.3937    3.9096 C   0  0  0  0  0  0  0  0  0  0  0  0
   -5.6502   -1.0888    3.0589 O   0  0  0  0  0  0  0  0  0  0  0  0
   -4.6244   -1.7239   -0.0651 C   0  0  0  0  0  0  0  0  0  0  0  0
   -4.4829   -2.6064    0.9454 N   0  0  0  0  0  0  0  0  0  0  0  0
   -4.0304   -3.9510    0.6883 C   0  0  0  0  0  0  0  0  0  0  0  0
   -4.4360   -2.0281   -1.2319 O   0  0  0  0  0  0  0  0  0  0  0  0
   -0.8372    0.7246   -1.8422 C   0  0  1  0  0  0  0  0  0  0  0  0
   -0.5360    1.6900   -1.4109 H   0  0  0  0  0  0  0  0  0  0  0  0
    0.3347   -0.1258   -1.6617 N   0  0  0  0  0  0  0  0  0  0  0  0
    0.3809   -1.4053   -2.0535 C   0  0  0  0  0  0  0  0  0  0  0  0
    1.6399   -2.1766   -1.5945 C   0  0  2  0  0  0  0  0  0  0  0  0
    2.4866   -1.7695   -2.1664 H   0  0  0  0  0  0  0  0  0  0  0  0
    1.4952   -3.6817   -1.8018 C   0  0  0  0  0  0  0  0  0  0  0  0
    0.8509   -4.3630   -0.2342 S   0  0  0  0  0  0  0  0  0  0  0  0
    1.1218   -2.7914    0.6955 C   0  0  1  0  0  0  0  0  0  0  0  0
    0.1348   -2.3151    0.8325 H   0  0  0  0  0  0  0  0  0  0  0  0
    1.8109   -2.9861    2.0322 C   0  0  0  0  0  0  0  0  0  0  0  0
    2.1120   -1.6134    2.6180 C   0  0  0  0  0  0  0  0  0  0  0  0
    3.0559   -0.8236    1.7112 C   0  0  1  0  0  0  0  0  0  0  0  0
    4.0972   -1.1409    1.8817 H   0  0  0  0  0  0  0  0  0  0  0  0
    2.8272   -1.0245    0.2038 C   0  0  0  0  0  0  0  0  0  0  0  0
    1.9307   -1.9714   -0.1904 N   0  0  0  0  0  0  0  0  0  0  0  0
    3.4274   -0.3378   -0.6056 O   0  0  0  0  0  0  0  0  0  0  0  0
    3.0019    0.5936    1.9670 N   0  0  0  0  0  0  0  0  0  0  0  0
    4.1427    1.3165    2.0444 C   0  0  0  0  0  0  0  0  0  0  0  0
    3.8629    2.6353    1.9018 O   0  0  0  0  0  0  0  0  0  0  0  0
    4.9602    3.5007    1.7335 C   0  0  0  0  0  0  0  0  0  0  0  0
    5.3561    3.6711    0.2820 C   0  0  0  0  0  0  0  0  0  0  0  0
    4.9454    2.7719   -0.7057 C   0  0  0  0  0  0  0  0  0  0  0  0
    5.3575    2.9492   -2.0267 C   0  0  0  0  0  0  0  0  0  0  0  0
    6.1771    4.0198   -2.3782 C   0  0  0  0  0  0  0  0  0  0  0  0
    6.5882    4.9211   -1.3958 C   0  0  0  0  0  0  0  0  0  0  0  0
    6.1773    4.7460   -0.0765 C   0  0  0  0  0  0  0  0  0  0  0  0
    5.2577    0.8857    2.2370 O   0  0  0  0  0  0  0  0  0  0  0  0
   -0.4431   -1.9545   -2.7803 O   0  0  0  0  0  0  0  0  0  0  0  0
   -1.0384    0.9246   -3.3735 C   0  0  0  0  0  0  0  0  0  0  0  0
   -2.3963    1.2858   -3.9689 C   0  0  0  0  0  0  0  0  0  0  0  0
   -3.4990    0.2354   -3.8991 C   0  0  0  0  0  0  0  0  0  0  0  0
   -3.1144   -1.0570   -3.7593 N   0  0  0  0  0  0  0  0  0  0  0  0
   -4.6722    0.5615   -4.0074 O   0  0  0  0  0  0  0  0  0  0  0  0
   -0.3799    3.1672    4.0586 H   0  0  0  0  0  0  0  0  0  0  0  0
   -1.8772    2.4238    3.4327 H   0  0  0  0  0  0  0  0  0  0  0  0
   -0.5667    2.8758    2.3071 H   0  0  0  0  0  0  0  0  0  0  0  0
   -0.3405    0.7010    4.4718 H   0  0  0  0  0  0  0  0  0  0  0  0
    0.9443    1.1849    3.3498 H   0  0  0  0  0  0  0  0  0  0  0  0
   -2.2582   -0.8036    1.0109 H   0  0  0  0  0  0  0  0  0  0  0  0
   -2.5019   -0.6318   -1.4102 H   0  0  0  0  0  0  0  0  0  0  0  0
   -5.0697    0.2173   -1.7541 H   0  0  0  0  0  0  0  0  0  0  0  0
   -5.5997    1.5270   -0.6846 H   0  0  0  0  0  0  0  0  0  0  0  0
   -3.6997    0.7962    1.4376 H   0  0  0  0  0  0  0  0  0  0  0  0
   -4.0861    1.4857    3.9297 H   0  0  0  0  0  0  0  0  0  0  0  0
   -2.8936    0.1843    3.6988 H   0  0  0  0  0  0  0  0  0  0  0  0
   -4.2429   -0.0309    4.8777 H   0  0  0  0  0  0  0  0  0  0  0  0
   -4.8806   -2.3574    1.8510 H   0  0  0  0  0  0  0  0  0  0  0  0
   -3.7909   -4.4372    1.6430 H   0  0  0  0  0  0  0  0  0  0  0  0
   -3.1250   -3.9313    0.0643 H   0  0  0  0  0  0  0  0  0  0  0  0
   -4.7887   -4.5547    0.1607 H   0  0  0  0  0  0  0  0  0  0  0  0
    0.9153    0.1842   -0.8797 H   0  0  0  0  0  0  0  0  0  0  0  0
    2.4671   -4.1401   -2.0252 H   0  0  0  0  0  0  0  0  0  0  0  0
    0.7809   -3.8771   -2.6102 H   0  0  0  0  0  0  0  0  0  0  0  0
    2.7310   -3.5767    1.8847 H   0  0  0  0  0  0  0  0  0  0  0  0
    1.1523   -3.5590    2.7012 H   0  0  0  0  0  0  0  0  0  0  0  0
    2.5599   -1.6928    3.6195 H   0  0  0  0  0  0  0  0  0  0  0  0
    1.1645   -1.0666    2.7225 H   0  0  0  0  0  0  0  0  0  0  0  0
    2.1437    1.0532    1.6221 H   0  0  0  0  0  0  0  0  0  0  0  0
    5.8200    3.1199    2.3076 H   0  0  0  0  0  0  0  0  0  0  0  0
    4.6555    4.4699    2.1550 H   0  0  0  0  0  0  0  0  0  0  0  0
    4.3073    1.9183   -0.4647 H   0  0  0  0  0  0  0  0  0  0  0  0
    5.0274    2.2348   -2.7842 H   0  0  0  0  0  0  0  0  0  0  0  0
    6.4939    4.1545   -3.4153 H   0  0  0  0  0  0  0  0  0  0  0  0
    7.2274    5.7676   -1.6590 H   0  0  0  0  0  0  0  0  0  0  0  0
    6.4980    5.4591    0.6895 H   0  0  0  0  0  0  0  0  0  0  0  0
   -0.6818    0.0208   -3.8839 H   0  0  0  0  0  0  0  0  0  0  0  0
   -0.3257    1.7127   -3.6631 H   0  0  0  0  0  0  0  0  0  0  0  0
   -2.2464    1.4942   -5.0429 H   0  0  0  0  0  0  0  0  0  0  0  0
   -2.8207    2.1971   -3.5308 H   0  0  0  0  0  0  0  0  0  0  0  0
   -3.8439   -1.6869   -3.4412 H   0  0  0  0  0  0  0  0  0  0  0  0
   -2.1678   -1.3135   -3.4746 H   0  0  0  0  0  0  0  0  0  0  0  0
  1 55  1  0  0  0  0
  1  2  1  0  0  0  0
  1 54  1  0  0  0  0
  2 57  1  0  0  0  0
  3  2  1  0  0  0  0
  4  3  1  0  0  0  0
  5  4  2  0  0  0  0
  6 59  1  0  0  0  0
  6  4  1  0  0  0  0
  7 60  1  6  0  0  0
  7  8  1  0  0  0  0
  7  6  1  0  0  0  0
  8  9  1  0  0  0  0
  9 62  1  0  0  0  0
  9 10  1  0  0  0  0
 10 11  1  1  0  0  0
 10 12  1  0  0  0  0
 12 13  1  0  0  0  0
 13 15  2  0  0  0  0
 13 14  1  0  0  0  0
 14 64  1  0  0  0  0
 14 66  1  0  0  0  0
 16 10  1  0  0  0  0
 16 17  1  0  0  0  0
 17 67  1  0  0  0  0
 18 17  1  0  0  0  0
 18 68  1  0  0  0  0
 19 16  2  0  0  0  0
 20 22  1  0  0  0  0
 20 21  1  1  0  0  0
 20  7  1  0  0  0  0
 22 71  1  0  0  0  0
 23 22  1  0  0  0  0
 23 24  1  0  0  0  0
 24 25  1  6  0  0  0
 24 35  1  0  0  0  0
 26 24  1  0  0  0  0
 26 27  1  0  0  0  0
 27 28  1  0  0  0  0
 28 29  1  1  0  0  0
 28 30  1  0  0  0  0
 30 31  1  0  0  0  0
 30 75  1  0  0  0  0
 31 77  1  0  0  0  0
 31 76  1  0  0  0  0
 32 33  1  1  0  0  0
 32 37  1  0  0  0  0
 32 31  1  0  0  0  0
 34 32  1  0  0  0  0
 35 34  1  0  0  0  0
 35 28  1  0  0  0  0
 36 34  2  0  0  0  0
 37 38  1  0  0  0  0
 38 47  2  0  0  0  0
 39 38  1  0  0  0  0
 40 39  1  0  0  0  0
 40 80  1  0  0  0  0
 40 79  1  0  0  0  0
 41 40  1  0  0  0  0
 42 81  1  0  0  0  0
 42 41  2  0  0  0  0
 43 42  1  0  0  0  0
 44 43  2  0  0  0  0
 44 45  1  0  0  0  0
 45 46  2  0  0  0  0
 46 41  1  0  0  0  0
 46 85  1  0  0  0  0
 48 23  2  0  0  0  0
 49 20  1  0  0  0  0
 50 51  1  0  0  0  0
 50 89  1  0  0  0  0
 50 49  1  0  0  0  0
 51 52  1  0  0  0  0
 52 91  1  0  0  0  0
 52 90  1  0  0  0  0
 53 51  2  0  0  0  0
 56  1  1  0  0  0  0
 58  2  1  0  0  0  0
 61  9  1  0  0  0  0
 63 12  1  0  0  0  0
 65 14  1  0  0  0  0
 69 18  1  0  0  0  0
 70 18  1  0  0  0  0
 72 26  1  0  0  0  0
 73 26  1  0  0  0  0
 74 30  1  0  0  0  0
 78 37  1  0  0  0  0
 82 43  1  0  0  0  0
 83 44  1  0  0  0  0
 84 45  1  0  0  0  0
 86 49  1  0  0  0  0
 87 49  1  0  0  0  0
 88 50  1  0  0  0  0
M  END
