91
-1 1
C         8.849833    6.280365   11.976193
C         9.275766    4.832617   12.143486
O         8.600461    3.955190   11.251931
C         8.880668    4.035457    9.917909
O         9.853586    4.686391    9.532001
C         7.921505    3.311658    9.135946
C         7.604393    3.600737    7.823844
S         5.910601    5.615993    8.093324
C         4.338932    4.677582    8.110505
C         4.191617    3.656341    9.261883
H         3.120039    3.551873    9.513926
N         4.876257    4.155175   10.436447
C         4.631072    3.818773   11.710145
C         5.471181    4.553933   12.733416
O         3.821172    2.951092   12.043513
C         4.633948    2.229343    8.861604
N         4.694247    1.351542    9.890257
C         5.087979   -0.015474    9.671711
O         4.877465    1.899961    7.712117
C         8.578711    4.262937    6.853113
H         8.790324    5.258669    7.263664
N         9.862167    3.552734    6.905407
C         9.973523    2.252448    6.598909
C        11.341493    1.627172    6.961941
H        12.124164    2.175767    6.419280
C        11.380614    0.128914    6.660069
S        10.969738   -0.744346    8.214365
C        10.888138    0.812749    9.190919
H         9.827121    1.114505    9.257576
C        11.486785    0.690839   10.578986
C        11.590149    2.080372   11.194364
C        12.523416    2.959489   10.363306
H        13.565351    2.635436   10.522833
C        12.296510    2.855065    8.848066
N        11.605590    1.781998    8.382681
O        12.733250    3.709673    8.092905
N        12.460888    4.349640   10.728759
C        13.604365    5.068793   10.868015
O        13.322986    6.389579   10.808765
C        14.421705    7.270218   10.743140
C        14.914807    7.496890    9.329804
C        14.481338    6.713900    8.257608
C        14.979871    6.948004    6.975399
C        15.907556    7.961968    6.748193
C        16.341620    8.747827    7.816460
C        15.846547    8.514767    9.096713
O        14.712931    4.620648   11.045819
O         9.092729    1.578343    6.079709
C         8.199721    4.410396    5.352418
C         6.755951    4.660609    4.929306
C         5.785292    3.486261    4.916026
N         6.297710    2.235859    5.075443
O         4.597503    3.680614    4.720156
H         9.340399    6.902627   12.740016
H         7.761183    6.383375   12.086343
H         9.134178    6.655524   10.984515
H         9.009078    4.461301   13.144212
H        10.365523    4.732204   12.032880
H         7.183687    2.758131    9.719210
H         6.770816    3.042958    7.399785
H         4.203960    4.145707    7.158892
H         3.520891    5.407571    8.198933
H         5.594313    4.851920   10.183924
H         5.431496    5.641483   12.575947
H         6.517261    4.233493   12.618901
H         5.111945    4.305112   13.738485
H         4.319156    1.652456   10.793125
H         5.334365   -0.480762   10.635810
H         5.973662   -0.052768    9.020334
H         4.295553   -0.611137    9.184944
H        10.603620    3.993868    7.440971
H        12.382247   -0.180372    6.336351
H        10.634376   -0.111624    5.893755
H        12.480599    0.218728   10.506807
H        10.851415    0.035390   11.191893
H        11.969786    2.032614   12.225245
H        10.589182    2.533713   11.240093
H        11.635422    4.842913   10.376225
H        15.244535    6.880676   11.363168
H        14.072619    8.219098   11.175558
H        13.759227    5.907170    8.402965
H        14.632353    6.323757    6.149258
H        16.292062    8.141847    5.741499
H        17.067347    9.547898    7.651026
H        16.188579    9.135376    9.930839
H         8.571892    3.526149    4.815781
H         8.812495    5.246650    4.981103
H         6.756070    5.047187    3.896415
H         6.282313    5.428775    5.556549
H         5.611009    1.543766    5.352123
H         7.241739    2.078140    5.423874
