91
-1 1
C        -0.785954    2.473878    3.305553
C        -0.148586    1.101841    3.463303
O        -0.679498    0.131070    2.584587
C        -0.555354    0.396551    1.206061
O         0.443499    1.080836    0.842989
C        -1.551120   -0.189282    0.454128
C        -1.978382    0.199876   -0.927781
S        -3.279837    1.573856   -0.829834
C        -4.879545    0.703027   -0.789138
C        -5.095130   -0.304118    0.349677
H        -6.182924   -0.410492    0.511426
N        -4.515006    0.197110    1.578204
C        -4.801370   -0.231701    2.823964
C        -3.954971    0.393730    3.909614
O        -5.650163   -1.088807    3.058924
C        -4.624377   -1.723928   -0.065051
N        -4.482908   -2.606447    0.945423
C        -4.030411   -3.951050    0.688345
O        -4.435987   -2.028072   -1.231931
C        -0.837214    0.724567   -1.842190
H        -0.536016    1.690030   -1.410939
N         0.334717   -0.125784   -1.661740
C         0.380864   -1.405273   -2.053485
C         1.639890   -2.176637   -1.594494
H         2.486557   -1.769509   -2.166379
C         1.495209   -3.681734   -1.801777
S         0.850887   -4.363030   -0.234155
C         1.121808   -2.791408    0.695520
H         0.134768   -2.315074    0.832490
C         1.810904   -2.986072    2.032218
C         2.112015   -1.613425    2.617974
C         3.055897   -0.823581    1.711198
H         4.097193   -1.140939    1.881664
C         2.827186   -1.024542    0.203793
N         1.930667   -1.971425   -0.190358
O         3.427408   -0.337753   -0.605560
N         3.001923    0.593600    1.967043
C         4.142737    1.316520    2.044358
O         3.862879    2.635336    1.901802
C         4.960171    3.500711    1.733507
C         5.356140    3.671122    0.281967
C         4.945433    2.771880   -0.705655
C         5.357453    2.949179   -2.026730
C         6.177112    4.019795   -2.378202
C         6.588181    4.921136   -1.395778
C         6.177322    4.745977   -0.076516
O         5.257737    0.885660    2.236975
O        -0.443137   -1.954529   -2.780341
C        -1.038409    0.924584   -3.373507
C        -2.396314    1.285804   -3.968920
C        -3.498951    0.235408   -3.899125
N        -3.114447   -1.056970   -3.759268
O        -4.672215    0.561508   -4.007447
H        -0.379929    3.167167    4.058552
H        -1.877194    2.423826    3.432744
H        -0.566652    2.875836    2.307074
H        -0.340529    0.701048    4.471842
H         0.944322    1.184910    3.349850
H        -2.258224   -0.803619    1.010883
H        -2.501906   -0.631769   -1.410213
H        -5.069690    0.217270   -1.754085
H        -5.599747    1.526993   -0.684612
H        -3.699719    0.796231    1.437618
H        -4.086091    1.485672    3.929704
H        -2.893620    0.184286    3.698818
H        -4.242861   -0.030948    4.877746
H        -4.880554   -2.357422    1.850950
H        -3.790937   -4.437224    1.643045
H        -3.124997   -3.931326    0.064332
H        -4.788730   -4.554702    0.160742
H         0.915262    0.184197   -0.879657
H         2.467082   -4.140099   -2.025170
H         0.780949   -3.877075   -2.610203
H         2.731001   -3.576675    1.884734
H         1.152284   -3.559009    2.701231
H         2.559880   -1.692805    3.619500
H         1.164515   -1.066595    2.722465
H         2.143655    1.053184    1.622059
H         5.819985    3.119864    2.307590
H         4.655531    4.469892    2.154981
H         4.307337    1.918326   -0.464707
H         5.027426    2.234793   -2.784201
H         6.493908    4.154456   -3.415251
H         7.227430    5.767649   -1.658966
H         6.497953    5.459078    0.689513
H        -0.681804    0.020777   -3.883902
H        -0.325668    1.712652   -3.663096
H        -2.246367    1.494224   -5.042926
H        -2.820715    2.197137   -3.530843
H        -3.843854   -1.686898   -3.441159
H        -2.167842   -1.313484   -3.474591
