-1 1
 OpenBabel05232413483D

 91 92  0  0  1  0  0  0  0  0999 V2000
    0.7546    1.5520    3.6322 C   0  0  0  0  0  0  0  0  0  0  0  0
    0.9135    0.4393    2.6236 C   0  0  0  0  0  0  0  0  0  0  0  0
   -0.3693    0.0658    2.1226 O   0  0  0  0  0  0  0  0  0  0  0  0
   -0.3883   -0.9166    1.2026 C   0  0  0  0  0  0  0  0  0  0  0  0
    0.5909   -1.5840    0.9625 O   0  0  0  0  0  0  0  0  0  0  0  0
   -1.7552   -1.0801    0.6607 C   0  0  0  0  0  0  0  0  0  0  0  0
   -2.1456   -1.4012   -0.5818 C   0  0  0  0  0  0  0  0  0  0  0  0
    0.4253    1.2353   -1.0429 S   0  0  0  0  0  1  0  0  0  0  0  0
   -0.6571    2.5536   -1.6983 C   0  0  0  0  0  0  0  0  0  0  0  0
   -2.0718    2.5952   -1.0899 C   0  0  2  0  0  0  0  0  0  0  0  0
   -2.4945    3.6073   -1.2310 H   0  0  0  0  0  0  0  0  0  0  0  0
   -2.0005    2.3594    0.3395 N   0  0  0  0  0  0  0  0  0  0  0  0
   -2.8864    2.8169    1.2399 C   0  0  0  0  0  0  0  0  0  0  0  0
   -2.5469    2.5598    2.6899 C   0  0  0  0  0  0  0  0  0  0  0  0
   -3.9107    3.4264    0.9230 O   0  0  0  0  0  0  0  0  0  0  0  0
   -3.0763    1.6524   -1.7961 C   0  0  0  0  0  0  0  0  0  0  0  0
   -4.3074    1.6479   -1.2366 N   0  0  0  0  0  0  0  0  0  0  0  0
   -5.4033    0.8899   -1.7893 C   0  0  0  0  0  0  0  0  0  0  0  0
   -2.8059    1.0121   -2.8020 O   0  0  0  0  0  0  0  0  0  0  0  0
   -1.3914   -1.5505   -1.8766 C   0  0  1  0  0  0  0  0  0  0  0  0
   -1.2623   -0.4906   -2.1647 H   0  0  0  0  0  0  0  0  0  0  0  0
   -0.0420   -2.0689   -1.8016 N   0  0  0  0  0  0  0  0  0  0  0  0
    0.2402   -3.3466   -1.5363 C   0  0  0  0  0  0  0  0  0  0  0  0
    1.7397   -3.7236   -1.6754 C   0  0  2  0  0  0  0  0  0  0  0  0
    2.0540   -3.3778   -2.6705 H   0  0  0  0  0  0  0  0  0  0  0  0
    1.9652   -5.2340   -1.5158 C   0  0  0  0  0  0  0  0  0  0  0  0
    2.7997   -5.5130    0.0862 S   0  0  0  0  0  0  0  0  0  0  0  0
    2.6720   -3.7421    0.5588 C   0  0  1  0  0  0  0  0  0  0  0  0
    1.7309   -3.6003    1.1112 H   0  0  0  0  0  0  0  0  0  0  0  0
    3.8426   -3.2476    1.3843 C   0  0  0  0  0  0  0  0  0  0  0  0
    3.7638   -1.7306    1.4801 C   0  0  0  0  0  0  0  0  0  0  0  0
    3.9083   -1.1065    0.0906 C   0  0  1  0  0  0  0  0  0  0  0  0
    4.9566   -1.2437   -0.2419 H   0  0  0  0  0  0  0  0  0  0  0  0
    3.0611   -1.8002   -0.9802 C   0  0  0  0  0  0  0  0  0  0  0  0
    2.5812   -3.0444   -0.7062 N   0  0  0  0  0  0  0  0  0  0  0  0
    2.8446   -1.2558   -2.0488 O   0  0  0  0  0  0  0  0  0  0  0  0
    3.5738    0.2979    0.0462 N   0  0  0  0  0  0  0  0  0  0  0  0
    4.2043    1.2079    0.8123 C   0  0  0  0  0  0  0  0  0  0  0  0
    3.7016    2.4379    0.5721 O   0  0  0  0  0  0  0  0  0  0  0  0
    3.9668    3.4688    1.4920 C   0  0  0  0  0  0  0  0  0  0  0  0
    2.6787    4.1515    1.8920 C   0  0  0  0  0  0  0  0  0  0  0  0
    1.5137    3.9902    1.1365 C   0  0  0  0  0  0  0  0  0  0  0  0
    0.3475    4.6628    1.5044 C   0  0  0  0  0  0  0  0  0  0  0  0
    0.3271    5.4874    2.6283 C   0  0  0  0  0  0  0  0  0  0  0  0
    1.4851    5.6375    3.3931 C   0  0  0  0  0  0  0  0  0  0  0  0
    2.6535    4.9739    3.0238 C   0  0  0  0  0  0  0  0  0  0  0  0
    5.0941    0.9879    1.6108 O   0  0  0  0  0  0  0  0  0  0  0  0
   -0.6049   -4.2024   -1.2780 O   0  0  0  0  0  0  0  0  0  0  0  0
   -2.1390   -2.2522   -3.0415 C   0  0  0  0  0  0  0  0  0  0  0  0
   -3.6585   -2.2500   -2.9945 C   0  0  0  0  0  0  0  0  0  0  0  0
   -4.3288   -3.0946   -1.9189 C   0  0  0  0  0  0  0  0  0  0  0  0
   -3.5844   -4.0862   -1.3660 N   0  0  0  0  0  0  0  0  0  0  0  0
   -5.4948   -2.9014   -1.6083 O   0  0  0  0  0  0  0  0  0  0  0  0
    1.7430    1.8150    4.0371 H   0  0  0  0  0  0  0  0  0  0  0  0
    0.1046    1.2478    4.4669 H   0  0  0  0  0  0  0  0  0  0  0  0
    0.3397    2.4555    3.1669 H   0  0  0  0  0  0  0  0  0  0  0  0
    1.3870   -0.4431    3.0819 H   0  0  0  0  0  0  0  0  0  0  0  0
    1.5287    0.7589    1.7680 H   0  0  0  0  0  0  0  0  0  0  0  0
   -2.5392   -0.8105    1.3741 H   0  0  0  0  0  0  0  0  0  0  0  0
   -3.2285   -1.3463   -0.7183 H   0  0  0  0  0  0  0  0  0  0  0  0
   -0.7746    2.4453   -2.7853 H   0  0  0  0  0  0  0  0  0  0  0  0
   -0.1909    3.5364   -1.5144 H   0  0  0  0  0  0  0  0  0  0  0  0
   -1.1828    1.7947    0.6055 H   0  0  0  0  0  0  0  0  0  0  0  0
   -1.9049    3.3745    3.0598 H   0  0  0  0  0  0  0  0  0  0  0  0
   -2.0035    1.6153    2.8167 H   0  0  0  0  0  0  0  0  0  0  0  0
   -3.4765    2.5571    3.2720 H   0  0  0  0  0  0  0  0  0  0  0  0
   -4.4700    2.2977   -0.4644 H   0  0  0  0  0  0  0  0  0  0  0  0
   -6.3521    1.3395   -1.4659 H   0  0  0  0  0  0  0  0  0  0  0  0
   -5.4029   -0.1678   -1.4741 H   0  0  0  0  0  0  0  0  0  0  0  0
   -5.3592    0.9078   -2.8889 H   0  0  0  0  0  0  0  0  0  0  0  0
    0.7088   -1.3875   -1.9297 H   0  0  0  0  0  0  0  0  0  0  0  0
    2.6144   -5.6207   -2.3113 H   0  0  0  0  0  0  0  0  0  0  0  0
    0.9970   -5.7479   -1.5335 H   0  0  0  0  0  0  0  0  0  0  0  0
    4.7880   -3.5654    0.9125 H   0  0  0  0  0  0  0  0  0  0  0  0
    3.8032   -3.7063    2.3832 H   0  0  0  0  0  0  0  0  0  0  0  0
    4.5432   -1.3230    2.1350 H   0  0  0  0  0  0  0  0  0  0  0  0
    2.7835   -1.4412    1.8788 H   0  0  0  0  0  0  0  0  0  0  0  0
    2.8110    0.6245   -0.5600 H   0  0  0  0  0  0  0  0  0  0  0  0
    4.6427    4.1978    1.0119 H   0  0  0  0  0  0  0  0  0  0  0  0
    4.4956    3.0604    2.3670 H   0  0  0  0  0  0  0  0  0  0  0  0
    1.5015    3.2966    0.2875 H   0  0  0  0  0  0  0  0  0  0  0  0
   -0.5565    4.5161    0.9097 H   0  0  0  0  0  0  0  0  0  0  0  0
   -0.5917    6.0063    2.9124 H   0  0  0  0  0  0  0  0  0  0  0  0
    1.4773    6.2708    4.2837 H   0  0  0  0  0  0  0  0  0  0  0  0
    3.5579    5.0903    3.6292 H   0  0  0  0  0  0  0  0  0  0  0  0
   -1.7860   -3.2900   -3.1289 H   0  0  0  0  0  0  0  0  0  0  0  0
   -1.8219   -1.7431   -3.9628 H   0  0  0  0  0  0  0  0  0  0  0  0
   -4.0503   -2.6281   -3.9538 H   0  0  0  0  0  0  0  0  0  0  0  0
   -4.0378   -1.2238   -2.9014 H   0  0  0  0  0  0  0  0  0  0  0  0
   -4.0175   -4.5699   -0.5894 H   0  0  0  0  0  0  0  0  0  0  0  0
   -2.5617   -4.1118   -1.4111 H   0  0  0  0  0  0  0  0  0  0  0  0
  1 54  1  0  0  0  0
  1 55  1  0  0  0  0
  2 57  1  0  0  0  0
  2  1  1  0  0  0  0
  3  2  1  0  0  0  0
  4  3  1  0  0  0  0
  5  4  2  0  0  0  0
  6  4  1  0  0  0  0
  6 59  1  0  0  0  0
  7  6  2  0  0  0  0
  9 62  1  0  0  0  0
  9 10  1  0  0  0  0
  9  8  1  0  0  0  0
 10 11  1  6  0  0  0
 10 12  1  0  0  0  0
 12 63  1  0  0  0  0
 12 13  1  0  0  0  0
 13 14  1  0  0  0  0
 14 65  1  0  0  0  0
 14 64  1  0  0  0  0
 14 66  1  0  0  0  0
 15 13  2  0  0  0  0
 16 17  1  0  0  0  0
 16 10  1  0  0  0  0
 17 67  1  0  0  0  0
 18 69  1  0  0  0  0
 18 68  1  0  0  0  0
 18 17  1  0  0  0  0
 19 16  2  0  0  0  0
 20 21  1  6  0  0  0
 20 22  1  0  0  0  0
 20  7  1  0  0  0  0
 22 23  1  0  0  0  0
 23 48  2  0  0  0  0
 24 25  1  6  0  0  0
 24 23  1  0  0  0  0
 24 26  1  0  0  0  0
 24 35  1  0  0  0  0
 26 27  1  0  0  0  0
 27 28  1  0  0  0  0
 28 29  1  1  0  0  0
 28 30  1  0  0  0  0
 30 31  1  0  0  0  0
 30 75  1  0  0  0  0
 31 77  1  0  0  0  0
 31 76  1  0  0  0  0
 32 33  1  6  0  0  0
 32 31  1  0  0  0  0
 34 35  1  0  0  0  0
 34 32  1  0  0  0  0
 35 28  1  0  0  0  0
 36 34  2  0  0  0  0
 37 32  1  0  0  0  0
 37 38  1  0  0  0  0
 38 47  2  0  0  0  0
 39 38  1  0  0  0  0
 39 40  1  0  0  0  0
 40 41  1  0  0  0  0
 40 80  1  0  0  0  0
 41 46  1  0  0  0  0
 42 43  1  0  0  0  0
 42 41  2  0  0  0  0
 43 44  2  0  0  0  0
 44 83  1  0  0  0  0
 44 45  1  0  0  0  0
 45 84  1  0  0  0  0
 46 45  2  0  0  0  0
 46 85  1  0  0  0  0
 49 50  1  0  0  0  0
 49 20  1  0  0  0  0
 50 89  1  0  0  0  0
 50 51  1  0  0  0  0
 51 53  2  0  0  0  0
 51 52  1  0  0  0  0
 52 90  1  0  0  0  0
 56  1  1  0  0  0  0
 58  2  1  0  0  0  0
 60  7  1  0  0  0  0
 61  9  1  0  0  0  0
 70 18  1  0  0  0  0
 71 22  1  0  0  0  0
 72 26  1  0  0  0  0
 73 26  1  0  0  0  0
 74 30  1  0  0  0  0
 78 37  1  0  0  0  0
 79 40  1  0  0  0  0
 81 42  1  0  0  0  0
 82 43  1  0  0  0  0
 86 49  1  0  0  0  0
 87 49  1  0  0  0  0
 88 50  1  0  0  0  0
 91 52  1  0  0  0  0
M  END
