-1 1
 OpenBabel05192410563D

 89 91  0  0  1  0  0  0  0  0999 V2000
   -4.5445    3.6453   -5.0520 C   0  0  0  0  0  0  0  0  0  0  0  0
   -3.6540    4.6925   -4.3983 C   0  0  0  0  0  0  0  0  0  0  0  0
   -3.3546    4.3814   -3.0622 O   0  0  0  0  0  0  0  0  0  0  0  0
   -2.3228    3.4754   -2.8553 C   0  0  0  0  0  0  0  0  0  0  0  0
   -1.7142    3.0201   -3.8242 O   0  0  0  0  0  0  0  0  0  0  0  0
   -2.1214    3.1907   -1.4879 C   0  0  0  0  0  3  0  0  0  0  0  0
   -1.0494    2.3100   -1.1204 C   0  0  1  0  0  0  0  0  0  0  0  0
    0.7723    3.2040   -0.9267 S   0  0  0  0  0  0  0  0  0  0  0  0
    0.3055    4.8669   -0.4089 C   0  0  0  0  0  0  0  0  0  0  0  0
    0.7120    5.3161    1.0170 C   0  0  2  0  0  0  0  0  0  0  0  0
    1.3514    6.2105    0.9432 H   0  0  0  0  0  0  0  0  0  0  0  0
    1.4920    4.3261    1.7386 N   0  0  0  0  0  0  0  0  0  0  0  0
    2.4226    4.6531    2.6553 C   0  0  0  0  0  0  0  0  0  0  0  0
    3.2641    3.5079    3.1704 C   0  0  0  0  0  0  0  0  0  0  0  0
    2.6053    5.8099    3.0395 O   0  0  0  0  0  0  0  0  0  0  0  0
   -0.4960    5.7283    1.8897 C   0  0  0  0  0  0  0  0  0  0  0  0
   -0.1447    6.4520    2.9749 N   0  0  0  0  0  0  0  0  0  0  0  0
   -1.0968    6.7760    4.0057 C   0  0  0  0  0  0  0  0  0  0  0  0
   -1.6532    5.4152    1.6431 O   0  0  0  0  0  0  0  0  0  0  0  0
   -1.2633    1.4372    0.1292 C   0  0  1  0  0  0  0  0  0  0  0  0
   -2.1362    0.8060   -0.1135 H   0  0  0  0  0  0  0  0  0  0  0  0
   -0.1514    0.4890    0.2884 N   0  0  0  0  0  0  0  0  0  0  0  0
    0.9510    0.5852    1.0457 C   0  0  0  0  0  0  0  0  0  0  0  0
    2.1278   -0.3286    0.6573 C   0  0  2  0  0  0  0  0  0  0  0  0
    2.4993   -0.7656    1.5921 H   0  0  0  0  0  0  0  0  0  0  0  0
    3.1880    0.4772   -0.1173 C   0  0  0  0  0  0  0  0  0  0  0  0
    2.8093    0.2637   -1.5905 C   0  0  0  0  0  0  0  0  0  0  0  0
    2.1512   -1.0871   -1.5825 C   0  0  0  0  0  0  0  0  0  0  0  0
    1.8706   -1.9618   -2.5850 C   0  0  0  0  0  0  0  0  0  0  0  0
    1.2190   -3.1919   -2.2704 C   0  0  0  0  0  0  0  0  0  0  0  0
    0.8936   -3.4896   -0.9752 C   0  0  0  0  0  0  0  0  0  0  0  0
    0.2752   -4.6463   -0.5031 N   0  0  0  0  0  0  0  0  0  0  0  0
   -0.1188   -5.7251   -1.2234 C   0  0  0  0  0  0  0  0  0  0  0  0
   -0.6797   -6.6356   -0.4026 O   0  0  0  0  0  0  0  0  0  0  0  0
   -1.1127   -7.8570   -0.9938 C   0  0  0  0  0  0  0  0  0  0  0  0
   -0.0097   -8.8867   -1.0421 C   0  0  0  0  0  0  0  0  0  0  0  0
    0.8788   -8.9293   -2.1232 C   0  0  0  0  0  0  0  0  0  0  0  0
    1.9110   -9.8648   -2.1509 C   0  0  0  0  0  0  0  0  0  0  0  0
    2.0679  -10.7681   -1.0997 C   0  0  0  0  0  0  0  0  0  0  0  0
    1.1887  -10.7317   -0.0183 C   0  0  0  0  0  0  0  0  0  0  0  0
    0.1571   -9.7947    0.0083 C   0  0  0  0  0  0  0  0  0  0  0  0
   -0.0025   -5.8689   -2.4206 O   0  0  0  0  0  0  0  0  0  0  0  0
    1.7931   -1.3915   -0.2868 N   0  0  0  0  0  0  0  0  0  0  0  0
    1.1869   -2.5635    0.1190 C   0  0  0  0  0  0  0  0  0  0  0  0
    0.9187   -2.7930    1.2924 O   0  0  0  0  0  0  0  0  0  0  0  0
    1.1303    1.3543    1.9801 O   0  0  0  0  0  0  0  0  0  0  0  0
   -1.6211    2.2263    1.3795 C   0  0  0  0  0  0  0  0  0  0  0  0
   -1.9926    1.3921    2.5955 C   0  0  0  0  0  0  0  0  0  0  0  0
   -2.5813    2.1469    3.7807 C   0  0  0  0  0  0  0  0  0  0  0  0
   -2.6602    3.4993    3.6768 N   0  0  0  0  0  0  0  0  0  0  0  0
   -2.9600    1.5547    4.7772 O   0  0  0  0  0  0  0  0  0  0  0  0
   -4.8295    3.9537   -6.0713 H   0  0  0  0  0  0  0  0  0  0  0  0
   -5.4621    3.4938   -4.4626 H   0  0  0  0  0  0  0  0  0  0  0  0
   -4.0007    2.6923   -5.1122 H   0  0  0  0  0  0  0  0  0  0  0  0
   -4.1659    5.6689   -4.3723 H   0  0  0  0  0  0  0  0  0  0  0  0
   -2.7247    4.7983   -4.9810 H   0  0  0  0  0  0  0  0  0  0  0  0
   -2.7127    3.7316   -0.7494 H   0  0  0  0  0  0  0  0  0  0  0  0
   -0.7777    1.6746   -1.9764 H   0  0  0  0  0  0  0  0  0  0  0  0
   -0.7937    4.9100   -0.5283 H   0  0  0  0  0  0  0  0  0  0  0  0
    0.7309    5.5748   -1.1316 H   0  0  0  0  0  0  0  0  0  0  0  0
    1.3569    3.3451    1.4788 H   0  0  0  0  0  0  0  0  0  0  0  0
    2.8010    2.5323    2.9735 H   0  0  0  0  0  0  0  0  0  0  0  0
    3.4281    3.6483    4.2467 H   0  0  0  0  0  0  0  0  0  0  0  0
    4.2460    3.5528    2.6743 H   0  0  0  0  0  0  0  0  0  0  0  0
    0.8599    6.5333    3.1601 H   0  0  0  0  0  0  0  0  0  0  0  0
   -2.0738    6.9802    3.5467 H   0  0  0  0  0  0  0  0  0  0  0  0
   -0.7642    7.6688    4.5531 H   0  0  0  0  0  0  0  0  0  0  0  0
   -1.2256    5.9489    4.7256 H   0  0  0  0  0  0  0  0  0  0  0  0
   -0.1058   -0.1954   -0.4562 H   0  0  0  0  0  0  0  0  0  0  0  0
    4.1849    0.0608    0.0915 H   0  0  0  0  0  0  0  0  0  0  0  0
    3.1775    1.5356    0.1712 H   0  0  0  0  0  0  0  0  0  0  0  0
    3.6671    0.2993   -2.2748 H   0  0  0  0  0  0  0  0  0  0  0  0
    2.0943    1.0366   -1.9211 H   0  0  0  0  0  0  0  0  0  0  0  0
    2.1414   -1.7226   -3.6124 H   0  0  0  0  0  0  0  0  0  0  0  0
    0.9800   -3.9095   -3.0542 H   0  0  0  0  0  0  0  0  0  0  0  0
    0.1222   -4.6418    0.5034 H   0  0  0  0  0  0  0  0  0  0  0  0
   -1.4994   -7.6547   -2.0023 H   0  0  0  0  0  0  0  0  0  0  0  0
   -1.9355   -8.2050   -0.3556 H   0  0  0  0  0  0  0  0  0  0  0  0
    0.7607   -8.2059   -2.9327 H   0  0  0  0  0  0  0  0  0  0  0  0
    2.5990   -9.8875   -2.9990 H   0  0  0  0  0  0  0  0  0  0  0  0
    2.8777  -11.5012   -1.1228 H   0  0  0  0  0  0  0  0  0  0  0  0
    1.3069  -11.4355    0.8089 H   0  0  0  0  0  0  0  0  0  0  0  0
   -0.5299   -9.7663    0.8586 H   0  0  0  0  0  0  0  0  0  0  0  0
   -2.4734    2.8543    1.0872 H   0  0  0  0  0  0  0  0  0  0  0  0
   -0.8035    2.9089    1.6336 H   0  0  0  0  0  0  0  0  0  0  0  0
   -1.1120    0.8582    2.9845 H   0  0  0  0  0  0  0  0  0  0  0  0
   -2.7333    0.6170    2.3384 H   0  0  0  0  0  0  0  0  0  0  0  0
   -2.3911    4.0486    2.8615 H   0  0  0  0  0  0  0  0  0  0  0  0
   -3.0814    3.9835    4.4580 H   0  0  0  0  0  0  0  0  0  0  0  0
  1 53  1  0  0  0  0
  1  2  1  0  0  0  0
  2 55  1  0  0  0  0
  2  3  1  0  0  0  0
  3  4  1  0  0  0  0
  4  6  1  0  0  0  0
  5  4  2  0  0  0  0
  6  7  1  0  0  0  0
  6 57  1  0  0  0  0
  7 58  1  6  0  0  0
  7  8  1  0  0  0  0
  7 20  1  0  0  0  0
  8  9  1  0  0  0  0
  9 10  1  0  0  0  0
 10 11  1  6  0  0  0
 10 12  1  0  0  0  0
 10 16  1  0  0  0  0
 12 13  1  0  0  0  0
 13 15  2  0  0  0  0
 13 14  1  0  0  0  0
 14 63  1  0  0  0  0
 16 17  1  0  0  0  0
 17 65  1  0  0  0  0
 17 18  1  0  0  0  0
 18 67  1  0  0  0  0
 18 68  1  0  0  0  0
 19 16  2  0  0  0  0
 20 21  1  6  0  0  0
 20 22  1  0  0  0  0
 20 47  1  0  0  0  0
 22 23  1  0  0  0  0
 23 46  2  0  0  0  0
 24 23  1  0  0  0  0
 24 25  1  1  0  0  0
 26 70  1  0  0  0  0
 26 71  1  0  0  0  0
 26 24  1  0  0  0  0
 27 28  1  0  0  0  0
 27 26  1  0  0  0  0
 28 43  1  0  0  0  0
 29 30  1  0  0  0  0
 29 28  2  0  0  0  0
 30 31  2  0  0  0  0
 31 32  1  0  0  0  0
 31 44  1  0  0  0  0
 32 76  1  0  0  0  0
 33 32  1  0  0  0  0
 33 34  1  0  0  0  0
 35 34  1  0  0  0  0
 35 78  1  0  0  0  0
 36 35  1  0  0  0  0
 36 41  1  0  0  0  0
 37 36  2  0  0  0  0
 38 37  1  0  0  0  0
 38 39  2  0  0  0  0
 39 40  1  0  0  0  0
 40 41  2  0  0  0  0
 40 82  1  0  0  0  0
 41 83  1  0  0  0  0
 42 33  2  0  0  0  0
 43 44  1  0  0  0  0
 43 24  1  0  0  0  0
 44 45  2  0  0  0  0
 47 85  1  0  0  0  0
 47 48  1  0  0  0  0
 48 86  1  0  0  0  0
 48 49  1  0  0  0  0
 49 51  2  0  0  0  0
 50 49  1  0  0  0  0
 50 89  1  0  0  0  0
 52  1  1  0  0  0  0
 54  1  1  0  0  0  0
 56  2  1  0  0  0  0
 59  9  1  0  0  0  0
 60  9  1  0  0  0  0
 61 12  1  0  0  0  0
 62 14  1  0  0  0  0
 64 14  1  0  0  0  0
 66 18  1  0  0  0  0
 69 22  1  0  0  0  0
 72 27  1  0  0  0  0
 73 27  1  0  0  0  0
 74 29  1  0  0  0  0
 75 30  1  0  0  0  0
 77 35  1  0  0  0  0
 79 37  1  0  0  0  0
 80 38  1  0  0  0  0
 81 39  1  0  0  0  0
 84 47  1  0  0  0  0
 87 48  1  0  0  0  0
 88 50  1  0  0  0  0
M  END
