-1 1
 OpenBabel05232413483D

 89 90  0  0  1  0  0  0  0  0999 V2000
   -2.7178    5.1873   -5.0914 C   0  0  0  0  0  0  0  0  0  0  0  0
   -1.6829    5.0819   -3.9869 C   0  0  0  0  0  0  0  0  0  0  0  0
   -2.2272    4.5157   -2.7956 O   0  0  0  0  0  0  0  0  0  0  0  0
   -2.2618    3.1871   -2.7098 C   0  0  0  0  0  0  0  0  0  0  0  0
   -2.0980    2.4394   -3.6446 O   0  0  0  0  0  0  0  0  0  0  0  0
   -2.4862    2.7560   -1.3035 C   0  0  0  0  0  0  0  0  0  0  0  0
   -2.3362    1.4698   -0.9889 C   0  0  0  0  0  0  0  0  0  0  0  0
    1.3200    4.1640   -1.7438 S   0  0  0  0  0  1  0  0  0  0  0  0
    0.1105    4.5569   -0.4399 C   0  0  0  0  0  0  0  0  0  0  0  0
    0.6875    5.1685    0.8308 C   0  0  2  0  0  0  0  0  0  0  0  0
    1.2502    6.0852    0.5904 H   0  0  0  0  0  0  0  0  0  0  0  0
    1.6071    4.2442    1.4719 N   0  0  0  0  0  0  0  0  0  0  0  0
    2.6077    4.6126    2.2826 C   0  0  0  0  0  0  0  0  0  0  0  0
    3.5458    3.4946    2.6875 C   0  0  0  0  0  0  0  0  0  0  0  0
    2.7843    5.7709    2.6662 O   0  0  0  0  0  0  0  0  0  0  0  0
   -0.4070    5.5162    1.8548 C   0  0  0  0  0  0  0  0  0  0  0  0
    0.0111    6.3194    2.8549 N   0  0  0  0  0  0  0  0  0  0  0  0
   -0.8225    6.5933    3.9965 C   0  0  0  0  0  0  0  0  0  0  0  0
   -1.5552    5.0762    1.7979 O   0  0  0  0  0  0  0  0  0  0  0  0
   -2.2577    0.8758    0.3984 C   0  0  1  0  0  0  0  0  0  0  0  0
   -3.0294    0.0890    0.4807 H   0  0  0  0  0  0  0  0  0  0  0  0
   -0.9781    0.1494    0.4564 N   0  0  0  0  0  0  0  0  0  0  0  0
    0.2360    0.6456    0.7826 C   0  0  0  0  0  0  0  0  0  0  0  0
    1.4621   -0.0900    0.2158 C   0  0  2  0  0  0  0  0  0  0  0  0
    2.0778   -0.3912    1.0729 H   0  0  0  0  0  0  0  0  0  0  0  0
    2.1934    0.8004   -0.8042 C   0  0  0  0  0  0  0  0  0  0  0  0
    1.5027    0.4528   -2.1278 C   0  0  0  0  0  0  0  0  0  0  0  0
    1.0996   -0.9808   -1.9369 C   0  0  0  0  0  0  0  0  0  0  0  0
    0.7471   -1.9543   -2.8211 C   0  0  0  0  0  0  0  0  0  0  0  0
    0.4290   -3.2557   -2.3327 C   0  0  0  0  0  0  0  0  0  0  0  0
    0.4907   -3.5268   -0.9921 C   0  0  0  0  0  0  0  0  0  0  0  0
    0.2277   -4.7433   -0.3603 N   0  0  0  0  0  0  0  0  0  0  0  0
   -0.1278   -5.9157   -0.9376 C   0  0  0  0  0  0  0  0  0  0  0  0
   -0.3002   -6.8547    0.0155 O   0  0  0  0  0  0  0  0  0  0  0  0
   -0.6344   -8.1676   -0.4239 C   0  0  0  0  0  0  0  0  0  0  0  0
    0.5929   -9.0114   -0.6700 C   0  0  0  0  0  0  0  0  0  0  0  0
    1.2776   -8.9329   -1.8890 C   0  0  0  0  0  0  0  0  0  0  0  0
    2.4251   -9.6935   -2.1026 C   0  0  0  0  0  0  0  0  0  0  0  0
    2.9009  -10.5426   -1.1032 C   0  0  0  0  0  0  0  0  0  0  0  0
    2.2254  -10.6268    0.1133 C   0  0  0  0  0  0  0  0  0  0  0  0
    1.0788   -9.8630    0.3266 C   0  0  0  0  0  0  0  0  0  0  0  0
   -0.2827   -6.1145   -2.1231 O   0  0  0  0  0  0  0  0  0  0  0  0
    1.1217   -1.2657   -0.5868 N   0  0  0  0  0  0  0  0  0  0  0  0
    0.8630   -2.4983   -0.0226 C   0  0  0  0  0  0  0  0  0  0  0  0
    0.9247   -2.6962    1.1869 O   0  0  0  0  0  0  0  0  0  0  0  0
    0.4237    1.6320    1.4747 O   0  0  0  0  0  0  0  0  0  0  0  0
   -2.5007    1.8795    1.5205 C   0  0  0  0  0  0  0  0  0  0  0  0
   -2.3951    1.2888    2.9213 C   0  0  0  0  0  0  0  0  0  0  0  0
   -2.9386    2.1637    4.0434 C   0  0  0  0  0  0  0  0  0  0  0  0
   -2.8064    3.5037    3.8863 N   0  0  0  0  0  0  0  0  0  0  0  0
   -3.4470    1.6719    5.0375 O   0  0  0  0  0  0  0  0  0  0  0  0
   -2.2824    5.7021   -5.9616 H   0  0  0  0  0  0  0  0  0  0  0  0
   -3.5954    5.7609   -4.7556 H   0  0  0  0  0  0  0  0  0  0  0  0
   -3.0462    4.1877   -5.4078 H   0  0  0  0  0  0  0  0  0  0  0  0
   -1.3158    6.0697   -3.6796 H   0  0  0  0  0  0  0  0  0  0  0  0
   -0.8131    4.4814   -4.2885 H   0  0  0  0  0  0  0  0  0  0  0  0
   -2.6406    3.5399   -0.5596 H   0  0  0  0  0  0  0  0  0  0  0  0
   -2.1446    0.7751   -1.8165 H   0  0  0  0  0  0  0  0  0  0  0  0
   -0.4232    3.6462   -0.1306 H   0  0  0  0  0  0  0  0  0  0  0  0
   -0.6626    5.2457   -0.8144 H   0  0  0  0  0  0  0  0  0  0  0  0
    1.4450    3.2561    1.2856 H   0  0  0  0  0  0  0  0  0  0  0  0
    3.0697    2.5073    2.6086 H   0  0  0  0  0  0  0  0  0  0  0  0
    3.8929    3.6674    3.7142 H   0  0  0  0  0  0  0  0  0  0  0  0
    4.4197    3.5162    2.0192 H   0  0  0  0  0  0  0  0  0  0  0  0
    1.0246    6.4711    2.9074 H   0  0  0  0  0  0  0  0  0  0  0  0
   -1.8378    6.8544    3.6642 H   0  0  0  0  0  0  0  0  0  0  0  0
   -0.4057    7.4380    4.5612 H   0  0  0  0  0  0  0  0  0  0  0  0
   -0.9045    5.7236    4.6724 H   0  0  0  0  0  0  0  0  0  0  0  0
   -0.9574   -0.6713   -0.1354 H   0  0  0  0  0  0  0  0  0  0  0  0
    3.2557    0.5140   -0.8291 H   0  0  0  0  0  0  0  0  0  0  0  0
    2.1166    1.8818   -0.6053 H   0  0  0  0  0  0  0  0  0  0  0  0
    2.1441    0.5939   -3.0068 H   0  0  0  0  0  0  0  0  0  0  0  0
    0.6272    1.1109   -2.2783 H   0  0  0  0  0  0  0  0  0  0  0  0
    0.7209   -1.7377   -3.8881 H   0  0  0  0  0  0  0  0  0  0  0  0
    0.1448   -4.0520   -3.0196 H   0  0  0  0  0  0  0  0  0  0  0  0
    0.3321   -4.7021    0.6516 H   0  0  0  0  0  0  0  0  0  0  0  0
   -1.2463   -8.0980   -1.3341 H   0  0  0  0  0  0  0  0  0  0  0  0
   -1.2388   -8.5965    0.3862 H   0  0  0  0  0  0  0  0  0  0  0  0
    0.9065   -8.2549   -2.6608 H   0  0  0  0  0  0  0  0  0  0  0  0
    2.9524   -9.6223   -3.0567 H   0  0  0  0  0  0  0  0  0  0  0  0
    3.8007  -11.1386   -1.2726 H   0  0  0  0  0  0  0  0  0  0  0  0
    2.5936  -11.2884    0.9007 H   0  0  0  0  0  0  0  0  0  0  0  0
    0.5528   -9.9279    1.2831 H   0  0  0  0  0  0  0  0  0  0  0  0
   -3.5167    2.2757    1.3591 H   0  0  0  0  0  0  0  0  0  0  0  0
   -1.8123    2.7281    1.4156 H   0  0  0  0  0  0  0  0  0  0  0  0
   -1.3359    1.0857    3.1488 H   0  0  0  0  0  0  0  0  0  0  0  0
   -2.9317    0.3320    3.0048 H   0  0  0  0  0  0  0  0  0  0  0  0
   -2.3872    3.9770    3.0817 H   0  0  0  0  0  0  0  0  0  0  0  0
   -3.1636    4.0770    4.6390 H   0  0  0  0  0  0  0  0  0  0  0  0
  1 53  1  0  0  0  0
  1  2  1  0  0  0  0
  2 55  1  0  0  0  0
  2  3  1  0  0  0  0
  3  4  1  0  0  0  0
  4  6  1  0  0  0  0
  5  4  2  0  0  0  0
  6  7  2  0  0  0  0
  6 57  1  0  0  0  0
  7 20  1  0  0  0  0
  8  9  1  0  0  0  0
  9 59  1  0  0  0  0
  9 10  1  0  0  0  0
 10 11  1  6  0  0  0
 10 12  1  0  0  0  0
 10 16  1  0  0  0  0
 12 13  1  0  0  0  0
 13 15  2  0  0  0  0
 13 14  1  0  0  0  0
 14 63  1  0  0  0  0
 16 17  1  0  0  0  0
 17 65  1  0  0  0  0
 17 18  1  0  0  0  0
 18 67  1  0  0  0  0
 18 68  1  0  0  0  0
 19 16  2  0  0  0  0
 20 22  1  0  0  0  0
 20 21  1  1  0  0  0
 20 47  1  0  0  0  0
 22 23  1  0  0  0  0
 23 46  2  0  0  0  0
 24 23  1  0  0  0  0
 24 25  1  1  0  0  0
 26 71  1  0  0  0  0
 26 24  1  0  0  0  0
 27 28  1  0  0  0  0
 27 26  1  0  0  0  0
 28 43  1  0  0  0  0
 29 30  1  0  0  0  0
 29 28  2  0  0  0  0
 30 31  2  0  0  0  0
 31 32  1  0  0  0  0
 31 44  1  0  0  0  0
 32 76  1  0  0  0  0
 33 32  1  0  0  0  0
 33 34  1  0  0  0  0
 35 34  1  0  0  0  0
 35 78  1  0  0  0  0
 36 35  1  0  0  0  0
 36 41  1  0  0  0  0
 37 36  2  0  0  0  0
 38 37  1  0  0  0  0
 38 39  2  0  0  0  0
 39 40  1  0  0  0  0
 40 41  2  0  0  0  0
 40 82  1  0  0  0  0
 41 83  1  0  0  0  0
 42 33  2  0  0  0  0
 43 44  1  0  0  0  0
 43 24  1  0  0  0  0
 44 45  2  0  0  0  0
 47 48  1  0  0  0  0
 48 87  1  0  0  0  0
 48 86  1  0  0  0  0
 48 49  1  0  0  0  0
 49 51  2  0  0  0  0
 50 49  1  0  0  0  0
 50 89  1  0  0  0  0
 52  1  1  0  0  0  0
 54  1  1  0  0  0  0
 56  2  1  0  0  0  0
 58  7  1  0  0  0  0
 60  9  1  0  0  0  0
 61 12  1  0  0  0  0
 62 14  1  0  0  0  0
 64 14  1  0  0  0  0
 66 18  1  0  0  0  0
 69 22  1  0  0  0  0
 70 26  1  0  0  0  0
 72 27  1  0  0  0  0
 73 27  1  0  0  0  0
 74 29  1  0  0  0  0
 75 30  1  0  0  0  0
 77 35  1  0  0  0  0
 79 37  1  0  0  0  0
 80 38  1  0  0  0  0
 81 39  1  0  0  0  0
 84 47  1  0  0  0  0
 85 47  1  0  0  0  0
 88 50  1  0  0  0  0
M  END
