88
-1 1
C         7.805874   -5.990204   -9.530003
C         8.497088   -7.222090   -8.969240
O         7.965817   -7.597050   -7.711886
C         6.746632   -8.246056   -7.724506
O         6.266746   -8.608267   -8.787745
C         6.226937   -8.375342   -6.394346
C         4.920390   -8.672529   -6.027424
S         3.687912   -6.512466   -5.905188
C         5.089035   -5.496359   -6.390057
C         5.702640   -4.624156   -5.288812
H         5.820333   -5.225024   -4.373166
N         4.850832   -3.515280   -4.955636
C         4.755191   -3.023071   -3.691986
C         4.063779   -1.677007   -3.588756
O         5.188258   -3.599439   -2.710034
C         7.108012   -4.091389   -5.654078
N         8.012041   -5.023752   -6.057920
C         9.361457   -4.646232   -6.388138
O         7.407079   -2.915932   -5.546010
C         3.912002   -9.489703   -6.833495
H         3.057156   -9.677197   -6.162882
N         3.431923   -8.751587   -7.989262
C         2.628818   -9.216741   -8.951349
C         2.231295   -8.201121  -10.039981
H         1.148894   -8.314558  -10.178109
C         3.042524   -8.440576  -11.325182
C         4.249912   -7.505289  -11.165541
C         3.679617   -6.363994  -10.372251
C         4.108116   -5.086681  -10.190431
C         3.412809   -4.250003   -9.266047
C         2.330952   -4.733200   -8.583860
N         1.651308   -4.107258   -7.539190
C         2.086414   -3.056951   -6.801358
C         1.444466   -2.969275   -5.448248
N         0.870755   -1.870705   -5.028117
O         0.531107   -2.113406   -3.730707
C         0.915936   -3.349647   -3.372338
C         0.678165   -3.756737   -1.963902
C         1.499088   -3.967441   -4.435197
O         2.967776   -2.284959   -7.142193
N         2.546853   -6.809641   -9.731108
C         1.790339   -6.066670   -8.847341
O         0.770747   -6.505261   -8.329118
O         2.240262  -10.369227   -9.089613
C         4.517518  -10.841778   -7.248245
C         5.123331  -11.673303   -6.108383
H         5.949265  -11.116918   -5.644682
C         5.550978  -13.063373   -6.600346
C         4.296929  -13.929365   -6.399814
N         3.673962  -13.291132   -5.261373
C         4.071215  -11.998850   -5.048683
O         3.630195  -11.263340   -4.192365
H         8.274653   -5.684491  -10.478251
H         7.865293   -5.151147   -8.821616
H         6.744648   -6.204542   -9.716693
H         9.564240   -7.025009   -8.786599
H         8.410360   -8.064317   -9.672844
H         6.898987   -8.041662   -5.599938
H         4.768251   -8.803803   -4.955827
H         4.824699   -4.856988   -7.247512
H         5.853083   -6.201134   -6.762616
H         4.558426   -2.914763   -5.720336
H         4.830519   -0.922244   -3.358456
H         3.355639   -1.702196   -2.749527
H         3.540197   -1.381231   -4.507507
H         7.724456   -5.970215   -6.282368
H         9.419635   -4.071063   -7.329484
H         9.969455   -5.554895   -6.493412
H         9.788043   -4.014825   -5.594836
H         3.516357   -7.742097   -7.843809
H         2.440863   -8.146789  -12.199518
H         3.309902   -9.499065  -11.429930
H         4.689369   -7.176947  -12.117346
H         5.038964   -7.983223  -10.557809
H         4.992564   -4.723364  -10.712082
H         3.764694   -3.241765   -9.053774
H         0.938455   -4.718772   -7.142122
H        -0.386835   -3.669960   -1.702444
H         1.253058   -3.118613   -1.276177
H         1.000055   -4.795267   -1.822315
H         1.978769   -4.944496   -4.506163
H         5.302681  -10.640040   -7.991604
H         3.727657  -11.415547   -7.754377
H         6.368850  -13.453435   -5.974738
H         5.894359  -13.058172   -7.644134
H         4.542723  -14.982154   -6.188972
H         3.643223  -13.906974   -7.290867
H         2.854350  -13.650944   -4.790603
