-1 1
 OpenBabel05192410563D

 59 61  0  0  1  0  0  0  0  0999 V2000
    1.8502   -4.3268    3.9296 O   0  0  0  0  0  0  0  0  0  0  0  0
    1.8986   -3.3651    3.1802 C   0  0  0  0  0  0  0  0  0  0  0  0
    0.6828   -2.4336    3.0000 C   0  0  2  0  0  0  0  0  0  0  0  0
    0.9243   -1.0361    3.6191 C   0  0  0  0  0  0  0  0  0  0  0  0
    2.2223   -0.0061    2.8538 S   0  0  0  0  0  0  0  0  0  0  0  0
    1.2727    1.2122    1.7480 C   0  0  1  0  0  0  0  0  0  0  0  0
    2.2069    2.1238    1.0895 C   0  0  2  0  0  3  0  0  0  0  0  0
    3.2285    1.7070   -0.3057 S   0  0  0  0  0  0  0  0  0  0  0  0
    2.4537    3.4260    1.5594 C   0  0  0  0  0  0  0  0  0  0  0  0
    1.9566    4.0479    2.5014 O   0  0  0  0  0  0  0  0  0  0  0  0
    3.4503    4.0305    0.7304 N   0  0  0  0  0  0  0  0  0  0  0  0
    3.9945    3.3201   -0.2965 C   0  0  0  0  0  0  0  0  0  0  0  0
    4.8423    3.6938   -1.0794 O   0  0  0  0  0  0  0  0  0  0  0  0
    0.3263    0.5136    0.7969 C   0  0  0  0  0  0  0  0  0  0  0  0
    0.7220   -0.5660   -0.0010 C   0  0  0  0  0  0  0  0  0  0  0  0
   -0.1443   -1.1122   -0.9450 C   0  0  0  0  0  0  0  0  0  0  0  0
   -1.4234   -0.5926   -1.0929 C   0  0  0  0  0  0  0  0  0  0  0  0
   -2.2933   -1.1603   -2.0007 O   0  0  0  0  0  0  0  0  0  0  0  0
   -2.6304   -0.4791   -3.1189 C   0  0  0  0  0  0  0  0  0  0  0  0
   -3.6800   -1.0153   -3.8751 C   0  0  0  0  0  0  0  0  0  0  0  0
   -4.0775   -0.3942   -5.0479 C   0  0  0  0  0  0  0  0  0  0  0  0
   -3.4313    0.7740   -5.4823 C   0  0  0  0  0  0  0  0  0  0  0  0
   -3.8464    1.4172   -6.6980 C   0  0  0  0  0  0  0  0  0  0  0  0
   -4.1871    1.9292   -7.6796 N   0  0  0  0  0  0  0  0  0  0  0  0
   -2.3798    1.3019   -4.7193 C   0  0  0  0  0  0  0  0  0  0  0  0
   -1.9765    0.6826   -3.5440 C   0  0  0  0  0  0  0  0  0  0  0  0
   -1.8463    0.4824   -0.2989 C   0  0  0  0  0  0  0  0  0  0  0  0
   -3.0860    1.0195   -0.4702 O   0  0  0  0  0  0  0  0  0  0  0  0
   -4.1546    0.2547    0.0408 C   0  0  0  0  0  0  0  0  0  0  0  0
   -0.9663    1.0248    0.6327 C   0  0  0  0  0  0  0  0  0  0  0  0
   -0.4399   -3.0982    3.6139 N   0  0  0  0  0  0  0  0  0  0  0  0
   -1.7524   -3.0596    3.2503 C   0  0  0  0  0  0  0  0  0  0  0  0
   -2.1092   -2.1572    2.0871 C   0  0  0  0  0  0  0  0  0  0  0  0
   -2.5907   -3.7313    3.8233 O   0  0  0  0  0  0  0  0  0  0  0  0
    0.5107   -2.3062    1.9204 H   0  0  0  0  0  0  0  0  0  0  0  0
    2.9864   -3.0354    2.4480 N   0  0  0  0  0  0  0  0  0  0  0  0
    4.2446   -3.7252    2.5975 C   0  0  0  0  0  0  0  0  0  0  0  0
   -0.0190   -0.4706    3.5759 H   0  0  0  0  0  0  0  0  0  0  0  0
    1.1713   -1.1574    4.6848 H   0  0  0  0  0  0  0  0  0  0  0  0
    0.7022    1.8309    2.4559 H   0  0  0  0  0  0  0  0  0  0  0  0
    3.7491    4.9811    0.9087 H   0  0  0  0  0  0  0  0  0  0  0  0
    1.7277   -0.9755    0.1128 H   0  0  0  0  0  0  0  0  0  0  0  0
    0.1617   -1.9443   -1.5816 H   0  0  0  0  0  0  0  0  0  0  0  0
   -4.1685   -1.9239   -3.5205 H   0  0  0  0  0  0  0  0  0  0  0  0
   -4.8963   -0.8108   -5.6372 H   0  0  0  0  0  0  0  0  0  0  0  0
   -1.8720    2.2089   -5.0514 H   0  0  0  0  0  0  0  0  0  0  0  0
   -1.1590    1.1000   -2.9549 H   0  0  0  0  0  0  0  0  0  0  0  0
   -5.0802    0.7894   -0.2082 H   0  0  0  0  0  0  0  0  0  0  0  0
   -4.0808    0.1531    1.1373 H   0  0  0  0  0  0  0  0  0  0  0  0
   -4.1876   -0.7524   -0.4081 H   0  0  0  0  0  0  0  0  0  0  0  0
   -1.3037    1.8791    1.2238 H   0  0  0  0  0  0  0  0  0  0  0  0
   -0.1878   -3.8049    4.3014 H   0  0  0  0  0  0  0  0  0  0  0  0
   -1.7185   -1.1369    2.2054 H   0  0  0  0  0  0  0  0  0  0  0  0
   -3.2012   -2.1283    2.0025 H   0  0  0  0  0  0  0  0  0  0  0  0
   -1.6899   -2.5503    1.1478 H   0  0  0  0  0  0  0  0  0  0  0  0
    2.9903   -2.1008    2.0377 H   0  0  0  0  0  0  0  0  0  0  0  0
    4.9250   -3.1954    3.2848 H   0  0  0  0  0  0  0  0  0  0  0  0
    4.7416   -3.8240    1.6218 H   0  0  0  0  0  0  0  0  0  0  0  0
    4.0482   -4.7239    3.0068 H   0  0  0  0  0  0  0  0  0  0  0  0
  2  1  2  0  0  0  0
  3 35  1  6  0  0  0
  3  2  1  0  0  0  0
  3 31  1  0  0  0  0
  3  4  1  0  0  0  0
  4 39  1  0  0  0  0
  5  4  1  0  0  0  0
  6 40  1  1  0  0  0
  6  5  1  0  0  0  0
  7  9  1  0  0  0  0
  7  6  1  1  0  0  0
  8 12  1  0  0  0  0
  8  7  1  0  0  0  0
  9 10  2  0  0  0  0
 11 41  1  0  0  0  0
 11  9  1  0  0  0  0
 12 11  1  0  0  0  0
 13 12  2  0  0  0  0
 14  6  1  0  0  0  0
 15 42  1  0  0  0  0
 15 14  2  0  0  0  0
 16 15  1  0  0  0  0
 17 16  2  0  0  0  0
 17 27  1  0  0  0  0
 18 17  1  0  0  0  0
 19 18  1  0  0  0  0
 20 44  1  0  0  0  0
 20 19  2  0  0  0  0
 21 20  1  0  0  0  0
 22 21  2  0  0  0  0
 22 25  1  0  0  0  0
 23 22  1  0  0  0  0
 24 23  3  0  0  0  0
 25 26  2  0  0  0  0
 26 19  1  0  0  0  0
 26 47  1  0  0  0  0
 27 30  2  0  0  0  0
 28 27  1  0  0  0  0
 28 29  1  0  0  0  0
 29 49  1  0  0  0  0
 30 14  1  0  0  0  0
 30 51  1  0  0  0  0
 31 52  1  0  0  0  0
 32 31  1  0  0  0  0
 32 34  2  0  0  0  0
 33 53  1  0  0  0  0
 33 32  1  0  0  0  0
 36 37  1  0  0  0  0
 36  2  1  0  0  0  0
 37 59  1  0  0  0  0
 37 57  1  0  0  0  0
 38  4  1  0  0  0  0
 43 16  1  0  0  0  0
 45 21  1  0  0  0  0
 46 25  1  0  0  0  0
 48 29  1  0  0  0  0
 50 29  1  0  0  0  0
 54 33  1  0  0  0  0
 55 33  1  0  0  0  0
 56 36  1  0  0  0  0
 58 37  1  0  0  0  0
M  END
