59
-1 1
O         1.696786   -2.605745    1.205089
C         2.323466   -2.069377    0.305246
C         1.635051   -1.594511   -0.982945
C         1.803474   -0.068315   -1.170991
S         3.350489    0.402840   -1.996902
C         2.596712    2.285877   -3.015397
C         3.640914    3.101647   -3.470247
S         4.506208    2.985593   -5.019341
C         4.262387    4.058914   -2.600799
O         3.964317    4.374386   -1.458770
N         5.354467    4.659680   -3.273415
C         5.667172    4.253101   -4.541210
O         6.564234    4.671543   -5.234964
C         1.588263    1.690372   -3.935532
C         1.942319    0.951673   -5.074661
C         0.964572    0.452297   -5.925704
C        -0.382784    0.653006   -5.640393
O        -1.334819    0.103854   -6.475044
C        -2.138637    0.906261   -7.204733
C        -3.216603    0.280779   -7.844142
C        -4.082132    1.022135   -8.631710
C        -3.884066    2.402898   -8.791329
C        -4.781411    3.172028   -9.607828
N        -5.507146    3.787357  -10.268563
C        -2.802097    3.020334   -8.147184
C        -1.931511    2.281737   -7.357822
C        -0.766703    1.350210   -4.489501
O        -2.073731    1.574259   -4.194755
C        -2.845344    0.440812   -3.837143
C         0.227605    1.870434   -3.658679
N         0.252826   -1.996857   -0.914921
C        -0.610604   -2.102484   -1.958105
C        -0.005761   -1.995086   -3.345184
O        -1.803744   -2.302569   -1.789419
H         2.131587   -2.090965   -1.833181
N         3.652066   -1.823233    0.349418
C         4.445517   -2.077474    1.524520
H         0.962300    0.273271   -1.793458
H         1.700524    0.439350   -0.197432
H         2.169683    2.690799   -2.092979
H         5.905020    5.375864   -2.815824
H         2.993071    0.743311   -5.279405
H         1.229271   -0.116416   -6.818666
H        -3.352941   -0.792746   -7.706581
H        -4.922688    0.534801   -9.128710
H        -2.642992    4.093307   -8.266873
H        -1.094320    2.767712   -6.855965
H        -3.831267    0.816330   -3.536133
H        -2.397866   -0.112444   -2.995996
H        -2.970616   -0.252821   -4.684693
H        -0.092584    2.430613   -2.777923
H        -0.114549   -2.175779    0.015712
H         0.584876   -1.078486   -3.483496
H        -0.816670   -2.021758   -4.081806
H         0.671302   -2.844541   -3.527332
H         4.042487   -1.239529   -0.392568
H         4.749762   -1.140098    2.018096
H         5.352660   -2.647817    1.271332
H         3.838843   -2.663535    2.226279
