-1 1
 OpenBabel05232414493D

 97 97  0  0  1  0  0  0  0  0999 V2000
   14.0284   -0.0783  -10.3477 C   0  0  0  0  0  0  0  0  0  0  0  0
   14.6798   -1.3933   -9.9655 C   0  0  0  0  0  0  0  0  0  0  0  0
   13.7452   -2.3810   -9.5678 O   0  0  0  0  0  0  0  0  0  0  0  0
   13.0456   -3.1630  -10.4177 C   0  0  0  0  0  0  0  0  0  0  0  0
   12.2917   -3.9673   -9.9083 O   0  0  0  0  0  0  0  0  0  0  0  0
   13.2583   -3.0095  -11.8626 C   0  0  0  0  0  3  0  0  0  0  0  0
   12.4881   -3.6987  -12.7170 C   0  0  0  0  0  2  0  0  0  0  0  0
   11.2583   -2.0030  -14.3613 S   0  0  0  0  0  1  0  0  0  0  0  0
   12.0219   -0.4524  -13.8181 C   0  0  0  0  0  0  0  0  0  0  0  0
   11.1064    0.5181  -13.0437 C   0  0  2  0  0  0  0  0  0  0  0  0
   10.1564    0.6079  -13.6019 H   0  0  0  0  0  0  0  0  0  0  0  0
   11.7166    1.8234  -12.8947 N   0  0  0  0  0  0  0  0  0  0  0  0
   11.9108    2.7005  -13.8990 C   0  0  0  0  0  0  0  0  0  0  0  0
   12.4541    4.0554  -13.4789 C   0  0  0  0  0  0  0  0  0  0  0  0
   11.6673    2.4566  -15.0726 O   0  0  0  0  0  0  0  0  0  0  0  0
   10.7554    0.0912  -11.6026 C   0  0  0  0  0  0  0  0  0  0  0  0
   10.3547   -1.1692  -11.4247 N   0  0  0  0  0  0  0  0  0  0  0  0
   10.0038   -1.6674  -10.1163 C   0  0  0  0  0  0  0  0  0  0  0  0
   10.8460    0.9021  -10.6806 O   0  0  0  0  0  0  0  0  0  0  0  0
   11.9649   -4.8479  -13.1216 C   0  0  0  0  0  0  0  0  0  0  0  0
   10.7062   -4.9569  -13.7307 N   0  0  0  0  0  4  0  0  0  0  0  0
    9.5446   -4.3769  -13.3299 C   0  0  0  0  0  0  0  0  0  0  0  0
    8.4938   -4.2870  -14.4459 C   0  0  1  0  0  0  0  0  0  0  0  0
    8.8203   -3.4021  -15.0017 H   0  0  0  0  0  0  0  0  0  0  0  0
    8.5664   -5.4291  -15.3358 N   0  0  0  0  0  0  0  0  0  0  0  0
    8.8827   -5.5672  -16.6607 C   0  0  0  0  0  0  0  0  0  0  0  0
    9.2896   -4.3925  -17.5686 C   0  0  2  0  0  0  0  0  0  0  0  0
    8.6039   -4.5297  -18.4185 H   0  0  0  0  0  0  0  0  0  0  0  0
   10.7251   -4.6176  -18.1007 C   0  0  0  0  0  0  0  0  0  0  0  0
   11.0988   -3.5373  -19.1145 C   0  0  0  0  0  0  0  0  0  0  0  0
   11.7768   -4.7504  -16.9985 C   0  0  0  0  0  0  0  0  0  0  0  0
    9.0652   -3.0383  -17.1186 N   0  0  0  0  0  0  0  0  0  0  0  0
    7.8923   -2.4150  -17.4370 C   0  0  0  0  0  0  0  0  0  0  0  0
    7.8323   -0.9578  -17.1040 C   0  0  0  0  0  0  0  0  0  0  0  0
    6.8680   -0.2385  -17.6283 N   0  0  0  0  0  0  0  0  0  0  0  0
    7.0500    1.0187  -17.1512 O   0  0  0  0  0  0  0  0  0  0  0  0
    8.1199    1.0665  -16.3411 C   0  0  0  0  0  0  0  0  0  0  0  0
    8.4377    2.3691  -15.7054 C   0  0  0  0  0  0  0  0  0  0  0  0
    8.6779   -0.1747  -16.2699 C   0  0  0  0  0  0  0  0  0  0  0  0
    6.9629   -2.9997  -17.9592 O   0  0  0  0  0  0  0  0  0  0  0  0
    8.8750   -6.6762  -17.1641 O   0  0  0  0  0  0  0  0  0  0  0  0
    7.0681   -4.0145  -13.9217 C   0  0  0  0  0  0  0  0  0  0  0  0
    6.7185   -2.5421  -13.8395 C   0  0  0  0  0  0  0  0  0  0  0  0
    7.3092   -1.7081  -12.8803 C   0  0  0  0  0  0  0  0  0  0  0  0
    7.0251   -0.3474  -12.8327 C   0  0  0  0  0  0  0  0  0  0  0  0
    6.1239    0.1787  -13.7495 C   0  0  0  0  0  0  0  0  0  0  0  0
    5.8511    1.4938  -13.7153 F   0  0  0  0  0  0  0  0  0  0  0  0
    5.5112   -0.6138  -14.7068 C   0  0  0  0  0  0  0  0  0  0  0  0
    5.8221   -1.9729  -14.7496 C   0  0  0  0  0  0  0  0  0  0  0  0
    9.3473   -3.9098  -12.2242 O   0  0  0  0  0  0  0  0  0  0  0  0
   12.7349   -6.1463  -12.9790 C   0  0  0  0  0  0  0  0  0  0  0  0
   12.4508   -6.8794  -11.6575 C   0  0  0  0  0  0  0  0  0  0  0  0
   10.9515   -7.0349  -11.4394 C   0  0  0  0  0  0  0  0  0  0  0  0
   10.4304   -6.1509  -10.5580 N   0  0  0  0  0  0  0  0  0  0  0  0
   10.2952   -7.8679  -12.0436 O   0  0  0  0  0  0  0  0  0  0  0  0
   14.7978    0.6978  -10.4790 H   0  0  0  0  0  0  0  0  0  0  0  0
   13.3212    0.2502   -9.5736 H   0  0  0  0  0  0  0  0  0  0  0  0
   13.4678   -0.1581  -11.2871 H   0  0  0  0  0  0  0  0  0  0  0  0
   15.3196   -1.2538   -9.0814 H   0  0  0  0  0  0  0  0  0  0  0  0
   15.3297   -1.7732  -10.7714 H   0  0  0  0  0  0  0  0  0  0  0  0
   13.9832   -2.2905  -12.2458 H   0  0  0  0  0  0  0  0  0  0  0  0
   12.3858    0.0932  -14.6983 H   0  0  0  0  0  0  0  0  0  0  0  0
   12.8992   -0.6848  -13.1904 H   0  0  0  0  0  0  0  0  0  0  0  0
   11.7602    2.1198  -11.9203 H   0  0  0  0  0  0  0  0  0  0  0  0
   11.6615    4.8068  -13.6106 H   0  0  0  0  0  0  0  0  0  0  0  0
   13.2782    4.3246  -14.1530 H   0  0  0  0  0  0  0  0  0  0  0  0
   12.8046    4.0824  -12.4382 H   0  0  0  0  0  0  0  0  0  0  0  0
   10.3626   -1.8041  -12.2317 H   0  0  0  0  0  0  0  0  0  0  0  0
    9.8342   -2.7449  -10.2023 H   0  0  0  0  0  0  0  0  0  0  0  0
    9.0937   -1.1751   -9.7355 H   0  0  0  0  0  0  0  0  0  0  0  0
   10.8142   -1.4863   -9.3945 H   0  0  0  0  0  0  0  0  0  0  0  0
   10.6623   -5.4758  -14.5991 H   0  0  0  0  0  0  0  0  0  0  0  0
    8.3080   -6.3263  -14.9312 H   0  0  0  0  0  0  0  0  0  0  0  0
   10.6699   -5.5824  -18.6276 H   0  0  0  0  0  0  0  0  0  0  0  0
   11.2368   -2.5573  -18.6321 H   0  0  0  0  0  0  0  0  0  0  0  0
   10.3208   -3.4255  -19.8853 H   0  0  0  0  0  0  0  0  0  0  0  0
   12.0437   -3.7952  -19.6164 H   0  0  0  0  0  0  0  0  0  0  0  0
   11.7976   -3.8831  -16.3169 H   0  0  0  0  0  0  0  0  0  0  0  0
   12.7805   -4.8446  -17.4399 H   0  0  0  0  0  0  0  0  0  0  0  0
   11.6081   -5.6644  -16.4066 H   0  0  0  0  0  0  0  0  0  0  0  0
    9.8159   -2.5231  -16.6574 H   0  0  0  0  0  0  0  0  0  0  0  0
    8.1643    3.1936  -16.3784 H   0  0  0  0  0  0  0  0  0  0  0  0
    9.5122    2.4217  -15.4846 H   0  0  0  0  0  0  0  0  0  0  0  0
    7.8619    2.4845  -14.7746 H   0  0  0  0  0  0  0  0  0  0  0  0
    9.5396   -0.4982  -15.6847 H   0  0  0  0  0  0  0  0  0  0  0  0
    6.9461   -4.4864  -12.9345 H   0  0  0  0  0  0  0  0  0  0  0  0
    6.3704   -4.5032  -14.6156 H   0  0  0  0  0  0  0  0  0  0  0  0
    8.0157   -2.1405  -12.1735 H   0  0  0  0  0  0  0  0  0  0  0  0
    7.4985    0.3041  -12.0954 H   0  0  0  0  0  0  0  0  0  0  0  0
    4.8371   -0.1633  -15.4359 H   0  0  0  0  0  0  0  0  0  0  0  0
    5.3780   -2.5890  -15.5357 H   0  0  0  0  0  0  0  0  0  0  0  0
   13.8123   -5.9442  -13.0596 H   0  0  0  0  0  0  0  0  0  0  0  0
   12.4585   -6.8037  -13.8207 H   0  0  0  0  0  0  0  0  0  0  0  0
   12.9040   -6.3185  -10.8278 H   0  0  0  0  0  0  0  0  0  0  0  0
   12.8950   -7.8850  -11.6952 H   0  0  0  0  0  0  0  0  0  0  0  0
   10.9805   -5.3276  -10.3015 H   0  0  0  0  0  0  0  0  0  0  0  0
    9.4238   -6.0436  -10.5714 H   0  0  0  0  0  0  0  0  0  0  0  0
  1  2  1  0  0  0  0
  1 57  1  0  0  0  0
  2  3  1  0  0  0  0
  2 59  1  0  0  0  0
  4  5  2  0  0  0  0
  4  3  1  0  0  0  0
  6  4  1  0  0  0  0
  7  6  1  0  0  0  0
  8  9  1  0  0  0  0
  9 63  1  0  0  0  0
  9 10  1  0  0  0  0
 10 11  1  6  0  0  0
 10 12  1  0  0  0  0
 10 16  1  0  0  0  0
 12 64  1  0  0  0  0
 13 14  1  0  0  0  0
 13 12  1  0  0  0  0
 14 67  1  0  0  0  0
 15 13  2  0  0  0  0
 16 17  1  0  0  0  0
 16 19  2  0  0  0  0
 17 18  1  0  0  0  0
 18 70  1  0  0  0  0
 18 71  1  0  0  0  0
 20 51  1  0  0  0  0
 20  7  1  0  0  0  0
 21 22  1  0  0  0  0
 21 20  2  0  0  0  0
 22 50  2  0  0  0  0
 23 24  1  6  0  0  0
 23 42  1  0  0  0  0
 23 22  1  0  0  0  0
 25 73  1  0  0  0  0
 25 23  1  0  0  0  0
 26 25  1  0  0  0  0
 27 28  1  6  0  0  0
 27 32  1  0  0  0  0
 27 26  1  0  0  0  0
 29 27  1  0  0  0  0
 29 31  1  0  0  0  0
 30 75  1  0  0  0  0
 30 29  1  0  0  0  0
 31 80  1  0  0  0  0
 31 78  1  0  0  0  0
 32 81  1  0  0  0  0
 33 32  1  0  0  0  0
 33 34  1  0  0  0  0
 34 39  1  0  0  0  0
 35 36  1  0  0  0  0
 35 34  2  0  0  0  0
 36 37  1  0  0  0  0
 37 39  2  0  0  0  0
 37 38  1  0  0  0  0
 38 83  1  0  0  0  0
 38 84  1  0  0  0  0
 39 85  1  0  0  0  0
 40 33  2  0  0  0  0
 41 26  2  0  0  0  0
 42 43  1  0  0  0  0
 42 86  1  0  0  0  0
 43 44  1  0  0  0  0
 44 45  2  0  0  0  0
 44 88  1  0  0  0  0
 45 89  1  0  0  0  0
 46 47  1  0  0  0  0
 46 45  1  0  0  0  0
 48 46  2  0  0  0  0
 49 48  1  0  0  0  0
 49 43  2  0  0  0  0
 51 52  1  0  0  0  0
 52 53  1  0  0  0  0
 52 94  1  0  0  0  0
 53 54  1  0  0  0  0
 54 96  1  0  0  0  0
 55 53  2  0  0  0  0
 56  1  1  0  0  0  0
 58  1  1  0  0  0  0
 60  2  1  0  0  0  0
 61  6  1  0  0  0  0
 62  9  1  0  0  0  0
 65 14  1  0  0  0  0
 66 14  1  0  0  0  0
 68 17  1  0  0  0  0
 69 18  1  0  0  0  0
 72 21  1  0  0  0  0
 74 29  1  0  0  0  0
 76 30  1  0  0  0  0
 77 30  1  0  0  0  0
 79 31  1  0  0  0  0
 82 38  1  0  0  0  0
 87 42  1  0  0  0  0
 90 48  1  0  0  0  0
 91 49  1  0  0  0  0
 92 51  1  0  0  0  0
 93 51  1  0  0  0  0
 95 52  1  0  0  0  0
 97 54  1  0  0  0  0
M  END
