97
-1 1
C         3.797168    1.817971    3.626410
C         4.414609    0.601462    4.286321
O         3.457731   -0.360771    4.722160
C         2.898888   -1.276657    3.919986
O         2.185629   -2.114965    4.420082
C         3.198542   -1.221043    2.463033
C         2.597653   -2.055469    1.646001
S         1.371454    0.405055   -0.715008
C         2.050917    2.036845   -0.248992
C         1.100754    2.941153    0.560670
H         0.114724    2.929914    0.059194
N         1.587877    4.303818    0.659807
C         1.666706    5.172154   -0.366778
C         2.057763    6.589977    0.016050
O         1.430282    4.878941   -1.530568
C         0.858769    2.512996    2.020385
N         0.664723    1.210185    2.245155
C         0.330821    0.725706    3.561982
O         0.844825    3.353730    2.921071
C         2.055232   -3.021007    0.943362
N         0.825902   -2.917133    0.287376
C        -0.255749   -2.185033    0.671414
C        -1.293408   -1.993760   -0.444620
H        -0.916461   -1.104634   -0.965472
N        -1.276571   -3.115336   -1.364295
C        -1.013505   -3.232704   -2.705365
C        -0.582406   -2.051766   -3.588403
H        -1.228914   -2.202069   -4.466175
C         0.875311   -2.259981   -4.070342
C         1.317880   -1.106413   -4.969487
C         1.880889   -2.515614   -2.947578
N        -0.857897   -0.707919   -3.136288
C        -2.091159   -0.184782   -3.388216
C        -2.241877    1.281127   -3.128257
N        -3.331450    1.875379   -3.555308
O        -3.209733    3.174283   -3.180878
C        -2.050462    3.371036   -2.530560
C        -1.785896    4.737364   -2.015529
C        -1.370100    2.192231   -2.469004
O        -3.009424   -0.859010   -3.818493
O        -1.078082   -4.330040   -3.228987
C        -2.712357   -1.685239    0.084687
C        -3.037930   -0.211887    0.223325
C        -2.376395    0.592622    1.159549
C        -2.648407    1.952519    1.267834
C        -3.614738    2.505083    0.437264
F        -3.880853    3.819554    0.529181
C        -4.302488    1.740734   -0.491504
C        -3.999607    0.383416   -0.598833
O        -0.383127   -1.700365    1.778172
C         2.703462   -4.391771    0.907371
C         2.354179   -5.185514    2.178611
C         0.845027   -5.199283    2.402863
N         0.403133   -4.320502    3.331969
O         0.114655   -5.930816    1.756342
H         4.586812    2.543860    3.381268
H         3.067127    2.310925    4.282813
H         3.275052    1.555330    2.696324
H         4.940290    0.890178    5.207507
H         5.159622    0.120891    3.631075
H         3.884691   -0.478890    2.050152
H         2.304710    2.595038   -1.159681
H         2.985011    1.910387    0.326370
H         1.619228    4.635223    1.622475
H         1.162889    7.227806   -0.042319
H         2.780136    6.964425   -0.721062
H         2.484094    6.667833    1.025666
H         0.710783    0.571097    1.434380
H         0.233811   -0.363195    3.511751
H        -0.620140    1.158494    3.915292
H         1.104383    0.992028    4.297687
H         0.754615   -3.372533   -0.614130
H        -1.587543   -4.005991   -0.982195
H         0.824294   -3.175144   -4.681080
H         1.478432   -0.184111   -4.390352
H         0.568652   -0.893936   -5.747662
H         2.267900   -1.355219   -5.466809
H         1.907861   -1.695245   -2.210826
H         2.894847   -2.612908   -3.365157
H         1.660078   -3.467730   -2.437569
H        -0.126070   -0.150691   -2.679714
H        -2.188557    5.488258   -2.709832
H        -0.703980    4.884423   -1.901441
H        -2.279542    4.872955   -1.041019
H        -0.408787    1.979963   -2.000523
H        -2.857564   -2.192072    1.052179
H        -3.417420   -2.129755   -0.630883
H        -1.626330    0.134962    1.801389
H        -2.117117    2.583926    1.983626
H        -5.028729    2.212616   -1.153931
H        -4.500395   -0.207863   -1.369718
H         3.794177   -4.297271    0.812054
H         2.337217   -4.934931    0.022019
H         2.871669   -4.735846    3.039602
H         2.688461   -6.227322    2.069114
H         1.004702   -3.571053    3.678342
H        -0.594389   -4.148126    3.352359
