80
-1 1
C         8.097306    3.580080   -0.537224
O         6.712792    3.742518   -0.566878
C         5.999244    2.567503   -0.821254
C         4.498970    2.816982   -0.734153
H         4.015960    1.830195   -0.816578
C         4.067473    3.465067    0.593503
C         3.885308    4.941492    0.243814
C         3.298763    4.860612   -1.159208
N         3.995027    3.734714   -1.753911
C         3.546463    3.299091   -3.055997
C         3.280462    1.830418   -3.271611
S         1.489005    1.580397   -1.565374
C         0.665251    0.301920   -2.541279
C         0.962138   -1.205671   -2.311076
H         0.413899   -1.549268   -1.419426
N         0.425061   -1.926809   -3.438280
C        -0.171721   -3.139147   -3.306471
C        -0.347444   -3.888511   -4.614795
O        -0.534857   -3.603665   -2.240427
C         2.421143   -1.669441   -2.076492
N         3.091571   -0.992753   -1.122749
C         4.472590   -1.249045   -0.811365
O         2.889102   -2.630550   -2.678173
C         2.820280    1.380592   -4.495691
C         2.917188    0.007979   -4.931568
N         4.014627   -0.775509   -4.514770
C         5.344039   -0.505192   -4.270033
C         6.161297   -1.613389   -3.885565
C         7.507450   -1.476132   -3.672705
C         5.949644    0.739441   -4.387643
C         7.321497    0.901974   -4.095965
C         8.136315   -0.208615   -3.779531
N         9.481394   -0.090762   -3.573695
C         9.969725    1.114074   -3.659349
N         9.286284    2.266334   -3.844992
C         7.985429    2.181236   -4.018499
N         7.217202    3.316772   -4.052615
C         7.601306    4.637533   -3.779554
C         8.843780    5.155540   -4.166344
C         9.130396    6.486081   -3.877839
Br        10.823695    7.185249   -4.395534
C         8.225657    7.319670   -3.227087
C         6.994991    6.783201   -2.847507
C         6.679577    5.456373   -3.110298
O         2.069709   -0.569115   -5.614098
H         8.547847    4.569556   -0.377038
H         8.496683    3.171589   -1.483950
H         8.412611    2.906330    0.284982
H         6.268262    1.782302   -0.082153
H         6.253727    2.155764   -1.818306
H         4.797589    3.296809    1.398202
H         3.104053    3.030774    0.903388
H         4.865946    5.439186    0.213707
H         3.231938    5.479384    0.946257
H         3.468273    5.785794   -1.740511
H         2.202401    4.688006   -1.120768
H         4.291160    3.588980   -3.837299
H         2.635531    3.856101   -3.328775
H         3.930234    1.147306   -2.720777
H         0.887793    0.525701   -3.598082
H        -0.422157    0.414952   -2.429059
H         0.820382   -1.669337   -4.343276
H        -1.149920   -4.627503   -4.501713
H         0.592609   -4.415452   -4.839366
H        -0.566560   -3.213357   -5.454351
H         2.671210   -0.095782   -0.840172
H         4.648904   -1.130658    0.268479
H         5.156537   -0.568209   -1.349958
H         4.721347   -2.276915   -1.105357
H         2.159193    2.008240   -5.100201
H         3.751873   -1.755349   -4.446350
H         5.679087   -2.586842   -3.765452
H         8.129151   -2.332097   -3.404990
H         5.345678    1.580998   -4.720469
H        11.053804    1.229456   -3.540673
H         6.221987    3.155777   -3.955585
H         9.570257    4.514496   -4.659235
H         8.479437    8.358271   -3.012158
H         6.275031    7.407693   -2.314404
H         5.747250    5.022606   -2.733574
