-1 1
 OpenBabel05192410563D

 80 83  0  0  1  0  0  0  0  0999 V2000
    2.7005    1.6446    2.3686 C   0  0  0  0  0  0  0  0  0  0  0  0
    1.3103    1.7644    2.3927 O   0  0  0  0  0  0  0  0  0  0  0  0
    0.6262    0.5625    2.1913 C   0  0  0  0  0  0  0  0  0  0  0  0
   -0.8748    0.7660    2.3565 C   0  0  1  0  0  0  0  0  0  0  0  0
   -1.3164   -0.2450    2.3129 H   0  0  0  0  0  0  0  0  0  0  0  0
   -1.2569    1.4237    3.6946 C   0  0  0  0  0  0  0  0  0  0  0  0
   -1.4932    2.8893    3.3306 C   0  0  0  0  0  0  0  0  0  0  0  0
   -2.1477    2.7754    1.9593 C   0  0  0  0  0  0  0  0  0  0  0  0
   -1.4673    1.6461    1.3558 N   0  0  0  0  0  0  0  0  0  0  0  0
   -1.9001    1.1777    0.0612 C   0  0  0  0  0  0  0  0  0  0  0  0
   -2.3765   -0.2701   -0.0550 C   0  0  1  0  0  0  0  0  0  0  0  0
   -3.8155   -0.4299    1.2504 S   0  0  0  0  0  0  0  0  0  0  0  0
   -4.7653   -1.7895    0.5247 C   0  0  0  0  0  0  0  0  0  0  0  0
   -4.3782   -3.2914    0.6849 C   0  0  1  0  0  0  0  0  0  0  0  0
   -4.9815   -3.7292    1.4975 H   0  0  0  0  0  0  0  0  0  0  0  0
   -4.7889   -3.9617   -0.5203 N   0  0  0  0  0  0  0  0  0  0  0  0
   -5.4567   -5.1399   -0.5026 C   0  0  0  0  0  0  0  0  0  0  0  0
   -5.5956   -5.7974   -1.8627 C   0  0  0  0  0  0  0  0  0  0  0  0
   -5.9112   -5.6479    0.5094 O   0  0  0  0  0  0  0  0  0  0  0  0
   -2.9346   -3.7307    1.0433 C   0  0  0  0  0  0  0  0  0  0  0  0
   -2.3171   -3.0153    2.0115 N   0  0  0  0  0  0  0  0  0  0  0  0
   -0.9484   -3.2654    2.3884 C   0  0  0  0  0  0  0  0  0  0  0  0
   -2.4460   -4.7301    0.5410 O   0  0  0  0  0  0  0  0  0  0  0  0
   -2.7836   -0.6665   -1.4069 C   0  0  0  0  0  3  0  0  0  0  0  0
   -2.6450   -1.9672   -1.9060 C   0  0  0  0  0  0  0  0  0  0  0  0
   -1.5655   -2.7855   -1.4181 N   0  0  0  0  0  0  0  0  0  0  0  0
   -0.2364   -2.5426   -1.2113 C   0  0  0  0  0  0  0  0  0  0  0  0
    0.5852   -3.6616   -0.8539 C   0  0  0  0  0  0  0  0  0  0  0  0
    1.9360   -3.5358   -0.6762 C   0  0  0  0  0  0  0  0  0  0  0  0
    0.3762   -1.2967   -1.3241 C   0  0  0  0  0  0  0  0  0  0  0  0
    1.7620   -1.1527   -1.0900 C   0  0  0  0  0  0  0  0  0  0  0  0
    2.5749   -2.2735   -0.7995 C   0  0  0  0  0  0  0  0  0  0  0  0
    3.9263   -2.1734   -0.6306 N   0  0  0  0  0  0  0  0  0  0  0  0
    4.4307   -0.9767   -0.7294 C   0  0  0  0  0  0  0  0  0  0  0  0
    3.7583    0.1831   -0.9095 N   0  0  0  0  0  0  0  0  0  0  0  0
    2.4530    0.1136   -1.0524 C   0  0  0  0  0  0  0  0  0  0  0  0
    1.7026    1.2632   -1.0947 N   0  0  0  0  0  0  0  0  0  0  0  0
    2.1025    2.5796   -0.8399 C   0  0  0  0  0  0  0  0  0  0  0  0
    3.3585    3.0752   -1.2150 C   0  0  0  0  0  0  0  0  0  0  0  0
    3.6615    4.4046   -0.9387 C   0  0  0  0  0  0  0  0  0  0  0  0
    5.3735    5.0704   -1.4401 Br  0  0  0  0  0  0  0  0  0  0  0  0
    2.7622    5.2617   -0.3117 C   0  0  0  0  0  0  0  0  0  0  0  0
    1.5178    4.7491    0.0568 C   0  0  0  0  0  0  0  0  0  0  0  0
    1.1864    3.4243   -0.1937 C   0  0  0  0  0  0  0  0  0  0  0  0
   -3.4113   -2.5592   -2.6974 O   0  0  0  0  0  0  0  0  0  0  0  0
    3.1252    2.6540    2.4601 H   0  0  0  0  0  0  0  0  0  0  0  0
    3.0711    1.2005    1.4268 H   0  0  0  0  0  0  0  0  0  0  0  0
    3.0705    1.0225    3.2085 H   0  0  0  0  0  0  0  0  0  0  0  0
    0.9591   -0.2029    2.9252 H   0  0  0  0  0  0  0  0  0  0  0  0
    0.8361    0.1452    1.1876 H   0  0  0  0  0  0  0  0  0  0  0  0
   -0.4838    1.2872    4.4642 H   0  0  0  0  0  0  0  0  0  0  0  0
   -2.1924    0.9732    4.0628 H   0  0  0  0  0  0  0  0  0  0  0  0
   -0.5263    3.4056    3.2414 H   0  0  0  0  0  0  0  0  0  0  0  0
   -2.1200    3.4248    4.0587 H   0  0  0  0  0  0  0  0  0  0  0  0
   -2.0151    3.6911    1.3549 H   0  0  0  0  0  0  0  0  0  0  0  0
   -3.2410    2.6021    2.0561 H   0  0  0  0  0  0  0  0  0  0  0  0
   -1.1036    1.2924   -0.7042 H   0  0  0  0  0  0  0  0  0  0  0  0
   -2.7123    1.8345   -0.2895 H   0  0  0  0  0  0  0  0  0  0  0  0
   -1.6059   -0.9496    0.3326 H   0  0  0  0  0  0  0  0  0  0  0  0
   -4.7904   -1.5727   -0.5516 H   0  0  0  0  0  0  0  0  0  0  0  0
   -5.7888   -1.6630    0.9032 H   0  0  0  0  0  0  0  0  0  0  0  0
   -4.3949   -3.6076   -1.4018 H   0  0  0  0  0  0  0  0  0  0  0  0
   -6.6062   -6.2163   -1.9576 H   0  0  0  0  0  0  0  0  0  0  0  0
   -4.8787   -6.6308   -1.9107 H   0  0  0  0  0  0  0  0  0  0  0  0
   -5.3867   -5.1094   -2.6934 H   0  0  0  0  0  0  0  0  0  0  0  0
   -2.7266   -2.1081    2.2396 H   0  0  0  0  0  0  0  0  0  0  0  0
   -0.7965   -3.0105    3.4476 H   0  0  0  0  0  0  0  0  0  0  0  0
   -0.2357   -2.6813    1.7792 H   0  0  0  0  0  0  0  0  0  0  0  0
   -0.7245   -4.3291    2.2371 H   0  0  0  0  0  0  0  0  0  0  0  0
   -3.5653   -0.0729   -1.8926 H   0  0  0  0  0  0  0  0  0  0  0  0
   -1.8217   -3.7667   -1.4325 H   0  0  0  0  0  0  0  0  0  0  0  0
    0.0964   -4.6303   -0.7219 H   0  0  0  0  0  0  0  0  0  0  0  0
    2.5579   -4.3976   -0.4274 H   0  0  0  0  0  0  0  0  0  0  0  0
   -0.2465   -0.4586   -1.6377 H   0  0  0  0  0  0  0  0  0  0  0  0
    5.5185   -0.8755   -0.6331 H   0  0  0  0  0  0  0  0  0  0  0  0
    0.7057    1.1130   -1.0033 H   0  0  0  0  0  0  0  0  0  0  0  0
    4.0812    2.4154   -1.6882 H   0  0  0  0  0  0  0  0  0  0  0  0
    3.0296    6.2988   -0.1065 H   0  0  0  0  0  0  0  0  0  0  0  0
    0.8005    5.3916    0.5718 H   0  0  0  0  0  0  0  0  0  0  0  0
    0.2433    3.0117    0.1757 H   0  0  0  0  0  0  0  0  0  0  0  0
  1  2  1  0  0  0  0
  1 46  1  0  0  0  0
  1 48  1  0  0  0  0
  3  4  1  0  0  0  0
  3  2  1  0  0  0  0
  3 49  1  0  0  0  0
  4  5  1  6  0  0  0
  4  6  1  0  0  0  0
  6 52  1  0  0  0  0
  6 51  1  0  0  0  0
  7  6  1  0  0  0  0
  7 54  1  0  0  0  0
  8 56  1  0  0  0  0
  8  7  1  0  0  0  0
  9  8  1  0  0  0  0
  9  4  1  0  0  0  0
 10  9  1  0  0  0  0
 11 10  1  0  0  0  0
 11 59  1  1  0  0  0
 11 12  1  0  0  0  0
 13 14  1  0  0  0  0
 13 61  1  0  0  0  0
 13 12  1  0  0  0  0
 14 20  1  0  0  0  0
 14 15  1  1  0  0  0
 16 17  1  0  0  0  0
 16 14  1  0  0  0  0
 17 19  2  0  0  0  0
 18 17  1  0  0  0  0
 20 21  1  0  0  0  0
 21 66  1  0  0  0  0
 21 22  1  0  0  0  0
 22 67  1  0  0  0  0
 23 20  2  0  0  0  0
 24 11  1  0  0  0  0
 25 26  1  0  0  0  0
 25 24  1  0  0  0  0
 26 27  1  0  0  0  0
 27 28  1  0  0  0  0
 28 72  1  0  0  0  0
 28 29  2  0  0  0  0
 29 73  1  0  0  0  0
 30 27  2  0  0  0  0
 30 31  1  0  0  0  0
 31 36  1  0  0  0  0
 31 32  2  0  0  0  0
 32 29  1  0  0  0  0
 32 33  1  0  0  0  0
 34 75  1  0  0  0  0
 34 33  2  0  0  0  0
 35 34  1  0  0  0  0
 36 35  2  0  0  0  0
 37 36  1  0  0  0  0
 37 76  1  0  0  0  0
 37 38  1  0  0  0  0
 38 44  1  0  0  0  0
 39 40  1  0  0  0  0
 39 38  2  0  0  0  0
 40 42  2  0  0  0  0
 41 40  1  0  0  0  0
 42 78  1  0  0  0  0
 42 43  1  0  0  0  0
 43 79  1  0  0  0  0
 44 43  2  0  0  0  0
 44 80  1  0  0  0  0
 45 25  2  0  0  0  0
 47  1  1  0  0  0  0
 50  3  1  0  0  0  0
 53  7  1  0  0  0  0
 55  8  1  0  0  0  0
 57 10  1  0  0  0  0
 58 10  1  0  0  0  0
 60 13  1  0  0  0  0
 62 16  1  0  0  0  0
 63 18  1  0  0  0  0
 64 18  1  0  0  0  0
 65 18  1  0  0  0  0
 68 22  1  0  0  0  0
 69 22  1  0  0  0  0
 70 24  1  0  0  0  0
 71 26  1  0  0  0  0
 74 30  1  0  0  0  0
 77 39  1  0  0  0  0
M  END
