-1 1
 OpenBabel05232414493D

 80 82  0  0  1  0  0  0  0  0999 V2000
    8.0973    3.5801   -0.5372 C   0  0  0  0  0  0  0  0  0  0  0  0
    6.7128    3.7425   -0.5669 O   0  0  0  0  0  0  0  0  0  0  0  0
    5.9992    2.5675   -0.8213 C   0  0  0  0  0  0  0  0  0  0  0  0
    4.4990    2.8170   -0.7342 C   0  0  1  0  0  0  0  0  0  0  0  0
    4.0160    1.8302   -0.8166 H   0  0  0  0  0  0  0  0  0  0  0  0
    4.0675    3.4651    0.5935 C   0  0  0  0  0  0  0  0  0  0  0  0
    3.8853    4.9415    0.2438 C   0  0  0  0  0  0  0  0  0  0  0  0
    3.2988    4.8606   -1.1592 C   0  0  0  0  0  0  0  0  0  0  0  0
    3.9950    3.7347   -1.7539 N   0  0  0  0  0  0  0  0  0  0  0  0
    3.5465    3.2991   -3.0560 C   0  0  0  0  0  0  0  0  0  0  0  0
    3.2805    1.8304   -3.2716 C   0  0  0  0  0  3  0  0  0  0  0  0
    1.4890    1.5804   -1.5654 S   0  0  0  0  0  1  0  0  0  0  0  0
    0.6653    0.3019   -2.5413 C   0  0  0  0  0  0  0  0  0  0  0  0
    0.9621   -1.2057   -2.3111 C   0  0  1  0  0  0  0  0  0  0  0  0
    0.4139   -1.5493   -1.4194 H   0  0  0  0  0  0  0  0  0  0  0  0
    0.4251   -1.9268   -3.4383 N   0  0  0  0  0  0  0  0  0  0  0  0
   -0.1717   -3.1391   -3.3065 C   0  0  0  0  0  0  0  0  0  0  0  0
   -0.3474   -3.8885   -4.6148 C   0  0  0  0  0  0  0  0  0  0  0  0
   -0.5349   -3.6037   -2.2404 O   0  0  0  0  0  0  0  0  0  0  0  0
    2.4211   -1.6694   -2.0765 C   0  0  0  0  0  0  0  0  0  0  0  0
    3.0916   -0.9928   -1.1227 N   0  0  0  0  0  0  0  0  0  0  0  0
    4.4726   -1.2490   -0.8114 C   0  0  0  0  0  0  0  0  0  0  0  0
    2.8891   -2.6305   -2.6782 O   0  0  0  0  0  0  0  0  0  0  0  0
    2.8203    1.3806   -4.4957 C   0  0  0  0  0  3  0  0  0  0  0  0
    2.9172    0.0080   -4.9316 C   0  0  0  0  0  0  0  0  0  0  0  0
    4.0146   -0.7755   -4.5148 N   0  0  0  0  0  0  0  0  0  0  0  0
    5.3440   -0.5052   -4.2700 C   0  0  0  0  0  0  0  0  0  0  0  0
    6.1613   -1.6134   -3.8856 C   0  0  0  0  0  0  0  0  0  0  0  0
    7.5075   -1.4761   -3.6727 C   0  0  0  0  0  0  0  0  0  0  0  0
    5.9496    0.7394   -4.3876 C   0  0  0  0  0  0  0  0  0  0  0  0
    7.3215    0.9020   -4.0960 C   0  0  0  0  0  0  0  0  0  0  0  0
    8.1363   -0.2086   -3.7795 C   0  0  0  0  0  0  0  0  0  0  0  0
    9.4814   -0.0908   -3.5737 N   0  0  0  0  0  0  0  0  0  0  0  0
    9.9697    1.1141   -3.6593 C   0  0  0  0  0  0  0  0  0  0  0  0
    9.2863    2.2663   -3.8450 N   0  0  0  0  0  0  0  0  0  0  0  0
    7.9854    2.1812   -4.0185 C   0  0  0  0  0  0  0  0  0  0  0  0
    7.2172    3.3168   -4.0526 N   0  0  0  0  0  0  0  0  0  0  0  0
    7.6013    4.6375   -3.7796 C   0  0  0  0  0  0  0  0  0  0  0  0
    8.8438    5.1555   -4.1663 C   0  0  0  0  0  0  0  0  0  0  0  0
    9.1304    6.4861   -3.8778 C   0  0  0  0  0  0  0  0  0  0  0  0
   10.8237    7.1852   -4.3955 Br  0  0  0  0  0  0  0  0  0  0  0  0
    8.2257    7.3197   -3.2271 C   0  0  0  0  0  0  0  0  0  0  0  0
    6.9950    6.7832   -2.8475 C   0  0  0  0  0  0  0  0  0  0  0  0
    6.6796    5.4564   -3.1103 C   0  0  0  0  0  0  0  0  0  0  0  0
    2.0697   -0.5691   -5.6141 O   0  0  0  0  0  0  0  0  0  0  0  0
    8.5478    4.5696   -0.3770 H   0  0  0  0  0  0  0  0  0  0  0  0
    8.4967    3.1716   -1.4840 H   0  0  0  0  0  0  0  0  0  0  0  0
    8.4126    2.9063    0.2850 H   0  0  0  0  0  0  0  0  0  0  0  0
    6.2683    1.7823   -0.0822 H   0  0  0  0  0  0  0  0  0  0  0  0
    6.2537    2.1558   -1.8183 H   0  0  0  0  0  0  0  0  0  0  0  0
    4.7976    3.2968    1.3982 H   0  0  0  0  0  0  0  0  0  0  0  0
    3.1041    3.0308    0.9034 H   0  0  0  0  0  0  0  0  0  0  0  0
    4.8659    5.4392    0.2137 H   0  0  0  0  0  0  0  0  0  0  0  0
    3.2319    5.4794    0.9463 H   0  0  0  0  0  0  0  0  0  0  0  0
    3.4683    5.7858   -1.7405 H   0  0  0  0  0  0  0  0  0  0  0  0
    2.2024    4.6880   -1.1208 H   0  0  0  0  0  0  0  0  0  0  0  0
    4.2912    3.5890   -3.8373 H   0  0  0  0  0  0  0  0  0  0  0  0
    2.6355    3.8561   -3.3288 H   0  0  0  0  0  0  0  0  0  0  0  0
    3.9302    1.1473   -2.7208 H   0  0  0  0  0  0  0  0  0  0  0  0
    0.8878    0.5257   -3.5981 H   0  0  0  0  0  0  0  0  0  0  0  0
   -0.4222    0.4150   -2.4291 H   0  0  0  0  0  0  0  0  0  0  0  0
    0.8204   -1.6693   -4.3433 H   0  0  0  0  0  0  0  0  0  0  0  0
   -1.1499   -4.6275   -4.5017 H   0  0  0  0  0  0  0  0  0  0  0  0
    0.5926   -4.4155   -4.8394 H   0  0  0  0  0  0  0  0  0  0  0  0
   -0.5666   -3.2134   -5.4544 H   0  0  0  0  0  0  0  0  0  0  0  0
    2.6712   -0.0958   -0.8402 H   0  0  0  0  0  0  0  0  0  0  0  0
    4.6489   -1.1307    0.2685 H   0  0  0  0  0  0  0  0  0  0  0  0
    5.1565   -0.5682   -1.3500 H   0  0  0  0  0  0  0  0  0  0  0  0
    4.7213   -2.2769   -1.1054 H   0  0  0  0  0  0  0  0  0  0  0  0
    2.1592    2.0082   -5.1002 H   0  0  0  0  0  0  0  0  0  0  0  0
    3.7519   -1.7553   -4.4463 H   0  0  0  0  0  0  0  0  0  0  0  0
    5.6791   -2.5868   -3.7655 H   0  0  0  0  0  0  0  0  0  0  0  0
    8.1292   -2.3321   -3.4050 H   0  0  0  0  0  0  0  0  0  0  0  0
    5.3457    1.5810   -4.7205 H   0  0  0  0  0  0  0  0  0  0  0  0
   11.0538    1.2295   -3.5407 H   0  0  0  0  0  0  0  0  0  0  0  0
    6.2220    3.1558   -3.9556 H   0  0  0  0  0  0  0  0  0  0  0  0
    9.5703    4.5145   -4.6592 H   0  0  0  0  0  0  0  0  0  0  0  0
    8.4794    8.3583   -3.0122 H   0  0  0  0  0  0  0  0  0  0  0  0
    6.2750    7.4077   -2.3144 H   0  0  0  0  0  0  0  0  0  0  0  0
    5.7473    5.0226   -2.7336 H   0  0  0  0  0  0  0  0  0  0  0  0
  1 46  1  0  0  0  0
  1 48  1  0  0  0  0
  2  1  1  0  0  0  0
  3  4  1  0  0  0  0
  3  2  1  0  0  0  0
  3 49  1  0  0  0  0
  4  5  1  6  0  0  0
  4  6  1  0  0  0  0
  6 52  1  0  0  0  0
  6 51  1  0  0  0  0
  7  6  1  0  0  0  0
  7 54  1  0  0  0  0
  8 56  1  0  0  0  0
  8  7  1  0  0  0  0
  9  8  1  0  0  0  0
  9  4  1  0  0  0  0
 10  9  1  0  0  0  0
 11 10  1  0  0  0  0
 11 59  1  0  0  0  0
 13 61  1  0  0  0  0
 13 14  1  0  0  0  0
 13 12  1  0  0  0  0
 14 20  1  0  0  0  0
 14 15  1  1  0  0  0
 16 17  1  0  0  0  0
 16 14  1  0  0  0  0
 17 19  2  0  0  0  0
 18 63  1  0  0  0  0
 18 17  1  0  0  0  0
 20 21  1  0  0  0  0
 21 66  1  0  0  0  0
 21 22  1  0  0  0  0
 22 67  1  0  0  0  0
 23 20  2  0  0  0  0
 24 11  1  0  0  0  0
 25 26  1  0  0  0  0
 25 24  1  0  0  0  0
 26 71  1  0  0  0  0
 26 27  1  0  0  0  0
 27 28  1  0  0  0  0
 28 72  1  0  0  0  0
 28 29  2  0  0  0  0
 29 73  1  0  0  0  0
 30 27  2  0  0  0  0
 30 31  1  0  0  0  0
 31 36  1  0  0  0  0
 31 32  2  0  0  0  0
 32 29  1  0  0  0  0
 32 33  1  0  0  0  0
 34 33  2  0  0  0  0
 34 75  1  0  0  0  0
 35 34  1  0  0  0  0
 36 35  2  0  0  0  0
 37 36  1  0  0  0  0
 37 76  1  0  0  0  0
 37 38  1  0  0  0  0
 38 44  1  0  0  0  0
 39 40  1  0  0  0  0
 39 38  2  0  0  0  0
 40 42  2  0  0  0  0
 41 40  1  0  0  0  0
 42 78  1  0  0  0  0
 42 43  1  0  0  0  0
 43 79  1  0  0  0  0
 44 43  2  0  0  0  0
 44 80  1  0  0  0  0
 45 25  2  0  0  0  0
 47  1  1  0  0  0  0
 50  3  1  0  0  0  0
 53  7  1  0  0  0  0
 55  8  1  0  0  0  0
 57 10  1  0  0  0  0
 58 10  1  0  0  0  0
 60 13  1  0  0  0  0
 62 16  1  0  0  0  0
 64 18  1  0  0  0  0
 65 18  1  0  0  0  0
 68 22  1  0  0  0  0
 69 22  1  0  0  0  0
 70 24  1  0  0  0  0
 74 30  1  0  0  0  0
 77 39  1  0  0  0  0
M  END
