63
-1 1
C         2.762149    2.267846   -5.557581
O         3.338550    1.216568   -4.830491
C         3.106407   -0.041233   -5.411978
C         3.316895   -1.083439   -4.410502
S        -0.377823    0.339224   -4.715533
C        -0.834605   -0.742508   -3.304144
C        -1.051807    0.018680   -1.984410
H        -1.534464   -0.629003   -1.235612
N        -1.932747    1.142273   -2.209534
C        -2.942720    1.485762   -1.381381
C        -3.768212    2.675747   -1.828568
O        -3.177155    0.908933   -0.329196
C         0.226978    0.520521   -1.299694
N         1.309830    0.686276   -2.080522
C         2.521404    1.296034   -1.579207
O         0.257833    0.740649   -0.086151
C         3.401540   -1.916684   -3.537637
C         3.359400   -2.826803   -2.393482
N         2.543876   -2.316935   -1.417053
C         2.238065   -2.843107   -0.153204
C         2.649517   -4.130987    0.275969
C         2.301849   -4.574049    1.531819
C         1.488549   -2.048345    0.696988
C         1.101950   -2.507873    1.968642
C         1.525367   -3.782959    2.413132
N         1.218257   -4.257911    3.658111
C         0.516600   -3.454929    4.407758
N         0.031253   -2.234849    4.098357
C         0.279433   -1.750842    2.894885
N        -0.241250   -0.555377    2.508113
C        -1.017608    0.352910    3.246099
C        -1.764180    1.282521    2.500525
C        -2.502314    2.248862    3.168311
Br        -3.496103    3.517790    2.158384
C        -2.543154    2.319909    4.560155
C        -1.813341    1.380329    5.282691
C        -1.052067    0.402328    4.646978
O         3.965179   -3.877053   -2.335535
H         3.004349    3.200067   -5.029298
H         1.664329    2.158901   -5.612901
H         3.176321    2.327821   -6.583619
H         3.768378   -0.201897   -6.286961
H         2.047602   -0.132830   -5.731725
H        -0.068247   -1.518555   -3.138519
H        -1.773803   -1.269278   -3.532778
H        -1.802214    1.570287   -3.129624
H        -3.602113    2.950849   -2.879171
H        -3.509656    3.531073   -1.186396
H        -4.829613    2.447857   -1.664844
H         1.133708    0.672384   -3.104949
H         2.329123    2.307194   -1.184929
H         3.237392    1.350704   -2.408649
H         2.955899    0.701556   -0.760206
H         2.096883   -1.430527   -1.650276
H         3.246077   -4.744628   -0.396140
H         2.617882   -5.556631    1.886434
H         1.216345   -1.043182    0.378111
H         0.274527   -3.804265    5.419764
H        -0.102457   -0.259740    1.537854
H        -1.782828    1.221054    1.409656
H        -3.133710    3.087158    5.062223
H        -1.833596    1.410754    6.374792
H        -0.498469   -0.335297    5.220697
