63
-1 1
C         5.859841    6.325967    2.985331
O         6.548581    5.417593    3.791687
C         6.680872    4.113162    3.262295
C         6.270610    3.084007    4.250984
S         3.969431    3.486951    4.180870
C         3.542851    2.856794    5.828824
C         3.184143    3.928410    6.874530
H         2.717337    3.448511    7.747147
N         2.219240    4.856163    6.323469
C         1.220614    5.414860    7.048076
C         0.331256    6.381371    6.289998
O         1.043337    5.182073    8.231784
C         4.376978    4.702297    7.456880
N         5.290877    5.152501    6.589651
C         6.454473    5.892540    7.011205
O         4.476674    4.905475    8.670721
C         6.736102    2.219055    5.030197
C         6.680483    1.224990    6.053197
N         6.676680    1.801909    7.339651
C         6.150608    1.208011    8.488583
C         6.281323   -0.180335    8.764427
C         5.758598   -0.704406    9.923900
C         5.476004    2.011765    9.393444
C         4.895883    1.474115   10.557163
C         5.060043    0.101637   10.857041
N         4.572215   -0.451211   12.009533
C         3.936577    0.365245   12.801469
N         3.647373    1.668710   12.596710
C         4.073820    2.229046   11.480834
N         3.720673    3.508014   11.162441
C         2.931389    4.413993   11.883116
C         2.369095    5.473784   11.148021
C         1.618866    6.435198   11.807789
Br         0.870683    7.868324   10.803992
C         1.389501    6.382718   13.182081
C         1.939927    5.319433   13.892643
C         2.705356    4.338905   13.265487
O         6.660783    0.017132    5.881304
H         5.826658    7.284340    3.523370
H         4.822487    5.994372    2.795175
H         6.368486    6.491690    2.015200
H         7.739948    3.935975    3.003164
H         6.080702    4.007301    2.341926
H         4.385879    2.252145    6.199086
H         2.683600    2.176964    5.739271
H         2.337438    5.051563    5.331187
H         0.465595    6.338855    5.200283
H         0.552251    7.400370    6.640617
H        -0.714726    6.164712    6.543567
H         5.178743    4.930992    5.593820
H         6.181794    6.885821    7.403381
H         7.110392    6.005096    6.139761
H         6.993116    5.362258    7.812389
H         6.595259    2.813020    7.318572
H         6.794567   -0.807877    8.038375
H         5.867691   -1.764769   10.159063
H         5.393667    3.078056    9.187688
H         3.566804   -0.045958   13.749659
H         3.969139    3.850649   10.229846
H         2.500617    5.513824   10.065037
H         0.793180    7.149090   13.678609
H         1.770024    5.251009   14.969994
H         3.114300    3.502790   13.825806
