-1 1
 OpenBabel05192410563D

 63 65  0  0  1  0  0  0  0  0999 V2000
    0.9906    2.2073   -5.6436 C   0  0  0  0  0  0  0  0  0  0  0  0
    1.0226    1.2276   -4.6549 O   0  0  0  0  0  0  0  0  0  0  0  0
    1.7654    0.0626   -5.0112 C   0  0  0  0  0  0  0  0  0  0  0  0
    1.7554   -0.9720   -3.9198 C   0  0  0  0  0  0  0  0  0  0  0  0
    0.0467   -1.6256   -3.6459 S   0  0  0  0  0  0  0  0  0  0  0  0
   -0.3656   -1.2590   -1.9082 C   0  0  0  0  0  0  0  0  0  0  0  0
   -0.6592    0.2124   -1.5160 C   0  0  2  0  0  0  0  0  0  0  0  0
   -1.3582    0.2054   -0.6660 H   0  0  0  0  0  0  0  0  0  0  0  0
   -1.2557    0.9226   -2.6127 N   0  0  0  0  0  0  0  0  0  0  0  0
   -1.8406    2.1337   -2.4401 C   0  0  0  0  0  0  0  0  0  0  0  0
   -2.3127    2.8120   -3.7129 C   0  0  0  0  0  0  0  0  0  0  0  0
   -1.9830    2.6497   -1.3464 O   0  0  0  0  0  0  0  0  0  0  0  0
    0.5979    0.8870   -0.9541 C   0  0  0  0  0  0  0  0  0  0  0  0
    1.3817    1.5136   -1.8355 N   0  0  0  0  0  0  0  0  0  0  0  0
    2.7167    1.9584   -1.5256 C   0  0  0  0  0  0  0  0  0  0  0  0
    0.8673    0.7863    0.2464 O   0  0  0  0  0  0  0  0  0  0  0  0
    2.8666   -1.4293   -3.3460 C   0  0  0  0  0  3  0  0  0  0  0  0
    2.9301   -2.5220   -2.4189 C   0  0  0  0  0  0  0  0  0  0  0  0
    3.0306   -2.0749   -1.0696 N   0  0  0  0  0  0  0  0  0  0  0  0
    2.5022   -2.7541    0.0211 C   0  0  0  0  0  0  0  0  0  0  0  0
    2.5893   -4.1675    0.1693 C   0  0  0  0  0  0  0  0  0  0  0  0
    2.0305   -4.7831    1.2663 C   0  0  0  0  0  0  0  0  0  0  0  0
    1.8365   -2.0217    0.9916 C   0  0  0  0  0  0  0  0  0  0  0  0
    1.2013   -2.6522    2.0741 C   0  0  0  0  0  0  0  0  0  0  0  0
    1.3230   -4.0495    2.2521 C   0  0  0  0  0  0  0  0  0  0  0  0
    0.7740   -4.6855    3.3326 N   0  0  0  0  0  0  0  0  0  0  0  0
    0.1062   -3.9306    4.1573 C   0  0  0  0  0  0  0  0  0  0  0  0
   -0.1735   -2.6111    4.0394 N   0  0  0  0  0  0  0  0  0  0  0  0
    0.3246   -1.9716    3.0006 C   0  0  0  0  0  0  0  0  0  0  0  0
   -0.0046   -0.6685    2.7383 N   0  0  0  0  0  0  0  0  0  0  0  0
   -0.8598    0.2012    3.4175 C   0  0  0  0  0  0  0  0  0  0  0  0
   -1.1442    1.4220    2.7733 C   0  0  0  0  0  0  0  0  0  0  0  0
   -1.9831    2.3411    3.3856 C   0  0  0  0  0  0  0  0  0  0  0  0
   -2.3608    3.9717    2.4857 Br  0  0  0  0  0  0  0  0  0  0  0  0
   -2.5590    2.0986    4.6323 C   0  0  0  0  0  0  0  0  0  0  0  0
   -2.2676    0.8892    5.2578 C   0  0  0  0  0  0  0  0  0  0  0  0
   -1.4319   -0.0597    4.6726 C   0  0  0  0  0  0  0  0  0  0  0  0
    2.9726   -3.7161   -2.6847 O   0  0  0  0  0  0  0  0  0  0  0  0
    0.4015    3.0550   -5.2652 H   0  0  0  0  0  0  0  0  0  0  0  0
    0.5159    1.8336   -6.5719 H   0  0  0  0  0  0  0  0  0  0  0  0
    2.0052    2.5680   -5.9023 H   0  0  0  0  0  0  0  0  0  0  0  0
    2.8174    0.3358   -5.2074 H   0  0  0  0  0  0  0  0  0  0  0  0
    1.3290   -0.3403   -5.9493 H   0  0  0  0  0  0  0  0  0  0  0  0
    0.4035   -1.6722   -1.2428 H   0  0  0  0  0  0  0  0  0  0  0  0
   -1.2752   -1.8527   -1.7395 H   0  0  0  0  0  0  0  0  0  0  0  0
   -1.0294    0.5686   -3.5420 H   0  0  0  0  0  0  0  0  0  0  0  0
   -2.1531    2.2067   -4.6155 H   0  0  0  0  0  0  0  0  0  0  0  0
   -1.7780    3.7675   -3.8144 H   0  0  0  0  0  0  0  0  0  0  0  0
   -3.3819    3.0445   -3.6119 H   0  0  0  0  0  0  0  0  0  0  0  0
    1.1354    1.4556   -2.8271 H   0  0  0  0  0  0  0  0  0  0  0  0
    2.8578    1.9290   -0.4381 H   0  0  0  0  0  0  0  0  0  0  0  0
    2.8771    2.9889   -1.8770 H   0  0  0  0  0  0  0  0  0  0  0  0
    3.4543    1.2965   -2.0124 H   0  0  0  0  0  0  0  0  0  0  0  0
    2.9773   -1.0645   -0.9932 H   0  0  0  0  0  0  0  0  0  0  0  0
    3.0967   -4.7330   -0.6105 H   0  0  0  0  0  0  0  0  0  0  0  0
    2.1083   -5.8636    1.4023 H   0  0  0  0  0  0  0  0  0  0  0  0
    1.7766   -0.9416    0.8665 H   0  0  0  0  0  0  0  0  0  0  0  0
   -0.3107   -4.4119    5.0513 H   0  0  0  0  0  0  0  0  0  0  0  0
    0.3184   -0.2932    1.8443 H   0  0  0  0  0  0  0  0  0  0  0  0
   -0.7022    1.6324    1.7966 H   0  0  0  0  0  0  0  0  0  0  0  0
   -3.2171    2.8343    5.0958 H   0  0  0  0  0  0  0  0  0  0  0  0
   -2.7077    0.6740    6.2347 H   0  0  0  0  0  0  0  0  0  0  0  0
   -1.2214   -1.0084    5.1588 H   0  0  0  0  0  0  0  0  0  0  0  0
  1 39  1  0  0  0  0
  1  2  1  0  0  0  0
  3  2  1  0  0  0  0
  3  4  1  0  0  0  0
  4  5  1  0  0  0  0
  4 17  2  0  0  0  0
  5  6  1  0  0  0  0
  6 45  1  0  0  0  0
  6  7  1  0  0  0  0
  6 44  1  0  0  0  0
  7 13  1  0  0  0  0
  7  8  1  1  0  0  0
  9 10  1  0  0  0  0
  9  7  1  0  0  0  0
 10 12  2  0  0  0  0
 11 49  1  0  0  0  0
 11 10  1  0  0  0  0
 13 16  2  0  0  0  0
 14 15  1  0  0  0  0
 14 13  1  0  0  0  0
 15 51  1  0  0  0  0
 17 18  1  0  0  0  0
 18 19  1  0  0  0  0
 19 54  1  0  0  0  0
 19 20  1  0  0  0  0
 20 21  2  0  0  0  0
 20 23  1  0  0  0  0
 21 22  1  0  0  0  0
 22 56  1  0  0  0  0
 22 25  2  0  0  0  0
 23 24  2  0  0  0  0
 24 25  1  0  0  0  0
 24 29  1  0  0  0  0
 25 26  1  0  0  0  0
 26 27  2  0  0  0  0
 27 58  1  0  0  0  0
 28 27  1  0  0  0  0
 29 28  2  0  0  0  0
 30 29  1  0  0  0  0
 30 31  1  0  0  0  0
 31 37  1  0  0  0  0
 32 33  1  0  0  0  0
 32 31  2  0  0  0  0
 33 35  2  0  0  0  0
 34 33  1  0  0  0  0
 35 61  1  0  0  0  0
 35 36  1  0  0  0  0
 36 62  1  0  0  0  0
 37 63  1  0  0  0  0
 37 36  2  0  0  0  0
 38 18  2  0  0  0  0
 40  1  1  0  0  0  0
 41  1  1  0  0  0  0
 42  3  1  0  0  0  0
 43  3  1  0  0  0  0
 46  9  1  0  0  0  0
 47 11  1  0  0  0  0
 48 11  1  0  0  0  0
 50 14  1  0  0  0  0
 52 15  1  0  0  0  0
 53 15  1  0  0  0  0
 55 21  1  0  0  0  0
 57 23  1  0  0  0  0
 59 30  1  0  0  0  0
 60 32  1  0  0  0  0
M  END
