65
-1 1
C         4.891331   -2.764431    3.806996
O         3.947167   -1.984471    3.157912
C         3.102572   -1.289926    4.032865
C         2.172180   -0.375162    3.239407
S         0.865452    0.236661    4.487421
C         1.721345    1.651347    5.240480
C         0.912077    2.950546    5.224754
H         1.570365    3.726159    5.664022
N        -0.294505    2.871855    6.012754
C        -0.291991    2.799887    7.364714
C        -1.667436    2.777901    8.007127
O         0.727404    2.715134    8.029621
C         0.492848    3.496816    3.844699
N         1.373338    3.342736    2.842849
C         1.087952    3.853795    1.518933
O        -0.565436    4.103917    3.731109
C         2.874729    0.674630    2.473231
C         2.864146    0.857056    1.087588
N         1.934867    0.058458    0.271449
C         0.571743    0.133296    0.183182
C        -0.224432    0.720126    1.214540
C        -1.587892    0.781396    1.116582
C        -0.094069   -0.379926   -0.933330
C        -1.500281   -0.328166   -1.043813
C        -2.273870    0.259430   -0.010583
N        -3.634659    0.336566   -0.072803
C        -4.195817   -0.159545   -1.136009
N        -3.577964   -0.747049   -2.187839
C        -2.268779   -0.836230   -2.154944
N        -1.587156   -1.428645   -3.197928
C        -2.036487   -1.999588   -4.382739
C        -1.055316   -2.530067   -5.242671
C        -1.427908   -3.116288   -6.444090
Br        -0.074508   -3.821642   -7.578147
C        -2.760929   -3.200755   -6.838298
C        -3.722960   -2.672358   -5.979756
C        -3.385879   -2.077581   -4.767491
O         3.601909    1.599058    0.424207
H         5.502490   -3.269304    3.044802
H         4.428116   -3.539815    4.453373
H         5.564881   -2.158915    4.448564
H         3.700394   -0.675616    4.741284
H         2.510551   -2.002414    4.642488
H         1.558635   -1.001639    2.573443
H         2.666963    1.802887    4.700819
H         1.965999    1.430763    6.287445
H        -1.127686    3.162421    5.508479
H        -1.623640    3.329832    8.954682
H        -1.928522    1.733544    8.234988
H        -2.452771    3.199071    7.364159
H         2.044227    2.562369    2.875909
H         1.849644    3.459066    0.833679
H         1.120648    4.954618    1.509964
H         0.088408    3.544478    1.174615
H         3.737397    1.153352    2.950120
H         2.385306   -0.083039   -0.626644
H         0.268926    1.122902    2.096973
H        -2.177973    1.242089    1.910591
H         0.522265   -0.825724   -1.719500
H        -5.288842   -0.106179   -1.206441
H        -0.585656   -1.455674   -3.075786
H         0.000164   -2.481121   -4.965692
H        -3.036720   -3.664603   -7.785588
H        -4.776466   -2.725131   -6.264369
H        -4.140431   -1.667702   -4.101282
