-1 1
 OpenBabel05192410563D

 70 73  0  0  1  0  0  0  0  0999 V2000
    0.3793   -0.3310    3.1312 C   0  0  0  0  0  0  0  0  0  0  0  0
   -0.2830   -1.5421    2.7292 N   0  0  0  0  0  0  0  0  0  0  0  0
   -1.5945   -1.3373    2.1407 C   0  0  0  0  0  0  0  0  0  0  0  0
   -1.5701   -0.7524    0.7192 C   0  0  0  0  0  0  0  0  0  0  0  0
   -0.6012   -1.5051   -0.1992 C   0  0  2  0  0  0  0  0  0  0  0  0
   -1.5838   -3.0945   -0.7838 S   0  0  0  0  0  0  0  0  0  0  0  0
   -0.2329   -4.2783   -1.0130 C   0  0  0  0  0  0  0  0  0  0  0  0
    0.6491   -4.3571   -2.2962 C   0  0  2  0  0  0  0  0  0  0  0  0
    0.2829   -5.1848   -2.9263 H   0  0  0  0  0  0  0  0  0  0  0  0
    1.9721   -4.7393   -1.8770 N   0  0  0  0  0  0  0  0  0  0  0  0
    2.6793   -5.7124   -2.5001 C   0  0  0  0  0  0  0  0  0  0  0  0
    4.1215   -5.8241   -2.0420 C   0  0  0  0  0  0  0  0  0  0  0  0
    2.2166   -6.4450   -3.3586 O   0  0  0  0  0  0  0  0  0  0  0  0
    0.7486   -3.1828   -3.3037 C   0  0  0  0  0  0  0  0  0  0  0  0
   -0.4067   -2.5437   -3.5899 N   0  0  0  0  0  0  0  0  0  0  0  0
   -0.4635   -1.4364   -4.5108 C   0  0  0  0  0  0  0  0  0  0  0  0
    1.8029   -2.9470   -3.8747 O   0  0  0  0  0  0  0  0  0  0  0  0
    0.6705   -1.8443    0.4631 C   0  0  1  0  0  3  0  0  0  0  0  0
    0.5377   -2.3939    1.8608 C   0  0  0  0  0  0  0  0  0  0  0  0
    1.8843   -1.9946   -0.2137 C   0  0  0  0  0  0  0  0  0  0  0  0
    2.0705   -1.3149   -1.4665 N   0  0  0  0  0  0  0  0  0  0  0  0
    1.8407   -0.0191   -1.8347 C   0  0  0  0  0  0  0  0  0  0  0  0
    2.2322    0.3752   -3.1546 C   0  0  0  0  0  0  0  0  0  0  0  0
    2.0419    1.6531   -3.6060 C   0  0  0  0  0  0  0  0  0  0  0  0
    1.2478    0.9390   -1.0163 C   0  0  0  0  0  0  0  0  0  0  0  0
    1.0266    2.2519   -1.4830 C   0  0  0  0  0  0  0  0  0  0  0  0
    1.4285    2.6360   -2.7852 C   0  0  0  0  0  0  0  0  0  0  0  0
    1.2352    3.8986   -3.2674 N   0  0  0  0  0  0  0  0  0  0  0  0
    0.6461    4.7371   -2.4649 C   0  0  0  0  0  0  0  0  0  0  0  0
    0.1902    4.4943   -1.2141 N   0  0  0  0  0  0  0  0  0  0  0  0
    0.3614    3.2864   -0.7254 C   0  0  0  0  0  0  0  0  0  0  0  0
   -0.1096    2.9659    0.5255 N   0  0  0  0  0  0  0  0  0  0  0  0
   -0.8923    3.6884    1.4229 C   0  0  0  0  0  0  0  0  0  0  0  0
   -1.3642    2.9863    2.5472 C   0  0  0  0  0  0  0  0  0  0  0  0
   -2.1456    3.6353    3.4911 C   0  0  0  0  0  0  0  0  0  0  0  0
   -2.7623    2.6508    4.9952 Br  0  0  0  0  0  0  0  0  0  0  0  0
   -2.4902    4.9791    3.3608 C   0  0  0  0  0  0  0  0  0  0  0  0
   -2.0202    5.6621    2.2412 C   0  0  0  0  0  0  0  0  0  0  0  0
   -1.2302    5.0429    1.2756 C   0  0  0  0  0  0  0  0  0  0  0  0
    2.8384   -2.7377    0.1184 O   0  0  0  0  0  0  0  0  0  0  0  0
   -0.2521    0.2278    3.8426 H   0  0  0  0  0  0  0  0  0  0  0  0
    0.6489    0.3548    2.2930 H   0  0  0  0  0  0  0  0  0  0  0  0
    1.3238   -0.5730    3.6424 H   0  0  0  0  0  0  0  0  0  0  0  0
   -2.1934   -0.6888    2.8036 H   0  0  0  0  0  0  0  0  0  0  0  0
   -2.1035   -2.3156    2.1036 H   0  0  0  0  0  0  0  0  0  0  0  0
   -1.2417    0.3015    0.7466 H   0  0  0  0  0  0  0  0  0  0  0  0
   -2.5925   -0.7341    0.3051 H   0  0  0  0  0  0  0  0  0  0  0  0
   -0.4637   -0.9553   -1.1372 H   0  0  0  0  0  0  0  0  0  0  0  0
   -0.6806   -5.2683   -0.8510 H   0  0  0  0  0  0  0  0  0  0  0  0
    0.4469   -4.0972   -0.1711 H   0  0  0  0  0  0  0  0  0  0  0  0
    2.4326   -4.1458   -1.1759 H   0  0  0  0  0  0  0  0  0  0  0  0
    4.7634   -5.4354   -2.8466 H   0  0  0  0  0  0  0  0  0  0  0  0
    4.3705   -6.8841   -1.8976 H   0  0  0  0  0  0  0  0  0  0  0  0
    4.3253   -5.2558   -1.1241 H   0  0  0  0  0  0  0  0  0  0  0  0
   -1.1766   -2.6708   -2.9302 H   0  0  0  0  0  0  0  0  0  0  0  0
    0.3879   -1.5079   -5.1993 H   0  0  0  0  0  0  0  0  0  0  0  0
   -0.4030   -0.4633   -3.9946 H   0  0  0  0  0  0  0  0  0  0  0  0
   -1.3988   -1.4702   -5.0896 H   0  0  0  0  0  0  0  0  0  0  0  0
    1.5357   -2.5235    2.3041 H   0  0  0  0  0  0  0  0  0  0  0  0
    0.0583   -3.3961    1.8736 H   0  0  0  0  0  0  0  0  0  0  0  0
    2.6681   -1.8397   -2.0964 H   0  0  0  0  0  0  0  0  0  0  0  0
    2.6674   -0.3875   -3.8055 H   0  0  0  0  0  0  0  0  0  0  0  0
    2.3423    1.9493   -4.6126 H   0  0  0  0  0  0  0  0  0  0  0  0
    0.9751    0.6198   -0.0100 H   0  0  0  0  0  0  0  0  0  0  0  0
    0.4869    5.7595   -2.8287 H   0  0  0  0  0  0  0  0  0  0  0  0
    0.0753    2.0130    0.8103 H   0  0  0  0  0  0  0  0  0  0  0  0
   -1.1141    1.9323    2.6746 H   0  0  0  0  0  0  0  0  0  0  0  0
   -3.1069    5.4740    4.1114 H   0  0  0  0  0  0  0  0  0  0  0  0
   -2.2766    6.7166    2.1146 H   0  0  0  0  0  0  0  0  0  0  0  0
   -0.8701    5.5797    0.4019 H   0  0  0  0  0  0  0  0  0  0  0  0
  1 43  1  0  0  0  0
  1 41  1  0  0  0  0
  2  1  1  0  0  0  0
  3  2  1  0  0  0  0
  3 44  1  0  0  0  0
  4 46  1  0  0  0  0
  4  3  1  0  0  0  0
  5 48  1  6  0  0  0
  5 18  1  0  0  0  0
  5  4  1  0  0  0  0
  6  5  1  0  0  0  0
  7 49  1  0  0  0  0
  7  6  1  0  0  0  0
  7 50  1  0  0  0  0
  8  9  1  6  0  0  0
  8 10  1  0  0  0  0
  8  7  1  0  0  0  0
 10 51  1  0  0  0  0
 11 12  1  0  0  0  0
 11 10  1  0  0  0  0
 12 53  1  0  0  0  0
 12 54  1  0  0  0  0
 13 11  2  0  0  0  0
 14  8  1  0  0  0  0
 15 14  1  0  0  0  0
 15 55  1  0  0  0  0
 16 57  1  0  0  0  0
 16 15  1  0  0  0  0
 17 14  2  0  0  0  0
 18 20  1  6  0  0  0
 18 19  1  0  0  0  0
 19 60  1  0  0  0  0
 19 59  1  0  0  0  0
 19  2  1  0  0  0  0
 20 40  2  0  0  0  0
 21 20  1  0  0  0  0
 22 21  1  0  0  0  0
 22 25  1  0  0  0  0
 23 22  2  0  0  0  0
 24 23  1  0  0  0  0
 24 27  2  0  0  0  0
 25 64  1  0  0  0  0
 26 25  2  0  0  0  0
 26 31  1  0  0  0  0
 27 26  1  0  0  0  0
 28 27  1  0  0  0  0
 28 29  2  0  0  0  0
 29 30  1  0  0  0  0
 30 31  2  0  0  0  0
 31 32  1  0  0  0  0
 32 66  1  0  0  0  0
 32 33  1  0  0  0  0
 33 34  1  0  0  0  0
 34 67  1  0  0  0  0
 34 35  2  0  0  0  0
 35 36  1  0  0  0  0
 37 35  1  0  0  0  0
 37 68  1  0  0  0  0
 38 37  2  0  0  0  0
 39 33  2  0  0  0  0
 39 38  1  0  0  0  0
 42  1  1  0  0  0  0
 45  3  1  0  0  0  0
 47  4  1  0  0  0  0
 52 12  1  0  0  0  0
 56 16  1  0  0  0  0
 58 16  1  0  0  0  0
 61 21  1  0  0  0  0
 62 23  1  0  0  0  0
 63 24  1  0  0  0  0
 65 29  1  0  0  0  0
 69 38  1  0  0  0  0
 70 39  1  0  0  0  0
M  END
