76
-1 1
C        -0.083036    1.720156   -1.512324
O        -0.310728    1.181047   -2.781530
C        -1.341701    0.232339   -2.853301
C        -2.712458    0.828958   -2.549432
N        -3.826093   -0.046597   -2.827436
C        -3.751293   -1.451186   -2.463343
C        -3.354721   -1.901384   -1.045933
S        -4.248947   -0.680337    0.223934
C        -3.540654   -1.363111    1.739097
C        -2.067199   -1.011771    2.022426
H        -1.479477   -1.238590    1.121194
N        -1.584790   -1.851340    3.096920
C        -0.280432   -1.894426    3.452802
C         0.007863   -2.511112    4.802301
O         0.621369   -1.463536    2.745990
C        -1.803774    0.467103    2.385070
N        -2.070845    1.345263    1.397325
C        -1.864855    2.760740    1.578456
O        -1.344418    0.797059    3.467625
C        -3.610996   -3.311787   -0.782081
C        -2.813868   -4.180960   -0.005025
N        -1.429239   -3.795076    0.169504
C        -0.563766   -3.223952   -0.739464
C        -0.651804   -3.493569   -2.139994
C         0.222052   -2.914095   -3.025022
C         0.426075   -2.355713   -0.303207
C         1.279696   -1.697913   -1.211482
C         1.207163   -1.985004   -2.592620
N         2.007455   -1.360345   -3.504457
C         2.792383   -0.434105   -3.033496
N         2.885640   -0.000788   -1.754967
C         2.137470   -0.595795   -0.851139
N         2.091407   -0.130299    0.441631
C         2.440877    1.127504    0.933852
C         3.350281    1.990563    0.301568
C         3.598832    3.235530    0.872782
Br         4.827217    4.401725   -0.000952
C         2.990856    3.661568    2.048606
C         2.096078    2.787330    2.668975
C         1.818369    1.540258    2.127596
O        -3.160177   -5.216635    0.571066
C        -5.099236    0.614444   -2.694519
H         0.940417    2.120669   -1.493200
H        -0.170700    0.958450   -0.714309
H        -0.783352    2.541615   -1.267914
H        -1.124137   -0.606309   -2.168491
H        -1.327533   -0.168833   -3.877453
H        -2.818057    1.735304   -3.173560
H        -2.722848    1.183079   -1.494363
H        -3.021984   -1.958142   -3.120666
H        -4.726940   -1.901942   -2.704022
H        -2.310058   -1.625684   -0.867164
H        -3.621058   -2.460004    1.652448
H        -4.175773   -1.034729    2.577449
H        -2.264162   -2.123138    3.795825
H        -0.015789   -1.705406    5.551759
H         1.014430   -2.945079    4.788561
H        -0.727383   -3.277865    5.084131
H        -2.648829    1.004999    0.624996
H        -2.412816    3.144903    2.454139
H        -2.213432    3.286688    0.680311
H        -0.796226    2.982955    1.724299
H        -4.623628   -3.679671   -0.978608
H        -1.049797   -4.055887    1.070986
H        -1.436445   -4.168666   -2.484961
H         0.168769   -3.128383   -4.094173
H         0.491617   -2.160434    0.765564
H         3.451391    0.077485   -3.745156
H         1.504346   -0.654599    1.087266
H         3.823111    1.677601   -0.626143
H         3.206157    4.645294    2.466892
H         1.590447    3.087940    3.589323
H         1.103291    0.879042    2.622312
H        -5.157662    1.464578   -3.398230
H        -5.302729    1.014492   -1.677789
H        -5.913133   -0.082037   -2.944765
