-1 1
 OpenBabel05232413483D

 76 77  0  0  1  0  0  0  0  0999 V2000
   -0.6137    1.4828   -1.3898 C   0  0  0  0  0  0  0  0  0  0  0  0
   -0.5727    1.1781   -2.7579 O   0  0  0  0  0  0  0  0  0  0  0  0
   -1.4621    0.1756   -3.1720 C   0  0  0  0  0  0  0  0  0  0  0  0
   -2.9240    0.5356   -2.9185 C   0  0  0  0  0  0  0  0  0  0  0  0
   -3.8898   -0.3809   -3.5210 N   0  0  0  0  0  0  0  0  0  0  0  0
   -3.5969   -1.7905   -3.3680 C   0  0  0  0  0  0  0  0  0  0  0  0
   -3.3238   -2.3112   -1.9795 C   0  0  0  0  0  0  0  0  0  0  0  0
   -4.0522    0.2079    0.6179 S   0  0  0  0  0  1  0  0  0  0  0  0
   -3.4397   -0.7453    2.0470 C   0  0  0  0  0  0  0  0  0  0  0  0
   -1.9239   -0.6263    2.2856 C   0  0  2  0  0  0  0  0  0  0  0  0
   -1.4332   -0.8040    1.3193 H   0  0  0  0  0  0  0  0  0  0  0  0
   -1.4850   -1.6373    3.2319 N   0  0  0  0  0  0  0  0  0  0  0  0
   -0.1777   -1.8684    3.4815 C   0  0  0  0  0  0  0  0  0  0  0  0
    0.1327   -2.5453    4.7960 C   0  0  0  0  0  0  0  0  0  0  0  0
    0.7202   -1.5605    2.7038 O   0  0  0  0  0  0  0  0  0  0  0  0
   -1.4616    0.7562    2.7955 C   0  0  0  0  0  0  0  0  0  0  0  0
   -1.7309    1.7690    1.9570 N   0  0  0  0  0  0  0  0  0  0  0  0
   -1.4339    3.1328    2.3112 C   0  0  0  0  0  0  0  0  0  0  0  0
   -0.8676    0.8818    3.8621 O   0  0  0  0  0  0  0  0  0  0  0  0
   -3.5238   -3.5669   -1.5694 C   0  0  0  0  0  0  0  0  0  0  0  0
   -3.0144   -4.0482   -0.2536 C   0  0  0  0  0  0  0  0  0  0  0  0
   -1.6967   -3.7294    0.0467 N   0  0  0  0  0  0  0  0  0  0  0  0
   -0.6916   -3.2142   -0.7959 C   0  0  0  0  0  0  0  0  0  0  0  0
   -0.5159   -3.6997   -2.1190 C   0  0  0  0  0  0  0  0  0  0  0  0
    0.4141   -3.1332   -2.9548 C   0  0  0  0  0  0  0  0  0  0  0  0
    0.1542   -2.2298   -0.3311 C   0  0  0  0  0  0  0  0  0  0  0  0
    1.1185   -1.6377   -1.1745 C   0  0  0  0  0  0  0  0  0  0  0  0
    1.2338   -2.0613   -2.5176 C   0  0  0  0  0  0  0  0  0  0  0  0
    2.0776   -1.4574   -3.4034 N   0  0  0  0  0  0  0  0  0  0  0  0
    2.7417   -0.4362   -2.9404 C   0  0  0  0  0  0  0  0  0  0  0  0
    2.7253    0.0651   -1.6886 N   0  0  0  0  0  0  0  0  0  0  0  0
    1.9463   -0.5122   -0.7951 C   0  0  0  0  0  0  0  0  0  0  0  0
    1.8814   -0.0397    0.4820 N   0  0  0  0  0  0  0  0  0  0  0  0
    2.3640    1.1590    1.0192 C   0  0  0  0  0  0  0  0  0  0  0  0
    3.1880    2.0622    0.3288 C   0  0  0  0  0  0  0  0  0  0  0  0
    3.5788    3.2354    0.9689 C   0  0  0  0  0  0  0  0  0  0  0  0
    4.6951    4.4529    0.0179 Br  0  0  0  0  0  0  0  0  0  0  0  0
    3.1920    3.5529    2.2657 C   0  0  0  0  0  0  0  0  0  0  0  0
    2.3763    2.6414    2.9383 C   0  0  0  0  0  0  0  0  0  0  0  0
    1.9658    1.4626    2.3335 C   0  0  0  0  0  0  0  0  0  0  0  0
   -3.6865   -4.6754    0.5397 O   0  0  0  0  0  0  0  0  0  0  0  0
   -5.2381   -0.0454   -3.1042 C   0  0  0  0  0  0  0  0  0  0  0  0
    0.3221    2.0017   -1.1358 H   0  0  0  0  0  0  0  0  0  0  0  0
   -0.6955    0.5752   -0.7636 H   0  0  0  0  0  0  0  0  0  0  0  0
   -1.4651    2.1345   -1.1233 H   0  0  0  0  0  0  0  0  0  0  0  0
   -1.2058   -0.7734   -2.6621 H   0  0  0  0  0  0  0  0  0  0  0  0
   -1.2852    0.0276   -4.2491 H   0  0  0  0  0  0  0  0  0  0  0  0
   -3.0971    1.5394   -3.3453 H   0  0  0  0  0  0  0  0  0  0  0  0
   -3.0859    0.6141   -1.8242 H   0  0  0  0  0  0  0  0  0  0  0  0
   -2.6850   -2.0250   -3.9504 H   0  0  0  0  0  0  0  0  0  0  0  0
   -4.4049   -2.3723   -3.8429 H   0  0  0  0  0  0  0  0  0  0  0  0
   -2.8387   -1.6109   -1.2885 H   0  0  0  0  0  0  0  0  0  0  0  0
   -3.6483   -1.8171    1.8936 H   0  0  0  0  0  0  0  0  0  0  0  0
   -3.9634   -0.4451    2.9742 H   0  0  0  0  0  0  0  0  0  0  0  0
   -2.1243   -1.8043    3.9997 H   0  0  0  0  0  0  0  0  0  0  0  0
    0.2434   -1.7543    5.5533 H   0  0  0  0  0  0  0  0  0  0  0  0
    1.0817   -3.0871    4.7098 H   0  0  0  0  0  0  0  0  0  0  0  0
   -0.6655   -3.2292    5.1174 H   0  0  0  0  0  0  0  0  0  0  0  0
   -2.4593    1.5584    1.2427 H   0  0  0  0  0  0  0  0  0  0  0  0
   -2.0301    3.4817    3.1720 H   0  0  0  0  0  0  0  0  0  0  0  0
   -1.6503    3.7778    1.4492 H   0  0  0  0  0  0  0  0  0  0  0  0
   -0.3707    3.2395    2.5708 H   0  0  0  0  0  0  0  0  0  0  0  0
   -4.0882   -4.2942   -2.1631 H   0  0  0  0  0  0  0  0  0  0  0  0
   -1.4759   -3.8228    1.0331 H   0  0  0  0  0  0  0  0  0  0  0  0
   -1.1449   -4.5171   -2.4732 H   0  0  0  0  0  0  0  0  0  0  0  0
    0.5403   -3.4778   -3.9823 H   0  0  0  0  0  0  0  0  0  0  0  0
    0.0514   -1.9001    0.7003 H   0  0  0  0  0  0  0  0  0  0  0  0
    3.4060    0.0864   -3.6391 H   0  0  0  0  0  0  0  0  0  0  0  0
    1.3594   -0.5980    1.1603 H   0  0  0  0  0  0  0  0  0  0  0  0
    3.5007    1.8314   -0.6859 H   0  0  0  0  0  0  0  0  0  0  0  0
    3.5133    4.4829    2.7356 H   0  0  0  0  0  0  0  0  0  0  0  0
    2.0367    2.8569    3.9536 H   0  0  0  0  0  0  0  0  0  0  0  0
    1.3110    0.7797    2.8770 H   0  0  0  0  0  0  0  0  0  0  0  0
   -5.4496    1.0049   -3.3609 H   0  0  0  0  0  0  0  0  0  0  0  0
   -5.4027   -0.1675   -2.0135 H   0  0  0  0  0  0  0  0  0  0  0  0
   -5.9646   -0.6743   -3.6439 H   0  0  0  0  0  0  0  0  0  0  0  0
  1 43  1  0  0  0  0
  1 45  1  0  0  0  0
  1 44  1  0  0  0  0
  2  1  1  0  0  0  0
  3  4  1  0  0  0  0
  3  2  1  0  0  0  0
  3 46  1  0  0  0  0
  4 49  1  0  0  0  0
  5  6  1  0  0  0  0
  5 42  1  0  0  0  0
  5  4  1  0  0  0  0
  6  7  1  0  0  0  0
  7 20  2  0  0  0  0
  7 52  1  0  0  0  0
  8  9  1  0  0  0  0
  9 10  1  0  0  0  0
  9 54  1  0  0  0  0
 10 11  1  6  0  0  0
 10 16  1  0  0  0  0
 10 12  1  0  0  0  0
 12 13  1  0  0  0  0
 12 55  1  0  0  0  0
 13 14  1  0  0  0  0
 14 58  1  0  0  0  0
 14 56  1  0  0  0  0
 15 13  2  0  0  0  0
 16 19  2  0  0  0  0
 17 18  1  0  0  0  0
 17 16  1  0  0  0  0
 18 62  1  0  0  0  0
 18 60  1  0  0  0  0
 20 21  1  0  0  0  0
 21 22  1  0  0  0  0
 21 41  2  0  0  0  0
 22 64  1  0  0  0  0
 23 26  1  0  0  0  0
 23 22  1  0  0  0  0
 24 23  2  0  0  0  0
 25 28  2  0  0  0  0
 25 24  1  0  0  0  0
 26 67  1  0  0  0  0
 27 32  1  0  0  0  0
 27 26  2  0  0  0  0
 28 27  1  0  0  0  0
 29 30  2  0  0  0  0
 29 28  1  0  0  0  0
 30 31  1  0  0  0  0
 31 32  2  0  0  0  0
 32 33  1  0  0  0  0
 33 34  1  0  0  0  0
 33 69  1  0  0  0  0
 34 40  1  0  0  0  0
 35 36  1  0  0  0  0
 35 34  2  0  0  0  0
 36 38  2  0  0  0  0
 37 36  1  0  0  0  0
 38 71  1  0  0  0  0
 38 39  1  0  0  0  0
 39 72  1  0  0  0  0
 40 73  1  0  0  0  0
 40 39  2  0  0  0  0
 42 75  1  0  0  0  0
 47  3  1  0  0  0  0
 48  4  1  0  0  0  0
 50  6  1  0  0  0  0
 51  6  1  0  0  0  0
 53  9  1  0  0  0  0
 57 14  1  0  0  0  0
 59 17  1  0  0  0  0
 61 18  1  0  0  0  0
 63 20  1  0  0  0  0
 65 24  1  0  0  0  0
 66 25  1  0  0  0  0
 68 30  1  0  0  0  0
 70 35  1  0  0  0  0
 74 42  1  0  0  0  0
 76 42  1  0  0  0  0
M  END
