76
-1 1
C         4.187365    2.126439   -4.649631
O         3.991568    1.603269   -5.931691
C         2.956429    0.661730   -6.042823
C         1.587884    1.246262   -5.706818
N         0.471011    0.379940   -6.008803
C         0.549272   -1.028613   -5.677484
C         1.002562   -1.529532   -4.309428
S         0.020907   -0.068940   -2.855328
C         0.749928   -0.840982   -1.392398
C         2.230464   -0.512199   -1.111383
H         2.807210   -0.736006   -2.020055
N         2.709926   -1.368128   -0.046335
C         4.011584   -1.434313    0.307760
C         4.289917   -2.040635    1.664322
O         4.925406   -1.033056   -0.403793
C         2.523635    0.958333   -0.735647
N         2.235461    1.851129   -1.702485
C         2.440698    3.262426   -1.495775
O         3.027386    1.264475    0.335974
C         0.730616   -2.867122   -3.984466
C         1.504759   -3.696824   -3.102178
N         2.883593   -3.380312   -2.956946
C         3.757065   -2.799545   -3.873055
C         3.706835   -3.106913   -5.263517
C         4.582177   -2.519894   -6.143723
C         4.711172   -1.903127   -3.429961
C         5.578203   -1.250766   -4.329955
C         5.536336   -1.562518   -5.706646
N         6.343249   -0.939329   -6.614037
C         7.106691    0.003747   -6.140633
N         7.181410    0.449351   -4.866044
C         6.426725   -0.142063   -3.963997
N         6.371445    0.326265   -2.676688
C         6.740306    1.578194   -2.178698
C         7.664684    2.429217   -2.804530
C         7.933005    3.666390   -2.224938
Br         9.183532    4.816623   -3.088182
C         7.328845    4.094857   -1.048186
C         6.417748    3.232284   -0.435460
C         6.121344    1.992960   -0.984584
O         1.081208   -4.645532   -2.446884
C        -0.802222    1.036030   -5.842607
H         5.210513    2.525548   -4.600897
H         4.076644    1.356869   -3.862272
H         3.481954    2.945109   -4.412709
H         3.175148   -0.206759   -5.396198
H         2.968631    0.306010   -7.084004
H         1.476206    2.172995   -6.299197
H         1.583186    1.554196   -4.639931
H         1.262425   -1.512553   -6.373751
H        -0.429989   -1.478256   -5.904408
H         1.998269   -1.167993   -4.046983
H         0.674860   -1.934321   -1.525107
H         0.143301   -0.573839   -0.510712
H         2.027965   -1.624626    0.656088
H         4.282043   -1.224270    2.402482
H         5.287857   -2.494357    1.656150
H         3.539460   -2.788360    1.957203
H         1.583237    1.524086   -2.428224
H         1.858921    3.646293   -0.640971
H         2.136091    3.800999   -2.402650
H         3.503488    3.473219   -1.301834
H        -0.248706   -3.281793   -4.242744
H         3.277193   -3.705732   -2.082715
H         2.951031   -3.811854   -5.612964
H         4.556101   -2.753090   -7.209670
H         4.744086   -1.684039   -2.364288
H         7.767265    0.517669   -6.849219
H         5.785742   -0.196526   -2.027193
H         8.134940    2.115021   -3.732948
H         7.558953    5.072537   -0.623578
H         5.913503    3.535616    0.484676
H         5.392510    1.342747   -0.495296
H        -0.866004    1.904574   -6.523027
H        -0.996598    1.404403   -4.813967
H        -1.617378    0.346051   -6.106835
