-1 1
 OpenBabel05232414493D

 79 80  0  0  1  0  0  0  0  0999 V2000
    9.7206   -1.9521   -7.1456 C   0  0  0  0  0  0  0  0  0  0  0  0
   10.2178   -3.0315   -6.1840 C   0  0  0  0  0  0  0  0  0  0  0  0
    9.1668   -3.4532   -5.2691 N   0  0  0  0  0  0  0  0  0  0  0  0
    8.0258   -4.1777   -5.8117 C   0  0  0  0  0  0  0  0  0  0  0  0
    8.0905   -5.7032   -5.6278 C   0  0  0  0  0  0  0  0  0  0  0  0
    6.7098   -3.6101   -5.2763 C   0  0  0  0  0  0  0  0  0  0  0  0
    9.6014   -3.8278   -3.9421 C   0  0  0  0  0  0  0  0  0  0  0  0
   10.2378   -2.7130   -3.2013 C   0  0  0  0  0  3  0  0  0  0  0  0
    8.1863   -1.4612   -2.5354 S   0  0  0  0  0  1  0  0  0  0  0  0
    8.3943   -0.1725   -3.8228 C   0  0  0  0  0  0  0  0  0  0  0  0
    8.1929    1.2554   -3.3012 C   0  0  2  0  0  0  0  0  0  0  0  0
    8.4352    1.9838   -4.0924 H   0  0  0  0  0  0  0  0  0  0  0  0
    9.1165    1.5144   -2.2243 N   0  0  0  0  0  0  0  0  0  0  0  0
    9.9589    2.5791   -2.1966 C   0  0  0  0  0  0  0  0  0  0  0  0
   10.9585    2.5547   -1.0553 C   0  0  0  0  0  0  0  0  0  0  0  0
    9.9512    3.4693   -3.0256 O   0  0  0  0  0  0  0  0  0  0  0  0
    6.7634    1.6298   -2.8598 C   0  0  0  0  0  0  0  0  0  0  0  0
    5.8424    0.6316   -2.8593 N   0  0  0  0  0  0  0  0  0  0  0  0
    4.5113    0.8751   -2.3677 C   0  0  0  0  0  0  0  0  0  0  0  0
    6.4829    2.7738   -2.5362 O   0  0  0  0  0  0  0  0  0  0  0  0
   11.2810   -2.1298   -2.8443 C   0  0  0  0  0  3  0  0  0  0  0  0
   11.8399   -0.9634   -2.2306 C   0  0  0  0  0  0  0  0  0  0  0  0
   11.8336   -0.9015   -0.8333 N   0  0  0  0  0  0  0  0  0  0  0  0
   11.2411   -1.7414    0.1107 C   0  0  0  0  0  0  0  0  0  0  0  0
   11.3392   -3.1585    0.0175 C   0  0  0  0  0  0  0  0  0  0  0  0
   10.8371   -3.9613    1.0089 C   0  0  0  0  0  0  0  0  0  0  0  0
   10.6060   -1.1841    1.2037 C   0  0  0  0  0  0  0  0  0  0  0  0
   10.0542   -1.9995    2.2178 C   0  0  0  0  0  0  0  0  0  0  0  0
   10.2029   -3.4077    2.1514 C   0  0  0  0  0  0  0  0  0  0  0  0
    9.7989   -4.2274    3.1638 N   0  0  0  0  0  0  0  0  0  0  0  0
    9.2709   -3.6396    4.2023 C   0  0  0  0  0  0  0  0  0  0  0  0
    8.9967   -2.3267    4.3502 N   0  0  0  0  0  0  0  0  0  0  0  0
    9.3337   -1.5172    3.3655 C   0  0  0  0  0  0  0  0  0  0  0  0
    8.9994   -0.1906    3.5261 N   0  0  0  0  0  0  0  0  0  0  0  0
    8.5044    0.6646    2.5094 C   0  0  0  0  0  0  0  0  0  0  0  0
    8.7567    2.0355    2.6063 C   0  0  0  0  0  0  0  0  0  0  0  0
    8.2671    2.8909    1.6195 C   0  0  0  0  0  0  0  0  0  0  0  0
    8.6440    4.7480    1.7563 Br  0  0  0  0  0  0  0  0  0  0  0  0
    7.5490    2.4174    0.5268 C   0  0  0  0  0  0  0  0  0  0  0  0
    7.3108    1.0444    0.4459 C   0  0  0  0  0  0  0  0  0  0  0  0
    7.7677    0.1726    1.4257 C   0  0  0  0  0  0  0  0  0  0  0  0
   12.3017   -0.0159   -2.8482 O   0  0  0  0  0  0  0  0  0  0  0  0
   10.9078   -4.1823   -6.9324 C   0  0  0  0  0  0  0  0  0  0  0  0
    9.2773   -1.1224   -6.5781 H   0  0  0  0  0  0  0  0  0  0  0  0
    8.9592   -2.3385   -7.8433 H   0  0  0  0  0  0  0  0  0  0  0  0
   10.5521   -1.5589   -7.7509 H   0  0  0  0  0  0  0  0  0  0  0  0
   10.9792   -2.5531   -5.5483 H   0  0  0  0  0  0  0  0  0  0  0  0
    8.0370   -3.9944   -6.8984 H   0  0  0  0  0  0  0  0  0  0  0  0
    7.9918   -5.9855   -4.5679 H   0  0  0  0  0  0  0  0  0  0  0  0
    9.0409   -6.1130   -5.9998 H   0  0  0  0  0  0  0  0  0  0  0  0
    7.2693   -6.1931   -6.1744 H   0  0  0  0  0  0  0  0  0  0  0  0
    6.6666   -3.6750   -4.1787 H   0  0  0  0  0  0  0  0  0  0  0  0
    5.8440   -4.1472   -5.6978 H   0  0  0  0  0  0  0  0  0  0  0  0
    6.6296   -2.5439   -5.5299 H   0  0  0  0  0  0  0  0  0  0  0  0
   10.3451   -4.6583   -3.9505 H   0  0  0  0  0  0  0  0  0  0  0  0
    8.7347   -4.1772   -3.3674 H   0  0  0  0  0  0  0  0  0  0  0  0
    7.7133   -0.3586   -4.6691 H   0  0  0  0  0  0  0  0  0  0  0  0
    9.4227   -0.2334   -4.2087 H   0  0  0  0  0  0  0  0  0  0  0  0
    9.2444    0.7341   -1.5836 H   0  0  0  0  0  0  0  0  0  0  0  0
   11.1972    3.5859   -0.7677 H   0  0  0  0  0  0  0  0  0  0  0  0
   11.8705    2.0664   -1.4349 H   0  0  0  0  0  0  0  0  0  0  0  0
   10.5796    2.0081   -0.1778 H   0  0  0  0  0  0  0  0  0  0  0  0
    6.2063   -0.3276   -2.8426 H   0  0  0  0  0  0  0  0  0  0  0  0
    4.1263    1.8151   -2.7865 H   0  0  0  0  0  0  0  0  0  0  0  0
    4.4787    0.9712   -1.2665 H   0  0  0  0  0  0  0  0  0  0  0  0
    3.8523    0.0483   -2.6664 H   0  0  0  0  0  0  0  0  0  0  0  0
   12.0647    0.0323   -0.5137 H   0  0  0  0  0  0  0  0  0  0  0  0
   11.8444   -3.5944   -0.8440 H   0  0  0  0  0  0  0  0  0  0  0  0
   10.9381   -5.0468    0.9637 H   0  0  0  0  0  0  0  0  0  0  0  0
   10.5283   -0.0992    1.2719 H   0  0  0  0  0  0  0  0  0  0  0  0
    8.9876   -4.2763    5.0496 H   0  0  0  0  0  0  0  0  0  0  0  0
    8.6316   -0.0148    4.4560 H   0  0  0  0  0  0  0  0  0  0  0  0
    9.3507    2.4199    3.4367 H   0  0  0  0  0  0  0  0  0  0  0  0
    7.2037    3.0744   -0.2748 H   0  0  0  0  0  0  0  0  0  0  0  0
    6.7790    0.6381   -0.4156 H   0  0  0  0  0  0  0  0  0  0  0  0
    7.5776   -0.8972    1.3278 H   0  0  0  0  0  0  0  0  0  0  0  0
   11.2798   -4.9443   -6.2296 H   0  0  0  0  0  0  0  0  0  0  0  0
   11.7692   -3.8122   -7.5103 H   0  0  0  0  0  0  0  0  0  0  0  0
   10.2193   -4.6749   -7.6393 H   0  0  0  0  0  0  0  0  0  0  0  0
  1 44  1  0  0  0  0
  1  2  1  0  0  0  0
  2 47  1  0  0  0  0
  2  3  1  0  0  0  0
  3  7  1  0  0  0  0
  4  5  1  0  0  0  0
  4  6  1  0  0  0  0
  4  3  1  0  0  0  0
  5 49  1  0  0  0  0
  6 52  1  0  0  0  0
  7 56  1  0  0  0  0
  7  8  1  0  0  0  0
  8 21  2  0  0  0  0
 10 11  1  0  0  0  0
 10  9  1  0  0  0  0
 11 12  1  6  0  0  0
 11 17  1  0  0  0  0
 11 13  1  0  0  0  0
 13 14  1  0  0  0  0
 13 59  1  0  0  0  0
 14 15  1  0  0  0  0
 15 60  1  0  0  0  0
 15 62  1  0  0  0  0
 16 14  2  0  0  0  0
 17 18  1  0  0  0  0
 17 20  2  0  0  0  0
 18 63  1  0  0  0  0
 18 19  1  0  0  0  0
 19 65  1  0  0  0  0
 21 22  1  0  0  0  0
 22 23  1  0  0  0  0
 23 67  1  0  0  0  0
 23 24  1  0  0  0  0
 24 27  1  0  0  0  0
 25 24  2  0  0  0  0
 25 26  1  0  0  0  0
 26 29  2  0  0  0  0
 27 70  1  0  0  0  0
 27 28  2  0  0  0  0
 28 33  1  0  0  0  0
 29 28  1  0  0  0  0
 29 30  1  0  0  0  0
 30 31  2  0  0  0  0
 31 32  1  0  0  0  0
 31 71  1  0  0  0  0
 33 34  1  0  0  0  0
 33 32  2  0  0  0  0
 34 72  1  0  0  0  0
 35 36  1  0  0  0  0
 35 34  1  0  0  0  0
 36 73  1  0  0  0  0
 37 38  1  0  0  0  0
 37 36  2  0  0  0  0
 39 37  1  0  0  0  0
 40 39  2  0  0  0  0
 40 41  1  0  0  0  0
 41 35  2  0  0  0  0
 42 22  2  0  0  0  0
 43 77  1  0  0  0  0
 43  2  1  0  0  0  0
 45  1  1  0  0  0  0
 46  1  1  0  0  0  0
 48  4  1  0  0  0  0
 50  5  1  0  0  0  0
 51  5  1  0  0  0  0
 53  6  1  0  0  0  0
 54  6  1  0  0  0  0
 55  7  1  0  0  0  0
 57 10  1  0  0  0  0
 58 10  1  0  0  0  0
 61 15  1  0  0  0  0
 64 19  1  0  0  0  0
 66 19  1  0  0  0  0
 68 25  1  0  0  0  0
 69 26  1  0  0  0  0
 74 39  1  0  0  0  0
 75 40  1  0  0  0  0
 76 41  1  0  0  0  0
 78 43  1  0  0  0  0
 79 43  1  0  0  0  0
M  END
