-1 1
 OpenBabel05192410563D

 73 75  0  0  1  0  0  0  0  0999 V2000
    2.7309   -3.2075    0.4581 C   0  0  0  0  0  0  0  0  0  0  0  0
    1.3784   -2.9323    1.1184 C   0  0  0  0  0  0  0  0  0  0  0  0
    0.5017   -2.1816    0.2226 N   0  0  0  0  0  0  0  0  0  0  0  0
   -0.8447   -1.9602    0.7385 C   0  0  0  0  0  0  0  0  0  0  0  0
   -1.7900   -1.3336   -0.2676 C   0  0  0  0  0  0  0  0  0  0  0  0
   -1.7833   -2.4469   -1.7635 S   0  0  0  0  0  0  0  0  0  0  0  0
   -2.9846   -1.7168   -2.9165 C   0  0  0  0  0  0  0  0  0  0  0  0
   -2.3427   -1.0949   -4.1659 C   0  0  2  0  0  0  0  0  0  0  0  0
   -3.1354   -0.8631   -4.8912 H   0  0  0  0  0  0  0  0  0  0  0  0
   -1.4429   -2.0589   -4.7661 N   0  0  0  0  0  0  0  0  0  0  0  0
   -1.0374   -1.9889   -6.0612 C   0  0  0  0  0  0  0  0  0  0  0  0
    0.0471   -2.9830   -6.4416 C   0  0  0  0  0  0  0  0  0  0  0  0
   -1.4840   -1.1855   -6.8566 O   0  0  0  0  0  0  0  0  0  0  0  0
   -1.6697    0.2694   -3.9136 C   0  0  0  0  0  0  0  0  0  0  0  0
   -0.3982    0.1994   -3.4450 N   0  0  0  0  0  0  0  0  0  0  0  0
    0.4323    1.3553   -3.2237 C   0  0  0  0  0  0  0  0  0  0  0  0
   -2.2530    1.3102   -4.1557 O   0  0  0  0  0  0  0  0  0  0  0  0
   -2.5096   -0.2549   -0.0530 C   0  0  0  0  0  3  0  0  0  0  0  0
   -3.4979    0.5031   -0.7105 C   0  0  0  0  0  0  0  0  0  0  0  0
   -3.0899    1.7602   -1.2538 N   0  0  0  0  0  0  0  0  0  0  0  0
   -1.9802    2.5359   -1.0501 C   0  0  0  0  0  0  0  0  0  0  0  0
   -1.7904    3.6806   -1.8843 C   0  0  0  0  0  0  0  0  0  0  0  0
   -0.7130    4.5128   -1.7273 C   0  0  0  0  0  0  0  0  0  0  0  0
   -1.0318    2.2848   -0.0629 C   0  0  0  0  0  0  0  0  0  0  0  0
    0.0748    3.1384    0.1083 C   0  0  0  0  0  0  0  0  0  0  0  0
    0.2610    4.2668   -0.7258 C   0  0  0  0  0  0  0  0  0  0  0  0
    1.3385    5.0972   -0.5972 N   0  0  0  0  0  0  0  0  0  0  0  0
    2.1907    4.7921    0.3380 C   0  0  0  0  0  0  0  0  0  0  0  0
    2.1301    3.7510    1.2025 N   0  0  0  0  0  0  0  0  0  0  0  0
    1.1026    2.9376    1.1026 C   0  0  0  0  0  0  0  0  0  0  0  0
    0.9693    1.8617    1.9467 N   0  0  0  0  0  0  0  0  0  0  0  0
    1.8349    1.3270    2.8955 C   0  0  0  0  0  0  0  0  0  0  0  0
    1.4320    0.1241    3.5054 C   0  0  0  0  0  0  0  0  0  0  0  0
    2.2549   -0.4875    4.4394 C   0  0  0  0  0  0  0  0  0  0  0  0
    1.6921   -2.1269    5.2175 Br  0  0  0  0  0  0  0  0  0  0  0  0
    3.4820    0.0603    4.8076 C   0  0  0  0  0  0  0  0  0  0  0  0
    3.8647    1.2563    4.2042 C   0  0  0  0  0  0  0  0  0  0  0  0
    3.0659    1.8952    3.2593 C   0  0  0  0  0  0  0  0  0  0  0  0
   -4.6978    0.2360   -0.8322 O   0  0  0  0  0  0  0  0  0  0  0  0
    1.1004   -0.9549   -0.2606 C   0  0  0  0  0  0  0  0  0  0  0  0
    0.7560   -4.2555    1.5664 C   0  0  0  0  0  0  0  0  0  0  0  0
    3.2954   -2.2867    0.2579 H   0  0  0  0  0  0  0  0  0  0  0  0
    2.5849   -3.7402   -0.4956 H   0  0  0  0  0  0  0  0  0  0  0  0
    3.3513   -3.8323    1.1176 H   0  0  0  0  0  0  0  0  0  0  0  0
    1.5803   -2.3314    2.0372 H   0  0  0  0  0  0  0  0  0  0  0  0
   -0.8544   -1.3013    1.6357 H   0  0  0  0  0  0  0  0  0  0  0  0
   -1.2603   -2.9298    1.0487 H   0  0  0  0  0  0  0  0  0  0  0  0
   -3.6195   -0.9958   -2.3887 H   0  0  0  0  0  0  0  0  0  0  0  0
   -3.6397   -2.5367   -3.2451 H   0  0  0  0  0  0  0  0  0  0  0  0
   -0.9669   -2.6852   -4.1232 H   0  0  0  0  0  0  0  0  0  0  0  0
    0.0316   -3.8932   -5.8254 H   0  0  0  0  0  0  0  0  0  0  0  0
    1.0280   -2.4979   -6.3208 H   0  0  0  0  0  0  0  0  0  0  0  0
   -0.0726   -3.2472   -7.4995 H   0  0  0  0  0  0  0  0  0  0  0  0
   -0.0833   -0.7035   -3.1067 H   0  0  0  0  0  0  0  0  0  0  0  0
    0.5838    1.5588   -2.1521 H   0  0  0  0  0  0  0  0  0  0  0  0
   -0.0696    2.2249   -3.6644 H   0  0  0  0  0  0  0  0  0  0  0  0
    1.4155    1.2259   -3.7036 H   0  0  0  0  0  0  0  0  0  0  0  0
   -3.7622    2.0958   -1.9326 H   0  0  0  0  0  0  0  0  0  0  0  0
   -2.5112    3.8628   -2.6843 H   0  0  0  0  0  0  0  0  0  0  0  0
   -0.5665    5.3777   -2.3767 H   0  0  0  0  0  0  0  0  0  0  0  0
   -1.2050    1.3906    0.5416 H   0  0  0  0  0  0  0  0  0  0  0  0
    3.0655    5.4432    0.4560 H   0  0  0  0  0  0  0  0  0  0  0  0
    0.1359    1.3106    1.7832 H   0  0  0  0  0  0  0  0  0  0  0  0
    0.4807   -0.3352    3.2293 H   0  0  0  0  0  0  0  0  0  0  0  0
    4.1174   -0.4346    5.5424 H   0  0  0  0  0  0  0  0  0  0  0  0
    4.8215    1.7078    4.4769 H   0  0  0  0  0  0  0  0  0  0  0  0
    3.3709    2.8255    2.7870 H   0  0  0  0  0  0  0  0  0  0  0  0
    1.8914   -1.1519   -0.9997 H   0  0  0  0  0  0  0  0  0  0  0  0
    1.5452   -0.3407    0.5524 H   0  0  0  0  0  0  0  0  0  0  0  0
    0.3286   -0.3457   -0.7500 H   0  0  0  0  0  0  0  0  0  0  0  0
    0.4163   -4.8328    0.6916 H   0  0  0  0  0  0  0  0  0  0  0  0
   -0.0984   -4.1157    2.2419 H   0  0  0  0  0  0  0  0  0  0  0  0
    1.5033   -4.8507    2.1119 H   0  0  0  0  0  0  0  0  0  0  0  0
  1 44  1  0  0  0  0
  1  2  1  0  0  0  0
  2 41  1  0  0  0  0
  2 45  1  0  0  0  0
  3  4  1  0  0  0  0
  3  2  1  0  0  0  0
  4 47  1  0  0  0  0
  4 46  1  0  0  0  0
  5 18  2  0  0  0  0
  5  4  1  0  0  0  0
  6  5  1  0  0  0  0
  7 48  1  0  0  0  0
  7  6  1  0  0  0  0
  8  9  1  6  0  0  0
  8 14  1  0  0  0  0
  8  7  1  0  0  0  0
 10  8  1  0  0  0  0
 10 50  1  0  0  0  0
 11 10  1  0  0  0  0
 12 52  1  0  0  0  0
 12 11  1  0  0  0  0
 12 51  1  0  0  0  0
 13 11  2  0  0  0  0
 14 15  1  0  0  0  0
 15 16  1  0  0  0  0
 15 54  1  0  0  0  0
 16 55  1  0  0  0  0
 17 14  2  0  0  0  0
 19 18  1  0  0  0  0
 20 21  1  0  0  0  0
 20 19  1  0  0  0  0
 21 24  1  0  0  0  0
 22 23  1  0  0  0  0
 22 21  2  0  0  0  0
 23 26  2  0  0  0  0
 24 25  2  0  0  0  0
 24 61  1  0  0  0  0
 25 30  1  0  0  0  0
 26 27  1  0  0  0  0
 26 25  1  0  0  0  0
 27 28  2  0  0  0  0
 28 62  1  0  0  0  0
 28 29  1  0  0  0  0
 30 29  2  0  0  0  0
 30 31  1  0  0  0  0
 31 32  1  0  0  0  0
 32 38  2  0  0  0  0
 32 33  1  0  0  0  0
 33 34  2  0  0  0  0
 34 36  1  0  0  0  0
 34 35  1  0  0  0  0
 36 65  1  0  0  0  0
 37 66  1  0  0  0  0
 37 36  2  0  0  0  0
 38 37  1  0  0  0  0
 39 19  2  0  0  0  0
 40  3  1  0  0  0  0
 40 69  1  0  0  0  0
 41 73  1  0  0  0  0
 41 72  1  0  0  0  0
 42  1  1  0  0  0  0
 43  1  1  0  0  0  0
 49  7  1  0  0  0  0
 53 12  1  0  0  0  0
 56 16  1  0  0  0  0
 57 16  1  0  0  0  0
 58 20  1  0  0  0  0
 59 22  1  0  0  0  0
 60 23  1  0  0  0  0
 63 31  1  0  0  0  0
 64 33  1  0  0  0  0
 67 38  1  0  0  0  0
 68 40  1  0  0  0  0
 70 40  1  0  0  0  0
 71 41  1  0  0  0  0
M  END
