67
-1 1
C        -8.123813    1.857117    1.121483
N        -6.693736    1.994635    1.171962
C        -6.037204    1.182805    0.159317
C        -4.521329    1.158351    0.274687
S        -3.810499    2.042502   -1.185242
C        -2.017743    1.951216   -0.965238
C        -1.333775    0.872125   -1.803089
H        -1.703063    0.938255   -2.838732
N        -1.603301   -0.467240   -1.330593
C        -1.498731   -1.521342   -2.161267
C        -1.773523   -2.865157   -1.525654
O        -1.181131   -1.417343   -3.348096
C         0.188162    1.080655   -1.824358
N         0.777893    0.669959   -2.967075
C         2.198916    0.748357   -3.198666
O         0.798246    1.548819   -0.867622
C        -3.854271    0.617500    1.264205
C        -2.596421    0.304279    1.739013
N        -2.156825    1.105908    2.831282
C        -0.855078    1.318960    3.232093
C        -0.606890    2.016294    4.451184
C         0.668892    2.217819    4.922592
C         0.240986    0.892203    2.491705
C         1.548529    1.110695    2.959107
C         1.790595    1.738722    4.202588
N         3.051157    1.840866    4.724247
C         4.006895    1.299823    4.023389
N         3.916101    0.712246    2.804729
C         2.723202    0.655119    2.253207
N         2.535292    0.147700    0.994385
C         3.269315   -0.790142    0.282403
C         2.591867   -1.445723   -0.762842
C         3.250566   -2.400383   -1.521365
Br         2.293539   -3.242182   -2.931377
C         4.576396   -2.750972   -1.269599
C         5.230793   -2.107248   -0.220275
C         4.603039   -1.132943    0.552927
O        -1.863584   -0.648785    1.363657
C        -6.275325    3.373775    1.159891
H        -8.408178    0.797133    1.217211
H        -8.573939    2.240087    0.172700
H        -8.590613    2.408537    1.954066
H        -6.333540    1.517664   -0.865213
H        -6.404517    0.150051    0.270040
H        -1.784680    1.834546    0.102428
H        -1.616218    2.929426   -1.263478
H        -1.780007   -0.611399   -0.309390
H        -2.123361   -2.769457   -0.489254
H        -0.844292   -3.454202   -1.546422
H        -2.519498   -3.397437   -2.131722
H         0.194584    0.087345   -3.570881
H         2.615832   -0.241789   -3.433657
H         2.682071    1.128618   -2.289828
H         2.426299    1.431965   -4.033103
H        -2.879430    1.660756    3.269140
H        -1.461348    2.370092    5.035656
H         0.848016    2.723346    5.873387
H         0.051642    0.339507    1.576542
H         5.018505    1.331156    4.447190
H         1.700269    0.485918    0.513005
H         1.543998   -1.211143   -0.958702
H         5.078970   -3.506702   -1.874000
H         6.269556   -2.367371   -0.002256
H         5.117469   -0.624531    1.366013
H        -6.730687    3.911872    2.007292
H        -6.559739    3.908654    0.222720
H        -5.182619    3.435068    1.258140
