67
-1 1
C        -7.422278    3.060974   -0.819228
N        -6.235753    2.923069   -0.007713
C        -6.037337    1.532908    0.388488
C        -4.995137    1.372230    1.404554
S        -4.637157   -0.809743   -2.064123
C        -3.308531    0.427712   -1.943925
C        -1.943179   -0.186631   -1.562741
H        -1.550206   -0.755908   -2.424764
N        -2.134236   -1.074554   -0.445842
C        -1.119245   -1.683652    0.165884
C        -1.462078   -2.601283    1.311180
O         0.059457   -1.470213   -0.154291
C        -0.961520    0.913901   -1.182432
N        -0.044641    1.235461   -2.119561
C         0.969345    2.231694   -1.868102
O        -1.028958    1.521021   -0.117487
C        -4.116832    1.207294    2.221566
C        -3.062600    0.961433    3.202397
N        -1.823942    0.896183    2.625253
C        -0.610625    0.573721    3.242856
C        -0.417741    0.506462    4.650421
C         0.829396    0.225002    5.167001
C         0.460262    0.309487    2.407106
C         1.714040   -0.042959    2.930508
C         1.937356   -0.036239    4.325116
N         3.187097   -0.239702    4.844851
C         4.143775   -0.420410    3.978038
N         4.044477   -0.528280    2.630227
C         2.843022   -0.402029    2.106104
N         2.599687   -0.615636    0.778452
C         3.458558   -0.602086   -0.313793
C         2.839898   -0.694425   -1.575705
C         3.610994   -0.603202   -2.721673
Br         2.729012   -0.661109   -4.408594
C         4.995449   -0.443634   -2.673321
C         5.594831   -0.377742   -1.416898
C         4.851844   -0.454945   -0.240283
O        -3.288881    0.815824    4.389399
C        -5.075195    3.497244   -0.654260
H        -8.304710    2.697742   -0.268833
H        -7.365646    2.500232   -1.778596
H        -7.588936    4.123861   -1.056257
H        -5.785609    0.854736   -0.464490
H        -6.982910    1.158317    0.814338
H        -3.543170    1.177989   -1.169986
H        -3.167922    0.972530   -2.891430
H        -3.117275   -1.375933   -0.357802
H        -0.860646   -3.515952    1.228702
H        -2.530118   -2.851491    1.348530
H        -1.180453   -2.097035    2.248476
H         0.049144    0.632931   -2.926724
H         1.669758    1.905229   -1.081581
H         0.505538    3.172311   -1.538990
H         1.536922    2.408089   -2.790666
H        -1.769177    1.047621    1.609085
H        -1.267170    0.697462    5.303048
H         0.995436    0.208683    6.245718
H         0.313324    0.402232    1.333422
H         5.161334   -0.527557    4.374206
H         1.627213   -0.848239    0.539608
H         1.755627   -0.816614   -1.623746
H         5.584710   -0.373526   -3.588071
H         6.679220   -0.260748   -1.350726
H         5.324806   -0.407509    0.738385
H        -5.229945    4.578317   -0.800606
H        -4.858169    3.040321   -1.643854
H        -4.184402    3.366152   -0.022153
