-1 1
 OpenBabel05232414493D

 67 68  0  0  1  0  0  0  0  0999 V2000
  -10.1450   -2.6779   -3.8450 C   0  0  0  0  0  0  0  0  0  0  0  0
   -8.7058   -2.6768   -3.8784 N   0  0  0  0  0  0  0  0  0  0  0  0
   -8.1875   -3.8816   -4.5081 C   0  0  0  0  0  0  0  0  0  0  0  0
   -6.7278   -4.0588   -4.2994 C   0  0  0  0  0  3  0  0  0  0  0  0
   -6.0075   -3.4049   -6.6767 S   0  0  0  0  0  1  0  0  0  0  0  0
   -4.2374   -3.3234   -6.3317 C   0  0  0  0  0  0  0  0  0  0  0  0
   -3.4354   -4.5332   -6.8438 C   0  0  2  0  0  0  0  0  0  0  0  0
   -3.6211   -4.6478   -7.9275 H   0  0  0  0  0  0  0  0  0  0  0  0
   -3.8474   -5.7189   -6.1447 N   0  0  0  0  0  0  0  0  0  0  0  0
   -3.1648   -6.8778   -6.2245 C   0  0  0  0  0  0  0  0  0  0  0  0
   -3.7431   -8.0223   -5.4255 C   0  0  0  0  0  0  0  0  0  0  0  0
   -2.1475   -6.9820   -6.9050 O   0  0  0  0  0  0  0  0  0  0  0  0
   -1.9461   -4.2756   -6.6222 C   0  0  0  0  0  0  0  0  0  0  0  0
   -1.2525   -3.9286   -7.7281 N   0  0  0  0  0  0  0  0  0  0  0  0
    0.1587   -3.6332   -7.7180 C   0  0  0  0  0  0  0  0  0  0  0  0
   -1.4457   -4.2840   -5.5035 O   0  0  0  0  0  0  0  0  0  0  0  0
   -5.7967   -4.3615   -3.5428 C   0  0  0  0  0  0  0  0  0  0  0  0
   -4.5514   -4.7169   -2.9463 C   0  0  0  0  0  0  0  0  0  0  0  0
   -3.9612   -3.6944   -2.2090 N   0  0  0  0  0  0  0  0  0  0  0  0
   -2.6473   -3.7076   -1.7241 C   0  0  0  0  0  0  0  0  0  0  0  0
   -2.3488   -3.0656   -0.4978 C   0  0  0  0  0  0  0  0  0  0  0  0
   -1.0671   -3.0612    0.0030 C   0  0  0  0  0  0  0  0  0  0  0  0
   -1.6292   -4.3187   -2.4356 C   0  0  0  0  0  0  0  0  0  0  0  0
   -0.3101   -4.3061   -1.9432 C   0  0  0  0  0  0  0  0  0  0  0  0
   -0.0165   -3.7006   -0.6962 C   0  0  0  0  0  0  0  0  0  0  0  0
    1.2383   -3.7306   -0.1496 N   0  0  0  0  0  0  0  0  0  0  0  0
    2.1439   -4.3508   -0.8500 C   0  0  0  0  0  0  0  0  0  0  0  0
    2.0134   -4.9121   -2.0716 N   0  0  0  0  0  0  0  0  0  0  0  0
    0.8262   -4.8735   -2.6475 C   0  0  0  0  0  0  0  0  0  0  0  0
    0.6384   -5.3539   -3.9074 N   0  0  0  0  0  0  0  0  0  0  0  0
    1.5288   -5.9886   -4.7800 C   0  0  0  0  0  0  0  0  0  0  0  0
    0.9721   -6.4845   -5.9759 C   0  0  0  0  0  0  0  0  0  0  0  0
    1.7999   -7.0769   -6.9177 C   0  0  0  0  0  0  0  0  0  0  0  0
    1.0374   -7.6849   -8.5496 Br  0  0  0  0  0  0  0  0  0  0  0  0
    3.1705   -7.2295   -6.7094 C   0  0  0  0  0  0  0  0  0  0  0  0
    3.6999   -6.7636   -5.5095 C   0  0  0  0  0  0  0  0  0  0  0  0
    2.9042   -6.1438   -4.5478 C   0  0  0  0  0  0  0  0  0  0  0  0
   -4.0326   -5.8218   -3.0415 O   0  0  0  0  0  0  0  0  0  0  0  0
   -8.1750   -1.4577   -4.4474 C   0  0  0  0  0  0  0  0  0  0  0  0
  -10.5172   -3.5732   -3.3214 H   0  0  0  0  0  0  0  0  0  0  0  0
  -10.6121   -2.6613   -4.8586 H   0  0  0  0  0  0  0  0  0  0  0  0
  -10.5096   -1.7928   -3.2994 H   0  0  0  0  0  0  0  0  0  0  0  0
   -8.4188   -3.9249   -5.5919 H   0  0  0  0  0  0  0  0  0  0  0  0
   -8.6853   -4.7445   -4.0327 H   0  0  0  0  0  0  0  0  0  0  0  0
   -4.0726   -3.2645   -5.2378 H   0  0  0  0  0  0  0  0  0  0  0  0
   -3.8002   -2.4131   -6.7714 H   0  0  0  0  0  0  0  0  0  0  0  0
   -4.6850   -5.6478   -5.5747 H   0  0  0  0  0  0  0  0  0  0  0  0
   -4.0066   -7.6726   -4.4169 H   0  0  0  0  0  0  0  0  0  0  0  0
   -3.0043   -8.8309   -5.3781 H   0  0  0  0  0  0  0  0  0  0  0  0
   -4.6548   -8.3949   -5.9176 H   0  0  0  0  0  0  0  0  0  0  0  0
   -1.7068   -4.0846   -8.6174 H   0  0  0  0  0  0  0  0  0  0  0  0
    0.7510   -4.4605   -8.1408 H   0  0  0  0  0  0  0  0  0  0  0  0
    0.4690   -3.4869   -6.6762 H   0  0  0  0  0  0  0  0  0  0  0  0
    0.3685   -2.7136   -8.2858 H   0  0  0  0  0  0  0  0  0  0  0  0
   -4.5173   -2.8622   -2.0630 H   0  0  0  0  0  0  0  0  0  0  0  0
   -3.1586   -2.5881    0.0604 H   0  0  0  0  0  0  0  0  0  0  0  0
   -0.8274   -2.5869    0.9561 H   0  0  0  0  0  0  0  0  0  0  0  0
   -1.8774   -4.7854   -3.3858 H   0  0  0  0  0  0  0  0  0  0  0  0
    3.1497   -4.4198   -0.4157 H   0  0  0  0  0  0  0  0  0  0  0  0
   -0.2418   -5.0934   -4.3614 H   0  0  0  0  0  0  0  0  0  0  0  0
   -0.1038   -6.4180   -6.1618 H   0  0  0  0  0  0  0  0  0  0  0  0
    3.8006   -7.7019   -7.4638 H   0  0  0  0  0  0  0  0  0  0  0  0
    4.7697   -6.8768   -5.3173 H   0  0  0  0  0  0  0  0  0  0  0  0
    3.3243   -5.7732   -3.6169 H   0  0  0  0  0  0  0  0  0  0  0  0
   -8.4952   -0.5963   -3.8384 H   0  0  0  0  0  0  0  0  0  0  0  0
   -8.5051   -1.2891   -5.4962 H   0  0  0  0  0  0  0  0  0  0  0  0
   -7.0776   -1.4962   -4.4655 H   0  0  0  0  0  0  0  0  0  0  0  0
  1 40  1  0  0  0  0
  1 42  1  0  0  0  0
  2  1  1  0  0  0  0
  3  4  1  0  0  0  0
  3 44  1  0  0  0  0
  3  2  1  0  0  0  0
  4 17  2  0  0  0  0
  5  6  1  0  0  0  0
  6 45  1  0  0  0  0
  7  8  1  6  0  0  0
  7 13  1  0  0  0  0
  7  6  1  0  0  0  0
  7  9  1  0  0  0  0
  9 47  1  0  0  0  0
 10  9  1  0  0  0  0
 10 11  1  0  0  0  0
 11 49  1  0  0  0  0
 11 48  1  0  0  0  0
 12 10  2  0  0  0  0
 13 16  2  0  0  0  0
 14 15  1  0  0  0  0
 14 13  1  0  0  0  0
 15 53  1  0  0  0  0
 17 18  2  0  0  0  0
 18 19  1  0  0  0  0
 19 55  1  0  0  0  0
 19 20  1  0  0  0  0
 20 21  1  0  0  0  0
 21 22  2  0  0  0  0
 21 56  1  0  0  0  0
 22 57  1  0  0  0  0
 23 24  1  0  0  0  0
 23 20  2  0  0  0  0
 24 25  2  0  0  0  0
 25 26  1  0  0  0  0
 25 22  1  0  0  0  0
 27 59  1  0  0  0  0
 27 26  2  0  0  0  0
 28 27  1  0  0  0  0
 29 28  2  0  0  0  0
 29 24  1  0  0  0  0
 30 29  1  0  0  0  0
 31 37  1  0  0  0  0
 31 30  1  0  0  0  0
 32 31  2  0  0  0  0
 33 35  2  0  0  0  0
 33 32  1  0  0  0  0
 34 33  1  0  0  0  0
 35 36  1  0  0  0  0
 36 63  1  0  0  0  0
 36 37  2  0  0  0  0
 37 64  1  0  0  0  0
 38 18  2  0  0  0  0
 39  2  1  0  0  0  0
 39 65  1  0  0  0  0
 41  1  1  0  0  0  0
 43  3  1  0  0  0  0
 46  6  1  0  0  0  0
 50 11  1  0  0  0  0
 51 14  1  0  0  0  0
 52 15  1  0  0  0  0
 54 15  1  0  0  0  0
 58 23  1  0  0  0  0
 60 30  1  0  0  0  0
 61 32  1  0  0  0  0
 62 35  1  0  0  0  0
 66 39  1  0  0  0  0
 67 39  1  0  0  0  0
M  END
