-1 1
 OpenBabel05192410563D

 76 79  0  0  1  0  0  0  0  0999 V2000
    1.8975   -1.2937   -3.5352 O   0  0  0  0  0  0  0  0  0  0  0  0
    1.6573   -1.5873   -2.3544 C   0  0  0  0  0  0  0  0  0  0  0  0
    1.1158   -2.9641   -2.1350 N   0  0  0  0  0  0  0  0  0  0  0  0
   -0.2416   -3.1759   -2.1573 C   0  0  0  0  0  0  0  0  0  0  0  0
   -0.7768   -4.4832   -2.3694 C   0  0  0  0  0  0  0  0  0  0  0  0
   -2.1291   -4.7092   -2.3590 C   0  0  0  0  0  0  0  0  0  0  0  0
   -1.1460   -2.1387   -1.9480 C   0  0  0  0  0  0  0  0  0  0  0  0
   -2.5402   -2.3377   -1.9871 C   0  0  0  0  0  0  0  0  0  0  0  0
   -3.0566   -3.6521   -2.1618 C   0  0  0  0  0  0  0  0  0  0  0  0
   -4.3901   -3.9360   -2.1312 N   0  0  0  0  0  0  0  0  0  0  0  0
   -5.1821   -2.9187   -1.9347 C   0  0  0  0  0  0  0  0  0  0  0  0
   -4.8326   -1.6244   -1.8061 N   0  0  0  0  0  0  0  0  0  0  0  0
   -3.5488   -1.3092   -1.8549 C   0  0  0  0  0  0  0  0  0  0  0  0
   -3.3170    0.0421   -1.7243 N   0  0  0  0  0  0  0  0  0  0  0  0
   -2.1643    0.8418   -1.8669 C   0  0  0  0  0  0  0  0  0  0  0  0
   -1.9034    1.8005   -0.8812 C   0  0  0  0  0  0  0  0  0  0  0  0
   -0.7336    2.5504   -0.9538 C   0  0  0  0  0  0  0  0  0  0  0  0
   -0.3573    3.7726    0.4572 Br  0  0  0  0  0  0  0  0  0  0  0  0
    0.2006    2.3631   -1.9659 C   0  0  0  0  0  0  0  0  0  0  0  0
   -0.0895    1.4280   -2.9598 C   0  0  0  0  0  0  0  0  0  0  0  0
   -1.2773    0.7045   -2.9403 C   0  0  0  0  0  0  0  0  0  0  0  0
    1.7702   -0.8122   -1.2098 C   0  0  0  0  0  3  0  0  0  0  0  0
    1.4541   -1.2607    0.1659 C   0  0  1  0  0  0  0  0  0  0  0  0
    2.9291   -1.3259    1.3375 S   0  0  0  0  0  0  0  0  0  0  0  0
    3.6947    0.2936    1.0953 C   0  0  0  0  0  0  0  0  0  0  0  0
    2.9991    1.5178    1.7325 C   0  0  2  0  0  0  0  0  0  0  0  0
    1.9907    1.6160    1.3084 H   0  0  0  0  0  0  0  0  0  0  0  0
    3.7371    2.7258    1.4420 N   0  0  0  0  0  0  0  0  0  0  0  0
    3.6668    3.3841    0.2658 C   0  0  0  0  0  0  0  0  0  0  0  0
    4.4496    4.6824    0.1977 C   0  0  0  0  0  0  0  0  0  0  0  0
    3.0082    2.9914   -0.6839 O   0  0  0  0  0  0  0  0  0  0  0  0
    2.9190    1.4313    3.2623 C   0  0  0  0  0  0  0  0  0  0  0  0
    1.8982    0.7138    3.7540 N   0  0  0  0  0  0  0  0  0  0  0  0
    1.7789    0.4375    5.1614 C   0  0  0  0  0  0  0  0  0  0  0  0
    3.7556    2.0089    3.9528 O   0  0  0  0  0  0  0  0  0  0  0  0
    0.2888   -0.4553    0.7506 C   0  0  0  0  0  0  0  0  0  0  0  0
   -0.0831   -0.6929    2.1462 N   0  0  0  0  0  0  0  0  0  0  0  0
   -1.2710    0.0762    2.5120 C   0  0  0  0  0  0  0  0  0  0  0  0
   -2.5712   -0.4666    1.9025 C   0  0  0  0  0  0  0  0  0  0  0  0
   -2.7524   -1.9533    2.2156 C   0  0  0  0  0  0  0  0  0  0  0  0
   -1.4900   -2.7413    1.8580 C   0  0  0  0  0  0  0  0  0  0  0  0
   -0.2604   -2.0980    2.5055 C   0  0  0  0  0  0  0  0  0  0  0  0
    1.6305   -3.6330   -2.6987 H   0  0  0  0  0  0  0  0  0  0  0  0
   -0.0850   -5.3149   -2.5314 H   0  0  0  0  0  0  0  0  0  0  0  0
   -2.5382   -5.7112   -2.5020 H   0  0  0  0  0  0  0  0  0  0  0  0
   -0.7180   -1.1578   -1.7892 H   0  0  0  0  0  0  0  0  0  0  0  0
   -6.2591   -3.1215   -1.8770 H   0  0  0  0  0  0  0  0  0  0  0  0
   -4.1724    0.5229   -1.4685 H   0  0  0  0  0  0  0  0  0  0  0  0
   -2.5864    1.9157   -0.0380 H   0  0  0  0  0  0  0  0  0  0  0  0
    1.1607    2.8798   -1.9366 H   0  0  0  0  0  0  0  0  0  0  0  0
    0.6541    1.2001   -3.7261 H   0  0  0  0  0  0  0  0  0  0  0  0
   -1.4739   -0.0349   -3.7169 H   0  0  0  0  0  0  0  0  0  0  0  0
    2.0672    0.2292   -1.3581 H   0  0  0  0  0  0  0  0  0  0  0  0
    1.1809   -2.3255    0.1305 H   0  0  0  0  0  0  0  0  0  0  0  0
    3.7778    0.4753    0.0132 H   0  0  0  0  0  0  0  0  0  0  0  0
    4.7123    0.2145    1.5074 H   0  0  0  0  0  0  0  0  0  0  0  0
    4.2755    3.0744    2.2305 H   0  0  0  0  0  0  0  0  0  0  0  0
    5.0128    4.7018   -0.7448 H   0  0  0  0  0  0  0  0  0  0  0  0
    5.1375    4.8244    1.0425 H   0  0  0  0  0  0  0  0  0  0  0  0
    3.7338    5.5173    0.1739 H   0  0  0  0  0  0  0  0  0  0  0  0
    1.2954    0.1637    3.1120 H   0  0  0  0  0  0  0  0  0  0  0  0
    2.3363    1.1961    5.7262 H   0  0  0  0  0  0  0  0  0  0  0  0
    2.1867   -0.5553    5.4189 H   0  0  0  0  0  0  0  0  0  0  0  0
    0.7211    0.4649    5.4641 H   0  0  0  0  0  0  0  0  0  0  0  0
   -0.5623   -0.6419    0.0770 H   0  0  0  0  0  0  0  0  0  0  0  0
    0.5035    0.6186    0.6441 H   0  0  0  0  0  0  0  0  0  0  0  0
   -1.1106    1.1259    2.2164 H   0  0  0  0  0  0  0  0  0  0  0  0
   -1.3570    0.0633    3.6148 H   0  0  0  0  0  0  0  0  0  0  0  0
   -2.5568   -0.3303    0.8103 H   0  0  0  0  0  0  0  0  0  0  0  0
   -3.4260    0.1200    2.2779 H   0  0  0  0  0  0  0  0  0  0  0  0
   -3.6270   -2.3534    1.6784 H   0  0  0  0  0  0  0  0  0  0  0  0
   -2.9579   -2.0750    3.2958 H   0  0  0  0  0  0  0  0  0  0  0  0
   -1.3621   -2.7695    0.7624 H   0  0  0  0  0  0  0  0  0  0  0  0
   -1.5793   -3.7885    2.1886 H   0  0  0  0  0  0  0  0  0  0  0  0
    0.6569   -2.6502    2.2613 H   0  0  0  0  0  0  0  0  0  0  0  0
   -0.3633   -2.1430    3.6059 H   0  0  0  0  0  0  0  0  0  0  0  0
  1  2  2  0  0  0  0
  2  3  1  0  0  0  0
  2 22  1  0  0  0  0
  4  3  1  0  0  0  0
  4  7  1  0  0  0  0
  5  6  1  0  0  0  0
  5  4  2  0  0  0  0
  6  9  2  0  0  0  0
  7 46  1  0  0  0  0
  8  7  2  0  0  0  0
  8 13  1  0  0  0  0
  9 10  1  0  0  0  0
  9  8  1  0  0  0  0
 10 11  2  0  0  0  0
 11 47  1  0  0  0  0
 11 12  1  0  0  0  0
 13 12  2  0  0  0  0
 13 14  1  0  0  0  0
 14 48  1  0  0  0  0
 15 14  1  0  0  0  0
 15 16  1  0  0  0  0
 16 49  1  0  0  0  0
 17 16  2  0  0  0  0
 17 18  1  0  0  0  0
 19 50  1  0  0  0  0
 19 17  1  0  0  0  0
 20 21  1  0  0  0  0
 20 19  2  0  0  0  0
 21 15  2  0  0  0  0
 22 23  1  0  0  0  0
 23 54  1  6  0  0  0
 23 36  1  0  0  0  0
 23 24  1  0  0  0  0
 25 24  1  0  0  0  0
 25 56  1  0  0  0  0
 25 26  1  0  0  0  0
 26 27  1  6  0  0  0
 26 32  1  0  0  0  0
 28 26  1  0  0  0  0
 28 57  1  0  0  0  0
 29 28  1  0  0  0  0
 30 29  1  0  0  0  0
 30 59  1  0  0  0  0
 31 29  2  0  0  0  0
 32 33  1  0  0  0  0
 32 35  2  0  0  0  0
 33 34  1  0  0  0  0
 34 63  1  0  0  0  0
 34 64  1  0  0  0  0
 34 62  1  0  0  0  0
 36 37  1  0  0  0  0
 37 42  1  0  0  0  0
 37 38  1  0  0  0  0
 38 68  1  0  0  0  0
 39 40  1  0  0  0  0
 39 70  1  0  0  0  0
 39 38  1  0  0  0  0
 40 72  1  0  0  0  0
 41 74  1  0  0  0  0
 41 40  1  0  0  0  0
 41 42  1  0  0  0  0
 42 76  1  0  0  0  0
 43  3  1  0  0  0  0
 44  5  1  0  0  0  0
 45  6  1  0  0  0  0
 51 20  1  0  0  0  0
 52 21  1  0  0  0  0
 53 22  1  0  0  0  0
 55 25  1  0  0  0  0
 58 30  1  0  0  0  0
 60 30  1  0  0  0  0
 61 33  1  0  0  0  0
 65 36  1  0  0  0  0
 66 36  1  0  0  0  0
 67 38  1  0  0  0  0
 69 39  1  0  0  0  0
 71 40  1  0  0  0  0
 73 41  1  0  0  0  0
 75 42  1  0  0  0  0
M  END
