-1 1
 OpenBabel05232413483D

 76 78  0  0  1  0  0  0  0  0999 V2000
    2.6242   -1.9017   -3.5777 O   0  0  0  0  0  0  0  0  0  0  0  0
    1.7569   -2.1514   -2.7664 C   0  0  0  0  0  0  0  0  0  0  0  0
    0.8903   -3.2275   -2.9854 N   0  0  0  0  0  0  0  0  0  0  0  0
   -0.4694   -3.3087   -2.6118 C   0  0  0  0  0  0  0  0  0  0  0  0
   -0.9995   -4.5434   -2.1649 C   0  0  0  0  0  0  0  0  0  0  0  0
   -2.3235   -4.6502   -1.8163 C   0  0  0  0  0  0  0  0  0  0  0  0
   -1.2968   -2.2061   -2.6871 C   0  0  0  0  0  0  0  0  0  0  0  0
   -2.6605   -2.2833   -2.3203 C   0  0  0  0  0  0  0  0  0  0  0  0
   -3.1905   -3.5306   -1.8903 C   0  0  0  0  0  0  0  0  0  0  0  0
   -4.5055   -3.6982   -1.5708 N   0  0  0  0  0  0  0  0  0  0  0  0
   -5.2643   -2.6477   -1.7159 C   0  0  0  0  0  0  0  0  0  0  0  0
   -4.8965   -1.4189   -2.1259 N   0  0  0  0  0  0  0  0  0  0  0  0
   -3.6249   -1.2092   -2.4178 C   0  0  0  0  0  0  0  0  0  0  0  0
   -3.3402    0.0585   -2.8657 N   0  0  0  0  0  0  0  0  0  0  0  0
   -2.1176    0.7656   -2.6489 C   0  0  0  0  0  0  0  0  0  0  0  0
   -1.8381    1.2717   -1.3792 C   0  0  0  0  0  0  0  0  0  0  0  0
   -0.6131    1.8907   -1.1390 C   0  0  0  0  0  0  0  0  0  0  0  0
   -0.2419    2.5639    0.5905 Br  0  0  0  0  0  0  0  0  0  0  0  0
    0.3438    1.9961   -2.1479 C   0  0  0  0  0  0  0  0  0  0  0  0
    0.0290    1.5354   -3.4260 C   0  0  0  0  0  0  0  0  0  0  0  0
   -1.2025    0.9403   -3.6877 C   0  0  0  0  0  0  0  0  0  0  0  0
    1.5769   -1.4127   -1.4926 C   0  0  0  0  0  0  0  0  0  0  0  0
    1.2150   -2.0374   -0.3653 C   0  0  0  0  0  0  0  0  0  0  0  0
    4.0194   -0.7809    3.1874 S   0  0  0  0  0  1  0  0  0  0  0  0
    4.2460    0.8914    2.4712 C   0  0  0  0  0  0  0  0  0  0  0  0
    2.9456    1.6602    2.1594 C   0  0  2  0  0  0  0  0  0  0  0  0
    2.3105    1.0004    1.5461 H   0  0  0  0  0  0  0  0  0  0  0  0
    3.1906    2.8780    1.4097 N   0  0  0  0  0  0  0  0  0  0  0  0
    3.1785    2.9470    0.0646 C   0  0  0  0  0  0  0  0  0  0  0  0
    3.1807    4.3558   -0.5039 C   0  0  0  0  0  0  0  0  0  0  0  0
    3.1299    1.9724   -0.6746 O   0  0  0  0  0  0  0  0  0  0  0  0
    2.1219    2.0915    3.3850 C   0  0  0  0  0  0  0  0  0  0  0  0
    1.9933    1.1776    4.3508 N   0  0  0  0  0  0  0  0  0  0  0  0
    1.2698    1.4636    5.5581 C   0  0  0  0  0  0  0  0  0  0  0  0
    1.6115    3.2142    3.4420 O   0  0  0  0  0  0  0  0  0  0  0  0
    1.0294   -1.4141    0.9768 C   0  0  0  0  0  0  0  0  0  0  0  0
    0.1018   -2.1897    1.7836 N   0  0  0  0  0  0  0  0  0  0  0  0
    0.0619   -1.7828    3.1799 C   0  0  0  0  0  0  0  0  0  0  0  0
   -0.7644   -0.5121    3.4227 C   0  0  0  0  0  0  0  0  0  0  0  0
   -2.1698   -0.6430    2.8323 C   0  0  0  0  0  0  0  0  0  0  0  0
   -2.0922   -1.0740    1.3675 C   0  0  0  0  0  0  0  0  0  0  0  0
   -1.2336   -2.3339    1.2293 C   0  0  0  0  0  0  0  0  0  0  0  0
    1.1732   -3.7923   -3.7801 H   0  0  0  0  0  0  0  0  0  0  0  0
   -0.3313   -5.4039   -2.0871 H   0  0  0  0  0  0  0  0  0  0  0  0
   -2.7504   -5.5918   -1.4685 H   0  0  0  0  0  0  0  0  0  0  0  0
   -0.8695   -1.2717   -3.0338 H   0  0  0  0  0  0  0  0  0  0  0  0
   -6.3285   -2.7612   -1.4749 H   0  0  0  0  0  0  0  0  0  0  0  0
   -4.1821    0.6267   -2.8369 H   0  0  0  0  0  0  0  0  0  0  0  0
   -2.5721    1.1574   -0.5808 H   0  0  0  0  0  0  0  0  0  0  0  0
    1.3416    2.3809   -1.9264 H   0  0  0  0  0  0  0  0  0  0  0  0
    0.7750    1.6167   -4.2187 H   0  0  0  0  0  0  0  0  0  0  0  0
   -1.4446    0.5531   -4.6791 H   0  0  0  0  0  0  0  0  0  0  0  0
    1.8567   -0.3542   -1.4970 H   0  0  0  0  0  0  0  0  0  0  0  0
    1.0390   -3.1191   -0.3880 H   0  0  0  0  0  0  0  0  0  0  0  0
    4.7770    0.8059    1.5114 H   0  0  0  0  0  0  0  0  0  0  0  0
    4.8688    1.5219    3.1305 H   0  0  0  0  0  0  0  0  0  0  0  0
    2.9712    3.7217    1.9326 H   0  0  0  0  0  0  0  0  0  0  0  0
    3.7569    4.3619   -1.4379 H   0  0  0  0  0  0  0  0  0  0  0  0
    3.5913    5.1012    0.1914 H   0  0  0  0  0  0  0  0  0  0  0  0
    2.1408    4.6347   -0.7381 H   0  0  0  0  0  0  0  0  0  0  0  0
    2.5613    0.3033    4.2364 H   0  0  0  0  0  0  0  0  0  0  0  0
    0.2634    1.8487    5.3301 H   0  0  0  0  0  0  0  0  0  0  0  0
    1.7787    2.2204    6.1800 H   0  0  0  0  0  0  0  0  0  0  0  0
    1.1736    0.5379    6.1420 H   0  0  0  0  0  0  0  0  0  0  0  0
    0.7318   -0.3516    0.8391 H   0  0  0  0  0  0  0  0  0  0  0  0
    2.0045   -1.3869    1.5082 H   0  0  0  0  0  0  0  0  0  0  0  0
    1.0960   -1.6405    3.5304 H   0  0  0  0  0  0  0  0  0  0  0  0
   -0.3782   -2.6134    3.7645 H   0  0  0  0  0  0  0  0  0  0  0  0
   -0.2490    0.3494    2.9666 H   0  0  0  0  0  0  0  0  0  0  0  0
   -0.8144   -0.3030    4.5032 H   0  0  0  0  0  0  0  0  0  0  0  0
   -2.7240    0.3047    2.9332 H   0  0  0  0  0  0  0  0  0  0  0  0
   -2.7373   -1.4041    3.4007 H   0  0  0  0  0  0  0  0  0  0  0  0
   -1.6262   -0.2679    0.7793 H   0  0  0  0  0  0  0  0  0  0  0  0
   -3.0958   -1.2472    0.9420 H   0  0  0  0  0  0  0  0  0  0  0  0
   -1.1617   -2.6315    0.1720 H   0  0  0  0  0  0  0  0  0  0  0  0
   -1.7348   -3.1692    1.7538 H   0  0  0  0  0  0  0  0  0  0  0  0
  1  2  2  0  0  0  0
  2 22  1  0  0  0  0
  3  2  1  0  0  0  0
  3  4  1  0  0  0  0
  4  5  1  0  0  0  0
  5 44  1  0  0  0  0
  5  6  2  0  0  0  0
  6 45  1  0  0  0  0
  7  4  2  0  0  0  0
  7  8  1  0  0  0  0
  8  9  2  0  0  0  0
  9  6  1  0  0  0  0
  9 10  1  0  0  0  0
 11 10  2  0  0  0  0
 11 47  1  0  0  0  0
 12 11  1  0  0  0  0
 13  8  1  0  0  0  0
 13 12  2  0  0  0  0
 14 48  1  0  0  0  0
 14 15  1  0  0  0  0
 14 13  1  0  0  0  0
 15 16  1  0  0  0  0
 16 17  2  0  0  0  0
 16 49  1  0  0  0  0
 17 18  1  0  0  0  0
 19 50  1  0  0  0  0
 19 17  1  0  0  0  0
 20 19  2  0  0  0  0
 21 20  1  0  0  0  0
 21 15  2  0  0  0  0
 22 23  2  0  0  0  0
 23 36  1  0  0  0  0
 25 56  1  0  0  0  0
 25 24  1  0  0  0  0
 26 27  1  6  0  0  0
 26 25  1  0  0  0  0
 26 32  1  0  0  0  0
 28 57  1  0  0  0  0
 28 26  1  0  0  0  0
 29 28  1  0  0  0  0
 30 29  1  0  0  0  0
 30 59  1  0  0  0  0
 31 29  2  0  0  0  0
 32 35  2  0  0  0  0
 32 33  1  0  0  0  0
 33 34  1  0  0  0  0
 34 64  1  0  0  0  0
 34 63  1  0  0  0  0
 36 66  1  0  0  0  0
 36 37  1  0  0  0  0
 37 38  1  0  0  0  0
 38 39  1  0  0  0  0
 38 67  1  0  0  0  0
 38 68  1  0  0  0  0
 39 70  1  0  0  0  0
 40 71  1  0  0  0  0
 40 72  1  0  0  0  0
 40 39  1  0  0  0  0
 41 40  1  0  0  0  0
 42 41  1  0  0  0  0
 42 76  1  0  0  0  0
 42 37  1  0  0  0  0
 43  3  1  0  0  0  0
 46  7  1  0  0  0  0
 51 20  1  0  0  0  0
 52 21  1  0  0  0  0
 53 22  1  0  0  0  0
 54 23  1  0  0  0  0
 55 25  1  0  0  0  0
 58 30  1  0  0  0  0
 60 30  1  0  0  0  0
 61 33  1  0  0  0  0
 62 34  1  0  0  0  0
 65 36  1  0  0  0  0
 69 39  1  0  0  0  0
 73 41  1  0  0  0  0
 74 41  1  0  0  0  0
 75 42  1  0  0  0  0
M  END
