76
-1 1
O         1.897478   -1.293723   -3.535182
C         1.657291   -1.587272   -2.354404
N         1.115751   -2.964108   -2.134964
C        -0.241617   -3.175927   -2.157288
C        -0.776813   -4.483186   -2.369353
C        -2.129125   -4.709156   -2.358962
C        -1.145958   -2.138712   -1.947967
C        -2.540227   -2.337682   -1.987143
C        -3.056615   -3.652131   -2.161789
N        -4.390088   -3.936015   -2.131170
C        -5.182107   -2.918686   -1.934750
N        -4.832608   -1.624446   -1.806103
C        -3.548837   -1.309158   -1.854919
N        -3.317043    0.042065   -1.724330
C        -2.164327    0.841793   -1.866896
C        -1.903366    1.800534   -0.881199
C        -0.733620    2.550391   -0.953759
Br        -0.357285    3.772555    0.457249
C         0.200641    2.363104   -1.965945
C        -0.089510    1.427958   -2.959765
C        -1.277281    0.704499   -2.940334
C         1.770248   -0.812226   -1.209806
C         1.454079   -1.260709    0.165901
S         2.929059   -1.325950    1.337525
C         3.694657    0.293626    1.095271
C         2.999119    1.517810    1.732501
H         1.990725    1.616035    1.308428
N         3.737053    2.725800    1.441965
C         3.666773    3.384060    0.265795
C         4.449602    4.682411    0.197665
O         3.008203    2.991383   -0.683922
C         2.919023    1.431251    3.262339
N         1.898194    0.713752    3.754030
C         1.778893    0.437473    5.161441
O         3.755577    2.008941    3.952822
C         0.288777   -0.455278    0.750597
N        -0.083132   -0.692883    2.146210
C        -1.270983    0.076201    2.512022
C        -2.571168   -0.466555    1.902536
C        -2.752367   -1.953336    2.215569
C        -1.490023   -2.741320    1.858038
C        -0.260392   -2.098025    2.505530
H         1.630513   -3.632987   -2.698674
H        -0.085013   -5.314921   -2.531421
H        -2.538215   -5.711157   -2.502008
H        -0.718001   -1.157829   -1.789213
H        -6.259146   -3.121546   -1.876997
H        -4.172370    0.522857   -1.468450
H        -2.586409    1.915676   -0.037988
H         1.160661    2.879838   -1.936553
H         0.654078    1.200125   -3.726137
H        -1.473860   -0.034917   -3.716894
H         2.067169    0.229213   -1.358086
H         1.180881   -2.325456    0.130519
H         3.777785    0.475269    0.013235
H         4.712290    0.214461    1.507426
H         4.275497    3.074449    2.230505
H         5.012832    4.701844   -0.744757
H         5.137500    4.824427    1.042548
H         3.733764    5.517259    0.173875
H         1.295381    0.163663    3.112027
H         2.336303    1.196096    5.726199
H         2.186716   -0.555317    5.418887
H         0.721112    0.464899    5.464083
H        -0.562328   -0.641878    0.077020
H         0.503501    0.618588    0.644083
H        -1.110574    1.125904    2.216440
H        -1.356993    0.063334    3.614841
H        -2.556810   -0.330259    0.810252
H        -3.426025    0.119963    2.277878
H        -3.627017   -2.353399    1.678402
H        -2.957899   -2.074984    3.295832
H        -1.362123   -2.769460    0.762423
H        -1.579291   -3.788535    2.188576
H         0.656899   -2.650163    2.261310
H        -0.363279   -2.142991    3.605854
