74
-1 1
O         1.381256    3.220748   -3.522655
C         0.641048    2.382181   -3.043834
N        -0.613710    2.222628   -3.637115
C        -1.829460    1.644651   -3.264317
C        -2.810587    1.519425   -4.288419
C        -4.056445    1.003364   -4.036893
C        -2.160829    1.220691   -1.987614
C        -3.405765    0.605525   -1.738048
C        -4.394492    0.528369   -2.746115
N        -5.643532    0.028374   -2.509633
C        -5.864351   -0.384379   -1.291925
N        -4.990656   -0.441315   -0.266434
C        -3.766072    0.003458   -0.474814
N        -2.841856   -0.109124    0.520298
C        -3.125248   -0.723294    1.765604
C        -2.874720   -0.001120    2.933799
C        -3.016399   -0.623307    4.171182
Br        -2.611628    0.354588    5.746379
C        -3.439512   -1.944786    4.270760
C        -3.723915   -2.645109    3.097349
C        -3.566282   -2.047353    1.852087
C         1.062273    1.549646   -1.899226
C         0.698611    0.278533   -1.675508
S         2.626804   -1.686415   -3.371289
C         3.815877   -0.338630   -3.047459
C         4.796844   -0.615746   -1.884335
H         4.210390   -1.026623   -1.045479
N         5.491996    0.573707   -1.439671
C         4.985027    1.476675   -0.587060
C         5.899472    2.635834   -0.237000
O         3.853341    1.413140   -0.115720
C         5.896396   -1.620162   -2.265501
N         5.442183   -2.813571   -2.679682
C         6.318494   -3.823936   -3.207293
O         7.085283   -1.314506   -2.191071
C         1.150910   -0.486118   -0.468632
N         0.192696   -0.311243    0.649444
C         0.252444   -1.424871    1.601411
C         1.492347   -1.371110    2.488590
O         1.542771   -0.152064    3.187510
C         1.591304    0.945905    2.299423
C         0.378027    0.951824    1.373174
H        -0.643598    2.755462   -4.499608
H        -2.556813    1.853831   -5.298103
H        -4.811751    0.932318   -4.821100
H        -1.452996    1.347781   -1.173533
H        -6.872964   -0.752652   -1.064989
H        -1.832009   -0.047390    0.305275
H        -2.553970    1.038284    2.863343
H        -3.545151   -2.420453    5.246633
H        -4.060126   -3.682156    3.161347
H        -3.774167   -2.600277    0.936536
H         1.853207    2.003192   -1.293500
H        -0.011270   -0.225202   -2.334760
H         3.268799    0.579963   -2.782932
H         4.407287   -0.103724   -3.949487
H         6.482261    0.571050   -1.673519
H         5.471468    3.553660   -0.665987
H         6.925651    2.512432   -0.609263
H         5.913995    2.755854    0.854881
H         4.424268   -2.843105   -2.896292
H         6.289375   -3.855389   -4.310138
H         6.034345   -4.818580   -2.829572
H         7.347163   -3.601034   -2.894834
H         2.169218   -0.159831   -0.200948
H         1.201966   -1.550427   -0.728561
H         0.205037   -2.375157    1.048778
H        -0.631885   -1.375174    2.256287
H         2.409694   -1.507401    1.881067
H         1.460048   -2.175823    3.238448
H         2.525639    0.935226    1.709157
H         1.593430    1.856533    2.916345
H         0.459670    1.774425    0.647683
H        -0.525284    1.131675    1.979235
