-1 1
 OpenBabel05232414493D

 74 77  0  0  1  0  0  0  0  0999 V2000
    5.5413    7.4959    2.5823 O   0  0  0  0  0  0  0  0  0  0  0  0
    5.0280    6.4157    2.8672 C   0  0  0  0  0  0  0  0  0  0  0  0
    3.9096    6.0427    2.0496 N   0  0  0  0  0  0  0  0  0  0  0  0
    2.6881    5.4762    2.3506 C   0  0  0  0  0  0  0  0  0  0  0  0
    1.7444    5.3539    1.2856 C   0  0  0  0  0  0  0  0  0  0  0  0
    0.4990    4.8149    1.4765 C   0  0  0  0  0  0  0  0  0  0  0  0
    2.3032    5.0275    3.6098 C   0  0  0  0  0  0  0  0  0  0  0  0
    1.0482    4.4122    3.8019 C   0  0  0  0  0  0  0  0  0  0  0  0
    0.1087    4.3236    2.7469 C   0  0  0  0  0  0  0  0  0  0  0  0
   -1.1430    3.8019    2.9179 N   0  0  0  0  0  0  0  0  0  0  0  0
   -1.4221    3.3844    4.1205 C   0  0  0  0  0  0  0  0  0  0  0  0
   -0.6056    3.3583    5.1945 N   0  0  0  0  0  0  0  0  0  0  0  0
    0.6173    3.8296    5.0516 C   0  0  0  0  0  0  0  0  0  0  0  0
    1.4789    3.7737    6.1117 N   0  0  0  0  0  0  0  0  0  0  0  0
    1.1367    3.2641    7.3819 C   0  0  0  0  0  0  0  0  0  0  0  0
    1.4719    4.0226    8.5083 C   0  0  0  0  0  0  0  0  0  0  0  0
    1.2592    3.5036    9.7813 C   0  0  0  0  0  0  0  0  0  0  0  0
    1.7866    4.5265   11.2914 Br  0  0  0  0  0  0  0  0  0  0  0  0
    0.6755    2.2542    9.9656 C   0  0  0  0  0  0  0  0  0  0  0  0
    0.3076    1.5220    8.8361 C   0  0  0  0  0  0  0  0  0  0  0  0
    0.5375    2.0106    7.5545 C   0  0  0  0  0  0  0  0  0  0  0  0
    5.4881    5.5238    3.8818 C   0  0  0  0  0  3  0  0  0  0  0  0
    5.2623    4.1314    3.9518 C   0  0  1  0  0  0  0  0  0  0  0  0
    6.5590    3.0071    2.5570 S   0  0  0  0  0  0  0  0  0  0  0  0
    7.9865    4.1032    2.6830 C   0  0  0  0  0  0  0  0  0  0  0  0
    9.0525    3.6560    3.7082 C   0  0  2  0  0  0  0  0  0  0  0  0
    8.5220    3.2664    4.5909 H   0  0  0  0  0  0  0  0  0  0  0  0
    9.8982    4.7422    4.1363 N   0  0  0  0  0  0  0  0  0  0  0  0
    9.5721    5.5387    5.1778 C   0  0  0  0  0  0  0  0  0  0  0  0
   10.5711    6.6305    5.5059 C   0  0  0  0  0  0  0  0  0  0  0  0
    8.5313    5.4204    5.8062 O   0  0  0  0  0  0  0  0  0  0  0  0
    9.9668    2.5597    3.1512 C   0  0  0  0  0  0  0  0  0  0  0  0
    9.3318    1.4089    2.8448 N   0  0  0  0  0  0  0  0  0  0  0  0
    9.9928    0.3092    2.1927 C   0  0  0  0  0  0  0  0  0  0  0  0
   11.1675    2.7445    2.9985 O   0  0  0  0  0  0  0  0  0  0  0  0
    5.5760    3.4506    5.2718 C   0  0  0  0  0  0  0  0  0  0  0  0
    4.5826    3.7289    6.3323 N   0  0  0  0  0  0  0  0  0  0  0  0
    4.5806    2.6784    7.3545 C   0  0  0  0  0  0  0  0  0  0  0  0
    5.7810    2.7623    8.2936 C   0  0  0  0  0  0  0  0  0  0  0  0
    5.8319    4.0191    8.9180 O   0  0  0  0  0  0  0  0  0  0  0  0
    5.9306    5.0614    7.9650 C   0  0  0  0  0  0  0  0  0  0  0  0
    4.7572    5.0303    6.9915 C   0  0  0  0  0  0  0  0  0  0  0  0
    3.9078    6.6263    1.2206 H   0  0  0  0  0  0  0  0  0  0  0  0
    2.0353    5.7098    0.2931 H   0  0  0  0  0  0  0  0  0  0  0  0
   -0.2212    4.7426    0.6596 H   0  0  0  0  0  0  0  0  0  0  0  0
    2.9891    5.1617    4.4442 H   0  0  0  0  0  0  0  0  0  0  0  0
   -2.4317    2.9895    4.2929 H   0  0  0  0  0  0  0  0  0  0  0  0
    2.4862    3.9285    5.9591 H   0  0  0  0  0  0  0  0  0  0  0  0
    1.9119    5.0110    8.3770 H   0  0  0  0  0  0  0  0  0  0  0  0
    0.5112    1.8604   10.9694 H   0  0  0  0  0  0  0  0  0  0  0  0
   -0.1548    0.5406    8.9630 H   0  0  0  0  0  0  0  0  0  0  0  0
    0.2574    1.4292    6.6780 H   0  0  0  0  0  0  0  0  0  0  0  0
    6.2884    5.9443    4.4970 H   0  0  0  0  0  0  0  0  0  0  0  0
    4.3541    3.7418    3.4849 H   0  0  0  0  0  0  0  0  0  0  0  0
    7.5914    5.0857    2.9999 H   0  0  0  0  0  0  0  0  0  0  0  0
    8.4500    4.2443    1.6941 H   0  0  0  0  0  0  0  0  0  0  0  0
   10.8330    4.7424    3.7410 H   0  0  0  0  0  0  0  0  0  0  0  0
   10.1555    7.5902    5.1649 H   0  0  0  0  0  0  0  0  0  0  0  0
   11.5517    6.4806    5.0334 H   0  0  0  0  0  0  0  0  0  0  0  0
   10.6872    6.6862    6.5962 H   0  0  0  0  0  0  0  0  0  0  0  0
    8.3073    1.4410    2.8751 H   0  0  0  0  0  0  0  0  0  0  0  0
    9.6760    0.2091    1.1412 H   0  0  0  0  0  0  0  0  0  0  0  0
    9.7815   -0.6399    2.7098 H   0  0  0  0  0  0  0  0  0  0  0  0
   11.0741    0.4951    2.2157 H   0  0  0  0  0  0  0  0  0  0  0  0
    6.5939    3.7515    5.5799 H   0  0  0  0  0  0  0  0  0  0  0  0
    5.5875    2.3633    5.1196 H   0  0  0  0  0  0  0  0  0  0  0  0
    4.5330    1.6929    6.8659 H   0  0  0  0  0  0  0  0  0  0  0  0
    3.6726    2.7846    7.9677 H   0  0  0  0  0  0  0  0  0  0  0  0
    6.7219    2.5682    7.7388 H   0  0  0  0  0  0  0  0  0  0  0  0
    5.6957    2.0057    9.0888 H   0  0  0  0  0  0  0  0  0  0  0  0
    6.8909    5.0018    7.4209 H   0  0  0  0  0  0  0  0  0  0  0  0
    5.9242    6.0070    8.5263 H   0  0  0  0  0  0  0  0  0  0  0  0
    4.8728    5.8036    6.2205 H   0  0  0  0  0  0  0  0  0  0  0  0
    3.8340    5.2503    7.5526 H   0  0  0  0  0  0  0  0  0  0  0  0
  1  2  2  0  0  0  0
  2 22  1  0  0  0  0
  3  4  1  0  0  0  0
  3  2  1  0  0  0  0
  4  7  1  0  0  0  0
  5  6  1  0  0  0  0
  5  4  2  0  0  0  0
  6  9  2  0  0  0  0
  7  8  2  0  0  0  0
  7 46  1  0  0  0  0
  8 13  1  0  0  0  0
  9 10  1  0  0  0  0
  9  8  1  0  0  0  0
 10 11  2  0  0  0  0
 11 47  1  0  0  0  0
 11 12  1  0  0  0  0
 13 12  2  0  0  0  0
 13 14  1  0  0  0  0
 14 15  1  0  0  0  0
 15 21  2  0  0  0  0
 15 16  1  0  0  0  0
 16 17  2  0  0  0  0
 17 19  1  0  0  0  0
 17 18  1  0  0  0  0
 19 50  1  0  0  0  0
 20 51  1  0  0  0  0
 20 19  2  0  0  0  0
 21 20  1  0  0  0  0
 22 23  1  0  0  0  0
 22 53  1  0  0  0  0
 23 54  1  6  0  0  0
 23 36  1  0  0  0  0
 24 25  1  0  0  0  0
 24 23  1  0  0  0  0
 25 55  1  0  0  0  0
 25 26  1  0  0  0  0
 26 28  1  0  0  0  0
 26 27  1  1  0  0  0
 28 29  1  0  0  0  0
 29 30  1  0  0  0  0
 29 31  2  0  0  0  0
 30 60  1  0  0  0  0
 32 26  1  0  0  0  0
 33 61  1  0  0  0  0
 33 32  1  0  0  0  0
 34 64  1  0  0  0  0
 34 63  1  0  0  0  0
 34 33  1  0  0  0  0
 35 32  2  0  0  0  0
 36 65  1  0  0  0  0
 36 37  1  0  0  0  0
 37 42  1  0  0  0  0
 37 38  1  0  0  0  0
 38 68  1  0  0  0  0
 38 39  1  0  0  0  0
 39 40  1  0  0  0  0
 39 70  1  0  0  0  0
 41 72  1  0  0  0  0
 41 40  1  0  0  0  0
 42 74  1  0  0  0  0
 42 41  1  0  0  0  0
 43  3  1  0  0  0  0
 44  5  1  0  0  0  0
 45  6  1  0  0  0  0
 48 14  1  0  0  0  0
 49 16  1  0  0  0  0
 52 21  1  0  0  0  0
 56 25  1  0  0  0  0
 57 28  1  0  0  0  0
 58 30  1  0  0  0  0
 59 30  1  0  0  0  0
 62 34  1  0  0  0  0
 66 36  1  0  0  0  0
 67 38  1  0  0  0  0
 69 39  1  0  0  0  0
 71 41  1  0  0  0  0
 73 42  1  0  0  0  0
M  END
