74
-1 1
O         0.977964    3.642768   -3.000938
C         0.596021    2.496075   -2.754275
N        -0.466177    2.020528   -3.618094
C        -1.659332    1.402628   -3.331093
C        -2.591895    1.236465   -4.402441
C        -3.806174    0.629009   -4.222670
C        -2.029395    0.926418   -2.074978
C        -3.252921    0.247064   -1.893767
C        -4.178008    0.110128   -2.957153
N        -5.399800   -0.481744   -2.800038
C        -5.666718   -0.920340   -1.602540
N        -4.860410   -0.901234   -0.520401
C        -3.666411   -0.358388   -0.649251
N        -2.815992   -0.361069    0.423462
C        -3.138858   -0.868152    1.697184
C        -2.801546   -0.098222    2.816313
C        -2.997994   -0.608705    4.094981
Br        -2.465885    0.432221    5.591431
C        -3.569233   -1.861418    4.295557
C        -3.939883   -2.605046    3.174600
C        -3.725498   -2.126106    1.886566
C         1.114837    1.622382   -1.774194
C         0.995724    0.180935   -1.738009
S         2.175432   -0.760099   -3.080597
C         3.688668    0.202869   -2.868793
C         4.717025   -0.398012   -1.885634
H         4.165572   -0.783681   -1.014085
N         5.665049    0.583521   -1.422484
C         5.413438    1.372767   -0.353382
C         6.516541    2.342154    0.021135
O         4.360874    1.336490    0.263327
C         5.521016   -1.542802   -2.512725
N         4.786655   -2.624970   -2.847975
C         5.341491   -3.751573   -3.552539
O         6.728320   -1.451642   -2.690004
C         1.329092   -0.452037   -0.388921
N         0.319434   -0.212672    0.661727
C         0.361121   -1.255001    1.691203
C         1.551476   -1.109459    2.635973
O         1.539974    0.151777    3.253198
C         1.594122    1.191646    2.292988
C         0.428237    1.099768    1.314550
H        -0.488248    2.606358   -4.445300
H        -2.315548    1.615617   -5.390595
H        -4.516887    0.522743   -5.044360
H        -1.355486    1.101363   -1.237213
H        -6.652899   -1.374696   -1.441623
H        -1.825503   -0.122393    0.282130
H        -2.373901    0.894040    2.674842
H        -3.721905   -2.248070    5.303910
H        -4.393036   -3.589332    3.312882
H        -4.010763   -2.715887    1.017931
H         1.896398    2.074840   -1.156969
H         0.049377   -0.224339   -2.117221
H         3.361516    1.186980   -2.490169
H         4.157518    0.369367   -3.850476
H         6.595072    0.505350   -1.821662
H         6.192173    3.356330   -0.254546
H         7.473396    2.127652   -0.474450
H         6.648568    2.320835    1.110866
H         3.771102   -2.521695   -2.778227
H         4.985477   -3.794776   -4.594998
H         5.075250   -4.697057   -3.054996
H         6.433847   -3.647277   -3.559529
H         2.328049   -0.092130   -0.079479
H         1.400349   -1.541285   -0.519154
H         0.360593   -2.245639    1.210495
H        -0.553835   -1.186520    2.299250
H         2.503840   -1.261044    2.087026
H         1.497823   -1.864814    3.435112
H         2.560516    1.169356    1.756719
H         1.540667    2.139336    2.848292
H         0.506698    1.871414    0.537390
H        -0.506225    1.277256    1.871632
