74
-1 1
O         5.541340    7.495940    2.582266
C         5.027983    6.415732    2.867232
N         3.909557    6.042746    2.049618
C         2.688137    5.476184    2.350620
C         1.744393    5.353856    1.285604
C         0.499049    4.814867    1.476495
C         2.303244    5.027515    3.609815
C         1.048154    4.412156    3.801910
C         0.108691    4.323552    2.746887
N        -1.143040    3.801945    2.917891
C        -1.422125    3.384405    4.120468
N        -0.605571    3.358288    5.194517
C         0.617299    3.829646    5.051612
N         1.478869    3.773713    6.111725
C         1.136702    3.264128    7.381851
C         1.471922    4.022630    8.508271
C         1.259187    3.503582    9.781285
Br         1.786561    4.526533   11.291418
C         0.675465    2.254200    9.965640
C         0.307634    1.522003    8.836094
C         0.537461    2.010551    7.554480
C         5.488054    5.523823    3.881837
C         5.262279    4.131360    3.951807
S         6.559040    3.007089    2.556976
C         7.986531    4.103170    2.683019
C         9.052501    3.656029    3.708207
H         8.521971    3.266413    4.590857
N         9.898208    4.742176    4.136273
C         9.572076    5.538708    5.177754
C        10.571067    6.630477    5.505944
O         8.531308    5.420360    5.806193
C         9.966766    2.559684    3.151157
N         9.331788    1.408861    2.844760
C         9.992756    0.309203    2.192689
O        11.167493    2.744525    2.998464
C         5.575982    3.450634    5.271847
N         4.582597    3.728945    6.332307
C         4.580597    2.678374    7.354503
C         5.780998    2.762273    8.293609
O         5.831948    4.019110    8.918044
C         5.930622    5.061423    7.965018
C         4.757150    5.030299    6.991497
H         3.907837    6.626283    1.220637
H         2.035283    5.709789    0.293130
H        -0.221173    4.742594    0.659553
H         2.989115    5.161729    4.444203
H        -2.431672    2.989474    4.292853
H         2.486175    3.928511    5.959050
H         1.911928    5.011008    8.377009
H         0.511219    1.860410   10.969427
H        -0.154790    0.540584    8.963031
H         0.257410    1.429186    6.678002
H         6.288386    5.944258    4.496976
H         4.354092    3.741804    3.484892
H         7.591449    5.085701    2.999942
H         8.450020    4.244276    1.694122
H        10.832958    4.742382    3.740992
H        10.155506    7.590204    5.164901
H        11.551703    6.480622    5.033396
H        10.687175    6.686208    6.596183
H         8.307258    1.441007    2.875115
H         9.676010    0.209057    1.141189
H         9.781517   -0.639873    2.709784
H        11.074133    0.495065    2.215692
H         6.593903    3.751538    5.579918
H         5.587494    2.363260    5.119634
H         4.533000    1.692903    6.865938
H         3.672581    2.784584    7.967740
H         6.721950    2.568193    7.738815
H         5.695662    2.005735    9.088762
H         6.890852    5.001761    7.420904
H         5.924208    6.007010    8.526348
H         4.872829    5.803607    6.220505
H         3.833996    5.250307    7.552640
