-1 1
 OpenBabel05192410563D

 42 42  0  0  1  0  0  0  0  0999 V2000
    5.5286    1.2078   -2.6824 O   0  0  0  0  0  0  0  0  0  0  0  0
    4.6244    1.2043   -1.8644 C   0  0  0  0  0  0  0  0  0  0  0  0
    3.3184    0.4476   -2.1402 C   0  0  2  0  0  0  0  0  0  0  0  0
    2.5067    1.1771   -3.2189 C   0  0  0  0  0  0  0  0  0  0  0  0
    1.8875    2.8226   -2.7202 S   0  0  0  0  0  0  0  0  0  0  0  0
   -0.3229    1.4081   -1.5095 C   0  0  0  0  0  3  0  0  0  0  0  0
    0.0611    2.4671   -2.4727 C   0  0  0  0  0  0  0  0  0  0  0  0
   -0.6329    0.1315   -1.9852 C   0  0  0  0  0  0  0  0  0  0  0  0
   -1.1394   -0.8498   -1.0466 N   0  0  0  0  0  0  0  0  0  0  0  0
   -2.0517   -0.7639   -0.0253 C   0  0  0  0  0  0  0  0  0  0  0  0
   -2.3600   -1.9320    0.7094 C   0  0  0  0  0  0  0  0  0  0  0  0
   -3.2769   -1.9204    1.7512 C   0  0  0  0  0  0  0  0  0  0  0  0
   -3.9136   -0.7295    2.0946 C   0  0  0  0  0  0  0  0  0  0  0  0
   -5.1636   -0.6997    3.5326 Br  0  0  0  0  0  0  0  0  0  0  0  0
   -3.6364    0.4371    1.3858 C   0  0  0  0  0  0  0  0  0  0  0  0
   -2.7204    0.4239    0.3403 C   0  0  0  0  0  0  0  0  0  0  0  0
   -0.4489   -0.3179   -3.1316 O   0  0  0  0  0  0  0  0  0  0  0  0
    2.5072    0.2204   -0.9689 N   0  0  0  0  0  0  0  0  0  0  0  0
    2.7903   -0.7802   -0.0911 C   0  0  0  0  0  0  0  0  0  0  0  0
    1.7354   -0.9818    0.9810 C   0  0  0  0  0  0  0  0  0  0  0  0
    3.8131   -1.4412   -0.1453 O   0  0  0  0  0  0  0  0  0  0  0  0
    3.6464   -0.5198   -2.5556 H   0  0  0  0  0  0  0  0  0  0  0  0
    4.6624    1.8806   -0.6921 N   0  0  0  0  0  0  0  0  0  0  0  0
    5.7644    2.7170   -0.3100 C   0  0  0  0  0  0  0  0  0  0  0  0
    3.1475    1.3071   -4.1011 H   0  0  0  0  0  0  0  0  0  0  0  0
    1.6316    0.5662   -3.4939 H   0  0  0  0  0  0  0  0  0  0  0  0
   -1.0017   -1.7774   -1.4319 H   0  0  0  0  0  0  0  0  0  0  0  0
   -1.8572   -2.8677    0.4508 H   0  0  0  0  0  0  0  0  0  0  0  0
   -3.4900   -2.8397    2.3000 H   0  0  0  0  0  0  0  0  0  0  0  0
   -4.1438    1.3690    1.6431 H   0  0  0  0  0  0  0  0  0  0  0  0
   -2.5207    1.3350   -0.2221 H   0  0  0  0  0  0  0  0  0  0  0  0
    1.5537    0.6149   -0.9909 H   0  0  0  0  0  0  0  0  0  0  0  0
    1.9818   -1.8793    1.5603 H   0  0  0  0  0  0  0  0  0  0  0  0
    0.7380   -1.0771    0.5267 H   0  0  0  0  0  0  0  0  0  0  0  0
    1.7077   -0.1119    1.6550 H   0  0  0  0  0  0  0  0  0  0  0  0
    3.8145    1.8608   -0.1397 H   0  0  0  0  0  0  0  0  0  0  0  0
    5.4814    3.7829   -0.2899 H   0  0  0  0  0  0  0  0  0  0  0  0
    6.5571    2.5807   -1.0575 H   0  0  0  0  0  0  0  0  0  0  0  0
    6.1577    2.4388    0.6813 H   0  0  0  0  0  0  0  0  0  0  0  0
   -0.3123    3.4631   -2.1847 H   0  0  0  0  0  0  0  0  0  0  0  0
   -0.3267    2.2295   -3.4735 H   0  0  0  0  0  0  0  0  0  0  0  0
   -0.4351    1.6604   -0.4531 H   0  0  0  0  0  0  0  0  0  0  0  0
  1  2  2  0  0  0  0
  2 23  1  0  0  0  0
  3 22  1  6  0  0  0
  3  2  1  0  0  0  0
  3 18  1  0  0  0  0
  4  5  1  0  0  0  0
  4  3  1  0  0  0  0
  5  7  1  0  0  0  0
  6 42  1  0  0  0  0
  7 40  1  0  0  0  0
  7  6  1  0  0  0  0
  8  6  1  0  0  0  0
  8  9  1  0  0  0  0
  9 10  1  0  0  0  0
 10 16  2  0  0  0  0
 10 11  1  0  0  0  0
 11 12  2  0  0  0  0
 12 13  1  0  0  0  0
 12 29  1  0  0  0  0
 13 14  1  0  0  0  0
 15 30  1  0  0  0  0
 15 13  2  0  0  0  0
 16 15  1  0  0  0  0
 17  8  2  0  0  0  0
 18 19  1  0  0  0  0
 19 20  1  0  0  0  0
 20 33  1  0  0  0  0
 20 35  1  0  0  0  0
 21 19  2  0  0  0  0
 23 24  1  0  0  0  0
 23 36  1  0  0  0  0
 24 37  1  0  0  0  0
 24 39  1  0  0  0  0
 25  4  1  0  0  0  0
 26  4  1  0  0  0  0
 27  9  1  0  0  0  0
 28 11  1  0  0  0  0
 31 16  1  0  0  0  0
 32 18  1  0  0  0  0
 34 20  1  0  0  0  0
 38 24  1  0  0  0  0
 41  7  1  0  0  0  0
M  END
