42
-1 1
O         2.468355    1.227084    0.153590
C         2.263142    0.046686   -0.103265
C         2.599515   -1.063302    0.917404
C         1.688891   -2.304090    0.885875
S         2.045190   -3.420559   -0.520999
C        -1.504332   -1.786585   -1.477306
C        -0.939254   -2.990267   -1.632266
C        -1.503390   -0.819035   -2.598228
N        -1.919047    0.474858   -2.341046
C        -2.173342    1.146173   -1.129449
C        -1.367356    0.979945    0.004648
C        -1.651693    1.668792    1.180654
C        -2.716546    2.557595    1.203772
F        -2.987466    3.238338    2.328237
C        -3.513932    2.767394    0.085726
C        -3.245274    2.047189   -1.075191
O        -1.191181   -1.113111   -3.741655
N         2.736687   -0.451896    2.233923
C         1.715671    0.196605    2.847353
C         2.134926    1.151192    3.950800
O         0.542946    0.051622    2.547288
H         3.605321   -1.425192    0.646352
N         1.770917   -0.382455   -1.278979
C         1.542964    0.532610   -2.365715
H         1.846660   -2.835082    1.837304
H         0.636626   -1.976221    0.875829
H        -1.984883    1.023131   -3.191241
H        -0.504873    0.311064   -0.017269
H        -1.022741    1.499844    2.056611
H        -4.343198    3.475123    0.137751
H        -3.878252    2.177570   -1.956387
H         3.657716   -0.091014    2.441006
H         2.309355    2.136359    3.491322
H         3.055559    0.835047    4.462814
H         1.318420    1.241921    4.677510
H         1.734550   -1.408826   -1.423785
H         2.480556    1.004795   -2.708371
H         0.863198    1.343452   -2.057759
H         1.085858   -0.012833   -3.201361
H        -1.957476   -1.498260   -0.526859
H        -0.473907   -3.262718   -2.581122
H        -0.917221   -3.728197   -0.831111
