42
-1 1
O         2.760362    5.082483    0.873782
C         2.440099    3.955499    0.516693
C         2.667968    2.744572    1.455098
C         1.606152    1.631262    1.401046
S         1.767398    0.539093   -0.038914
C        -1.074040    1.843210   -0.573135
C        -0.450108    0.603209   -0.706019
C        -1.008249    2.779334   -1.654493
N        -1.623814    4.041047   -1.509537
C        -1.936735    4.804326   -0.386297
C        -1.240392    4.698837    0.829158
C        -1.568171    5.503449    1.915380
C        -2.580026    6.444625    1.786447
F        -2.895748    7.234016    2.830427
C        -3.272677    6.594365    0.592937
C        -2.956279    5.766824   -0.482419
O        -0.489654    2.560521   -2.755788
N         2.904869    3.250388    2.801084
C         1.948660    3.939550    3.487490
C         2.484245    4.838526    4.586018
O         0.758080    3.859628    3.252336
H         3.620272    2.288949    1.137551
N         1.920348    3.682648   -0.690358
C         1.678334    4.725266   -1.655710
H         1.692809    1.052210    2.332080
H         0.598763    2.078545    1.386697
H        -1.695547    4.508900   -2.404840
H        -0.418485    3.992507    0.933161
H        -1.006325    5.392178    2.844184
H        -4.061959    7.344980    0.517082
H        -3.510623    5.861040   -1.419881
H         3.843894    3.597734    2.945259
H         2.748898    5.802868    4.125390
H         3.379624    4.424674    5.072714
H         1.697374    5.005569    5.331132
H         1.712753    2.705746   -0.923759
H         2.620048    5.193865   -1.989166
H         1.048603    5.516688   -1.218209
H         1.154917    4.279832   -2.511084
H        -1.600489    2.104820    0.345524
H        -0.186733    0.283845   -1.716356
H        -0.735429   -0.198698   -0.023680
