-1 1
 OpenBabel05232413483D

 75 77  0  0  1  0  0  0  0  0999 V2000
   -2.9745   -0.2447   -0.9880 O   0  0  0  0  0  0  0  0  0  0  0  0
   -2.2412    0.6418   -0.5771 C   0  0  0  0  0  0  0  0  0  0  0  0
   -1.6913    1.7497   -1.4782 C   0  0  2  0  0  0  0  0  0  0  0  0
   -2.5932    3.0026   -1.4086 C   0  0  0  0  0  0  0  0  0  0  0  0
   -2.1803    4.2506   -2.6737 S   0  0  0  0  0  1  0  0  0  0  0  0
    0.1471    5.0678   -0.7322 C   0  0  0  0  0  0  0  0  0  0  0  0
    1.1249    4.1772   -0.5029 C   0  0  0  0  0  0  0  0  0  0  0  0
    0.9228    3.0691    0.4499 C   0  0  0  0  0  0  0  0  0  0  0  0
    1.8645    2.0796    0.3989 N   0  0  0  0  0  0  0  0  0  0  0  0
    1.7444    0.8362    1.0832 C   0  0  0  0  0  0  0  0  0  0  0  0
    1.0992   -0.2172    0.4722 C   0  0  0  0  0  0  0  0  0  0  0  0
    2.3165    0.6638    2.3770 C   0  0  0  0  0  0  0  0  0  0  0  0
    2.9780    1.6845    2.9812 O   0  0  0  0  0  0  0  0  0  0  0  0
    2.1742    2.7382    3.4931 C   0  0  0  0  0  0  0  0  0  0  0  0
    2.7428    4.0845    3.0784 C   0  0  0  0  0  0  0  0  0  0  0  0
    1.7488    5.2100    3.3502 C   0  0  0  0  0  0  0  0  0  0  0  0
    2.2818    6.5190    3.0292 N   0  0  0  0  0  0  0  0  0  0  0  0
    2.8781    7.3901    3.8883 C   0  0  0  0  0  0  0  0  0  0  0  0
    3.3292    8.4607    3.2822 N   0  0  0  0  0  0  0  0  0  0  0  0
    3.0198    8.2780    1.9615 C   0  0  0  0  0  0  0  0  0  0  0  0
    2.3728    7.0793    1.7793 C   0  0  0  0  0  0  0  0  0  0  0  0
    2.2307   -0.5583    3.0060 C   0  0  0  0  0  0  0  0  0  0  0  0
    1.5672   -1.6484    2.3954 C   0  0  0  0  0  0  0  0  0  0  0  0
    0.9814   -1.4672    1.1169 C   0  0  0  0  0  0  0  0  0  0  0  0
    0.2755   -2.6119    0.5747 C   0  0  2  0  0  3  0  0  0  0  0  0
   -0.3753   -2.5111   -0.6070 N   0  0  0  0  0  0  0  0  0  0  0  0
   -1.1072   -3.4998   -1.2869 C   0  0  0  0  0  0  0  0  0  0  0  0
   -0.8076   -4.8672   -1.2123 C   0  0  0  0  0  0  0  0  0  0  0  0
   -1.5538   -5.7590   -1.9757 C   0  0  0  0  0  0  0  0  0  0  0  0
   -1.1405   -7.6163   -1.8683 Br  0  0  0  0  0  0  0  0  0  0  0  0
   -2.5846   -5.3447   -2.8132 C   0  0  0  0  0  0  0  0  0  0  0  0
   -2.8728   -3.9809   -2.8686 C   0  0  0  0  0  0  0  0  0  0  0  0
   -2.1534   -3.0621   -2.1141 C   0  0  0  0  0  0  0  0  0  0  0  0
    0.2487   -3.7514    1.2495 N   0  0  0  0  0  0  0  0  0  0  0  0
    0.8623   -3.7948    2.4443 C   0  0  0  0  0  0  0  0  0  0  0  0
    1.5023   -2.8384    3.0624 N   0  0  0  0  0  2  0  0  0  0  0  0
   -0.0255    3.0141    1.2328 O   0  0  0  0  0  0  0  0  0  0  0  0
   -1.6031    1.3073   -2.8443 N   0  0  0  0  0  0  0  0  0  0  0  0
   -0.8269    0.2958   -3.2249 C   0  0  0  0  0  0  0  0  0  0  0  0
   -0.7878   -0.0123   -4.7030 C   0  0  0  0  0  0  0  0  0  0  0  0
   -0.1747   -0.3936   -2.4293 O   0  0  0  0  0  0  0  0  0  0  0  0
   -0.6840    2.0240   -1.1284 H   0  0  0  0  0  0  0  0  0  0  0  0
   -1.8673    0.7561    0.7185 N   0  0  0  0  0  0  0  0  0  0  0  0
   -2.2721   -0.1881    1.7262 C   0  0  0  0  0  0  0  0  0  0  0  0
   -3.6390    2.6707   -1.5230 H   0  0  0  0  0  0  0  0  0  0  0  0
   -2.4954    3.4075   -0.3890 H   0  0  0  0  0  0  0  0  0  0  0  0
    2.5815    2.1510   -0.3123 H   0  0  0  0  0  0  0  0  0  0  0  0
    0.6852   -0.0577   -0.5270 H   0  0  0  0  0  0  0  0  0  0  0  0
    2.1432    2.6511    4.5946 H   0  0  0  0  0  0  0  0  0  0  0  0
    1.1433    2.6413    3.1178 H   0  0  0  0  0  0  0  0  0  0  0  0
    2.9670    4.0511    2.0018 H   0  0  0  0  0  0  0  0  0  0  0  0
    3.6928    4.2831    3.5998 H   0  0  0  0  0  0  0  0  0  0  0  0
    1.4541    5.2219    4.4114 H   0  0  0  0  0  0  0  0  0  0  0  0
    0.8336    5.0455    2.7606 H   0  0  0  0  0  0  0  0  0  0  0  0
    2.9430    7.1817    4.9572 H   0  0  0  0  0  0  0  0  0  0  0  0
    3.2692    9.0204    1.2047 H   0  0  0  0  0  0  0  0  0  0  0  0
    1.9667    6.5799    0.9023 H   0  0  0  0  0  0  0  0  0  0  0  0
    2.6750   -0.6986    3.9913 H   0  0  0  0  0  0  0  0  0  0  0  0
   -0.3624   -1.6144   -1.1073 H   0  0  0  0  0  0  0  0  0  0  0  0
   -0.0168   -5.2158   -0.5537 H   0  0  0  0  0  0  0  0  0  0  0  0
   -3.1544   -6.0681   -3.3976 H   0  0  0  0  0  0  0  0  0  0  0  0
   -3.6900   -3.6284   -3.5018 H   0  0  0  0  0  0  0  0  0  0  0  0
   -2.4196   -2.0021   -2.1163 H   0  0  0  0  0  0  0  0  0  0  0  0
    0.8069   -4.7634    2.9576 H   0  0  0  0  0  0  0  0  0  0  0  0
   -1.9165    2.0277   -3.5076 H   0  0  0  0  0  0  0  0  0  0  0  0
   -1.2900   -0.9778   -4.8638 H   0  0  0  0  0  0  0  0  0  0  0  0
    0.2592   -0.1283   -5.0134 H   0  0  0  0  0  0  0  0  0  0  0  0
   -1.2779    0.7565   -5.3145 H   0  0  0  0  0  0  0  0  0  0  0  0
   -1.2624    1.5323    0.9889 H   0  0  0  0  0  0  0  0  0  0  0  0
   -2.6301   -1.0991    1.2284 H   0  0  0  0  0  0  0  0  0  0  0  0
   -3.0862    0.2010    2.3613 H   0  0  0  0  0  0  0  0  0  0  0  0
   -1.4172   -0.4433    2.3713 H   0  0  0  0  0  0  0  0  0  0  0  0
    2.0411    4.1835   -1.1012 H   0  0  0  0  0  0  0  0  0  0  0  0
   -0.7776    5.0422   -0.1542 H   0  0  0  0  0  0  0  0  0  0  0  0
    0.2520    5.8611   -1.4713 H   0  0  0  0  0  0  0  0  0  0  0  0
  1  2  2  0  0  0  0
  2 43  1  0  0  0  0
  3  4  1  0  0  0  0
  3 42  1  1  0  0  0
  3  2  1  0  0  0  0
  4 46  1  0  0  0  0
  5  4  1  0  0  0  0
  6  7  2  0  0  0  0
  6 74  1  0  0  0  0
  7  8  1  0  0  0  0
  8 37  2  0  0  0  0
  9  8  1  0  0  0  0
  9 10  1  0  0  0  0
 10 12  1  0  0  0  0
 11 10  2  0  0  0  0
 11 24  1  0  0  0  0
 12 13  1  0  0  0  0
 12 22  2  0  0  0  0
 13 14  1  0  0  0  0
 14 49  1  0  0  0  0
 15 16  1  0  0  0  0
 15 14  1  0  0  0  0
 15 52  1  0  0  0  0
 16 53  1  0  0  0  0
 17 16  1  0  0  0  0
 17 18  1  0  0  0  0
 18 55  1  0  0  0  0
 19 18  2  0  0  0  0
 20 19  1  0  0  0  0
 21 20  2  0  0  0  0
 21 17  1  0  0  0  0
 22 58  1  0  0  0  0
 23 22  1  0  0  0  0
 23 36  1  0  0  0  0
 24 23  2  0  0  0  0
 25 26  1  1  0  0  0
 25 24  1  0  0  0  0
 25 34  1  0  0  0  0
 27 28  1  0  0  0  0
 27 26  1  0  0  0  0
 28 60  1  0  0  0  0
 29 30  1  0  0  0  0
 29 28  2  0  0  0  0
 31 29  1  0  0  0  0
 32 31  2  0  0  0  0
 32 33  1  0  0  0  0
 33 27  2  0  0  0  0
 34 35  2  0  0  0  0
 35 64  1  0  0  0  0
 35 36  1  0  0  0  0
 38  3  1  0  0  0  0
 39 38  1  0  0  0  0
 39 41  2  0  0  0  0
 40 39  1  0  0  0  0
 43 69  1  0  0  0  0
 43 44  1  0  0  0  0
 44 71  1  0  0  0  0
 44 72  1  0  0  0  0
 45  4  1  0  0  0  0
 47  9  1  0  0  0  0
 48 11  1  0  0  0  0
 50 14  1  0  0  0  0
 51 15  1  0  0  0  0
 54 16  1  0  0  0  0
 56 20  1  0  0  0  0
 57 21  1  0  0  0  0
 59 26  1  0  0  0  0
 61 31  1  0  0  0  0
 62 32  1  0  0  0  0
 63 33  1  0  0  0  0
 65 38  1  0  0  0  0
 66 40  1  0  0  0  0
 67 40  1  0  0  0  0
 68 40  1  0  0  0  0
 70 44  1  0  0  0  0
 73  7  1  0  0  0  0
 75  6  1  0  0  0  0
M  END
