-1 1
 OpenBabel05192410563D

 75 78  0  0  1  0  0  0  0  0999 V2000
   -2.9696   -0.1738   -0.8483 O   0  0  0  0  0  0  0  0  0  0  0  0
   -2.2204    0.6906   -0.4074 C   0  0  0  0  0  0  0  0  0  0  0  0
   -1.6157    1.7752   -1.3242 C   0  0  2  0  0  0  0  0  0  0  0  0
   -2.2911    3.1298   -1.0946 C   0  0  0  0  0  0  0  0  0  0  0  0
   -1.5175    4.5308   -1.9559 S   0  0  0  0  0  0  0  0  0  0  0  0
   -0.1517    4.9584   -0.7397 C   0  0  0  0  0  0  0  0  0  0  0  0
    0.9142    3.9600   -0.5062 C   0  0  0  0  0  3  0  0  0  0  0  0
    0.8152    3.0321    0.5172 C   0  0  0  0  0  0  0  0  0  0  0  0
    1.8973    2.1274    0.6951 N   0  0  0  0  0  0  0  0  0  0  0  0
    1.7004    0.8608    1.3056 C   0  0  0  0  0  0  0  0  0  0  0  0
    1.1385   -0.1842    0.6003 C   0  0  0  0  0  0  0  0  0  0  0  0
    2.1373    0.6277    2.6486 C   0  0  0  0  0  0  0  0  0  0  0  0
    2.7102    1.6005    3.3942 O   0  0  0  0  0  0  0  0  0  0  0  0
    1.9367    2.7677    3.6507 C   0  0  0  0  0  0  0  0  0  0  0  0
    2.6485    4.0233    3.1744 C   0  0  0  0  0  0  0  0  0  0  0  0
    1.6802    5.2024    3.1332 C   0  0  0  0  0  0  0  0  0  0  0  0
    2.2834    6.4052    2.5901 N   0  0  0  0  0  0  0  0  0  0  0  0
    2.7633    7.4720    3.2832 C   0  0  0  0  0  0  0  0  0  0  0  0
    3.3032    8.3761    2.5012 N   0  0  0  0  0  0  0  0  0  0  0  0
    3.1743    7.8686    1.2358 C   0  0  0  0  0  0  0  0  0  0  0  0
    2.5469    6.6452    1.2657 C   0  0  0  0  0  0  0  0  0  0  0  0
    2.0309   -0.6328    3.2024 C   0  0  0  0  0  0  0  0  0  0  0  0
    1.4648   -1.7061    2.4809 C   0  0  0  0  0  0  0  0  0  0  0  0
    0.9839   -1.4682    1.1690 C   0  0  0  0  0  0  0  0  0  0  0  0
    0.3339   -2.5872    0.5276 C   0  0  2  0  0  3  0  0  0  0  0  0
   -0.2667   -2.4191   -0.6808 N   0  0  0  0  0  0  0  0  0  0  0  0
   -0.9700   -3.3714   -1.4319 C   0  0  0  0  0  0  0  0  0  0  0  0
   -0.5878   -4.7186   -1.5001 C   0  0  0  0  0  0  0  0  0  0  0  0
   -1.3065   -5.5795   -2.3220 C   0  0  0  0  0  0  0  0  0  0  0  0
   -0.7810   -7.4088   -2.4091 Br  0  0  0  0  0  0  0  0  0  0  0  0
   -2.3896   -5.1526   -3.0852 C   0  0  0  0  0  0  0  0  0  0  0  0
   -2.7628   -3.8116   -2.9969 C   0  0  0  0  0  0  0  0  0  0  0  0
   -2.0739   -2.9262   -2.1753 C   0  0  0  0  0  0  0  0  0  0  0  0
    0.2857   -3.7675    1.1208 N   0  0  0  0  0  0  0  0  0  0  0  0
    0.8200   -3.8713    2.3527 C   0  0  0  0  0  0  0  0  0  0  0  0
    1.3796   -2.9376    3.0711 N   0  0  0  0  0  2  0  0  0  0  0  0
   -0.1526    2.9294    1.3401 O   0  0  0  0  0  0  0  0  0  0  0  0
   -1.7082    1.3618   -2.7020 N   0  0  0  0  0  0  0  0  0  0  0  0
   -0.9622    0.3502   -3.1749 C   0  0  0  0  0  0  0  0  0  0  0  0
   -1.2179   -0.0809   -4.5999 C   0  0  0  0  0  0  0  0  0  0  0  0
   -0.1148   -0.2180   -2.4902 O   0  0  0  0  0  0  0  0  0  0  0  0
   -0.5512    1.8836   -1.0804 H   0  0  0  0  0  0  0  0  0  0  0  0
   -1.8386    0.7901    0.8735 N   0  0  0  0  0  0  0  0  0  0  0  0
   -2.2078   -0.1891    1.8623 C   0  0  0  0  0  0  0  0  0  0  0  0
   -3.3460    3.0832   -1.4123 H   0  0  0  0  0  0  0  0  0  0  0  0
   -2.2696    3.3449   -0.0180 H   0  0  0  0  0  0  0  0  0  0  0  0
    2.5492    2.1088   -0.0798 H   0  0  0  0  0  0  0  0  0  0  0  0
    0.8194    0.0145   -0.4258 H   0  0  0  0  0  0  0  0  0  0  0  0
    1.7582    2.8081    4.7407 H   0  0  0  0  0  0  0  0  0  0  0  0
    0.9640    2.6922    3.1387 H   0  0  0  0  0  0  0  0  0  0  0  0
    3.0132    3.8298    2.1564 H   0  0  0  0  0  0  0  0  0  0  0  0
    3.5179    4.2602    3.8098 H   0  0  0  0  0  0  0  0  0  0  0  0
    1.3078    5.4460    4.1411 H   0  0  0  0  0  0  0  0  0  0  0  0
    0.8094    4.9311    2.5160 H   0  0  0  0  0  0  0  0  0  0  0  0
    2.6799    7.5300    4.3695 H   0  0  0  0  0  0  0  0  0  0  0  0
    3.5336    8.4099    0.3613 H   0  0  0  0  0  0  0  0  0  0  0  0
    2.2563    5.9218    0.5024 H   0  0  0  0  0  0  0  0  0  0  0  0
    2.3840   -0.8089    4.2184 H   0  0  0  0  0  0  0  0  0  0  0  0
   -0.2666   -1.4884   -1.1026 H   0  0  0  0  0  0  0  0  0  0  0  0
    0.2477   -5.0762   -0.9036 H   0  0  0  0  0  0  0  0  0  0  0  0
   -2.9354   -5.8519   -3.7197 H   0  0  0  0  0  0  0  0  0  0  0  0
   -3.6257   -3.4553   -3.5645 H   0  0  0  0  0  0  0  0  0  0  0  0
   -2.4090   -1.8926   -2.0546 H   0  0  0  0  0  0  0  0  0  0  0  0
    0.7602   -4.8723    2.7996 H   0  0  0  0  0  0  0  0  0  0  0  0
   -2.4433    1.7478   -3.2779 H   0  0  0  0  0  0  0  0  0  0  0  0
   -1.6502   -1.0923   -4.5762 H   0  0  0  0  0  0  0  0  0  0  0  0
   -0.2548   -0.1454   -5.1229 H   0  0  0  0  0  0  0  0  0  0  0  0
   -1.8909    0.5918   -5.1485 H   0  0  0  0  0  0  0  0  0  0  0  0
   -1.1896    1.5581    1.1381 H   0  0  0  0  0  0  0  0  0  0  0  0
   -2.4423   -1.1409    1.3649 H   0  0  0  0  0  0  0  0  0  0  0  0
   -3.0917    0.1186    2.4471 H   0  0  0  0  0  0  0  0  0  0  0  0
   -1.3669   -0.3422    2.5545 H   0  0  0  0  0  0  0  0  0  0  0  0
    1.7419    3.8966   -1.2186 H   0  0  0  0  0  0  0  0  0  0  0  0
   -0.6758    5.2032    0.1964 H   0  0  0  0  0  0  0  0  0  0  0  0
    0.2318    5.8988   -1.1663 H   0  0  0  0  0  0  0  0  0  0  0  0
  1  2  2  0  0  0  0
  2 43  1  0  0  0  0
  3  4  1  0  0  0  0
  3 42  1  1  0  0  0
  3  2  1  0  0  0  0
  4 46  1  0  0  0  0
  5  4  1  0  0  0  0
  5  6  1  0  0  0  0
  6  7  1  0  0  0  0
  6 74  1  0  0  0  0
  7  8  1  0  0  0  0
  8  9  1  0  0  0  0
  8 37  2  0  0  0  0
  9 10  1  0  0  0  0
 10 12  1  0  0  0  0
 11 24  1  0  0  0  0
 11 10  2  0  0  0  0
 12 22  2  0  0  0  0
 12 13  1  0  0  0  0
 13 14  1  0  0  0  0
 14 49  1  0  0  0  0
 15 14  1  0  0  0  0
 15 52  1  0  0  0  0
 16 15  1  0  0  0  0
 16 53  1  0  0  0  0
 17 16  1  0  0  0  0
 17 18  1  0  0  0  0
 18 55  1  0  0  0  0
 19 18  2  0  0  0  0
 20 21  2  0  0  0  0
 20 19  1  0  0  0  0
 21 17  1  0  0  0  0
 22 58  1  0  0  0  0
 23 36  1  0  0  0  0
 23 22  1  0  0  0  0
 24 23  2  0  0  0  0
 25 26  1  1  0  0  0
 25 34  1  0  0  0  0
 25 24  1  0  0  0  0
 27 26  1  0  0  0  0
 28 27  1  0  0  0  0
 28 60  1  0  0  0  0
 29 28  2  0  0  0  0
 30 29  1  0  0  0  0
 31 32  2  0  0  0  0
 31 29  1  0  0  0  0
 32 33  1  0  0  0  0
 33 63  1  0  0  0  0
 33 27  2  0  0  0  0
 34 35  2  0  0  0  0
 35 64  1  0  0  0  0
 35 36  1  0  0  0  0
 38  3  1  0  0  0  0
 39 38  1  0  0  0  0
 39 41  2  0  0  0  0
 40 66  1  0  0  0  0
 40 39  1  0  0  0  0
 43 69  1  0  0  0  0
 43 44  1  0  0  0  0
 44 71  1  0  0  0  0
 44 72  1  0  0  0  0
 45  4  1  0  0  0  0
 47  9  1  0  0  0  0
 48 11  1  0  0  0  0
 50 14  1  0  0  0  0
 51 15  1  0  0  0  0
 54 16  1  0  0  0  0
 56 20  1  0  0  0  0
 57 21  1  0  0  0  0
 59 26  1  0  0  0  0
 61 31  1  0  0  0  0
 62 32  1  0  0  0  0
 65 38  1  0  0  0  0
 67 40  1  0  0  0  0
 68 40  1  0  0  0  0
 70 44  1  0  0  0  0
 73  7  1  0  0  0  0
 75  6  1  0  0  0  0
M  END
