75
-1 1
O        -2.969637   -0.173841   -0.848269
C        -2.220413    0.690611   -0.407356
C        -1.615725    1.775223   -1.324153
C        -2.291138    3.129759   -1.094622
S        -1.517465    4.530783   -1.955947
C        -0.151735    4.958408   -0.739680
C         0.914233    3.959960   -0.506227
C         0.815202    3.032065    0.517212
N         1.897261    2.127444    0.695141
C         1.700373    0.860793    1.305634
C         1.138481   -0.184191    0.600342
C         2.137280    0.627735    2.648611
O         2.710199    1.600496    3.394225
C         1.936730    2.767727    3.650659
C         2.648463    4.023324    3.174410
C         1.680187    5.202394    3.133176
N         2.283410    6.405198    2.590064
C         2.763315    7.471970    3.283217
N         3.303196    8.376119    2.501185
C         3.174301    7.868585    1.235757
C         2.546918    6.645246    1.265730
C         2.030851   -0.632808    3.202367
C         1.464834   -1.706054    2.480937
C         0.983923   -1.468220    1.169031
C         0.333866   -2.587197    0.527628
N        -0.266677   -2.419086   -0.680849
C        -0.970006   -3.371365   -1.431902
C        -0.587763   -4.718590   -1.500084
C        -1.306499   -5.579472   -2.321955
Br        -0.780956   -7.408816   -2.409133
C        -2.389615   -5.152620   -3.085224
C        -2.762780   -3.811597   -2.996904
C        -2.073932   -2.926186   -2.175315
N         0.285662   -3.767497    1.120756
C         0.820045   -3.871308    2.352736
N         1.379624   -2.937624    3.071128
O        -0.152614    2.929418    1.340143
N        -1.708244    1.361833   -2.702003
C        -0.962209    0.350179   -3.174950
C        -1.217930   -0.080874   -4.599854
O        -0.114838   -0.217980   -2.490218
H        -0.551180    1.883594   -1.080446
N        -1.838639    0.790055    0.873503
C        -2.207790   -0.189138    1.862252
H        -3.345984    3.083176   -1.412286
H        -2.269645    3.344943   -0.018002
H         2.549236    2.108835   -0.079772
H         0.819395    0.014473   -0.425823
H         1.758237    2.808134    4.740686
H         0.963987    2.692200    3.138730
H         3.013161    3.829841    2.156428
H         3.517939    4.260153    3.809804
H         1.307828    5.445990    4.141063
H         0.809443    4.931133    2.516038
H         2.679883    7.529994    4.369456
H         3.533556    8.409875    0.361310
H         2.256324    5.921815    0.502365
H         2.384007   -0.808912    4.218383
H        -0.266567   -1.488393   -1.102647
H         0.247681   -5.076226   -0.903552
H        -2.935397   -5.851944   -3.719731
H        -3.625708   -3.455272   -3.564457
H        -2.408998   -1.892603   -2.054578
H         0.760166   -4.872291    2.799606
H        -2.443291    1.747806   -3.277874
H        -1.650165   -1.092257   -4.576164
H        -0.254795   -0.145384   -5.122891
H        -1.890892    0.591834   -5.148455
H        -1.189559    1.558099    1.138093
H        -2.442325   -1.140856    1.364927
H        -3.091674    0.118589    2.447063
H        -1.366925   -0.342162    2.554534
H         1.741924    3.896559   -1.218600
H        -0.675751    5.203189    0.196411
H         0.231845    5.898799   -1.166345
