75
-1 1
O        -5.083721    2.316998   -2.423282
C        -4.320373    3.147738   -1.952970
C        -3.705169    4.273728   -2.792178
C        -4.531765    5.563292   -2.647375
S        -3.923311    6.930784   -3.684852
C        -2.080494    7.564300   -2.021157
C        -1.078527    6.646605   -1.820302
C        -1.237417    5.559503   -0.881446
N        -0.230788    4.612218   -0.878535
C        -0.337529    3.358901   -0.216621
C        -0.956814    2.300680   -0.847692
C         0.223637    3.170189    1.081819
O         0.858590    4.182018    1.723840
C         0.053635    5.278312    2.137954
C         0.660681    6.594445    1.682871
C        -0.328329    7.742747    1.861492
N         0.229262    9.025957    1.481374
C         0.773732    9.958504    2.309230
N         1.262626   10.983839    1.655237
C         1.032853   10.703704    0.335037
C         0.395915    9.493010    0.201832
C         0.160929    1.932104    1.684331
C        -0.475521    0.841356    1.049164
C        -1.059948    1.036580   -0.227795
C        -1.749305   -0.106564   -0.789867
N        -2.409101    0.010036   -1.968417
C        -3.132691   -0.972965   -2.663524
C        -2.820693   -2.339047   -2.611819
C        -3.561689   -3.225664   -3.386125
Br        -3.130801   -5.080560   -3.309277
C        -4.599774   -2.808599   -4.213164
C        -4.900554   -1.446809   -4.246000
C        -4.186750   -0.533141   -3.479935
N        -1.759192   -1.259825   -0.140520
C        -1.143186   -1.318348    1.053793
N        -0.521379   -0.364152    1.691465
O        -2.195398    5.436853   -0.100325
N        -3.625554    3.893169   -4.179447
C        -2.873502    2.868794   -4.590085
C        -2.829984    2.607575   -6.077299
O        -2.252757    2.139895   -3.811408
H        -2.689080    4.467235   -2.423182
N        -3.956540    3.185841   -0.653089
C        -4.404171    2.209654    0.304822
H        -5.579441    5.332376   -2.902940
H        -4.508155    5.847090   -1.585061
H         0.489107    4.699055   -1.584398
H        -1.361108    2.469612   -1.848475
H        -0.023003    5.246994    3.240192
H        -0.962443    5.177448    1.725145
H         0.919637    6.506822    0.617876
H         1.592051    6.806672    2.232455
H        -0.652461    7.820438    2.911375
H        -1.227597    7.552448    1.255450
H         0.773719    9.828352    3.392382
H         1.329341   11.389314   -0.457621
H         0.040948    8.923870   -0.655401
H         0.599284    1.783444    2.671040
H        -2.408335    0.916162   -2.447015
H        -2.024627   -2.689873   -1.960796
H        -5.165302   -3.528258   -4.806289
H        -5.723705   -1.092069   -4.870240
H        -4.463138    0.524113   -3.468201
H        -1.181401   -2.298868    1.545859
H        -3.923566    4.614519   -4.834204
H        -3.347030    1.656203   -6.270921
H        -1.782850    2.483367   -6.383710
H        -3.300993    3.402068   -6.670935
H        -3.331369    3.936004   -0.342310
H        -4.811756    1.346493   -0.237857
H        -5.191974    2.606665    0.967431
H        -3.559908    1.876434    0.928080
H        -0.211055    6.629703   -2.486618
H        -2.891181    7.637823   -1.295107
H        -1.909019    8.439954   -2.645248
