-1 1
 OpenBabel05232414493D

 57 58  0  0  1  0  0  0  0  0999 V2000
   -2.0916   -2.4279    0.7086 O   0  0  0  0  0  0  0  0  0  0  0  0
   -1.2546   -1.5254    0.8324 C   0  0  0  0  0  0  0  0  0  0  0  0
   -1.6218   -0.0832    0.4389 C   0  0  2  0  0  0  0  0  0  0  0  0
   -1.3024    0.9845    1.5084 C   0  0  0  0  0  0  0  0  0  0  0  0
    0.4480    1.3444    1.7995 S   0  0  0  0  0  1  0  0  0  0  0  0
    0.3738    1.0770    4.1297 C   0  0  0  0  0  3  0  0  0  0  0  0
   -0.5973    0.1631    4.5241 C   0  0  0  0  0  3  0  0  0  0  0  0
   -0.2820   -1.2326    4.5941 C   0  0  0  0  0  0  0  0  0  0  0  0
   -1.4217   -2.0849    4.5081 N   0  0  0  0  0  0  0  0  0  0  0  0
   -1.3377   -3.4560    4.3839 C   0  0  0  0  0  0  0  0  0  0  0  0
   -0.4989   -4.2379    5.2414 C   0  0  0  0  0  0  0  0  0  0  0  0
   -0.5319   -5.6023    5.1359 C   0  0  0  0  0  0  0  0  0  0  0  0
   -2.0906   -4.0082    3.4573 N   0  0  0  0  0  0  0  0  0  0  0  0
   -2.0691   -5.3438    3.3158 C   0  0  0  0  0  0  0  0  0  0  0  0
   -1.3535   -6.2167    4.1496 C   0  0  0  0  0  0  0  0  0  0  0  0
   -1.4346   -7.5724    4.0133 N   0  0  0  0  0  0  0  0  0  0  0  0
   -2.1960   -7.9955    3.0394 C   0  0  0  0  0  0  0  0  0  0  0  0
   -2.8400   -7.2617    2.1040 N   0  0  0  0  0  0  0  0  0  0  0  0
   -2.7472   -5.9475    2.1928 C   0  0  0  0  0  0  0  0  0  0  0  0
   -3.2183   -5.0972    1.2452 N   0  0  0  0  0  0  0  0  0  0  0  0
   -3.8997   -5.3701    0.0594 C   0  0  0  0  0  0  0  0  0  0  0  0
   -4.4660   -6.6181   -0.2383 C   0  0  0  0  0  0  0  0  0  0  0  0
   -5.1626   -6.7898   -1.4313 C   0  0  0  0  0  0  0  0  0  0  0  0
   -5.8716   -8.3390   -1.8079 Cl  0  0  0  0  0  0  0  0  0  0  0  0
   -5.3029   -5.7427   -2.3358 C   0  0  0  0  0  0  0  0  0  0  0  0
   -5.9728   -5.9190   -3.4766 F   0  0  0  0  0  0  0  0  0  0  0  0
   -4.7338   -4.5078   -2.0505 C   0  0  0  0  0  0  0  0  0  0  0  0
   -4.0346   -4.3188   -0.8665 C   0  0  0  0  0  0  0  0  0  0  0  0
    0.8373   -1.7319    4.6825 O   0  0  0  0  0  0  0  0  0  0  0  0
   -3.0340   -0.1040    0.1246 N   0  0  0  0  0  0  0  0  0  0  0  0
   -3.6284    0.7763   -0.7153 C   0  0  0  0  0  0  0  0  0  0  0  0
   -5.1026    0.5123   -0.9795 C   0  0  0  0  0  0  0  0  0  0  0  0
   -3.0529    1.7275   -1.2123 O   0  0  0  0  0  0  0  0  0  0  0  0
   -1.0602    0.1728   -0.4764 H   0  0  0  0  0  0  0  0  0  0  0  0
   -0.0089   -1.7097    1.2678 N   0  0  0  0  0  0  0  0  0  0  0  0
    0.5449   -2.9943    1.6257 C   0  0  0  0  0  0  0  0  0  0  0  0
   -1.8175    1.9008    1.1895 H   0  0  0  0  0  0  0  0  0  0  0  0
   -1.7469    0.6507    2.4661 H   0  0  0  0  0  0  0  0  0  0  0  0
   -2.1862   -1.7008    3.9635 H   0  0  0  0  0  0  0  0  0  0  0  0
    0.1388   -3.7271    5.9603 H   0  0  0  0  0  0  0  0  0  0  0  0
    0.0640   -6.2430    5.7888 H   0  0  0  0  0  0  0  0  0  0  0  0
   -2.3165   -9.0809    2.9377 H   0  0  0  0  0  0  0  0  0  0  0  0
   -2.9065   -4.1261    1.3715 H   0  0  0  0  0  0  0  0  0  0  0  0
   -4.3423   -7.4468    0.4552 H   0  0  0  0  0  0  0  0  0  0  0  0
   -4.8400   -3.6995   -2.7760 H   0  0  0  0  0  0  0  0  0  0  0  0
   -3.5596   -3.3601   -0.6479 H   0  0  0  0  0  0  0  0  0  0  0  0
   -3.5037   -0.9638    0.3888 H   0  0  0  0  0  0  0  0  0  0  0  0
   -5.2899    0.6280   -2.0554 H   0  0  0  0  0  0  0  0  0  0  0  0
   -5.6965    1.2768   -0.4569 H   0  0  0  0  0  0  0  0  0  0  0  0
   -5.4384   -0.4817   -0.6516 H   0  0  0  0  0  0  0  0  0  0  0  0
    0.5372   -0.8514    1.4486 H   0  0  0  0  0  0  0  0  0  0  0  0
   -0.2323   -3.7602    1.5206 H   0  0  0  0  0  0  0  0  0  0  0  0
    0.9007   -2.9721    2.6666 H   0  0  0  0  0  0  0  0  0  0  0  0
    1.3882   -3.2478    0.9632 H   0  0  0  0  0  0  0  0  0  0  0  0
    0.2028    2.1424    4.2854 H   0  0  0  0  0  0  0  0  0  0  0  0
    1.4160    0.7569    4.1894 H   0  0  0  0  0  0  0  0  0  0  0  0
   -1.6406    0.4686    4.6404 H   0  0  0  0  0  0  0  0  0  0  0  0
  1  2  2  0  0  0  0
  2 35  1  0  0  0  0
  3 34  1  6  0  0  0
  3  2  1  0  0  0  0
  3  4  1  0  0  0  0
  4  5  1  0  0  0  0
  4 38  1  0  0  0  0
  6 56  1  0  0  0  0
  6 55  1  0  0  0  0
  6  7  1  0  0  0  0
  7  8  1  0  0  0  0
  7 57  1  0  0  0  0
  8 29  2  0  0  0  0
  9  8  1  0  0  0  0
 10  9  1  0  0  0  0
 10 11  1  0  0  0  0
 11 40  1  0  0  0  0
 12 11  2  0  0  0  0
 12 41  1  0  0  0  0
 13 10  2  0  0  0  0
 14 13  1  0  0  0  0
 14 15  2  0  0  0  0
 15 12  1  0  0  0  0
 16 15  1  0  0  0  0
 17 16  2  0  0  0  0
 18 19  2  0  0  0  0
 18 17  1  0  0  0  0
 19 14  1  0  0  0  0
 20 43  1  0  0  0  0
 20 19  1  0  0  0  0
 21 20  1  0  0  0  0
 22 21  1  0  0  0  0
 22 44  1  0  0  0  0
 23 22  2  0  0  0  0
 24 23  1  0  0  0  0
 25 27  2  0  0  0  0
 25 23  1  0  0  0  0
 26 25  1  0  0  0  0
 27 28  1  0  0  0  0
 28 46  1  0  0  0  0
 28 21  2  0  0  0  0
 30 47  1  0  0  0  0
 30  3  1  0  0  0  0
 31 30  1  0  0  0  0
 32 31  1  0  0  0  0
 32 50  1  0  0  0  0
 32 49  1  0  0  0  0
 33 31  2  0  0  0  0
 35 51  1  0  0  0  0
 35 36  1  0  0  0  0
 36 53  1  0  0  0  0
 37  4  1  0  0  0  0
 39  9  1  0  0  0  0
 42 17  1  0  0  0  0
 45 27  1  0  0  0  0
 48 32  1  0  0  0  0
 52 36  1  0  0  0  0
 54 36  1  0  0  0  0
M  END
