61
-1 1
O        -0.896281    3.578403    3.626402
C        -0.905998    2.628515    2.867863
C        -0.882277    2.789631    1.330544
C        -1.401860    4.173766    0.882519
S        -3.200445    4.225632    0.588767
C        -2.452982    4.219590   -2.450813
C        -1.270017    3.623156   -2.655348
C        -1.201197    2.215657   -3.102201
N         0.037856    1.621169   -2.895962
C         0.266520    0.241400   -3.059435
C        -0.076750   -0.421597   -4.264798
C         0.187342   -1.762646   -4.418771
C         0.827813   -0.479443   -2.026295
C         1.029141   -1.868692   -2.143700
C         0.767081   -2.520330   -3.370070
N         1.070397   -3.840433   -3.559068
C         1.602888   -4.450289   -2.536072
N         1.792732   -3.974761   -1.286455
C         1.457201   -2.718776   -1.052457
N         1.466347   -2.189470    0.200025
C         1.960972   -2.705645    1.404170
C         1.851044   -1.862782    2.526362
C         2.319324   -2.250533    3.778918
C         2.165776   -1.337873    4.968906
C         2.920661   -3.509832    3.912347
C         3.035059   -4.344981    2.805980
C         2.561022   -3.963207    1.551003
O        -2.129300    1.601165   -3.595996
N        -1.630622    1.777596    0.613706
C        -1.250806    0.535960    0.353721
C        -2.182522   -0.283111   -0.507572
O        -0.184499    0.060767    0.803817
H         0.184949    2.683189    1.058415
N        -0.856406    1.345447    3.317724
C        -0.793581    1.071205    4.729012
H        -1.109350    4.891612    1.659877
H        -0.863325    4.438200   -0.045032
H         0.645636    2.094156   -2.238720
H        -0.544403    0.150116   -5.065832
H        -0.038188   -2.280702   -5.352382
H         1.062813    0.031009   -1.093195
H         1.912522   -5.492596   -2.685105
H         0.907301   -1.333675    0.324944
H         1.391048   -0.879497    2.396390
H         1.965785   -0.302812    4.658868
H         3.070413   -1.340833    5.595568
H         1.325470   -1.659467    5.605852
H         3.300164   -3.831120    4.886265
H         3.504857   -5.326046    2.915149
H         2.640037   -4.618522    0.687387
H        -2.544423    2.175652    0.300816
H        -3.207934   -0.230580   -0.113550
H        -1.843734   -1.325775   -0.523616
H        -2.206081    0.105787   -1.537146
H        -0.639275    0.611884    2.648259
H        -0.896423   -0.010170    4.893015
H        -1.607082    1.591563    5.255753
H         0.154999    1.409439    5.183355
H        -0.332013    4.141420   -2.431616
H        -3.380394    3.682832   -2.658702
H        -2.531737    5.244856   -2.092139
