-1 1
 OpenBabel05192410563D

 61 63  0  0  1  0  0  0  0  0999 V2000
   -2.0424    3.5044    3.1642 O   0  0  0  0  0  0  0  0  0  0  0  0
   -1.5170    2.5452    2.6312 C   0  0  0  0  0  0  0  0  0  0  0  0
   -0.9732    2.5784    1.1846 C   0  0  2  0  0  0  0  0  0  0  0  0
   -1.0695    3.9700    0.5547 C   0  0  0  0  0  0  0  0  0  0  0  0
   -2.6770    4.4035   -0.1543 S   0  0  0  0  0  0  0  0  0  0  0  0
   -2.2380    4.5065   -2.0526 C   0  0  0  0  0  0  0  0  0  0  0  0
   -1.0471    3.7764   -2.4817 C   0  0  0  0  0  3  0  0  0  0  0  0
   -1.1220    2.4015   -2.7036 C   0  0  0  0  0  0  0  0  0  0  0  0
    0.1517    1.7327   -2.8528 N   0  0  0  0  0  0  0  0  0  0  0  0
    0.2273    0.3465   -2.9037 C   0  0  0  0  0  0  0  0  0  0  0  0
   -0.4263   -0.3651   -3.9515 C   0  0  0  0  0  0  0  0  0  0  0  0
   -0.2895   -1.7248   -4.0771 C   0  0  0  0  0  0  0  0  0  0  0  0
    0.9311   -0.3776   -1.9559 C   0  0  0  0  0  0  0  0  0  0  0  0
    1.0072   -1.7857   -2.0268 C   0  0  0  0  0  0  0  0  0  0  0  0
    0.4635   -2.4741   -3.1356 C   0  0  0  0  0  0  0  0  0  0  0  0
    0.6567   -3.8163   -3.3106 N   0  0  0  0  0  0  0  0  0  0  0  0
    1.3456   -4.4187   -2.3811 C   0  0  0  0  0  0  0  0  0  0  0  0
    1.7681   -3.9082   -1.2033 N   0  0  0  0  0  0  0  0  0  0  0  0
    1.5368   -2.6290   -0.9820 C   0  0  0  0  0  0  0  0  0  0  0  0
    1.7265   -2.0624    0.2490 N   0  0  0  0  0  0  0  0  0  0  0  0
    2.2801   -2.6011    1.4118 C   0  0  0  0  0  0  0  0  0  0  0  0
    2.0992   -1.8531    2.5911 C   0  0  0  0  0  0  0  0  0  0  0  0
    2.6293   -2.2671    3.8093 C   0  0  0  0  0  0  0  0  0  0  0  0
    2.4037   -1.4559    5.0606 C   0  0  0  0  0  0  0  0  0  0  0  0
    3.3682   -3.4580    3.8527 C   0  0  0  0  0  0  0  0  0  0  0  0
    3.5517   -4.2008    2.6909 C   0  0  0  0  0  0  0  0  0  0  0  0
    3.0156   -3.7925    1.4697 C   0  0  0  0  0  0  0  0  0  0  0  0
   -2.1550    1.6988   -2.7270 O   0  0  0  0  0  0  0  0  0  0  0  0
   -1.6012    1.5727    0.3483 N   0  0  0  0  0  0  0  0  0  0  0  0
   -1.2211    0.2895    0.3109 C   0  0  0  0  0  0  0  0  0  0  0  0
   -2.0245   -0.6090   -0.5891 C   0  0  0  0  0  0  0  0  0  0  0  0
   -0.2938   -0.1330    1.0265 O   0  0  0  0  0  0  0  0  0  0  0  0
    0.0955    2.3088    1.2636 H   0  0  0  0  0  0  0  0  0  0  0  0
   -1.3098    1.3557    3.2565 N   0  0  0  0  0  0  0  0  0  0  0  0
   -1.7751    1.0920    4.5916 C   0  0  0  0  0  0  0  0  0  0  0  0
   -0.7822    4.7149    1.3066 H   0  0  0  0  0  0  0  0  0  0  0  0
   -0.3658    4.0000   -0.2932 H   0  0  0  0  0  0  0  0  0  0  0  0
    0.8787    2.1636   -2.2961 H   0  0  0  0  0  0  0  0  0  0  0  0
   -1.0162    0.2079   -4.6668 H   0  0  0  0  0  0  0  0  0  0  0  0
   -0.7443   -2.2671   -4.9083 H   0  0  0  0  0  0  0  0  0  0  0  0
    1.3895    0.1500   -1.1174 H   0  0  0  0  0  0  0  0  0  0  0  0
    1.5808   -5.4789   -2.5394 H   0  0  0  0  0  0  0  0  0  0  0  0
    1.1243   -1.2508    0.4270 H   0  0  0  0  0  0  0  0  0  0  0  0
    1.5208   -0.9272    2.5342 H   0  0  0  0  0  0  0  0  0  0  0  0
    1.8849   -0.5122    4.8397 H   0  0  0  0  0  0  0  0  0  0  0  0
    3.3568   -1.2120    5.5556 H   0  0  0  0  0  0  0  0  0  0  0  0
    1.7921   -2.0135    5.7880 H   0  0  0  0  0  0  0  0  0  0  0  0
    3.7951   -3.8008    4.7994 H   0  0  0  0  0  0  0  0  0  0  0  0
    4.1250   -5.1311    2.7290 H   0  0  0  0  0  0  0  0  0  0  0  0
    3.1370   -4.3883    0.5685 H   0  0  0  0  0  0  0  0  0  0  0  0
   -2.2956    1.9115   -0.3243 H   0  0  0  0  0  0  0  0  0  0  0  0
   -2.9599   -0.8685   -0.0680 H   0  0  0  0  0  0  0  0  0  0  0  0
   -1.4643   -1.5301   -0.7871 H   0  0  0  0  0  0  0  0  0  0  0  0
   -2.2669   -0.0849   -1.5277 H   0  0  0  0  0  0  0  0  0  0  0  0
   -0.8479    0.6208    2.7203 H   0  0  0  0  0  0  0  0  0  0  0  0
   -2.5277    0.2863    4.6095 H   0  0  0  0  0  0  0  0  0  0  0  0
   -2.2342    2.0111    4.9780 H   0  0  0  0  0  0  0  0  0  0  0  0
   -0.9461    0.8028    5.2585 H   0  0  0  0  0  0  0  0  0  0  0  0
   -0.0815    4.2865   -2.5384 H   0  0  0  0  0  0  0  0  0  0  0  0
   -3.1563    4.0953   -2.4931 H   0  0  0  0  0  0  0  0  0  0  0  0
   -2.1810    5.5849   -2.2491 H   0  0  0  0  0  0  0  0  0  0  0  0
  2  1  2  0  0  0  0
  2 34  1  0  0  0  0
  3 33  1  1  0  0  0
  3  2  1  0  0  0  0
  4  3  1  0  0  0  0
  4 36  1  0  0  0  0
  5  4  1  0  0  0  0
  6  5  1  0  0  0  0
  7  6  1  0  0  0  0
  8  7  1  0  0  0  0
  9  8  1  0  0  0  0
  9 38  1  0  0  0  0
 10  9  1  0  0  0  0
 10 13  1  0  0  0  0
 11 10  2  0  0  0  0
 12 11  1  0  0  0  0
 12 15  2  0  0  0  0
 13 41  1  0  0  0  0
 14 13  2  0  0  0  0
 14 19  1  0  0  0  0
 15 14  1  0  0  0  0
 16 15  1  0  0  0  0
 16 17  2  0  0  0  0
 17 18  1  0  0  0  0
 18 19  2  0  0  0  0
 19 20  1  0  0  0  0
 20 43  1  0  0  0  0
 20 21  1  0  0  0  0
 21 27  2  0  0  0  0
 21 22  1  0  0  0  0
 22 23  2  0  0  0  0
 23 25  1  0  0  0  0
 23 24  1  0  0  0  0
 24 46  1  0  0  0  0
 24 47  1  0  0  0  0
 25 48  1  0  0  0  0
 26 49  1  0  0  0  0
 26 25  2  0  0  0  0
 27 26  1  0  0  0  0
 28  8  2  0  0  0  0
 29  3  1  0  0  0  0
 30 29  1  0  0  0  0
 30 32  2  0  0  0  0
 31 52  1  0  0  0  0
 31 30  1  0  0  0  0
 34 35  1  0  0  0  0
 35 56  1  0  0  0  0
 35 57  1  0  0  0  0
 35 58  1  0  0  0  0
 37  4  1  0  0  0  0
 39 11  1  0  0  0  0
 40 12  1  0  0  0  0
 42 17  1  0  0  0  0
 44 22  1  0  0  0  0
 45 24  1  0  0  0  0
 50 27  1  0  0  0  0
 51 29  1  0  0  0  0
 53 31  1  0  0  0  0
 54 31  1  0  0  0  0
 55 34  1  0  0  0  0
 59  7  1  0  0  0  0
 60  6  1  0  0  0  0
 61  6  1  0  0  0  0
M  END
