-1 1
 OpenBabel05232414493D

 45 45  0  0  1  0  0  0  0  0999 V2000
    0.5473   -2.3030    2.8977 O   0  0  0  0  0  0  0  0  0  0  0  0
   -0.2728   -2.0695    2.0210 C   0  0  0  0  0  0  0  0  0  0  0  0
    0.0971   -1.2185    0.7944 C   0  0  2  0  0  0  0  0  0  0  0  0
   -0.8977   -0.1006    0.4333 C   0  0  0  0  0  0  0  0  0  0  0  0
   -2.4392   -0.6075   -0.3641 S   0  0  0  0  0  0  0  0  0  0  0  0
   -0.5243    0.1754   -2.6328 C   0  0  0  0  0  3  0  0  0  0  0  0
   -1.8942   -0.0936   -2.4634 C   0  0  0  0  0  0  0  0  0  0  0  0
   -0.0423    1.5064   -2.4826 C   0  0  0  0  0  0  0  0  0  0  0  0
    1.3724    1.7558   -2.4772 N   0  0  0  0  0  0  0  0  0  0  0  0
    2.4886    0.9504   -2.4477 C   0  0  0  0  0  0  0  0  0  0  0  0
    3.6287    1.4053   -1.7457 C   0  0  0  0  0  0  0  0  0  0  0  0
    4.7957    0.6599   -1.6983 C   0  0  0  0  0  0  0  0  0  0  0  0
    4.8673   -0.5810   -2.3378 C   0  0  0  0  0  0  0  0  0  0  0  0
    6.0975   -1.4248   -2.2235 C   0  0  0  0  0  0  0  0  0  0  0  0
    7.2062   -0.6839   -2.0529 F   0  0  0  0  0  0  0  0  0  0  0  0
    6.0529   -2.2703   -1.1768 F   0  0  0  0  0  0  0  0  0  0  0  0
    6.2982   -2.1847   -3.3095 F   0  0  0  0  0  0  0  0  0  0  0  0
    3.7518   -1.0425   -3.0387 C   0  0  0  0  0  0  0  0  0  0  0  0
    2.5901   -0.2876   -3.1125 C   0  0  0  0  0  0  0  0  0  0  0  0
   -0.7272    2.5168   -2.3141 O   0  0  0  0  0  0  0  0  0  0  0  0
    0.3346   -2.0703   -0.3511 N   0  0  0  0  0  0  0  0  0  0  0  0
    1.5155   -2.5718   -0.8018 C   0  0  0  0  0  0  0  0  0  0  0  0
    2.7416   -2.2739    0.0356 C   0  0  0  0  0  0  0  0  0  0  0  0
    1.5760   -3.2116   -1.8401 O   0  0  0  0  0  0  0  0  0  0  0  0
    1.0385   -0.7318    1.0824 H   0  0  0  0  0  0  0  0  0  0  0  0
   -1.5325   -2.5644    2.0198 N   0  0  0  0  0  0  0  0  0  0  0  0
   -2.0297   -3.4301    3.0536 C   0  0  0  0  0  0  0  0  0  0  0  0
   -1.1156    0.5018    1.3271 H   0  0  0  0  0  0  0  0  0  0  0  0
   -0.3799    0.5475   -0.2949 H   0  0  0  0  0  0  0  0  0  0  0  0
    1.5158    2.7072   -2.1581 H   0  0  0  0  0  0  0  0  0  0  0  0
    3.5792    2.3653   -1.2252 H   0  0  0  0  0  0  0  0  0  0  0  0
    5.6581    1.0413   -1.1481 H   0  0  0  0  0  0  0  0  0  0  0  0
    3.7775   -2.0142   -3.5336 H   0  0  0  0  0  0  0  0  0  0  0  0
    1.7559   -0.6599   -3.7010 H   0  0  0  0  0  0  0  0  0  0  0  0
   -0.4739   -2.2218   -0.9518 H   0  0  0  0  0  0  0  0  0  0  0  0
    3.0062   -1.2086   -0.0676 H   0  0  0  0  0  0  0  0  0  0  0  0
    3.5761   -2.8708   -0.3471 H   0  0  0  0  0  0  0  0  0  0  0  0
    2.5691   -2.4816    1.1016 H   0  0  0  0  0  0  0  0  0  0  0  0
   -2.1429   -2.2816    1.2491 H   0  0  0  0  0  0  0  0  0  0  0  0
   -2.8969   -2.9872    3.5704 H   0  0  0  0  0  0  0  0  0  0  0  0
   -1.2230   -3.5826    3.7824 H   0  0  0  0  0  0  0  0  0  0  0  0
   -2.3322   -4.4105    2.6493 H   0  0  0  0  0  0  0  0  0  0  0  0
   -2.2858   -1.0255   -2.8779 H   0  0  0  0  0  0  0  0  0  0  0  0
   -2.5660    0.7630   -2.5548 H   0  0  0  0  0  0  0  0  0  0  0  0
    0.1648   -0.6606   -2.7108 H   0  0  0  0  0  0  0  0  0  0  0  0
  2  1  2  0  0  0  0
  3 25  1  1  0  0  0
  3  2  1  0  0  0  0
  4  3  1  0  0  0  0
  4 28  1  0  0  0  0
  5  4  1  0  0  0  0
  6  8  1  0  0  0  0
  6  7  1  0  0  0  0
  7  5  1  0  0  0  0
  8  9  1  0  0  0  0
  8 20  2  0  0  0  0
  9 10  1  0  0  0  0
  9 30  1  0  0  0  0
 10 11  1  0  0  0  0
 11 12  2  0  0  0  0
 11 31  1  0  0  0  0
 12 32  1  0  0  0  0
 13 14  1  0  0  0  0
 13 12  1  0  0  0  0
 14 15  1  0  0  0  0
 14 16  1  0  0  0  0
 17 14  1  0  0  0  0
 18 13  2  0  0  0  0
 19 18  1  0  0  0  0
 19 10  2  0  0  0  0
 21  3  1  0  0  0  0
 22 21  1  0  0  0  0
 22 23  1  0  0  0  0
 23 38  1  0  0  0  0
 24 22  2  0  0  0  0
 26  2  1  0  0  0  0
 26 27  1  0  0  0  0
 27 40  1  0  0  0  0
 27 41  1  0  0  0  0
 29  4  1  0  0  0  0
 33 18  1  0  0  0  0
 34 19  1  0  0  0  0
 35 21  1  0  0  0  0
 36 23  1  0  0  0  0
 37 23  1  0  0  0  0
 39 26  1  0  0  0  0
 42 27  1  0  0  0  0
 43  7  1  0  0  0  0
 44  7  1  0  0  0  0
 45  6  1  0  0  0  0
M  END
