45
-1 1
O         0.547261   -2.303031    2.897700
C        -0.272808   -2.069539    2.020984
C         0.097070   -1.218516    0.794392
C        -0.897693   -0.100638    0.433339
S        -2.439215   -0.607523   -0.364105
C        -0.524255    0.175382   -2.632751
C        -1.894181   -0.093650   -2.463359
C        -0.042255    1.506378   -2.482593
N         1.372412    1.755811   -2.477195
C         2.488595    0.950366   -2.447709
C         3.628702    1.405347   -1.745733
C         4.795710    0.659889   -1.698335
C         4.867291   -0.580962   -2.337769
C         6.097453   -1.424793   -2.223459
F         7.206227   -0.683887   -2.052852
F         6.052915   -2.270310   -1.176776
F         6.298157   -2.184665   -3.309490
C         3.751846   -1.042538   -3.038712
C         2.590146   -0.287574   -3.112521
O        -0.727228    2.516818   -2.314120
N         0.334593   -2.070304   -0.351064
C         1.515546   -2.571768   -0.801830
C         2.741622   -2.273924    0.035590
O         1.576014   -3.211646   -1.840148
H         1.038450   -0.731798    1.082378
N        -1.532497   -2.564384    2.019772
C        -2.029717   -3.430138    3.053605
H        -1.115588    0.501819    1.327072
H        -0.379894    0.547469   -0.294863
H         1.515810    2.707207   -2.158100
H         3.579231    2.365307   -1.225187
H         5.658100    1.041263   -1.148081
H         3.777499   -2.014223   -3.533557
H         1.755928   -0.659920   -3.701050
H        -0.473911   -2.221761   -0.951849
H         3.006161   -1.208552   -0.067608
H         3.576131   -2.870764   -0.347118
H         2.569052   -2.481579    1.101606
H        -2.142852   -2.281593    1.249146
H        -2.896945   -2.987176    3.570395
H        -1.222963   -3.582578    3.782445
H        -2.332249   -4.410454    2.649261
H        -2.285766   -1.025488   -2.877856
H        -2.566041    0.762983   -2.554777
H         0.164818   -0.660618   -2.710814
