-1 1
 OpenBabel05232414493D

 83 85  0  0  1  0  0  0  0  0999 V2000
   -3.9067    0.2611  -15.9543 O   0  0  0  0  0  0  0  0  0  0  0  0
   -3.8788    0.0286  -14.7606 C   0  0  0  0  0  0  0  0  0  0  0  0
   -3.2720   -1.2831  -14.2142 C   0  0  2  0  0  0  0  0  0  0  0  0
   -2.7817   -1.2404  -12.7656 C   0  0  0  0  0  0  0  0  0  0  0  0
   -1.4100   -0.0635  -12.5163 S   0  0  0  0  0  1  0  0  0  0  0  0
   -0.5646   -0.9222  -10.3953 C   0  0  0  0  0  3  0  0  0  0  0  0
   -1.2225   -0.6205   -9.2178 C   0  0  0  0  0  3  0  0  0  0  0  0
   -2.2866   -1.4671   -8.7541 C   0  0  0  0  0  0  0  0  0  0  0  0
   -2.6252   -1.3899   -7.3586 N   0  0  0  0  0  0  0  0  0  0  0  0
   -3.7655   -2.0723   -6.9589 C   0  0  0  0  0  0  0  0  0  0  0  0
   -3.7029   -2.8798   -5.9334 N   0  0  0  0  0  0  0  0  0  0  0  0
   -5.0173   -1.8283   -7.6543 C   0  0  0  0  0  0  0  0  0  0  0  0
   -5.0526   -0.7831   -8.4853 O   0  0  0  0  0  0  0  0  0  0  0  0
   -5.5605   -0.9183   -9.8062 C   0  0  0  0  0  0  0  0  0  0  0  0
   -5.6036    0.4653  -10.4242 C   0  0  0  0  0  0  0  0  0  0  0  0
   -4.2811    1.2239  -10.3034 C   0  0  0  0  0  0  0  0  0  0  0  0
   -4.3608    2.5416  -10.9291 N   0  0  0  0  0  0  0  0  0  0  0  0
   -5.0278    3.5505  -10.1184 C   0  0  0  0  0  0  0  0  0  0  0  0
   -4.1234    4.1072   -9.0176 C   0  0  0  0  0  0  0  0  0  0  0  0
   -2.9216    4.6065   -9.5469 O   0  0  0  0  0  0  0  0  0  0  0  0
   -2.2261    3.6220  -10.2863 C   0  0  0  0  0  0  0  0  0  0  0  0
   -3.0875    3.0680  -11.4131 C   0  0  0  0  0  0  0  0  0  0  0  0
   -6.1049   -2.5984   -7.3405 C   0  0  0  0  0  0  0  0  0  0  0  0
   -6.0157   -3.5399   -6.2787 C   0  0  0  0  0  0  0  0  0  0  0  0
   -4.7962   -3.5886   -5.5687 C   0  0  0  0  0  0  0  0  0  0  0  0
   -4.7557   -4.5083   -4.4727 C   0  0  2  0  0  3  0  0  0  0  0  0
   -3.6457   -4.6980   -3.6869 N   0  0  0  0  0  0  0  0  0  0  0  0
   -2.6215   -3.7931   -3.3599 C   0  0  0  0  0  0  0  0  0  0  0  0
   -2.8850   -2.4359   -3.1414 C   0  0  0  0  0  0  0  0  0  0  0  0
   -1.8542   -1.5755   -2.7915 C   0  0  0  0  0  0  0  0  0  0  0  0
   -2.1663    0.1173   -2.5489 Cl  0  0  0  0  0  0  0  0  0  0  0  0
   -0.5563   -2.0620   -2.6288 C   0  0  0  0  0  0  0  0  0  0  0  0
    0.4288   -1.2332   -2.2918 F   0  0  0  0  0  0  0  0  0  0  0  0
   -0.2911   -3.4096   -2.8168 C   0  0  0  0  0  0  0  0  0  0  0  0
   -1.3199   -4.2713   -3.1885 C   0  0  0  0  0  0  0  0  0  0  0  0
   -5.7868   -5.2958   -4.2072 N   0  0  0  0  0  0  0  0  0  0  0  0
   -6.8841   -5.1655   -4.9719 C   0  0  0  0  0  0  0  0  0  0  0  0
   -7.0728   -4.3329   -5.9652 N   0  0  0  0  0  2  0  0  0  0  0  0
   -1.5920   -1.2108   -6.3530 C   0  0  0  0  0  0  0  0  0  0  0  0
   -2.8933   -2.2757   -9.4508 O   0  0  0  0  0  0  0  0  0  0  0  0
   -2.2222   -1.7212  -15.0939 N   0  0  0  0  0  0  0  0  0  0  0  0
   -2.4174   -2.5961  -16.1099 C   0  0  0  0  0  0  0  0  0  0  0  0
   -1.2345   -2.7404  -17.0520 C   0  0  0  0  0  0  0  0  0  0  0  0
   -3.4495   -3.2199  -16.2800 O   0  0  0  0  0  0  0  0  0  0  0  0
   -4.0781   -2.0314  -14.3043 H   0  0  0  0  0  0  0  0  0  0  0  0
   -4.4537    0.8591  -13.8481 N   0  0  0  0  0  0  0  0  0  0  0  0
   -4.9794    2.1379  -14.2583 C   0  0  0  0  0  0  0  0  0  0  0  0
   -3.6270   -1.0114  -12.0982 H   0  0  0  0  0  0  0  0  0  0  0  0
   -2.4595   -2.2537  -12.4825 H   0  0  0  0  0  0  0  0  0  0  0  0
   -6.5715   -1.3612   -9.7923 H   0  0  0  0  0  0  0  0  0  0  0  0
   -4.8813   -1.5912  -10.3531 H   0  0  0  0  0  0  0  0  0  0  0  0
   -6.4110    1.0447   -9.9455 H   0  0  0  0  0  0  0  0  0  0  0  0
   -5.8756    0.3623  -11.4872 H   0  0  0  0  0  0  0  0  0  0  0  0
   -3.4709    0.6584  -10.7932 H   0  0  0  0  0  0  0  0  0  0  0  0
   -3.9916    1.2638   -9.2366 H   0  0  0  0  0  0  0  0  0  0  0  0
   -5.9477    3.1363   -9.6768 H   0  0  0  0  0  0  0  0  0  0  0  0
   -5.3294    4.3840  -10.7778 H   0  0  0  0  0  0  0  0  0  0  0  0
   -3.9120    3.3175   -8.2670 H   0  0  0  0  0  0  0  0  0  0  0  0
   -4.6184    4.9391   -8.4928 H   0  0  0  0  0  0  0  0  0  0  0  0
   -1.9058    2.7960   -9.6186 H   0  0  0  0  0  0  0  0  0  0  0  0
   -1.3203    4.1010  -10.6856 H   0  0  0  0  0  0  0  0  0  0  0  0
   -2.5408    2.2768  -11.9512 H   0  0  0  0  0  0  0  0  0  0  0  0
   -3.3048    3.8839  -12.1260 H   0  0  0  0  0  0  0  0  0  0  0  0
   -7.0633   -2.4740   -7.8456 H   0  0  0  0  0  0  0  0  0  0  0  0
   -3.7369   -5.5148   -3.0930 H   0  0  0  0  0  0  0  0  0  0  0  0
   -3.8948   -2.0437   -3.2582 H   0  0  0  0  0  0  0  0  0  0  0  0
    0.7317   -3.7667   -2.6887 H   0  0  0  0  0  0  0  0  0  0  0  0
   -1.1104   -5.3265   -3.3715 H   0  0  0  0  0  0  0  0  0  0  0  0
   -7.7155   -5.8349   -4.7195 H   0  0  0  0  0  0  0  0  0  0  0  0
   -1.9582   -0.5673   -5.5382 H   0  0  0  0  0  0  0  0  0  0  0  0
   -0.7214   -0.7378   -6.8159 H   0  0  0  0  0  0  0  0  0  0  0  0
   -1.2820   -2.1739   -5.9153 H   0  0  0  0  0  0  0  0  0  0  0  0
   -1.3500   -1.2097  -15.0075 H   0  0  0  0  0  0  0  0  0  0  0  0
   -1.3753   -2.0430  -17.8918 H   0  0  0  0  0  0  0  0  0  0  0  0
   -1.2201   -3.7624  -17.4510 H   0  0  0  0  0  0  0  0  0  0  0  0
   -0.2732   -2.5132  -16.5692 H   0  0  0  0  0  0  0  0  0  0  0  0
   -4.1442    0.7959  -12.8863 H   0  0  0  0  0  0  0  0  0  0  0  0
   -4.1999    2.7766  -14.7086 H   0  0  0  0  0  0  0  0  0  0  0  0
   -5.3822    2.6370  -13.3670 H   0  0  0  0  0  0  0  0  0  0  0  0
   -5.7732    2.0051  -15.0078 H   0  0  0  0  0  0  0  0  0  0  0  0
   -0.6816   -1.9223  -10.8158 H   0  0  0  0  0  0  0  0  0  0  0  0
    0.3733   -0.4178  -10.6271 H   0  0  0  0  0  0  0  0  0  0  0  0
   -0.9533    0.2724   -8.6497 H   0  0  0  0  0  0  0  0  0  0  0  0
  1  2  2  0  0  0  0
  2  3  1  0  0  0  0
  2 46  1  0  0  0  0
  3 45  1  6  0  0  0
  3  4  1  0  0  0  0
  4  5  1  0  0  0  0
  4 49  1  0  0  0  0
  4 48  1  0  0  0  0
  6  7  1  0  0  0  0
  7  8  1  0  0  0  0
  7 83  1  0  0  0  0
  8  9  1  0  0  0  0
  9 10  1  0  0  0  0
  9 39  1  0  0  0  0
 10 11  1  0  0  0  0
 11 25  2  0  0  0  0
 12 23  1  0  0  0  0
 12 10  2  0  0  0  0
 13 12  1  0  0  0  0
 14 50  1  0  0  0  0
 14 13  1  0  0  0  0
 15 16  1  0  0  0  0
 15 52  1  0  0  0  0
 15 14  1  0  0  0  0
 16 55  1  0  0  0  0
 17 16  1  0  0  0  0
 17 18  1  0  0  0  0
 18 56  1  0  0  0  0
 18 19  1  0  0  0  0
 19 59  1  0  0  0  0
 19 58  1  0  0  0  0
 20 19  1  0  0  0  0
 21 60  1  0  0  0  0
 21 20  1  0  0  0  0
 22 17  1  0  0  0  0
 22 21  1  0  0  0  0
 23 24  2  0  0  0  0
 24 38  1  0  0  0  0
 24 25  1  0  0  0  0
 25 26  1  0  0  0  0
 26 36  1  0  0  0  0
 26 27  1  6  0  0  0
 27 28  1  0  0  0  0
 27 65  1  0  0  0  0
 28 35  2  0  0  0  0
 28 29  1  0  0  0  0
 29 30  2  0  0  0  0
 30 32  1  0  0  0  0
 30 31  1  0  0  0  0
 32 33  1  0  0  0  0
 34 67  1  0  0  0  0
 34 32  2  0  0  0  0
 35 34  1  0  0  0  0
 37 69  1  0  0  0  0
 37 36  2  0  0  0  0
 38 37  1  0  0  0  0
 39 72  1  0  0  0  0
 39 70  1  0  0  0  0
 40  8  2  0  0  0  0
 41 73  1  0  0  0  0
 41  3  1  0  0  0  0
 42 41  1  0  0  0  0
 43 76  1  0  0  0  0
 43 42  1  0  0  0  0
 44 42  2  0  0  0  0
 46 77  1  0  0  0  0
 47 46  1  0  0  0  0
 47 79  1  0  0  0  0
 51 14  1  0  0  0  0
 53 15  1  0  0  0  0
 54 16  1  0  0  0  0
 57 18  1  0  0  0  0
 61 21  1  0  0  0  0
 62 22  1  0  0  0  0
 63 22  1  0  0  0  0
 64 23  1  0  0  0  0
 66 29  1  0  0  0  0
 68 35  1  0  0  0  0
 71 39  1  0  0  0  0
 74 43  1  0  0  0  0
 75 43  1  0  0  0  0
 78 47  1  0  0  0  0
 80 47  1  0  0  0  0
 81  6  1  0  0  0  0
 82  6  1  0  0  0  0
M  END
