83
-1 1
O        -2.119976   -0.081685   -4.362711
C        -1.094374    0.258537   -4.938073
C         0.120492   -0.674865   -5.041533
C         1.199731   -0.304127   -3.998275
S         2.188397    1.179265   -4.441795
C         3.068384    0.799729   -1.140679
C         2.270204    0.910880   -0.073944
C         1.294404   -0.165859    0.235197
N         0.707593   -0.151452    1.512009
C        -0.395508   -0.999536    1.693875
N        -0.397907   -1.829421    2.692521
C        -1.512139   -0.880467    0.772779
O        -1.465336    0.165881   -0.031015
C        -2.240738    0.251085   -1.225526
C        -2.212572    1.690917   -1.693099
C        -0.802845    2.235275   -1.911968
N        -0.813285    3.660492   -2.224690
C        -1.000253    4.526218   -1.070625
C         0.278450    4.693682   -0.248172
O         1.338990    5.155221   -1.043073
C         1.582484    4.291671   -2.140502
C         0.336414    4.118470   -2.998675
C        -2.518359   -1.813772    0.854952
C        -2.498281   -2.761813    1.912545
C        -1.439580   -2.682366    2.845295
C        -1.483491   -3.618084    3.924784
N        -0.533330   -3.672025    4.914470
C         0.264611   -2.635710    5.429662
C        -0.238246   -1.339481    5.592993
C         0.568509   -0.341851    6.121307
Cl        -0.035563    1.279064    6.292833
C         1.873493   -0.632101    6.522299
F         2.643194    0.327017    7.029662
C         2.370016   -1.920031    6.391949
C         1.570103   -2.917261    5.839538
N        -2.428558   -4.543393    3.982693
C        -3.364795   -4.534344    3.018008
N        -3.475086   -3.700867    2.014015
C         1.436572    0.252981    2.701717
O         0.981227   -1.015930   -0.571045
N         0.739873   -0.665715   -6.345203
C         0.141846   -1.128710   -7.463458
C         0.903042   -0.852893   -8.751600
O        -0.931449   -1.708172   -7.468865
H        -0.281977   -1.676112   -4.826697
N        -0.918092    1.481416   -5.493692
C        -1.919271    2.513045   -5.387978
H         0.713749   -0.189391   -3.017160
H         1.867409   -1.175789   -3.902028
H        -3.280410   -0.057720   -1.028464
H        -1.812329   -0.424305   -1.982761
H        -2.747084    2.309527   -0.952200
H        -2.772895    1.736083   -2.637296
H        -0.331585    1.710661   -2.755159
H        -0.178548    1.996151   -1.029604
H        -1.809945    4.138826   -0.432330
H        -1.315427    5.522953   -1.428486
H         0.546052    3.727221    0.228950
H         0.128104    5.430219    0.557001
H         1.921584    3.299961   -1.786731
H         2.401543    4.734289   -2.724981
H         0.560651    3.394881   -3.796790
H         0.077055    5.090323   -3.457666
H        -3.357734   -1.835008    0.161482
H        -0.623110   -4.506209    5.484111
H        -1.258346   -1.101045    5.292418
H         3.394051   -2.122684    6.708883
H         1.967782   -3.924080    5.701735
H        -4.128435   -5.317494    3.097945
H         0.794651    0.860364    3.357577
H         2.309508    0.848313    2.415528
H         1.781106   -0.624456    3.271137
H         1.578165   -0.078184   -6.384784
H         0.446708    0.018217   -9.246498
H         0.790455   -1.716082   -9.420631
H         1.969120   -0.642884   -8.586906
H         0.062554    1.747950   -5.626523
H        -1.806554    3.225271   -6.218815
H        -1.860835    3.069861   -4.435498
H        -2.912745    2.048546   -5.452756
H         3.038522   -0.089300   -1.773301
H         3.757262    1.593988   -1.431060
H         2.279969    1.814123    0.541871
