83
-1 1
O        -3.906665    0.261144  -15.954265
C        -3.878775    0.028584  -14.760561
C        -3.271954   -1.283148  -14.214236
C        -2.781734   -1.240446  -12.765583
S        -1.410019   -0.063453  -12.516302
C        -0.564609   -0.922152  -10.395318
C        -1.222520   -0.620483   -9.217848
C        -2.286618   -1.467150   -8.754086
N        -2.625225   -1.389930   -7.358632
C        -3.765538   -2.072302   -6.958947
N        -3.702912   -2.879838   -5.933450
C        -5.017271   -1.828269   -7.654290
O        -5.052567   -0.783057   -8.485307
C        -5.560494   -0.918256   -9.806157
C        -5.603618    0.465324  -10.424243
C        -4.281101    1.223942  -10.303373
N        -4.360762    2.541561  -10.929102
C        -5.027829    3.550547  -10.118366
C        -4.123411    4.107207   -9.017559
O        -2.921583    4.606523   -9.546898
C        -2.226115    3.622019  -10.286263
C        -3.087510    3.067965  -11.413150
C        -6.104934   -2.598367   -7.340544
C        -6.015705   -3.539925   -6.278720
C        -4.796225   -3.588566   -5.568728
C        -4.755745   -4.508312   -4.472658
N        -3.645702   -4.698033   -3.686885
C        -2.621459   -3.793133   -3.359870
C        -2.884966   -2.435922   -3.141445
C        -1.854188   -1.575541   -2.791528
Cl        -2.166321    0.117257   -2.548940
C        -0.556280   -2.061990   -2.628836
F         0.428774   -1.233206   -2.291840
C        -0.291143   -3.409633   -2.816811
C        -1.319913   -4.271283   -3.188473
N        -5.786814   -5.295813   -4.207170
C        -6.884094   -5.165532   -4.971857
N        -7.072798   -4.332892   -5.965188
C        -1.592016   -1.210812   -6.352962
O        -2.893250   -2.275671   -9.450781
N        -2.222244   -1.721246  -15.093941
C        -2.417375   -2.596053  -16.109900
C        -1.234492   -2.740381  -17.051984
O        -3.449543   -3.219887  -16.280040
H        -4.078118   -2.031360  -14.304262
N        -4.453664    0.859124  -13.848085
C        -4.979375    2.137940  -14.258253
H        -3.626992   -1.011389  -12.098248
H        -2.459524   -2.253671  -12.482486
H        -6.571545   -1.361192   -9.792297
H        -4.881323   -1.591220  -10.353134
H        -6.411007    1.044666   -9.945502
H        -5.875612    0.362278  -11.487203
H        -3.470873    0.658391  -10.793158
H        -3.991612    1.263794   -9.236570
H        -5.947710    3.136318   -9.676774
H        -5.329402    4.383994  -10.777793
H        -3.911981    3.317452   -8.266961
H        -4.618443    4.939146   -8.492848
H        -1.905814    2.795951   -9.618570
H        -1.320284    4.100983  -10.685579
H        -2.540810    2.276762  -11.951199
H        -3.304771    3.883874  -12.126032
H        -7.063334   -2.474011   -7.845600
H        -3.736852   -5.514829   -3.092998
H        -3.894804   -2.043667   -3.258244
H         0.731718   -3.766651   -2.688717
H        -1.110367   -5.326514   -3.371531
H        -7.715494   -5.834903   -4.719486
H        -1.958166   -0.567291   -5.538212
H        -0.721383   -0.737782   -6.815937
H        -1.281987   -2.173869   -5.915263
H        -1.350018   -1.209747  -15.007450
H        -1.375297   -2.042980  -17.891818
H        -1.220057   -3.762383  -17.451050
H        -0.273184   -2.513248  -16.569160
H        -4.144247    0.795910  -12.886268
H        -4.199917    2.776609  -14.708605
H        -5.382235    2.637047  -13.366996
H        -5.773212    2.005091  -15.007756
H        -0.681559   -1.922332  -10.815753
H         0.373289   -0.417791  -10.627066
H        -0.953300    0.272442   -8.649655
