-1 1
 OpenBabel05192410563D

 79 81  0  0  1  0  0  0  0  0999 V2000
   -2.8280    2.0927   -3.1803 O   0  0  0  0  0  0  0  0  0  0  0  0
   -1.6304    1.9787   -2.9737 C   0  0  0  0  0  0  0  0  0  0  0  0
   -0.7452    3.2293   -2.8024 C   0  0  2  0  0  0  0  0  0  0  0  0
    0.0022    3.4389   -4.1337 C   0  0  0  0  0  0  0  0  0  0  0  0
    1.3515    4.6611   -4.1400 S   0  0  0  0  0  0  0  0  0  0  0  0
    2.8473    3.5174   -4.0201 C   0  0  0  0  0  0  0  0  0  0  0  0
    3.1477    2.8651   -2.7250 C   0  0  0  0  0  3  0  0  0  0  0  0
    2.6603    1.5977   -2.4218 C   0  0  0  0  0  0  0  0  0  0  0  0
    3.2015    1.0040   -1.2376 N   0  0  0  0  0  0  0  0  0  0  0  0
    2.6104    0.0735   -0.4212 C   0  0  0  0  0  0  0  0  0  0  0  0
    1.2496   -0.1871   -0.3551 C   0  0  0  0  0  0  0  0  0  0  0  0
    3.4738   -0.6413    0.4800 C   0  0  0  0  0  0  0  0  0  0  0  0
    4.7813   -0.2831    0.4027 O   0  0  0  0  0  0  0  0  0  0  0  0
    5.6792   -0.7710    1.3738 C   0  0  0  0  0  0  0  0  0  0  0  0
    5.4333   -0.1658    2.7535 C   0  0  0  0  0  0  0  0  0  0  0  0
    6.0375   -0.9915    3.8819 C   0  0  0  0  0  0  0  0  0  0  0  0
    5.7383   -0.4584    5.2911 C   0  0  0  0  0  0  0  0  0  0  0  0
    4.3503   -0.3477    5.6860 N   0  0  0  0  0  0  0  0  0  0  0  0
    3.6399    0.8659    5.3664 C   0  0  0  0  0  0  0  0  0  0  0  0
    3.5585   -1.5448    5.5485 C   0  0  0  0  0  0  0  0  0  0  0  0
    2.9785   -1.6013    1.3300 C   0  0  0  0  0  0  0  0  0  0  0  0
    1.5908   -1.8770    1.3846 C   0  0  0  0  0  0  0  0  0  0  0  0
    0.7206   -1.1256    0.5625 C   0  0  0  0  0  0  0  0  0  0  0  0
   -0.6864   -1.3873    0.7605 C   0  0  2  0  0  3  0  0  0  0  0  0
   -1.6088   -0.5895    0.1441 N   0  0  0  0  0  0  0  0  0  0  0  0
   -2.9974   -0.7256    0.0518 C   0  0  0  0  0  0  0  0  0  0  0  0
   -3.7043   -1.8745    0.4412 C   0  0  0  0  0  0  0  0  0  0  0  0
   -5.0798   -1.9150    0.2325 C   0  0  0  0  0  0  0  0  0  0  0  0
   -6.0276   -3.4837    0.7648 Br  0  0  0  0  0  0  0  0  0  0  0  0
   -5.7878   -0.8670   -0.3442 C   0  0  0  0  0  0  0  0  0  0  0  0
   -5.0691    0.2707   -0.7161 C   0  0  0  0  0  0  0  0  0  0  0  0
   -3.6989    0.3519   -0.5179 C   0  0  0  0  0  0  0  0  0  0  0  0
   -1.0802   -2.3770    1.5431 N   0  0  0  0  0  0  0  0  0  0  0  0
   -0.1411   -3.0624    2.2215 C   0  0  0  0  0  0  0  0  0  0  0  0
    1.1474   -2.8543    2.2288 N   0  0  0  0  0  2  0  0  0  0  0  0
    1.7977    0.9455   -3.0606 O   0  0  0  0  0  0  0  0  0  0  0  0
    0.1855    3.1564   -1.7008 N   0  0  0  0  0  0  0  0  0  0  0  0
   -0.1525    2.8105   -0.4484 C   0  0  0  0  0  0  0  0  0  0  0  0
    0.9451    2.9605    0.5842 C   0  0  0  0  0  0  0  0  0  0  0  0
   -1.2746    2.4137   -0.1391 O   0  0  0  0  0  0  0  0  0  0  0  0
   -1.4573    4.0533   -2.6361 H   0  0  0  0  0  0  0  0  0  0  0  0
   -0.9590    0.8059   -2.9491 N   0  0  0  0  0  0  0  0  0  0  0  0
   -1.6050   -0.4493   -3.2379 C   0  0  0  0  0  0  0  0  0  0  0  0
    0.4559    2.4869   -4.4427 H   0  0  0  0  0  0  0  0  0  0  0  0
   -0.7348    3.7321   -4.8939 H   0  0  0  0  0  0  0  0  0  0  0  0
    4.1608    1.2254   -1.0112 H   0  0  0  0  0  0  0  0  0  0  0  0
    0.5908    0.3478   -1.0333 H   0  0  0  0  0  0  0  0  0  0  0  0
    6.6810   -0.5144    0.9998 H   0  0  0  0  0  0  0  0  0  0  0  0
    5.6257   -1.8740    1.4186 H   0  0  0  0  0  0  0  0  0  0  0  0
    4.3475   -0.1037    2.9053 H   0  0  0  0  0  0  0  0  0  0  0  0
    5.8101    0.8701    2.7789 H   0  0  0  0  0  0  0  0  0  0  0  0
    7.1339   -1.0630    3.7638 H   0  0  0  0  0  0  0  0  0  0  0  0
    5.6600   -2.0270    3.8059 H   0  0  0  0  0  0  0  0  0  0  0  0
    6.2016    0.5357    5.4097 H   0  0  0  0  0  0  0  0  0  0  0  0
    6.2512   -1.1227    6.0125 H   0  0  0  0  0  0  0  0  0  0  0  0
    4.2993    1.7364    5.5038 H   0  0  0  0  0  0  0  0  0  0  0  0
    2.7835    0.9879    6.0515 H   0  0  0  0  0  0  0  0  0  0  0  0
    3.2327    0.9116    4.3342 H   0  0  0  0  0  0  0  0  0  0  0  0
    4.1234   -2.4153    5.9194 H   0  0  0  0  0  0  0  0  0  0  0  0
    3.2317   -1.7688    4.5099 H   0  0  0  0  0  0  0  0  0  0  0  0
    2.6431   -1.4608    6.1568 H   0  0  0  0  0  0  0  0  0  0  0  0
    3.6181   -2.1819    1.9934 H   0  0  0  0  0  0  0  0  0  0  0  0
   -1.2754    0.3130   -0.1956 H   0  0  0  0  0  0  0  0  0  0  0  0
   -3.1738   -2.6992    0.9088 H   0  0  0  0  0  0  0  0  0  0  0  0
   -6.8653   -0.9346   -0.4981 H   0  0  0  0  0  0  0  0  0  0  0  0
   -5.5836    1.1139   -1.1811 H   0  0  0  0  0  0  0  0  0  0  0  0
   -3.1561    1.2521   -0.8109 H   0  0  0  0  0  0  0  0  0  0  0  0
   -0.5212   -3.8738    2.8549 H   0  0  0  0  0  0  0  0  0  0  0  0
    1.1699    3.3633   -1.9012 H   0  0  0  0  0  0  0  0  0  0  0  0
    0.8163    3.9308    1.0884 H   0  0  0  0  0  0  0  0  0  0  0  0
    1.9471    2.9193    0.1359 H   0  0  0  0  0  0  0  0  0  0  0  0
    0.8379    2.1647    1.3318 H   0  0  0  0  0  0  0  0  0  0  0  0
    0.0762    0.8345   -2.9557 H   0  0  0  0  0  0  0  0  0  0  0  0
   -1.2330   -1.2325   -2.5607 H   0  0  0  0  0  0  0  0  0  0  0  0
   -1.4245   -0.7735   -4.2775 H   0  0  0  0  0  0  0  0  0  0  0  0
   -2.6870   -0.3366   -3.0923 H   0  0  0  0  0  0  0  0  0  0  0  0
    3.8514    3.3496   -2.0422 H   0  0  0  0  0  0  0  0  0  0  0  0
    2.6825    2.7752   -4.8163 H   0  0  0  0  0  0  0  0  0  0  0  0
    3.6594    4.1862   -4.3436 H   0  0  0  0  0  0  0  0  0  0  0  0
  1  2  2  0  0  0  0
  2 42  1  0  0  0  0
  2  3  1  0  0  0  0
  3 41  1  1  0  0  0
  3 37  1  0  0  0  0
  4  3  1  0  0  0  0
  5  4  1  0  0  0  0
  5  6  1  0  0  0  0
  6  7  1  0  0  0  0
  7  8  1  0  0  0  0
  7 77  1  0  0  0  0
  8  9  1  0  0  0  0
  9 46  1  0  0  0  0
  9 10  1  0  0  0  0
 10 11  2  0  0  0  0
 10 12  1  0  0  0  0
 11 23  1  0  0  0  0
 12 21  2  0  0  0  0
 13 12  1  0  0  0  0
 13 14  1  0  0  0  0
 14 49  1  0  0  0  0
 14 15  1  0  0  0  0
 15 51  1  0  0  0  0
 15 50  1  0  0  0  0
 15 16  1  0  0  0  0
 16 17  1  0  0  0  0
 17 54  1  0  0  0  0
 17 18  1  0  0  0  0
 17 55  1  0  0  0  0
 19 56  1  0  0  0  0
 19 18  1  0  0  0  0
 19 57  1  0  0  0  0
 20 18  1  0  0  0  0
 20 59  1  0  0  0  0
 20 61  1  0  0  0  0
 21 22  1  0  0  0  0
 21 62  1  0  0  0  0
 22 35  1  0  0  0  0
 23 24  1  0  0  0  0
 23 22  2  0  0  0  0
 24 25  1  1  0  0  0
 24 33  1  0  0  0  0
 26 25  1  0  0  0  0
 26 27  1  0  0  0  0
 27 64  1  0  0  0  0
 28 27  2  0  0  0  0
 28 29  1  0  0  0  0
 30 28  1  0  0  0  0
 31 32  1  0  0  0  0
 31 30  2  0  0  0  0
 32 26  2  0  0  0  0
 33 34  2  0  0  0  0
 34 35  1  0  0  0  0
 34 68  1  0  0  0  0
 36  8  2  0  0  0  0
 37 38  1  0  0  0  0
 38 40  2  0  0  0  0
 38 39  1  0  0  0  0
 39 70  1  0  0  0  0
 39 72  1  0  0  0  0
 43 76  1  0  0  0  0
 43 42  1  0  0  0  0
 43 74  1  0  0  0  0
 44  4  1  0  0  0  0
 45  4  1  0  0  0  0
 47 11  1  0  0  0  0
 48 14  1  0  0  0  0
 52 16  1  0  0  0  0
 53 16  1  0  0  0  0
 58 19  1  0  0  0  0
 60 20  1  0  0  0  0
 63 25  1  0  0  0  0
 65 30  1  0  0  0  0
 66 31  1  0  0  0  0
 67 32  1  0  0  0  0
 69 37  1  0  0  0  0
 71 39  1  0  0  0  0
 73 42  1  0  0  0  0
 75 43  1  0  0  0  0
 78  6  1  0  0  0  0
 79  6  1  0  0  0  0
M  END
