79
-1 1
O        -5.561579    3.992871   -0.930203
C        -4.348413    3.903405   -0.815812
C        -3.490974    5.164183   -0.651066
C        -2.808089    5.497318   -2.001877
S        -1.453251    6.710089   -1.895393
C         0.415250    5.039242   -1.935814
C         0.771871    4.442072   -0.746951
C         0.091699    3.264620   -0.271679
N         0.587294    2.751271    0.929287
C        -0.001925    1.805710    1.755211
C        -1.356414    1.533985    1.799618
C         0.864038    1.119895    2.668290
O         2.164177    1.500984    2.603139
C         3.059655    1.042304    3.593487
C         2.786266    1.664094    4.959689
C         3.408034    0.877197    6.106226
C         3.084939    1.429020    7.503075
N         1.691449    1.514797    7.883594
C         0.957286    2.707828    7.541643
C         0.927773    0.298368    7.761132
C         0.371093    0.158363    3.521361
C        -1.013659   -0.130720    3.560795
C        -1.883973    0.609136    2.729759
C        -3.293353    0.355393    2.923622
N        -4.200414    1.174565    2.323350
C        -5.590405    1.049486    2.214838
C        -6.313983   -0.090416    2.598061
C        -7.687112   -0.115432    2.370727
Br        -8.660548   -1.670690    2.894636
C        -8.374042    0.939475    1.780752
C        -7.638019    2.067784    1.414333
C        -6.270050    2.132766    1.632163
N        -3.687798   -0.646904    3.691960
C        -2.748105   -1.330623    4.370517
N        -1.460661   -1.111762    4.398986
O        -0.855930    2.711557   -0.833512
N        -2.473466    5.077625    0.373652
C        -2.635012    4.606171    1.614232
C        -1.490493    4.875001    2.569657
O        -3.640221    3.998527    1.989360
H        -4.206571    5.962282   -0.396079
N        -3.659469    2.742783   -0.896802
C        -4.297456    1.479799   -1.163306
H        -2.407011    4.561596   -2.423523
H        -3.590923    5.851674   -2.687901
H         1.510343    3.049730    1.214758
H        -2.014541    2.049163    1.105469
H         4.060689    1.310494    3.226503
H         3.023171   -0.060329    3.652796
H         1.698221    1.696843    5.105531
H         3.132216    2.710978    4.968328
H         4.506533    0.835355    5.995015
H         3.060779   -0.169901    6.048179
H         3.524243    2.435536    7.606793
H         3.607199    0.790144    8.240409
H         1.595434    3.594704    7.674181
H         0.091635    2.819268    8.216659
H         0.559234    2.731441    6.504969
H         1.508551   -0.552818    8.151628
H         0.615035    0.049103    6.723728
H         0.005557    0.372357    8.360176
H         1.009912   -0.409735    4.196008
H        -3.858361    2.098716    2.037033
H        -5.799346   -0.920868    3.073513
H        -9.449820    0.883251    1.610872
H        -8.132885    2.914383    0.934750
H        -5.712654    3.022636    1.336310
H        -3.127374   -2.152517    4.990783
H        -1.638373    5.621637    0.125919
H        -1.781736    5.708872    3.226498
H        -0.557867    5.134353    2.051462
H        -1.335677    3.987154    3.196218
H        -2.634580    2.777016   -0.887019
H        -4.013306    0.728167   -0.409835
H        -4.026944    1.091598   -2.159689
H        -5.384601    1.624437   -1.123916
H         1.527170    4.903666   -0.103759
H        -0.202061    4.478946   -2.640040
H         1.041853    5.821165   -2.363142
