-1 1
 OpenBabel05232414493D

 69 70  0  0  1  0  0  0  0  0999 V2000
   -6.4992    1.1616    0.8620 O   0  0  0  0  0  0  0  0  0  0  0  0
   -6.0713    0.0328    1.0514 C   0  0  0  0  0  0  0  0  0  0  0  0
   -5.8903   -0.5555    2.4503 C   0  0  2  0  0  0  0  0  0  0  0  0
   -7.2401   -0.9936    3.0260 C   0  0  0  0  0  0  0  0  0  0  0  0
   -7.0913   -1.7968    4.6518 S   0  0  0  0  0  1  0  0  0  0  0  0
   -6.1733   -3.9080    3.8023 C   0  0  0  0  0  3  0  0  0  0  0  0
   -4.8070   -3.9948    3.6049 C   0  0  0  0  0  3  0  0  0  0  0  0
   -4.1981   -3.6234    2.3597 C   0  0  0  0  0  0  0  0  0  0  0  0
   -2.8015   -3.6945    2.3413 N   0  0  0  0  0  0  0  0  0  0  0  0
   -1.9610   -3.2050    1.3398 C   0  0  0  0  0  0  0  0  0  0  0  0
   -0.7926   -3.9392    1.0146 C   0  0  0  0  0  0  0  0  0  0  0  0
    0.0740   -3.5031    0.0423 C   0  0  0  0  0  0  0  0  0  0  0  0
   -2.2124   -2.0109    0.6789 C   0  0  0  0  0  0  0  0  0  0  0  0
   -1.3286   -1.5479   -0.3188 C   0  0  0  0  0  0  0  0  0  0  0  0
   -0.1841   -2.3086   -0.6695 C   0  0  0  0  0  0  0  0  0  0  0  0
    0.6637   -1.9412   -1.6785 N   0  0  0  0  0  0  0  0  0  0  0  0
    0.3466   -0.8468   -2.3080 C   0  0  0  0  0  0  0  0  0  0  0  0
   -0.6760   -0.0080   -2.0452 N   0  0  0  0  0  0  0  0  0  0  0  0
   -1.4935   -0.3032   -1.0511 C   0  0  0  0  0  0  0  0  0  0  0  0
   -2.4959    0.5516   -0.7068 N   0  0  0  0  0  0  0  0  0  0  0  0
   -2.9083    1.7404   -1.3251 C   0  0  0  0  0  0  0  0  0  0  0  0
   -2.3242    2.2893   -2.4743 C   0  0  0  0  0  0  0  0  0  0  0  0
   -2.8441    3.4669   -3.0101 C   0  0  0  0  0  0  0  0  0  0  0  0
   -1.9906    4.1193   -4.5960 Br  0  0  0  0  0  0  0  0  0  0  0  0
   -3.9303    4.1483   -2.4603 C   0  0  0  0  0  0  0  0  0  0  0  0
   -4.5288    5.4072   -3.0510 C   0  0  0  0  0  0  0  0  0  0  0  0
   -5.1575    6.2611   -2.0621 N   0  0  0  0  0  0  0  0  0  0  0  0
   -4.1984    6.8905   -1.1840 C   0  0  0  0  0  0  0  0  0  0  0  0
   -6.0677    7.2117   -2.6488 C   0  0  0  0  0  0  0  0  0  0  0  0
   -4.4975    3.5688   -1.3165 C   0  0  0  0  0  0  0  0  0  0  0  0
   -4.0078    2.4033   -0.7531 C   0  0  0  0  0  0  0  0  0  0  0  0
   -4.7991   -3.2522    1.3436 O   0  0  0  0  0  0  0  0  0  0  0  0
   -5.2539    0.3925    3.3357 N   0  0  0  0  0  0  0  0  0  0  0  0
   -4.0510    0.9123    3.0648 C   0  0  0  0  0  0  0  0  0  0  0  0
   -3.4398    1.7983    4.1280 C   0  0  0  0  0  0  0  0  0  0  0  0
   -3.4600    0.7142    2.0031 O   0  0  0  0  0  0  0  0  0  0  0  0
   -5.2614   -1.4465    2.3640 H   0  0  0  0  0  0  0  0  0  0  0  0
   -5.7448   -0.8411    0.0712 N   0  0  0  0  0  0  0  0  0  0  0  0
   -5.8696   -0.5287   -1.3276 C   0  0  0  0  0  0  0  0  0  0  0  0
   -7.9000   -0.1134    3.0953 H   0  0  0  0  0  0  0  0  0  0  0  0
   -7.6986   -1.6841    2.3001 H   0  0  0  0  0  0  0  0  0  0  0  0
   -2.3619   -4.1896    3.1046 H   0  0  0  0  0  0  0  0  0  0  0  0
   -0.6013   -4.8803    1.5377 H   0  0  0  0  0  0  0  0  0  0  0  0
    0.9651   -4.0715   -0.2290 H   0  0  0  0  0  0  0  0  0  0  0  0
   -3.0938   -1.4337    0.9513 H   0  0  0  0  0  0  0  0  0  0  0  0
    0.9874   -0.5470   -3.1471 H   0  0  0  0  0  0  0  0  0  0  0  0
   -2.9512    0.3916    0.1962 H   0  0  0  0  0  0  0  0  0  0  0  0
   -1.4728    1.7920   -2.9291 H   0  0  0  0  0  0  0  0  0  0  0  0
   -5.2982    5.1140   -3.7865 H   0  0  0  0  0  0  0  0  0  0  0  0
   -3.7534    5.9565   -3.6268 H   0  0  0  0  0  0  0  0  0  0  0  0
   -3.5586    6.1300   -0.7138 H   0  0  0  0  0  0  0  0  0  0  0  0
   -4.7202    7.4358   -0.3825 H   0  0  0  0  0  0  0  0  0  0  0  0
   -3.5363    7.6110   -1.7174 H   0  0  0  0  0  0  0  0  0  0  0  0
   -6.8404    6.6896   -3.2335 H   0  0  0  0  0  0  0  0  0  0  0  0
   -5.5660    7.9434   -3.3246 H   0  0  0  0  0  0  0  0  0  0  0  0
   -6.5753    7.7844   -1.8571 H   0  0  0  0  0  0  0  0  0  0  0  0
   -5.3579    4.0643   -0.8627 H   0  0  0  0  0  0  0  0  0  0  0  0
   -4.5024    1.9925    0.1276 H   0  0  0  0  0  0  0  0  0  0  0  0
   -5.6169    0.3979    4.2857 H   0  0  0  0  0  0  0  0  0  0  0  0
   -3.3605    2.8181    3.7247 H   0  0  0  0  0  0  0  0  0  0  0  0
   -2.4209    1.4435    4.3346 H   0  0  0  0  0  0  0  0  0  0  0  0
   -4.0193    1.8220    5.0604 H   0  0  0  0  0  0  0  0  0  0  0  0
   -5.3911   -1.7578    0.3589 H   0  0  0  0  0  0  0  0  0  0  0  0
   -6.5302   -1.2456   -1.8421 H   0  0  0  0  0  0  0  0  0  0  0  0
   -4.8874   -0.5382   -1.8281 H   0  0  0  0  0  0  0  0  0  0  0  0
   -6.2952    0.4791   -1.4182 H   0  0  0  0  0  0  0  0  0  0  0  0
   -6.6242   -4.3905    4.6686 H   0  0  0  0  0  0  0  0  0  0  0  0
   -6.8177   -3.8135    2.9252 H   0  0  0  0  0  0  0  0  0  0  0  0
   -4.1537   -4.2387    4.4479 H   0  0  0  0  0  0  0  0  0  0  0  0
  1  2  2  0  0  0  0
  2  3  1  0  0  0  0
  3 37  1  6  0  0  0
  3  4  1  0  0  0  0
  3 33  1  0  0  0  0
  4 40  1  0  0  0  0
  4  5  1  0  0  0  0
  6 67  1  0  0  0  0
  7  6  1  0  0  0  0
  7 69  1  0  0  0  0
  8  7  1  0  0  0  0
  9  8  1  0  0  0  0
  9 42  1  0  0  0  0
 10  9  1  0  0  0  0
 11 10  1  0  0  0  0
 11 43  1  0  0  0  0
 12 11  2  0  0  0  0
 13 45  1  0  0  0  0
 13 10  2  0  0  0  0
 14 13  1  0  0  0  0
 15 14  2  0  0  0  0
 15 12  1  0  0  0  0
 16 15  1  0  0  0  0
 17 18  1  0  0  0  0
 17 16  2  0  0  0  0
 18 19  2  0  0  0  0
 19 20  1  0  0  0  0
 19 14  1  0  0  0  0
 20 47  1  0  0  0  0
 21 31  1  0  0  0  0
 21 20  1  0  0  0  0
 22 21  2  0  0  0  0
 23 22  1  0  0  0  0
 23 25  2  0  0  0  0
 24 23  1  0  0  0  0
 25 30  1  0  0  0  0
 26 25  1  0  0  0  0
 26 27  1  0  0  0  0
 27 28  1  0  0  0  0
 28 51  1  0  0  0  0
 28 52  1  0  0  0  0
 29 27  1  0  0  0  0
 29 56  1  0  0  0  0
 30 57  1  0  0  0  0
 30 31  2  0  0  0  0
 31 58  1  0  0  0  0
 32  8  2  0  0  0  0
 33 59  1  0  0  0  0
 34 33  1  0  0  0  0
 34 35  1  0  0  0  0
 35 61  1  0  0  0  0
 35 62  1  0  0  0  0
 36 34  2  0  0  0  0
 38 63  1  0  0  0  0
 38  2  1  0  0  0  0
 39 38  1  0  0  0  0
 41  4  1  0  0  0  0
 44 12  1  0  0  0  0
 46 17  1  0  0  0  0
 48 22  1  0  0  0  0
 49 26  1  0  0  0  0
 50 26  1  0  0  0  0
 53 28  1  0  0  0  0
 54 29  1  0  0  0  0
 55 29  1  0  0  0  0
 60 35  1  0  0  0  0
 64 39  1  0  0  0  0
 65 39  1  0  0  0  0
 66 39  1  0  0  0  0
 68  6  1  0  0  0  0
M  END
