-1 1
 OpenBabel05232413483D

 69 70  0  0  1  0  0  0  0  0999 V2000
   -2.1204   -0.6674    0.1094 O   0  0  0  0  0  0  0  0  0  0  0  0
   -1.9439   -1.6427    0.8244 C   0  0  0  0  0  0  0  0  0  0  0  0
   -2.1043   -1.6041    2.3465 C   0  0  2  0  0  0  0  0  0  0  0  0
   -3.4489   -2.2547    2.7599 C   0  0  0  0  0  0  0  0  0  0  0  0
   -3.9154   -1.9212    4.4913 S   0  0  0  0  0  1  0  0  0  0  0  0
   -1.8370   -4.5018    4.9549 C   0  0  0  0  0  0  0  0  0  0  0  0
   -0.5653   -4.2972    4.5991 C   0  0  0  0  0  0  0  0  0  0  0  0
   -0.1470   -4.4154    3.1821 C   0  0  0  0  0  0  0  0  0  0  0  0
    1.0479   -3.7990    2.8934 N   0  0  0  0  0  0  0  0  0  0  0  0
    1.4939   -3.6033    1.5573 C   0  0  0  0  0  0  0  0  0  0  0  0
    1.9997   -4.6908    0.8112 C   0  0  0  0  0  0  0  0  0  0  0  0
    2.4429   -4.5009   -0.4771 C   0  0  0  0  0  0  0  0  0  0  0  0
    1.4087   -2.3515    0.9868 C   0  0  0  0  0  0  0  0  0  0  0  0
    1.8292   -2.1478   -0.3438 C   0  0  0  0  0  0  0  0  0  0  0  0
    2.3830   -3.2209   -1.0833 C   0  0  0  0  0  0  0  0  0  0  0  0
    2.8459   -3.0606   -2.3593 N   0  0  0  0  0  0  0  0  0  0  0  0
    2.7309   -1.8568   -2.8524 C   0  0  0  0  0  0  0  0  0  0  0  0
    2.1678   -0.7733   -2.2868 N   0  0  0  0  0  0  0  0  0  0  0  0
    1.6787   -0.8975   -1.0633 C   0  0  0  0  0  0  0  0  0  0  0  0
    1.0050    0.1253   -0.4899 N   0  0  0  0  0  0  0  0  0  0  0  0
    0.6924    1.3755   -1.0448 C   0  0  0  0  0  0  0  0  0  0  0  0
    1.5481    2.0705   -1.9046 C   0  0  0  0  0  0  0  0  0  0  0  0
    1.1844    3.3403   -2.3466 C   0  0  0  0  0  0  0  0  0  0  0  0
    2.4000    4.2092   -3.5420 Br  0  0  0  0  0  0  0  0  0  0  0  0
   -0.0049    3.9671   -1.9652 C   0  0  0  0  0  0  0  0  0  0  0  0
   -0.4269    5.3356   -2.4584 C   0  0  0  0  0  0  0  0  0  0  0  0
   -1.3259    6.0210   -1.5509 N   0  0  0  0  0  0  0  0  0  0  0  0
   -0.6638    6.4623   -0.3444 C   0  0  0  0  0  0  0  0  0  0  0  0
   -2.0572    7.0849   -2.1924 C   0  0  0  0  0  0  0  0  0  0  0  0
   -0.8497    3.2324   -1.1226 C   0  0  0  0  0  0  0  0  0  0  0  0
   -0.5245    1.9629   -0.6695 C   0  0  0  0  0  0  0  0  0  0  0  0
   -0.8121   -4.9694    2.3181 O   0  0  0  0  0  0  0  0  0  0  0  0
   -2.0697   -0.2545    2.8418 N   0  0  0  0  0  0  0  0  0  0  0  0
   -1.0079    0.5414    2.7461 C   0  0  0  0  0  0  0  0  0  0  0  0
   -1.1351    1.9099    3.3755 C   0  0  0  0  0  0  0  0  0  0  0  0
    0.0360    0.2263    2.1590 O   0  0  0  0  0  0  0  0  0  0  0  0
   -1.2801   -2.1761    2.8045 H   0  0  0  0  0  0  0  0  0  0  0  0
   -1.6217   -2.8639    0.3395 N   0  0  0  0  0  0  0  0  0  0  0  0
   -1.3891   -3.0993   -1.0613 C   0  0  0  0  0  0  0  0  0  0  0  0
   -4.2268   -1.8768    2.0744 H   0  0  0  0  0  0  0  0  0  0  0  0
   -3.3524   -3.3342    2.5647 H   0  0  0  0  0  0  0  0  0  0  0  0
    1.4044   -3.1553    3.5891 H   0  0  0  0  0  0  0  0  0  0  0  0
    2.0351   -5.6774    1.2766 H   0  0  0  0  0  0  0  0  0  0  0  0
    2.8521   -5.3207   -1.0695 H   0  0  0  0  0  0  0  0  0  0  0  0
    0.9746   -1.5355    1.5711 H   0  0  0  0  0  0  0  0  0  0  0  0
    3.1268   -1.6968   -3.8637 H   0  0  0  0  0  0  0  0  0  0  0  0
    0.5564   -0.0281    0.4206 H   0  0  0  0  0  0  0  0  0  0  0  0
    2.4773    1.6124   -2.2333 H   0  0  0  0  0  0  0  0  0  0  0  0
   -0.9450    5.2107   -3.4252 H   0  0  0  0  0  0  0  0  0  0  0  0
    0.4741    5.9484   -2.6760 H   0  0  0  0  0  0  0  0  0  0  0  0
   -0.1631    5.6151    0.1460 H   0  0  0  0  0  0  0  0  0  0  0  0
   -1.4003    6.8746    0.3623 H   0  0  0  0  0  0  0  0  0  0  0  0
    0.1041    7.2458   -0.5388 H   0  0  0  0  0  0  0  0  0  0  0  0
   -2.6248    6.6947   -3.0509 H   0  0  0  0  0  0  0  0  0  0  0  0
   -1.4028    7.9081   -2.5630 H   0  0  0  0  0  0  0  0  0  0  0  0
   -2.7772    7.5254   -1.4856 H   0  0  0  0  0  0  0  0  0  0  0  0
   -1.7966    3.6923   -0.8321 H   0  0  0  0  0  0  0  0  0  0  0  0
   -1.2227    1.3833   -0.0605 H   0  0  0  0  0  0  0  0  0  0  0  0
   -2.7997   -0.0942    3.5521 H   0  0  0  0  0  0  0  0  0  0  0  0
   -1.1871    2.6532    2.5656 H   0  0  0  0  0  0  0  0  0  0  0  0
   -0.2281    2.1181    3.9586 H   0  0  0  0  0  0  0  0  0  0  0  0
   -2.0237    2.0084    4.0129 H   0  0  0  0  0  0  0  0  0  0  0  0
   -1.4478   -3.6314    0.9881 H   0  0  0  0  0  0  0  0  0  0  0  0
   -2.2632   -3.5524   -1.5599 H   0  0  0  0  0  0  0  0  0  0  0  0
   -0.5266   -3.7700   -1.1886 H   0  0  0  0  0  0  0  0  0  0  0  0
   -1.1766   -2.1399   -1.5525 H   0  0  0  0  0  0  0  0  0  0  0  0
   -2.1830   -4.3457    5.9762 H   0  0  0  0  0  0  0  0  0  0  0  0
   -2.5746   -4.8239    4.2174 H   0  0  0  0  0  0  0  0  0  0  0  0
    0.1704   -3.9359    5.3245 H   0  0  0  0  0  0  0  0  0  0  0  0
  1  2  2  0  0  0  0
  2  3  1  0  0  0  0
  3  4  1  0  0  0  0
  3 37  1  1  0  0  0
  3 33  1  0  0  0  0
  4  5  1  0  0  0  0
  6 67  1  0  0  0  0
  7  6  2  0  0  0  0
  7 69  1  0  0  0  0
  8  7  1  0  0  0  0
  9  8  1  0  0  0  0
  9 42  1  0  0  0  0
 10  9  1  0  0  0  0
 11 43  1  0  0  0  0
 11 10  2  0  0  0  0
 12 11  1  0  0  0  0
 13 10  1  0  0  0  0
 13 45  1  0  0  0  0
 14 13  2  0  0  0  0
 15 12  2  0  0  0  0
 15 14  1  0  0  0  0
 16 15  1  0  0  0  0
 17 16  2  0  0  0  0
 17 18  1  0  0  0  0
 18 19  2  0  0  0  0
 19 20  1  0  0  0  0
 19 14  1  0  0  0  0
 20 47  1  0  0  0  0
 21 31  1  0  0  0  0
 21 20  1  0  0  0  0
 22 21  2  0  0  0  0
 23 25  2  0  0  0  0
 23 22  1  0  0  0  0
 24 23  1  0  0  0  0
 25 30  1  0  0  0  0
 26 25  1  0  0  0  0
 26 27  1  0  0  0  0
 27 28  1  0  0  0  0
 28 51  1  0  0  0  0
 28 52  1  0  0  0  0
 29 27  1  0  0  0  0
 29 56  1  0  0  0  0
 30 57  1  0  0  0  0
 30 31  2  0  0  0  0
 31 58  1  0  0  0  0
 32  8  2  0  0  0  0
 33 59  1  0  0  0  0
 34 33  1  0  0  0  0
 34 35  1  0  0  0  0
 35 61  1  0  0  0  0
 35 62  1  0  0  0  0
 36 34  2  0  0  0  0
 38  2  1  0  0  0  0
 38 63  1  0  0  0  0
 39 38  1  0  0  0  0
 40  4  1  0  0  0  0
 41  4  1  0  0  0  0
 44 12  1  0  0  0  0
 46 17  1  0  0  0  0
 48 22  1  0  0  0  0
 49 26  1  0  0  0  0
 50 26  1  0  0  0  0
 53 28  1  0  0  0  0
 54 29  1  0  0  0  0
 55 29  1  0  0  0  0
 60 35  1  0  0  0  0
 64 39  1  0  0  0  0
 65 39  1  0  0  0  0
 66 39  1  0  0  0  0
 68  6  1  0  0  0  0
M  END
