84
-1 1
O        -3.371696   -1.251620    0.762016
C        -3.434554   -0.285326    0.012560
C        -2.222866    0.135613   -0.839021
C        -2.468499    1.142344   -1.979105
S        -3.898552    0.912050   -3.102241
C        -4.747153   -1.304427   -3.193524
C        -4.690982   -2.137398   -2.080423
C        -3.608513   -3.046398   -1.936845
N        -3.557453   -3.779031   -0.727864
C        -2.602607   -4.758804   -0.539476
N        -1.926777   -4.780735    0.578128
C        -2.414736   -5.771016   -1.566359
O        -3.350354   -5.809827   -2.518178
C        -3.174105   -6.505517   -3.736586
C        -2.670557   -5.603861   -4.853989
C        -1.221503   -5.155437   -4.710198
N        -0.715044   -4.499538   -5.912703
C        -1.426174   -3.299658   -6.339023
C        -1.148801   -2.079909   -5.464543
N         0.284792   -1.817479   -5.395958
C         1.018059   -2.987349   -4.947326
C         0.703649   -4.194291   -5.834082
C         0.570432   -0.654179   -4.589744
C        -1.355848   -6.632050   -1.436277
C        -0.578877   -6.619241   -0.247015
C        -0.949333   -5.700719    0.758406
C        -0.205858   -5.794488    1.984384
N        -0.456333   -5.048408    3.095081
C        -1.208624   -3.849089    3.232982
C        -2.401707   -3.874380    3.951783
C        -3.117320   -2.695384    4.140693
Cl        -4.621794   -2.707895    5.023716
C        -2.642883   -1.499817    3.608656
F        -3.338169   -0.378508    3.782218
C        -1.455920   -1.472393    2.892006
C        -0.737507   -2.644209    2.709377
N         0.773373   -6.685241    2.110811
C         1.039132   -7.481885    1.066400
N         0.436017   -7.511985   -0.095887
O        -2.692505   -3.180922   -2.767621
N        -1.469564   -1.015239   -1.259298
C        -0.362385   -1.431573   -0.600361
C         0.233641   -2.729379   -1.101184
O         0.152361   -0.806201    0.319152
H        -1.565703    0.642350   -0.110931
N        -4.508370    0.532994   -0.032605
C        -5.671525    0.222053    0.760286
H        -2.591790    2.138382   -1.525632
H        -1.537963    1.175617   -2.564061
H        -3.701934   -3.185834    0.093732
H        -4.175403   -6.879160   -3.995678
H        -2.524660   -7.386739   -3.604018
H        -3.334928   -4.727620   -4.882411
H        -2.782456   -6.146664   -5.808812
H        -0.587824   -6.045466   -4.545702
H        -1.147459   -4.531637   -3.800611
H        -2.507261   -3.492768   -6.374039
H        -1.104268   -3.076300   -7.371798
H        -1.590862   -2.239925   -4.460015
H        -1.648637   -1.197017   -5.895876
H         0.786194   -3.234766   -3.887644
H         2.099487   -2.771702   -4.991943
H         1.248184   -5.079473   -5.467408
H         1.067409   -3.977398   -6.854305
H         0.237913   -0.763104   -3.533947
H         0.055944    0.227047   -5.003920
H         1.653216   -0.449049   -4.588067
H        -1.109719   -7.388241   -2.180099
H         0.171448   -5.288336    3.854970
H        -2.781034   -4.815842    4.349190
H        -1.113677   -0.547004    2.429749
H         0.180302   -2.609543    2.121347
H         1.861963   -8.192777    1.215639
H        -1.852155   -1.619741   -1.986642
H         0.356576   -3.408740   -0.246803
H         1.231453   -2.524629   -1.515770
H        -0.394567   -3.218097   -1.858093
H        -4.647646    1.021187   -0.924871
H        -5.371615    0.035106    1.800321
H        -6.198974   -0.678000    0.397596
H        -6.366204    1.072533    0.732923
H        -5.694006   -0.827365   -3.450397
H        -4.099473   -1.552292   -4.035141
H        -5.441039   -2.083252   -1.289963
