-1 1
 OpenBabel05232414493D

 58 59  0  0  1  0  0  0  0  0999 V2000
   -2.7456    1.1651   -7.1289 O   0  0  0  0  0  0  0  0  0  0  0  0
   -1.6036    1.5334   -6.9368 C   0  0  0  0  0  0  0  0  0  0  0  0
   -1.0695    1.8921   -5.5304 C   0  0  2  0  0  0  0  0  0  0  0  0
   -2.1869    2.0149   -4.4819 C   0  0  0  0  0  0  0  0  0  0  0  0
   -2.9606    3.6464   -4.3752 S   0  0  0  0  0  1  0  0  0  0  0  0
   -2.0902    4.1285   -2.1098 C   0  0  0  0  0  3  0  0  0  0  0  0
   -0.9743    3.3744   -1.8157 C   0  0  0  0  0  3  0  0  0  0  0  0
    0.3353    3.8577   -2.1792 C   0  0  0  0  0  0  0  0  0  0  0  0
    1.3616    2.8876   -2.1250 N   0  0  0  0  0  0  0  0  0  0  0  0
    2.6623    3.1698   -2.5585 C   0  0  0  0  0  0  0  0  0  0  0  0
    3.4022    4.2245   -1.9571 C   0  0  0  0  0  0  0  0  0  0  0  0
    4.7014    4.4724   -2.3263 C   0  0  0  0  0  0  0  0  0  0  0  0
    3.2479    2.4362   -3.5710 C   0  0  0  0  0  0  0  0  0  0  0  0
    4.5538    2.7354   -4.0157 C   0  0  0  0  0  0  0  0  0  0  0  0
    5.3258    3.7139   -3.3491 C   0  0  0  0  0  0  0  0  0  0  0  0
    6.6400    3.9256   -3.6621 N   0  0  0  0  0  0  0  0  0  0  0  0
    7.1238    3.1851   -4.6198 C   0  0  0  0  0  0  0  0  0  0  0  0
    6.4555    2.3254   -5.4209 N   0  0  0  0  0  0  0  0  0  0  0  0
    5.1709    2.1458   -5.1806 C   0  0  0  0  0  0  0  0  0  0  0  0
    4.3680    1.4456   -6.0348 N   0  0  0  0  0  0  0  0  0  0  0  0
    4.6980    0.6973   -7.1643 C   0  0  0  0  0  0  0  0  0  0  0  0
    3.6177    0.1825   -7.9049 C   0  0  0  0  0  0  0  0  0  0  0  0
    3.8432   -0.5938   -9.0335 C   0  0  0  0  0  0  0  0  0  0  0  0
    2.3872   -1.2780  -10.0242 Br  0  0  0  0  0  0  0  0  0  0  0  0
    5.1463   -0.8764   -9.4397 C   0  0  0  0  0  0  0  0  0  0  0  0
    5.3704   -1.6244  -10.5227 F   0  0  0  0  0  0  0  0  0  0  0  0
    6.2164   -0.3760   -8.7141 C   0  0  0  0  0  0  0  0  0  0  0  0
    6.0062    0.4098   -7.5839 C   0  0  0  0  0  0  0  0  0  0  0  0
    0.6067    5.0035   -2.5295 O   0  0  0  0  0  0  0  0  0  0  0  0
   -0.2667    3.0992   -5.5043 N   0  0  0  0  0  0  0  0  0  0  0  0
    1.0262    3.1806   -5.8054 C   0  0  0  0  0  0  0  0  0  0  0  0
    1.6749    4.5274   -5.6145 C   0  0  0  0  0  0  0  0  0  0  0  0
    1.6544    2.1962   -6.2488 O   0  0  0  0  0  0  0  0  0  0  0  0
   -0.4060    1.0503   -5.2586 H   0  0  0  0  0  0  0  0  0  0  0  0
   -0.6626    1.5960   -7.9183 N   0  0  0  0  0  0  0  0  0  0  0  0
   -0.9498    1.2489   -9.2852 C   0  0  0  0  0  0  0  0  0  0  0  0
   -2.9342    1.2403   -4.6948 H   0  0  0  0  0  0  0  0  0  0  0  0
   -1.7235    1.8051   -3.4989 H   0  0  0  0  0  0  0  0  0  0  0  0
    1.0496    1.9337   -2.2552 H   0  0  0  0  0  0  0  0  0  0  0  0
    2.9203    4.8182   -1.1805 H   0  0  0  0  0  0  0  0  0  0  0  0
    5.2922    5.2500   -1.8390 H   0  0  0  0  0  0  0  0  0  0  0  0
    2.6703    1.6516   -4.0602 H   0  0  0  0  0  0  0  0  0  0  0  0
    8.1939    3.2876   -4.8397 H   0  0  0  0  0  0  0  0  0  0  0  0
    3.3668    1.6864   -5.9824 H   0  0  0  0  0  0  0  0  0  0  0  0
    2.5970    0.3996   -7.5839 H   0  0  0  0  0  0  0  0  0  0  0  0
    7.2284   -0.6063   -9.0524 H   0  0  0  0  0  0  0  0  0  0  0  0
    6.8416    0.8236   -7.0246 H   0  0  0  0  0  0  0  0  0  0  0  0
   -0.7977    3.9066   -5.1422 H   0  0  0  0  0  0  0  0  0  0  0  0
    1.4621    4.9218   -4.6078 H   0  0  0  0  0  0  0  0  0  0  0  0
    1.2670    5.2325   -6.3552 H   0  0  0  0  0  0  0  0  0  0  0  0
    2.7573    4.4365   -5.7635 H   0  0  0  0  0  0  0  0  0  0  0  0
    0.2973    1.7830   -7.6391 H   0  0  0  0  0  0  0  0  0  0  0  0
   -2.0191    1.0120   -9.3549 H   0  0  0  0  0  0  0  0  0  0  0  0
   -0.3691    0.3703   -9.6115 H   0  0  0  0  0  0  0  0  0  0  0  0
   -0.7249    2.0838   -9.9689 H   0  0  0  0  0  0  0  0  0  0  0  0
   -3.0595    3.8609   -1.6918 H   0  0  0  0  0  0  0  0  0  0  0  0
   -1.9473    5.1754   -2.3789 H   0  0  0  0  0  0  0  0  0  0  0  0
   -1.0656    2.3717   -1.3884 H   0  0  0  0  0  0  0  0  0  0  0  0
  1  2  2  0  0  0  0
  2  3  1  0  0  0  0
  3 30  1  0  0  0  0
  3 34  1  1  0  0  0
  3  4  1  0  0  0  0
  4  5  1  0  0  0  0
  4 38  1  0  0  0  0
  6  7  1  0  0  0  0
  6 56  1  0  0  0  0
  7 58  1  0  0  0  0
  8  9  1  0  0  0  0
  8  7  1  0  0  0  0
 10  9  1  0  0  0  0
 10 11  1  0  0  0  0
 11 40  1  0  0  0  0
 12 11  2  0  0  0  0
 12 41  1  0  0  0  0
 13 10  2  0  0  0  0
 14 13  1  0  0  0  0
 14 15  2  0  0  0  0
 15 12  1  0  0  0  0
 16 15  1  0  0  0  0
 17 16  2  0  0  0  0
 18 19  2  0  0  0  0
 18 17  1  0  0  0  0
 19 14  1  0  0  0  0
 20 44  1  0  0  0  0
 20 19  1  0  0  0  0
 21 20  1  0  0  0  0
 22 45  1  0  0  0  0
 22 21  2  0  0  0  0
 23 22  1  0  0  0  0
 24 23  1  0  0  0  0
 25 23  2  0  0  0  0
 25 27  1  0  0  0  0
 26 25  1  0  0  0  0
 27 28  2  0  0  0  0
 28 21  1  0  0  0  0
 28 47  1  0  0  0  0
 29  8  2  0  0  0  0
 30 48  1  0  0  0  0
 31 32  1  0  0  0  0
 31 30  1  0  0  0  0
 32 49  1  0  0  0  0
 33 31  2  0  0  0  0
 35 52  1  0  0  0  0
 35  2  1  0  0  0  0
 36 35  1  0  0  0  0
 37  4  1  0  0  0  0
 39  9  1  0  0  0  0
 42 13  1  0  0  0  0
 43 17  1  0  0  0  0
 46 27  1  0  0  0  0
 50 32  1  0  0  0  0
 51 32  1  0  0  0  0
 53 36  1  0  0  0  0
 54 36  1  0  0  0  0
 55 36  1  0  0  0  0
 57  6  1  0  0  0  0
M  END
