-1 1
 OpenBabel05192410563D

 58 60  0  0  1  0  0  0  0  0999 V2000
   -4.9683    0.0588   -1.0975 O   0  0  0  0  0  0  0  0  0  0  0  0
   -3.7683    0.0582   -0.8973 C   0  0  0  0  0  0  0  0  0  0  0  0
   -3.1520    0.1680    0.5166 C   0  0  2  0  0  0  0  0  0  0  0  0
   -4.2135    0.1665    1.6200 C   0  0  0  0  0  0  0  0  0  0  0  0
   -4.9880    1.7658    1.9645 S   0  0  0  0  0  0  0  0  0  0  0  0
   -4.3401    2.1206    3.7671 C   0  0  0  0  0  0  0  0  0  0  0  0
   -3.1083    1.4376    4.1594 C   0  0  0  0  0  3  0  0  0  0  0  0
   -1.8750    1.9488    3.7595 C   0  0  0  0  0  0  0  0  0  0  0  0
   -0.7483    1.0605    3.9611 N   0  0  0  0  0  0  0  0  0  0  0  0
    0.5044    1.3826    3.4583 C   0  0  0  0  0  0  0  0  0  0  0  0
    1.1705    2.5617    3.9050 C   0  0  0  0  0  0  0  0  0  0  0  0
    2.4451    2.8563    3.4910 C   0  0  0  0  0  0  0  0  0  0  0  0
    1.1384    0.5840    2.5212 C   0  0  0  0  0  0  0  0  0  0  0  0
    2.4126    0.9270    2.0197 C   0  0  0  0  0  0  0  0  0  0  0  0
    3.1200    2.0270    2.5574 C   0  0  0  0  0  0  0  0  0  0  0  0
    4.4124    2.2914    2.1987 N   0  0  0  0  0  0  0  0  0  0  0  0
    4.9339    1.4940    1.3088 C   0  0  0  0  0  0  0  0  0  0  0  0
    4.3068    0.5278    0.5998 N   0  0  0  0  0  0  0  0  0  0  0  0
    3.0431    0.2922    0.8893 C   0  0  0  0  0  0  0  0  0  0  0  0
    2.2586   -0.5057    0.0971 N   0  0  0  0  0  0  0  0  0  0  0  0
    2.6016   -1.2483   -1.0305 C   0  0  0  0  0  0  0  0  0  0  0  0
    1.5329   -1.7289   -1.8092 C   0  0  0  0  0  0  0  0  0  0  0  0
    1.7723   -2.5017   -2.9371 C   0  0  0  0  0  0  0  0  0  0  0  0
    0.3259   -3.1293   -3.9803 Br  0  0  0  0  0  0  0  0  0  0  0  0
    3.0789   -2.8146   -3.3069 C   0  0  0  0  0  0  0  0  0  0  0  0
    3.3172   -3.5583   -4.3906 F   0  0  0  0  0  0  0  0  0  0  0  0
    4.1386   -2.3464   -2.5447 C   0  0  0  0  0  0  0  0  0  0  0  0
    3.9143   -1.5653   -1.4139 C   0  0  0  0  0  0  0  0  0  0  0  0
   -1.6559    3.0462    3.2038 O   0  0  0  0  0  0  0  0  0  0  0  0
   -2.2719    1.3155    0.6330 N   0  0  0  0  0  0  0  0  0  0  0  0
   -0.9933    1.3250    0.2420 C   0  0  0  0  0  0  0  0  0  0  0  0
   -0.2649    2.6305    0.4089 C   0  0  0  0  0  0  0  0  0  0  0  0
   -0.4653    0.3215   -0.2758 O   0  0  0  0  0  0  0  0  0  0  0  0
   -2.5246   -0.7329    0.6389 H   0  0  0  0  0  0  0  0  0  0  0  0
   -2.8396   -0.0807   -1.8794 N   0  0  0  0  0  0  0  0  0  0  0  0
   -3.1881   -0.1746   -3.2725 C   0  0  0  0  0  0  0  0  0  0  0  0
   -4.9834   -0.5710    1.3634 H   0  0  0  0  0  0  0  0  0  0  0  0
   -3.7155   -0.1198    2.5603 H   0  0  0  0  0  0  0  0  0  0  0  0
   -1.0018    0.0881    3.8409 H   0  0  0  0  0  0  0  0  0  0  0  0
    0.6460    3.2082    4.6084 H   0  0  0  0  0  0  0  0  0  0  0  0
    2.9787    3.7290    3.8721 H   0  0  0  0  0  0  0  0  0  0  0  0
    0.6150   -0.2895    2.1284 H   0  0  0  0  0  0  0  0  0  0  0  0
    5.9931    1.6396    1.0623 H   0  0  0  0  0  0  0  0  0  0  0  0
    1.2571   -0.2777    0.1377 H   0  0  0  0  0  0  0  0  0  0  0  0
    0.5098   -1.4812   -1.5213 H   0  0  0  0  0  0  0  0  0  0  0  0
    5.1543   -2.5985   -2.8551 H   0  0  0  0  0  0  0  0  0  0  0  0
    4.7443   -1.1726   -0.8318 H   0  0  0  0  0  0  0  0  0  0  0  0
   -2.6502    2.1204    1.1414 H   0  0  0  0  0  0  0  0  0  0  0  0
   -0.5252    3.0847    1.3793 H   0  0  0  0  0  0  0  0  0  0  0  0
   -0.5812    3.3072   -0.4008 H   0  0  0  0  0  0  0  0  0  0  0  0
    0.8159    2.4662    0.3297 H   0  0  0  0  0  0  0  0  0  0  0  0
   -1.8599   -0.0861   -1.5994 H   0  0  0  0  0  0  0  0  0  0  0  0
   -4.2816   -0.2325   -3.3460 H   0  0  0  0  0  0  0  0  0  0  0  0
   -2.7488   -1.0744   -3.7318 H   0  0  0  0  0  0  0  0  0  0  0  0
   -2.8439    0.7059   -3.8407 H   0  0  0  0  0  0  0  0  0  0  0  0
   -5.1964    1.8717    4.4072 H   0  0  0  0  0  0  0  0  0  0  0  0
   -4.2129    3.2108    3.7240 H   0  0  0  0  0  0  0  0  0  0  0  0
   -3.1561    0.4826    4.6897 H   0  0  0  0  0  0  0  0  0  0  0  0
  1  2  2  0  0  0  0
  2  3  1  0  0  0  0
  3 30  1  0  0  0  0
  3 34  1  1  0  0  0
  3  4  1  0  0  0  0
  4  5  1  0  0  0  0
  4 38  1  0  0  0  0
  5  6  1  0  0  0  0
  6  7  1  0  0  0  0
  6 56  1  0  0  0  0
  7 58  1  0  0  0  0
  8  9  1  0  0  0  0
  8  7  1  0  0  0  0
 10 11  1  0  0  0  0
 10  9  1  0  0  0  0
 11 40  1  0  0  0  0
 12 41  1  0  0  0  0
 12 11  2  0  0  0  0
 13 10  2  0  0  0  0
 14 13  1  0  0  0  0
 14 15  2  0  0  0  0
 15 12  1  0  0  0  0
 16 15  1  0  0  0  0
 17 16  2  0  0  0  0
 18 19  2  0  0  0  0
 18 17  1  0  0  0  0
 19 14  1  0  0  0  0
 20 44  1  0  0  0  0
 20 19  1  0  0  0  0
 21 20  1  0  0  0  0
 22 45  1  0  0  0  0
 22 21  2  0  0  0  0
 23 22  1  0  0  0  0
 24 23  1  0  0  0  0
 25 23  2  0  0  0  0
 25 27  1  0  0  0  0
 26 25  1  0  0  0  0
 27 28  2  0  0  0  0
 28 21  1  0  0  0  0
 28 47  1  0  0  0  0
 29  8  2  0  0  0  0
 30 48  1  0  0  0  0
 31 32  1  0  0  0  0
 31 30  1  0  0  0  0
 32 49  1  0  0  0  0
 33 31  2  0  0  0  0
 35 52  1  0  0  0  0
 35  2  1  0  0  0  0
 36 35  1  0  0  0  0
 37  4  1  0  0  0  0
 39  9  1  0  0  0  0
 42 13  1  0  0  0  0
 43 17  1  0  0  0  0
 46 27  1  0  0  0  0
 50 32  1  0  0  0  0
 51 32  1  0  0  0  0
 53 36  1  0  0  0  0
 54 36  1  0  0  0  0
 55 36  1  0  0  0  0
 57  6  1  0  0  0  0
M  END
