-1 1
 OpenBabel05232413483D

 58 59  0  0  1  0  0  0  0  0999 V2000
   -4.7666   -1.0843   -1.0683 O   0  0  0  0  0  0  0  0  0  0  0  0
   -3.7162   -0.5018   -0.8821 C   0  0  0  0  0  0  0  0  0  0  0  0
   -3.2988    0.0216    0.5101 C   0  0  2  0  0  0  0  0  0  0  0  0
   -4.5191    0.2887    1.4171 C   0  0  0  0  0  0  0  0  0  0  0  0
   -5.2083    1.9654    1.2421 S   0  0  0  0  0  1  0  0  0  0  0  0
   -4.0683    2.5371    4.0129 C   0  0  0  0  0  0  0  0  0  0  0  0
   -3.0225    1.7320    4.2591 C   0  0  0  0  0  0  0  0  0  0  0  0
   -1.6444    2.1943    4.0077 C   0  0  0  0  0  0  0  0  0  0  0  0
   -0.7077    1.1673    3.9271 N   0  0  0  0  0  0  0  0  0  0  0  0
    0.6296    1.3916    3.5516 C   0  0  0  0  0  0  0  0  0  0  0  0
    1.4315    2.3247    4.2577 C   0  0  0  0  0  0  0  0  0  0  0  0
    2.7488    2.5119    3.9136 C   0  0  0  0  0  0  0  0  0  0  0  0
    1.1699    0.7058    2.4843 C   0  0  0  0  0  0  0  0  0  0  0  0
    2.4974    0.9454    2.0740 C   0  0  0  0  0  0  0  0  0  0  0  0
    3.3256    1.8109    2.8247 C   0  0  0  0  0  0  0  0  0  0  0  0
    4.6512    1.9706    2.5300 N   0  0  0  0  0  0  0  0  0  0  0  0
    5.0923    1.2866    1.5116 C   0  0  0  0  0  0  0  0  0  0  0  0
    4.3821    0.5247    0.6510 N   0  0  0  0  0  0  0  0  0  0  0  0
    3.0880    0.3919    0.8755 C   0  0  0  0  0  0  0  0  0  0  0  0
    2.2650   -0.2301   -0.0143 N   0  0  0  0  0  0  0  0  0  0  0  0
    2.5735   -0.9538   -1.1690 C   0  0  0  0  0  0  0  0  0  0  0  0
    1.4786   -1.4797   -1.8796 C   0  0  0  0  0  0  0  0  0  0  0  0
    1.6807   -2.2255   -3.0331 C   0  0  0  0  0  0  0  0  0  0  0  0
    0.2067   -2.9254   -3.9831 Br  0  0  0  0  0  0  0  0  0  0  0  0
    2.9746   -2.4663   -3.4928 C   0  0  0  0  0  0  0  0  0  0  0  0
    3.1764   -3.1845   -4.5995 F   0  0  0  0  0  0  0  0  0  0  0  0
    4.0586   -1.9559   -2.7961 C   0  0  0  0  0  0  0  0  0  0  0  0
    3.8716   -1.2000   -1.6415 C   0  0  0  0  0  0  0  0  0  0  0  0
   -1.3171    3.3595    3.8696 O   0  0  0  0  0  0  0  0  0  0  0  0
   -2.4953    1.2262    0.4810 N   0  0  0  0  0  0  0  0  0  0  0  0
   -1.1951    1.3163    0.2497 C   0  0  0  0  0  0  0  0  0  0  0  0
   -0.5830    2.6881    0.4060 C   0  0  0  0  0  0  0  0  0  0  0  0
   -0.5092    0.3238   -0.0844 O   0  0  0  0  0  0  0  0  0  0  0  0
   -2.6823   -0.7909    0.9384 H   0  0  0  0  0  0  0  0  0  0  0  0
   -2.7951   -0.3345   -1.8690 N   0  0  0  0  0  0  0  0  0  0  0  0
   -3.0328   -0.8668   -3.1860 C   0  0  0  0  0  0  0  0  0  0  0  0
   -5.2706   -0.4748    1.1778 H   0  0  0  0  0  0  0  0  0  0  0  0
   -4.1884    0.1291    2.4596 H   0  0  0  0  0  0  0  0  0  0  0  0
   -1.0797    0.2455    3.7348 H   0  0  0  0  0  0  0  0  0  0  0  0
    0.9872    2.8805    5.0832 H   0  0  0  0  0  0  0  0  0  0  0  0
    3.3888    3.1991    4.4693 H   0  0  0  0  0  0  0  0  0  0  0  0
    0.5405    0.0114    1.9284 H   0  0  0  0  0  0  0  0  0  0  0  0
    6.1658    1.3518    1.2942 H   0  0  0  0  0  0  0  0  0  0  0  0
    1.2586   -0.0199    0.0774 H   0  0  0  0  0  0  0  0  0  0  0  0
    0.4661   -1.2973   -1.5135 H   0  0  0  0  0  0  0  0  0  0  0  0
    5.0626   -2.1543   -3.1757 H   0  0  0  0  0  0  0  0  0  0  0  0
    4.7173   -0.7841   -1.1003 H   0  0  0  0  0  0  0  0  0  0  0  0
   -3.0946    2.0511    0.7056 H   0  0  0  0  0  0  0  0  0  0  0  0
   -0.6030    3.0036    1.4608 H   0  0  0  0  0  0  0  0  0  0  0  0
   -1.1585    3.4285   -0.1686 H   0  0  0  0  0  0  0  0  0  0  0  0
    0.4546    2.6700    0.0518 H   0  0  0  0  0  0  0  0  0  0  0  0
   -1.8541   -0.0647   -1.6014 H   0  0  0  0  0  0  0  0  0  0  0  0
   -4.0452   -0.5971   -3.5181 H   0  0  0  0  0  0  0  0  0  0  0  0
   -2.9567   -1.9682   -3.2169 H   0  0  0  0  0  0  0  0  0  0  0  0
   -2.2992   -0.4471   -3.8876 H   0  0  0  0  0  0  0  0  0  0  0  0
   -5.0962    2.2165    4.1750 H   0  0  0  0  0  0  0  0  0  0  0  0
   -3.9041    3.5616    3.6754 H   0  0  0  0  0  0  0  0  0  0  0  0
   -3.1698    0.6981    4.5867 H   0  0  0  0  0  0  0  0  0  0  0  0
  1  2  2  0  0  0  0
  2  3  1  0  0  0  0
  3 34  1  1  0  0  0
  3  4  1  0  0  0  0
  4 38  1  0  0  0  0
  5  4  1  0  0  0  0
  6 56  1  0  0  0  0
  6  7  2  0  0  0  0
  7 58  1  0  0  0  0
  8  7  1  0  0  0  0
  9  8  1  0  0  0  0
 10  9  1  0  0  0  0
 10 11  1  0  0  0  0
 11 40  1  0  0  0  0
 12 11  2  0  0  0  0
 12 41  1  0  0  0  0
 13 10  2  0  0  0  0
 14 13  1  0  0  0  0
 14 15  2  0  0  0  0
 15 12  1  0  0  0  0
 16 15  1  0  0  0  0
 17 16  2  0  0  0  0
 18 19  2  0  0  0  0
 18 17  1  0  0  0  0
 19 14  1  0  0  0  0
 20 44  1  0  0  0  0
 20 19  1  0  0  0  0
 21 20  1  0  0  0  0
 22 45  1  0  0  0  0
 22 21  2  0  0  0  0
 23 22  1  0  0  0  0
 24 23  1  0  0  0  0
 25 23  2  0  0  0  0
 25 27  1  0  0  0  0
 26 25  1  0  0  0  0
 27 28  2  0  0  0  0
 28 21  1  0  0  0  0
 28 47  1  0  0  0  0
 29  8  2  0  0  0  0
 30  3  1  0  0  0  0
 30 48  1  0  0  0  0
 31 32  1  0  0  0  0
 31 30  1  0  0  0  0
 32 49  1  0  0  0  0
 33 31  2  0  0  0  0
 35 52  1  0  0  0  0
 35  2  1  0  0  0  0
 36 35  1  0  0  0  0
 37  4  1  0  0  0  0
 39  9  1  0  0  0  0
 42 13  1  0  0  0  0
 43 17  1  0  0  0  0
 46 27  1  0  0  0  0
 50 32  1  0  0  0  0
 51 32  1  0  0  0  0
 53 36  1  0  0  0  0
 54 36  1  0  0  0  0
 55 36  1  0  0  0  0
 57  6  1  0  0  0  0
M  END
