42
-1 1
O         2.609363   -2.005463   -2.004779
C         1.782551   -2.826066   -2.361604
C         0.752002   -2.505320   -3.451981
C        -0.563757   -1.994825   -2.832391
S        -1.561117   -3.238473   -1.967324
C        -3.166020   -2.422204   -4.733416
C        -3.524620   -3.121785   -3.609553
C        -2.452489   -3.115498   -5.783804
N        -1.930737   -2.377322   -6.862240
C        -1.944722   -0.999814   -7.064710
C        -0.753366   -0.275439   -7.263770
Br         0.906491   -1.175205   -7.128556
C        -0.774173    1.095536   -7.515013
C        -1.985560    1.780708   -7.546996
C        -3.175777    1.083010   -7.340930
C        -3.154251   -0.288769   -7.119849
O        -2.218894   -4.322566   -5.780771
N         0.469860   -3.614750   -4.330807
C         1.350456   -4.062218   -5.254925
C         0.884438   -5.274585   -6.038765
O         2.443227   -3.544068   -5.440461
H         1.212735   -1.691853   -4.033613
N         1.662078   -4.066915   -1.814609
C         2.399568   -4.436568   -0.637337
H        -0.319817   -1.153393   -2.167090
H        -1.173199   -1.590562   -3.666837
H        -1.178165   -2.887674   -7.312902
H         0.168575    1.624975   -7.662746
H        -1.995962    2.857159   -7.729815
H        -4.132953    1.608614   -7.368193
H        -4.082245   -0.846774   -6.985841
H        -0.438415   -4.066671   -4.224430
H         1.443619   -5.320174   -6.981906
H        -0.199966   -5.243523   -6.221229
H         1.110976   -6.182687   -5.457735
H         0.760989   -4.513605   -1.976686
H         1.817655   -4.272369    0.287067
H         3.300211   -3.810751   -0.588920
H         2.698503   -5.495855   -0.678426
H        -3.271578   -1.337599   -4.767713
H        -3.512013   -4.210611   -3.638213
H        -4.119181   -2.648933   -2.829607
