88
-1 1
O        -2.669334    0.223593   -1.913838
C        -2.309663   -0.069418   -0.782831
C        -2.793103   -1.381948   -0.127163
C        -3.144308   -1.244806    1.372909
S        -3.166307   -2.798543    2.326158
C        -1.472464   -2.717171    3.138147
C        -0.292086   -2.571048    2.250004
C         0.206801   -1.309318    1.955430
N         1.265772   -1.258302    0.996431
C         1.876193   -0.118896    0.529878
C         2.034380    1.040378    1.275561
C         2.377281   -0.127749   -0.813153
O         2.097491   -1.211372   -1.594865
C         0.851137   -1.062060   -2.281531
C         0.648698   -2.199475   -3.256243
C        -0.691318   -2.056953   -3.980842
N        -0.730266   -2.791204   -5.238536
C        -0.685241   -4.244711   -5.123482
C        -2.045860   -4.872591   -4.779721
N        -3.098939   -4.458781   -5.700225
C        -3.161889   -3.003956   -5.755271
C        -1.808951   -2.379826   -6.126570
C        -3.073171   -5.111210   -6.985464
C         3.074638    0.938806   -1.324457
C         3.260627    2.115271   -0.559419
C         2.690568    2.166449    0.735164
C         2.832580    3.430495    1.419231
N         2.217478    3.573672    2.634462
C         2.179349    4.640185    3.536105
C         2.867650    5.847125    3.362146
C         2.780706    6.863440    4.321650
C         3.533538    8.150702    4.097100
C         1.999725    6.672113    5.462854
C         1.310561    5.471101    5.639778
C         1.395246    4.462900    4.691421
N         3.517822    4.421314    0.888286
C         4.051984    4.225233   -0.338445
N         3.955339    3.166173   -1.089585
O        -0.242908   -0.207072    2.377572
N        -1.807796   -2.416914   -0.357872
C        -2.088820   -3.521232   -1.091651
C        -1.077186   -4.643683   -0.965453
O        -3.063654   -3.629657   -1.819435
H        -3.681146   -1.671474   -0.704098
N        -1.442407    0.684078   -0.067812
C        -0.856403    1.876970   -0.627337
H        -2.434873   -0.590201    1.895437
H        -4.138487   -0.784344    1.460368
H         1.385865   -2.067707    0.400536
H         1.594396    1.033902    2.270818
H         0.856650   -0.098890   -2.822042
H         0.028978   -1.028592   -1.547827
H         0.712307   -3.152723   -2.707073
H         1.460070   -2.195194   -4.001686
H        -0.838836   -0.992941   -4.227638
H        -1.520276   -2.305453   -3.291583
H         0.068660   -4.529102   -4.372767
H        -0.323835   -4.649815   -6.087308
H        -2.358975   -4.574636   -3.765039
H        -1.969745   -5.973341   -4.788258
H        -3.474022   -2.640385   -4.761339
H        -3.940578   -2.699074   -6.474808
H        -1.877937   -1.280493   -6.121961
H        -1.539097   -2.676449   -7.157772
H        -3.133894   -6.203012   -6.845915
H        -2.176162   -4.912597   -7.613962
H        -3.953684   -4.804414   -7.573650
H         3.457781    0.903120   -2.344869
H         1.658940    2.778012    2.912231
H         3.465114    5.977551    2.461902
H         4.612729    7.962686    3.985800
H         3.394489    8.852192    4.932165
H         3.195552    8.648495    3.174798
H         1.927116    7.462128    6.214716
H         0.696774    5.318419    6.530632
H         0.850505    3.525883    4.837251
H         4.621146    5.073918   -0.737727
H        -1.115511   -2.516400    0.396718
H        -0.780586   -4.972673   -1.971155
H        -1.568751   -5.490927   -0.466062
H        -0.185204   -4.361786   -0.390086
H        -1.083236    0.381231    0.849389
H         0.060258    1.662361   -1.204469
H        -0.587024    2.567329    0.184131
H        -1.575650    2.360818   -1.301982
H         0.225219   -3.464162    1.886996
H        -1.528987   -1.875548    3.843014
H        -1.452194   -3.652375    3.718087
