88
-1 1
O        -1.731580   -1.384995   -0.497603
C        -2.687599   -2.107905   -0.737904
C        -2.999583   -3.386465    0.031278
C        -3.833455   -3.040340    1.299150
S        -3.865142   -4.386440    2.526605
C        -1.157095   -2.014744    3.829379
C        -0.671106   -1.689147    2.630192
C         0.229073   -0.521988    2.435262
N         0.465299   -0.247270    1.106948
C         1.168418    0.836906    0.595883
C         1.686809    1.865473    1.356030
C         1.334027    0.880860   -0.833775
O         0.891433   -0.208814   -1.476376
C         0.641239   -0.157458   -2.863184
C         0.249192   -1.538271   -3.353690
C        -0.461835   -1.428831   -4.697635
N        -0.523172   -2.669812   -5.448568
C        -0.960848   -3.854664   -4.713531
C        -2.467654   -3.854470   -4.449114
N        -3.263334   -3.693534   -5.666893
C        -2.808683   -2.542316   -6.433626
C        -1.289432   -2.538036   -6.678641
C        -3.400514   -4.903294   -6.443473
C         1.905747    1.978059   -1.438182
C         2.416242    3.047954   -0.662016
C         2.322723    2.974727    0.745407
C         2.889427    4.086629    1.464882
N         2.845153    4.064441    2.832153
C         3.285903    4.979028    3.793680
C         3.914469    6.195087    3.500316
C         4.323604    7.053570    4.528392
C         4.997525    8.354910    4.172916
C         4.102951    6.693188    5.858882
C         3.476650    5.481673    6.156115
C         3.070226    4.630076    5.139867
N         3.439151    5.102095    0.826052
C         3.455285    5.054035   -0.521603
N         2.992589    4.111715   -1.295176
O         0.701078    0.128630    3.355712
N        -1.795250   -4.049626    0.435661
C        -0.858219   -4.451692   -0.437785
C         0.333249   -5.162561    0.166771
O        -0.925326   -4.216338   -1.640979
H        -3.595825   -4.057194   -0.616078
N        -3.618156   -1.782315   -1.672777
C        -3.564267   -0.573895   -2.451338
H        -3.403802   -2.126402    1.743480
H        -4.848529   -2.782590    0.956933
H        -0.070559   -0.791813    0.423437
H         1.555128    1.777481    2.432627
H         1.537206    0.195623   -3.404443
H        -0.166805    0.575988   -3.049628
H        -0.393696   -2.015126   -2.598892
H         1.147546   -2.166938   -3.455904
H         0.071045   -0.696591   -5.334298
H        -1.461393   -0.978844   -4.505364
H        -0.430031   -3.947497   -3.759201
H        -0.687286   -4.736147   -5.321158
H        -2.707015   -3.032614   -3.754156
H        -2.765066   -4.779723   -3.933072
H        -3.088894   -1.628410   -5.879345
H        -3.353770   -2.504846   -7.391659
H        -0.989968   -1.613608   -7.201131
H        -1.023519   -3.379318   -7.344093
H        -3.838465   -5.695385   -5.816034
H        -2.455673   -5.308264   -6.868257
H        -4.089452   -4.729107   -7.286195
H         2.012463    2.055079   -2.518647
H         2.418379    3.235067    3.221371
H         4.077556    6.456397    2.456771
H         5.919369    8.177032    3.597520
H         5.262915    8.931831    5.070317
H         4.341764    8.980437    3.547511
H         4.419934    7.359001    6.665603
H         3.301613    5.196643    7.196139
H         2.578839    3.683533    5.382092
H         3.919410    5.919048   -1.011752
H        -1.897135   -4.461468    1.379107
H         1.149890   -4.432447    0.275140
H         0.669898   -5.949494   -0.520250
H         0.114659   -5.589232    1.155073
H        -4.365837   -2.441462   -1.840127
H        -3.617973   -0.796063   -3.529369
H        -2.606982   -0.082412   -2.235334
H        -4.380662    0.120631   -2.193749
H        -0.961209   -2.252509    1.740810
H        -0.875724   -1.429222    4.710225
H        -1.860643   -2.851263    3.927427
