-1 1
 OpenBabel05192410563D

 57 59  0  0  1  0  0  0  0  0999 V2000
    1.5607    2.0946   -1.1382 O   0  0  0  0  0  0  0  0  0  0  0  0
    2.0030    1.9330   -0.0106 C   0  0  0  0  0  0  0  0  0  0  0  0
    3.5147    1.7527    0.2849 C   0  0  2  0  0  0  0  0  0  0  0  0
    4.3220    2.1725   -0.9429 C   0  0  0  0  0  0  0  0  0  0  0  0
    6.1259    2.0786   -0.8171 S   0  0  0  0  0  0  0  0  0  0  0  0
    6.5895    0.5686   -1.9268 C   0  0  0  0  0  0  0  0  0  0  0  0
    5.5130    0.0621   -2.7863 C   0  0  0  0  0  3  0  0  0  0  0  0
    4.6323   -0.8608   -2.2493 C   0  0  0  0  0  0  0  0  0  0  0  0
    3.4212   -1.0997   -3.0016 N   0  0  0  0  0  0  0  0  0  0  0  0
    2.1966   -1.1784   -2.4013 C   0  0  0  0  0  0  0  0  0  0  0  0
    1.9793   -1.7523   -1.1435 C   0  0  0  0  0  0  0  0  0  0  0  0
    1.1780   -0.6393   -3.1296 N   0  0  0  0  0  0  0  0  0  0  0  0
    0.0111   -0.4919   -2.5666 C   0  0  0  0  0  0  0  0  0  0  0  0
   -0.2842   -0.8873   -1.2413 C   0  0  0  0  0  0  0  0  0  0  0  0
    0.7334   -1.5875   -0.5376 C   0  0  0  0  0  0  0  0  0  0  0  0
    0.4972   -2.0916    0.7175 N   0  0  0  0  0  0  0  0  0  0  0  0
   -0.6852   -1.8750    1.2111 C   0  0  0  0  0  0  0  0  0  0  0  0
   -1.7086   -1.1751    0.6618 N   0  0  0  0  0  0  0  0  0  0  0  0
   -1.5056   -0.6611   -0.5332 C   0  0  0  0  0  0  0  0  0  0  0  0
   -2.4616    0.1390   -1.1138 N   0  0  0  0  0  0  0  0  0  0  0  0
   -3.7134    0.5489   -0.6614 C   0  0  0  0  0  0  0  0  0  0  0  0
   -4.3187    0.0681    0.5109 C   0  0  0  0  0  0  0  0  0  0  0  0
   -5.5818    0.5396    0.8543 C   0  0  0  0  0  0  0  0  0  0  0  0
   -6.3900   -0.1216    2.4436 Br  0  0  0  0  0  0  0  0  0  0  0  0
   -6.2744    1.4716    0.0873 C   0  0  0  0  0  0  0  0  0  0  0  0
   -5.6602    1.9425   -1.0727 C   0  0  0  0  0  0  0  0  0  0  0  0
   -4.4014    1.4923   -1.4458 C   0  0  0  0  0  0  0  0  0  0  0  0
    4.7412   -1.4347   -1.1343 O   0  0  0  0  0  0  0  0  0  0  0  0
    3.7892    0.3917    0.6949 N   0  0  0  0  0  0  0  0  0  0  0  0
    3.5289   -0.0620    1.9323 C   0  0  0  0  0  0  0  0  0  0  0  0
    3.8251   -1.5281    2.1483 C   0  0  0  0  0  0  0  0  0  0  0  0
    3.0335    0.6341    2.8238 O   0  0  0  0  0  0  0  0  0  0  0  0
    3.7594    2.4073    1.1391 H   0  0  0  0  0  0  0  0  0  0  0  0
    1.2327    1.9023    1.1032 N   0  0  0  0  0  0  0  0  0  0  0  0
   -0.2010    2.0048    1.0584 C   0  0  0  0  0  0  0  0  0  0  0  0
    4.0265    1.5596   -1.8089 H   0  0  0  0  0  0  0  0  0  0  0  0
    4.0522    3.2074   -1.1910 H   0  0  0  0  0  0  0  0  0  0  0  0
    3.3628   -0.5888   -3.8757 H   0  0  0  0  0  0  0  0  0  0  0  0
    2.7903   -2.2595   -0.6315 H   0  0  0  0  0  0  0  0  0  0  0  0
   -0.7651   -0.0447   -3.2033 H   0  0  0  0  0  0  0  0  0  0  0  0
   -0.8943   -2.2889    2.2052 H   0  0  0  0  0  0  0  0  0  0  0  0
   -2.1620    0.5918   -1.9659 H   0  0  0  0  0  0  0  0  0  0  0  0
   -3.7816   -0.6505    1.1255 H   0  0  0  0  0  0  0  0  0  0  0  0
   -7.2622    1.8220    0.3871 H   0  0  0  0  0  0  0  0  0  0  0  0
   -6.1745    2.6773   -1.6959 H   0  0  0  0  0  0  0  0  0  0  0  0
   -3.9359    1.8768   -2.3572 H   0  0  0  0  0  0  0  0  0  0  0  0
    4.1990   -0.2702    0.0085 H   0  0  0  0  0  0  0  0  0  0  0  0
    4.5588   -1.9134    1.4277 H   0  0  0  0  0  0  0  0  0  0  0  0
    2.8776   -2.0747    2.0098 H   0  0  0  0  0  0  0  0  0  0  0  0
    4.1685   -1.6778    3.1801 H   0  0  0  0  0  0  0  0  0  0  0  0
    1.7078    1.6364    1.9720 H   0  0  0  0  0  0  0  0  0  0  0  0
   -0.5135    2.0183    0.0060 H   0  0  0  0  0  0  0  0  0  0  0  0
   -0.5606    2.9316    1.5375 H   0  0  0  0  0  0  0  0  0  0  0  0
   -0.6821    1.1509    1.5592 H   0  0  0  0  0  0  0  0  0  0  0  0
    5.2733    0.5806   -3.7189 H   0  0  0  0  0  0  0  0  0  0  0  0
    7.4567    0.9541   -2.4802 H   0  0  0  0  0  0  0  0  0  0  0  0
    6.9101   -0.2022   -1.2151 H   0  0  0  0  0  0  0  0  0  0  0  0
  1  2  2  0  0  0  0
  2  3  1  0  0  0  0
  2 34  1  0  0  0  0
  3 29  1  0  0  0  0
  3 33  1  1  0  0  0
  4  5  1  0  0  0  0
  4  3  1  0  0  0  0
  6 57  1  0  0  0  0
  6  5  1  0  0  0  0
  7  8  1  0  0  0  0
  7  6  1  0  0  0  0
  8 28  2  0  0  0  0
  9 10  1  0  0  0  0
  9  8  1  0  0  0  0
 10 11  1  0  0  0  0
 11 39  1  0  0  0  0
 11 15  2  0  0  0  0
 12 13  1  0  0  0  0
 12 10  2  0  0  0  0
 13 14  2  0  0  0  0
 14 15  1  0  0  0  0
 14 19  1  0  0  0  0
 15 16  1  0  0  0  0
 16 17  2  0  0  0  0
 17 41  1  0  0  0  0
 18 17  1  0  0  0  0
 19 18  2  0  0  0  0
 20 21  1  0  0  0  0
 20 19  1  0  0  0  0
 21 22  1  0  0  0  0
 22 23  2  0  0  0  0
 22 43  1  0  0  0  0
 23 24  1  0  0  0  0
 25 44  1  0  0  0  0
 25 23  1  0  0  0  0
 26 25  2  0  0  0  0
 27 26  1  0  0  0  0
 27 21  2  0  0  0  0
 29 30  1  0  0  0  0
 30 31  1  0  0  0  0
 30 32  2  0  0  0  0
 31 50  1  0  0  0  0
 34 51  1  0  0  0  0
 35 34  1  0  0  0  0
 35 53  1  0  0  0  0
 35 54  1  0  0  0  0
 36  4  1  0  0  0  0
 37  4  1  0  0  0  0
 38  9  1  0  0  0  0
 40 13  1  0  0  0  0
 42 20  1  0  0  0  0
 45 26  1  0  0  0  0
 46 27  1  0  0  0  0
 47 29  1  0  0  0  0
 48 31  1  0  0  0  0
 49 31  1  0  0  0  0
 52 35  1  0  0  0  0
 55  7  1  0  0  0  0
 56  6  1  0  0  0  0
M  END
