-1 1
 OpenBabel05232414493D

 57 58  0  0  1  0  0  0  0  0999 V2000
    3.1295    4.3420   -2.3694 O   0  0  0  0  0  0  0  0  0  0  0  0
    3.0497    3.9088   -1.2304 C   0  0  0  0  0  0  0  0  0  0  0  0
    4.2876    3.4452   -0.4203 C   0  0  2  0  0  0  0  0  0  0  0  0
    5.5666    3.6970   -1.2345 C   0  0  0  0  0  0  0  0  0  0  0  0
    7.0767    2.9135   -0.6297 S   0  0  0  0  0  1  0  0  0  0  0  0
    7.2013    1.2919   -2.5818 C   0  0  0  0  0  3  0  0  0  0  0  0
    6.0102    1.3283   -3.2674 C   0  0  0  0  0  3  0  0  0  0  0  0
    4.8868    0.5817   -2.7527 C   0  0  0  0  0  0  0  0  0  0  0  0
    3.6363    0.9876   -3.2633 N   0  0  0  0  0  0  0  0  0  0  0  0
    2.4010    0.7606   -2.7159 C   0  0  0  0  0  0  0  0  0  0  0  0
    2.1460   -0.1243   -1.6685 C   0  0  0  0  0  0  0  0  0  0  0  0
    1.4180    1.5065   -3.2896 N   0  0  0  0  0  0  0  0  0  0  0  0
    0.2236    1.4877   -2.7671 C   0  0  0  0  0  0  0  0  0  0  0  0
   -0.1260    0.7349   -1.6237 C   0  0  0  0  0  0  0  0  0  0  0  0
    0.8709   -0.1246   -1.0907 C   0  0  0  0  0  0  0  0  0  0  0  0
    0.5981   -0.9332   -0.0179 N   0  0  0  0  0  0  0  0  0  0  0  0
   -0.6009   -0.8477    0.4773 C   0  0  0  0  0  0  0  0  0  0  0  0
   -1.6172   -0.0435    0.0805 N   0  0  0  0  0  0  0  0  0  0  0  0
   -1.3869    0.7518   -0.9409 C   0  0  0  0  0  0  0  0  0  0  0  0
   -2.3501    1.6357   -1.3635 N   0  0  0  0  0  0  0  0  0  0  0  0
   -3.6534    1.8614   -0.9204 C   0  0  0  0  0  0  0  0  0  0  0  0
   -4.2749    1.1202    0.0964 C   0  0  0  0  0  0  0  0  0  0  0  0
   -5.5860    1.4305    0.4447 C   0  0  0  0  0  0  0  0  0  0  0  0
   -6.4181    0.4176    1.8208 Br  0  0  0  0  0  0  0  0  0  0  0  0
   -6.3088    2.4484   -0.1704 C   0  0  0  0  0  0  0  0  0  0  0  0
   -5.6773    3.1785   -1.1766 C   0  0  0  0  0  0  0  0  0  0  0  0
   -4.3711    2.8938   -1.5498 C   0  0  0  0  0  0  0  0  0  0  0  0
    4.9557   -0.3007   -1.9018 O   0  0  0  0  0  0  0  0  0  0  0  0
    4.2072    2.0446   -0.0454 N   0  0  0  0  0  0  0  0  0  0  0  0
    3.4659    1.5540    0.9651 C   0  0  0  0  0  0  0  0  0  0  0  0
    3.7510    0.1199    1.3464 C   0  0  0  0  0  0  0  0  0  0  0  0
    2.5980    2.2054    1.5510 O   0  0  0  0  0  0  0  0  0  0  0  0
    4.3013    4.0468    0.5075 H   0  0  0  0  0  0  0  0  0  0  0  0
    1.8813    3.8311   -0.5484 N   0  0  0  0  0  0  0  0  0  0  0  0
    0.6407    4.2901   -1.1061 C   0  0  0  0  0  0  0  0  0  0  0  0
    5.3720    3.3197   -2.2546 H   0  0  0  0  0  0  0  0  0  0  0  0
    5.6930    4.7841   -1.3324 H   0  0  0  0  0  0  0  0  0  0  0  0
    3.6364    1.7878   -3.8873 H   0  0  0  0  0  0  0  0  0  0  0  0
    2.9392   -0.7543   -1.2788 H   0  0  0  0  0  0  0  0  0  0  0  0
   -0.5216    2.1080   -3.2844 H   0  0  0  0  0  0  0  0  0  0  0  0
   -0.8351   -1.4945    1.3313 H   0  0  0  0  0  0  0  0  0  0  0  0
   -2.0555    2.2551   -2.1050 H   0  0  0  0  0  0  0  0  0  0  0  0
   -3.7161    0.3290    0.5910 H   0  0  0  0  0  0  0  0  0  0  0  0
   -7.3342    2.6669    0.1283 H   0  0  0  0  0  0  0  0  0  0  0  0
   -6.2158    3.9858   -1.6775 H   0  0  0  0  0  0  0  0  0  0  0  0
   -3.8933    3.4793   -2.3399 H   0  0  0  0  0  0  0  0  0  0  0  0
    5.0214    1.4990   -0.3333 H   0  0  0  0  0  0  0  0  0  0  0  0
    4.5097   -0.3432    0.7021 H   0  0  0  0  0  0  0  0  0  0  0  0
    2.8131   -0.4504    1.2749 H   0  0  0  0  0  0  0  0  0  0  0  0
    4.0839    0.0999    2.3943 H   0  0  0  0  0  0  0  0  0  0  0  0
    1.9197    3.3974    0.3818 H   0  0  0  0  0  0  0  0  0  0  0  0
    0.7334    4.3132   -2.2008 H   0  0  0  0  0  0  0  0  0  0  0  0
    0.3776    5.3076   -0.7634 H   0  0  0  0  0  0  0  0  0  0  0  0
   -0.1808    3.6146   -0.8211 H   0  0  0  0  0  0  0  0  0  0  0  0
    5.8431    2.0573   -4.0650 H   0  0  0  0  0  0  0  0  0  0  0  0
    8.0813    1.8020   -2.9708 H   0  0  0  0  0  0  0  0  0  0  0  0
    7.3709    0.4858   -1.8689 H   0  0  0  0  0  0  0  0  0  0  0  0
  1  2  2  0  0  0  0
  2 34  1  0  0  0  0
  2  3  1  0  0  0  0
  3 29  1  0  0  0  0
  3 33  1  1  0  0  0
  4  5  1  0  0  0  0
  4  3  1  0  0  0  0
  6 57  1  0  0  0  0
  7  8  1  0  0  0  0
  7  6  1  0  0  0  0
  8 28  2  0  0  0  0
  9  8  1  0  0  0  0
  9 10  1  0  0  0  0
 10 11  1  0  0  0  0
 11 39  1  0  0  0  0
 11 15  2  0  0  0  0
 12 13  1  0  0  0  0
 12 10  2  0  0  0  0
 13 14  2  0  0  0  0
 14 15  1  0  0  0  0
 14 19  1  0  0  0  0
 15 16  1  0  0  0  0
 16 17  2  0  0  0  0
 17 41  1  0  0  0  0
 18 17  1  0  0  0  0
 19 18  2  0  0  0  0
 20 19  1  0  0  0  0
 20 21  1  0  0  0  0
 21 22  1  0  0  0  0
 22 23  2  0  0  0  0
 22 43  1  0  0  0  0
 23 24  1  0  0  0  0
 25 44  1  0  0  0  0
 25 23  1  0  0  0  0
 26 25  2  0  0  0  0
 27 26  1  0  0  0  0
 27 21  2  0  0  0  0
 29 30  1  0  0  0  0
 30 31  1  0  0  0  0
 30 32  2  0  0  0  0
 31 50  1  0  0  0  0
 34 51  1  0  0  0  0
 35 54  1  0  0  0  0
 35 53  1  0  0  0  0
 35 34  1  0  0  0  0
 36  4  1  0  0  0  0
 37  4  1  0  0  0  0
 38  9  1  0  0  0  0
 40 13  1  0  0  0  0
 42 20  1  0  0  0  0
 45 26  1  0  0  0  0
 46 27  1  0  0  0  0
 47 29  1  0  0  0  0
 48 31  1  0  0  0  0
 49 31  1  0  0  0  0
 52 35  1  0  0  0  0
 55  7  1  0  0  0  0
 56  6  1  0  0  0  0
M  END
