62
-1 1
O         1.605758    1.145677   -1.774994
C         1.601045    1.012617   -2.987837
C         0.686302    1.808344   -3.912392
C         1.406581    3.121381   -4.336610
S         0.274265    4.353328   -5.055593
C         0.744763   -2.083444   -6.495996
C         0.303434   -1.844511   -5.261237
C         0.901766   -2.558419   -4.085122
N         0.399937   -2.118805   -2.899963
C         0.841531   -2.419142   -1.606840
C         1.747931   -3.467268   -1.307993
C         2.124566   -3.683347   -0.004042
C         0.359644   -1.616312   -0.586747
C         0.774039   -1.791513    0.750120
C         1.645362   -2.876087    1.055583
N         2.010434   -3.190918    2.332950
C         1.495377   -2.443483    3.266506
N         0.711917   -1.360439    3.109899
C         0.379270   -0.981984    1.889538
N        -0.331312    0.190343    1.774939
C        -0.477938    0.993082    0.543909
C        -0.731214    2.420677    1.034207
C        -1.229696    2.204298    2.435212
C        -0.915519    0.897509    2.843597
C        -1.234484    0.460143    4.131018
C        -1.883349    1.363213    4.973881
Br        -2.338986    0.787522    6.730974
C        -2.207924    2.660557    4.588762
C        -1.867823    3.079324    3.298945
O         1.762352   -3.417279   -4.213261
N        -0.550776    2.168753   -3.273918
C        -1.477080    1.306918   -2.866888
C        -2.781235    1.912036   -2.393830
O        -1.327696    0.076691   -2.847895
H         0.471660    1.215919   -4.821098
N         2.470140    0.199438   -3.640341
C         3.462707   -0.598095   -2.962705
H         1.900548    3.528547   -3.438027
H         2.203120    2.838630   -5.042733
H        -0.243550   -1.315599   -2.948086
H         2.126190   -4.083792   -2.120920
H         2.801085   -4.497849    0.259953
H        -0.343496   -0.840985   -0.869782
H         1.732509   -2.700930    4.306480
H        -1.347658    0.630987   -0.028837
H         0.407417    0.931302   -0.098484
H        -1.441862    2.953808    0.388077
H         0.202676    3.006403    1.041919
H        -0.967263   -0.539190    4.460196
H        -2.712371    3.334848    5.281561
H        -2.104591    4.095548    2.975331
H        -0.797133    3.148949   -3.518800
H        -3.605872    1.432080   -2.938467
H        -2.825018    2.999160   -2.539511
H        -2.917382    1.681787   -1.326814
H         2.379013    0.115309   -4.644160
H         4.480621   -0.202253   -3.116232
H         3.425167   -1.640496   -3.312327
H         3.237389   -0.575276   -1.888858
H         1.537820   -2.820460   -6.653013
H         0.333417   -1.559934   -7.361809
H        -0.485092   -1.111444   -5.063093
