62
-1 1
O         1.647391    2.115696   -1.721019
C         1.676717    1.200690   -2.542087
C         0.642848    1.117242   -3.678395
C         1.297272    1.326529   -5.052664
S         0.256931    0.957349   -6.497330
C         0.415340   -0.923296   -6.562758
C        -0.126219   -1.645539   -5.396256
C         0.684597   -1.944581   -4.319278
N        -0.018538   -2.256657   -3.096047
C         0.632730   -2.354438   -1.880727
C         1.785384   -3.181320   -1.732761
C         2.380438   -3.333957   -0.507745
C         0.170808   -1.651861   -0.776062
C         0.808327   -1.751738    0.482476
C         1.896097   -2.656145    0.640845
N         2.465269   -2.911699    1.853613
C         1.954197   -2.274177    2.869278
N         1.007943   -1.316080    2.834798
C         0.477059   -1.000713    1.670098
N        -0.377159    0.088715    1.641188
C        -0.571660    0.966983    0.469132
C        -0.819790    2.360241    1.060041
C        -1.244916    2.052270    2.469910
C        -0.899539    0.725425    2.774178
C        -1.138123    0.201058    4.046539
C        -1.741901    1.040048    4.982605
Br        -2.088441    0.349616    6.724067
C        -2.100036    2.356143    4.701987
C        -1.839116    2.861566    3.424363
O         1.948103   -1.866745   -4.260289
N        -0.443087    2.024594   -3.420189
C        -1.599727    1.609906   -2.852358
C        -2.600947    2.705886   -2.541458
O        -1.866624    0.439080   -2.621606
H         0.202012    0.118293   -3.661523
N         2.576475    0.207466   -2.535049
C         3.525150    0.081332   -1.458841
H         1.628547    2.373016   -5.154110
H         2.189253    0.688119   -5.110745
H        -0.903778   -1.761268   -3.035655
H         2.166958   -3.694940   -2.613883
H         3.235338   -3.998811   -0.371067
H        -0.689001   -1.003003   -0.924972
H         2.349995   -2.507828    3.865551
H        -1.442326    0.638175   -0.118419
H         0.309491    0.957208   -0.181662
H        -1.575445    2.916634    0.488327
H         0.105365    2.959853    1.052595
H        -0.843057   -0.814416    4.295629
H        -2.567893    2.977845    5.465961
H        -2.101324    3.894883    3.184366
H        -0.212937    3.007802   -3.360610
H        -3.421884    2.639790   -3.270301
H        -2.172977    3.717138   -2.581406
H        -3.026371    2.523564   -1.545568
H         2.429779   -0.604727   -3.175174
H         4.010002    1.047301   -1.254649
H         4.286897   -0.658718   -1.736468
H         3.041793   -0.257539   -0.525896
H         1.488421   -1.126053   -6.690550
H        -0.098274   -1.151592   -7.510372
H        -1.211441   -1.714229   -5.282170
