62
-1 1
O        -2.206263   -2.228031    3.661636
C        -2.142849   -3.073912    2.776834
C        -3.099641   -3.083759    1.576767
C        -2.383416   -2.722764    0.263830
S        -3.415336   -2.899177   -1.223013
C        -3.474630   -5.368662   -1.230765
C        -3.985152   -5.942111   -0.081760
C        -3.135342   -6.252644    1.031495
N        -3.820834   -6.414900    2.250660
C        -3.186005   -6.572753    3.481736
C        -2.107969   -7.484427    3.644265
C        -1.555410   -7.684976    4.883781
C        -3.627697   -5.845262    4.574272
C        -3.037968   -6.002956    5.850254
C        -2.020042   -6.982166    6.023890
N        -1.498189   -7.290546    7.246480
C        -1.999560   -6.638575    8.257205
N        -2.893107   -5.632475    8.217029
C        -3.372181   -5.258751    7.045755
N        -4.172932   -4.135923    7.024234
C        -4.352321   -3.248917    5.855235
C        -4.588331   -1.857095    6.452550
C        -5.020062   -2.166094    7.859460
C        -4.695443   -3.498587    8.160642
C        -4.951364   -4.025270    9.428456
C        -5.549535   -3.181763   10.364509
Br        -5.919188   -3.875809   12.099284
C        -5.884853   -1.859229   10.087424
C        -5.608077   -1.352200    8.814029
O        -1.897077   -6.311028    1.005148
N        -4.240117   -2.242549    1.825824
C        -5.368157   -2.700884    2.390010
C        -6.495282   -1.698953    2.532540
O        -5.510759   -3.854910    2.789687
H        -3.491946   -4.096482    1.477241
N        -1.227098   -4.064966    2.766038
C        -0.323298   -4.248278    3.872948
H        -2.001386   -1.688735    0.339540
H        -1.501082   -3.374796    0.184707
H        -4.684767   -5.878056    2.300042
H        -1.741680   -8.024944    2.772750
H        -0.753910   -8.409561    5.037161
H        -4.436505   -5.140633    4.401231
H        -1.643427   -6.908701    9.259256
H        -5.223238   -3.564090    5.261082
H        -3.468294   -3.260777    5.208233
H        -5.336739   -1.291084    5.881006
H        -3.658145   -1.265521    6.449593
H        -4.674168   -5.046173    9.674648
H        -6.348460   -1.233710   10.850905
H        -5.854104   -0.314488    8.576302
H        -4.208857   -1.292030    1.484793
H        -7.387101   -2.112205    2.042120
H        -6.268081   -0.714856    2.101275
H        -6.728319   -1.582305    3.600811
H        -1.334711   -4.839234    2.100221
H         0.094746   -3.280264    4.182697
H         0.492478   -4.916937    3.568431
H        -0.827752   -4.694046    4.747692
H        -2.396719   -5.408698   -1.398205
H        -4.093081   -5.293526   -2.124584
H        -5.066589   -5.985887    0.072003
