-1 1
 OpenBabel05232414493D

 62 64  0  0  1  0  0  0  0  0999 V2000
   -2.2063   -2.2280    3.6616 O   0  0  0  0  0  0  0  0  0  0  0  0
   -2.1428   -3.0739    2.7768 C   0  0  0  0  0  0  0  0  0  0  0  0
   -3.0996   -3.0838    1.5768 C   0  0  2  0  0  0  0  0  0  0  0  0
   -2.3834   -2.7228    0.2638 C   0  0  0  0  0  0  0  0  0  0  0  0
   -3.4153   -2.8992   -1.2230 S   0  0  0  0  0  1  0  0  0  0  0  0
   -3.4746   -5.3687   -1.2308 C   0  0  0  0  0  3  0  0  0  0  0  0
   -3.9852   -5.9421   -0.0818 C   0  0  0  0  0  3  0  0  0  0  0  0
   -3.1353   -6.2526    1.0315 C   0  0  0  0  0  0  0  0  0  0  0  0
   -3.8208   -6.4149    2.2507 N   0  0  0  0  0  0  0  0  0  0  0  0
   -3.1860   -6.5728    3.4817 C   0  0  0  0  0  0  0  0  0  0  0  0
   -2.1080   -7.4844    3.6443 C   0  0  0  0  0  0  0  0  0  0  0  0
   -1.5554   -7.6850    4.8838 C   0  0  0  0  0  0  0  0  0  0  0  0
   -3.6277   -5.8453    4.5743 C   0  0  0  0  0  0  0  0  0  0  0  0
   -3.0380   -6.0030    5.8503 C   0  0  0  0  0  0  0  0  0  0  0  0
   -2.0200   -6.9822    6.0239 C   0  0  0  0  0  0  0  0  0  0  0  0
   -1.4982   -7.2905    7.2465 N   0  0  0  0  0  0  0  0  0  0  0  0
   -1.9996   -6.6386    8.2572 C   0  0  0  0  0  0  0  0  0  0  0  0
   -2.8931   -5.6325    8.2170 N   0  0  0  0  0  0  0  0  0  0  0  0
   -3.3722   -5.2588    7.0458 C   0  0  0  0  0  0  0  0  0  0  0  0
   -4.1729   -4.1359    7.0242 N   0  0  0  0  0  0  0  0  0  0  0  0
   -4.3523   -3.2489    5.8552 C   0  0  0  0  0  0  0  0  0  0  0  0
   -4.5883   -1.8571    6.4525 C   0  0  0  0  0  0  0  0  0  0  0  0
   -5.0201   -2.1661    7.8595 C   0  0  0  0  0  0  0  0  0  0  0  0
   -4.6954   -3.4986    8.1606 C   0  0  0  0  0  0  0  0  0  0  0  0
   -4.9514   -4.0253    9.4285 C   0  0  0  0  0  0  0  0  0  0  0  0
   -5.5495   -3.1818   10.3645 C   0  0  0  0  0  0  0  0  0  0  0  0
   -5.9192   -3.8758   12.0993 Br  0  0  0  0  0  0  0  0  0  0  0  0
   -5.8849   -1.8592   10.0874 C   0  0  0  0  0  0  0  0  0  0  0  0
   -5.6081   -1.3522    8.8140 C   0  0  0  0  0  0  0  0  0  0  0  0
   -1.8971   -6.3110    1.0051 O   0  0  0  0  0  0  0  0  0  0  0  0
   -4.2401   -2.2425    1.8258 N   0  0  0  0  0  0  0  0  0  0  0  0
   -5.3682   -2.7009    2.3900 C   0  0  0  0  0  0  0  0  0  0  0  0
   -6.4953   -1.6990    2.5325 C   0  0  0  0  0  0  0  0  0  0  0  0
   -5.5108   -3.8549    2.7897 O   0  0  0  0  0  0  0  0  0  0  0  0
   -3.4919   -4.0965    1.4772 H   0  0  0  0  0  0  0  0  0  0  0  0
   -1.2271   -4.0650    2.7660 N   0  0  0  0  0  0  0  0  0  0  0  0
   -0.3233   -4.2483    3.8729 C   0  0  0  0  0  0  0  0  0  0  0  0
   -2.0014   -1.6887    0.3395 H   0  0  0  0  0  0  0  0  0  0  0  0
   -1.5011   -3.3748    0.1847 H   0  0  0  0  0  0  0  0  0  0  0  0
   -4.6848   -5.8781    2.3000 H   0  0  0  0  0  0  0  0  0  0  0  0
   -1.7417   -8.0249    2.7727 H   0  0  0  0  0  0  0  0  0  0  0  0
   -0.7539   -8.4096    5.0372 H   0  0  0  0  0  0  0  0  0  0  0  0
   -4.4365   -5.1406    4.4012 H   0  0  0  0  0  0  0  0  0  0  0  0
   -1.6434   -6.9087    9.2593 H   0  0  0  0  0  0  0  0  0  0  0  0
   -5.2232   -3.5641    5.2611 H   0  0  0  0  0  0  0  0  0  0  0  0
   -3.4683   -3.2608    5.2082 H   0  0  0  0  0  0  0  0  0  0  0  0
   -5.3367   -1.2911    5.8810 H   0  0  0  0  0  0  0  0  0  0  0  0
   -3.6581   -1.2655    6.4496 H   0  0  0  0  0  0  0  0  0  0  0  0
   -4.6742   -5.0462    9.6746 H   0  0  0  0  0  0  0  0  0  0  0  0
   -6.3485   -1.2337   10.8509 H   0  0  0  0  0  0  0  0  0  0  0  0
   -5.8541   -0.3145    8.5763 H   0  0  0  0  0  0  0  0  0  0  0  0
   -4.2089   -1.2920    1.4848 H   0  0  0  0  0  0  0  0  0  0  0  0
   -7.3871   -2.1122    2.0421 H   0  0  0  0  0  0  0  0  0  0  0  0
   -6.2681   -0.7149    2.1013 H   0  0  0  0  0  0  0  0  0  0  0  0
   -6.7283   -1.5823    3.6008 H   0  0  0  0  0  0  0  0  0  0  0  0
   -1.3347   -4.8392    2.1002 H   0  0  0  0  0  0  0  0  0  0  0  0
    0.0947   -3.2803    4.1827 H   0  0  0  0  0  0  0  0  0  0  0  0
    0.4925   -4.9169    3.5684 H   0  0  0  0  0  0  0  0  0  0  0  0
   -0.8278   -4.6940    4.7477 H   0  0  0  0  0  0  0  0  0  0  0  0
   -2.3967   -5.4087   -1.3982 H   0  0  0  0  0  0  0  0  0  0  0  0
   -4.0931   -5.2935   -2.1246 H   0  0  0  0  0  0  0  0  0  0  0  0
   -5.0666   -5.9859    0.0720 H   0  0  0  0  0  0  0  0  0  0  0  0
  2  1  2  0  0  0  0
  3 35  1  6  0  0  0
  3 31  1  0  0  0  0
  3  2  1  0  0  0  0
  4 38  1  0  0  0  0
  4  3  1  0  0  0  0
  5  4  1  0  0  0  0
  6  7  1  0  0  0  0
  7 62  1  0  0  0  0
  7  8  1  0  0  0  0
  8  9  1  0  0  0  0
  9 40  1  0  0  0  0
  9 10  1  0  0  0  0
 10 11  2  0  0  0  0
 10 13  1  0  0  0  0
 11 12  1  0  0  0  0
 12 42  1  0  0  0  0
 12 15  2  0  0  0  0
 13 14  2  0  0  0  0
 14 15  1  0  0  0  0
 14 19  1  0  0  0  0
 15 16  1  0  0  0  0
 16 17  2  0  0  0  0
 17 44  1  0  0  0  0
 18 17  1  0  0  0  0
 19 18  2  0  0  0  0
 20 19  1  0  0  0  0
 20 24  1  0  0  0  0
 21 22  1  0  0  0  0
 21 20  1  0  0  0  0
 22 23  1  0  0  0  0
 23 24  2  0  0  0  0
 23 29  1  0  0  0  0
 24 25  1  0  0  0  0
 25 49  1  0  0  0  0
 25 26  2  0  0  0  0
 26 27  1  0  0  0  0
 28 26  1  0  0  0  0
 28 50  1  0  0  0  0
 29 28  2  0  0  0  0
 30  8  2  0  0  0  0
 31 32  1  0  0  0  0
 32 33  1  0  0  0  0
 32 34  2  0  0  0  0
 33 55  1  0  0  0  0
 36  2  1  0  0  0  0
 36 37  1  0  0  0  0
 37 57  1  0  0  0  0
 37 59  1  0  0  0  0
 39  4  1  0  0  0  0
 41 11  1  0  0  0  0
 43 13  1  0  0  0  0
 45 21  1  0  0  0  0
 46 21  1  0  0  0  0
 47 22  1  0  0  0  0
 48 22  1  0  0  0  0
 51 29  1  0  0  0  0
 52 31  1  0  0  0  0
 53 33  1  0  0  0  0
 54 33  1  0  0  0  0
 56 36  1  0  0  0  0
 58 37  1  0  0  0  0
 60  6  1  0  0  0  0
 61  6  1  0  0  0  0
M  END
