-1 1
 OpenBabel05232413483D

 57 58  0  0  1  0  0  0  0  0999 V2000
    1.5726    0.5343    0.0274 O   0  0  0  0  0  0  0  0  0  0  0  0
    2.5149    0.0023    0.5979 C   0  0  0  0  0  0  0  0  0  0  0  0
    3.7727   -0.4567   -0.1285 C   0  0  2  0  0  0  0  0  0  0  0  0
    4.8353    0.6795   -0.0681 C   0  0  0  0  0  0  0  0  0  0  0  0
    6.1915    0.4515   -1.2594 S   0  0  0  0  0  1  0  0  0  0  0  0
    4.6670   -4.8205    1.7436 C   0  0  0  0  0  0  0  0  0  0  0  0
    3.6024   -4.1986    1.2375 C   0  0  0  0  0  0  0  0  0  0  0  0
    2.3840   -3.9773    2.0782 C   0  0  0  0  0  0  0  0  0  0  0  0
    1.4534   -3.1813    1.4644 N   0  0  0  0  0  0  0  0  0  0  0  0
    0.2526   -2.7219    1.9868 C   0  0  0  0  0  0  0  0  0  0  0  0
   -0.3604   -3.2799    3.1502 C   0  0  0  0  0  0  0  0  0  0  0  0
   -1.5785   -2.7912    3.5496 C   0  0  0  0  0  0  0  0  0  0  0  0
   -0.2959   -1.7308    1.3173 N   0  0  0  0  0  0  0  0  0  0  0  0
   -1.4715   -1.2371    1.7302 C   0  0  0  0  0  0  0  0  0  0  0  0
   -2.1948   -1.7379    2.8265 C   0  0  0  0  0  0  0  0  0  0  0  0
   -3.4205   -1.2472    3.1749 N   0  0  0  0  0  0  0  0  0  0  0  0
   -3.8715   -0.2823    2.4191 C   0  0  0  0  0  0  0  0  0  0  0  0
   -3.2592    0.3223    1.3778 N   0  0  0  0  0  0  0  0  0  0  0  0
   -2.0554   -0.1048    1.0375 C   0  0  0  0  0  0  0  0  0  0  0  0
   -1.3076    0.4738    0.0723 N   0  0  0  0  0  0  0  0  0  0  0  0
   -1.6094    1.5323   -0.7904 C   0  0  0  0  0  0  0  0  0  0  0  0
   -2.8708    2.1391   -0.8653 C   0  0  0  0  0  0  0  0  0  0  0  0
   -3.0843    3.1711   -1.7773 C   0  0  0  0  0  0  0  0  0  0  0  0
   -4.7847    3.9941   -1.8871 Br  0  0  0  0  0  0  0  0  0  0  0  0
   -2.0609    3.6087   -2.6099 C   0  0  0  0  0  0  0  0  0  0  0  0
   -2.2700    4.5982   -3.4806 F   0  0  0  0  0  0  0  0  0  0  0  0
   -0.8067    3.0142   -2.5335 C   0  0  0  0  0  0  0  0  0  0  0  0
   -0.5771    1.9843   -1.6330 C   0  0  0  0  0  0  0  0  0  0  0  0
    2.2629   -4.4482    3.1969 O   0  0  0  0  0  0  0  0  0  0  0  0
    3.5034   -0.7525   -1.5060 N   0  0  0  0  0  0  0  0  0  0  0  0
    2.7332   -1.7637   -1.9090 C   0  0  0  0  0  0  0  0  0  0  0  0
    2.6411   -1.9714   -3.4038 C   0  0  0  0  0  0  0  0  0  0  0  0
    2.0968   -2.4932   -1.1412 O   0  0  0  0  0  0  0  0  0  0  0  0
    4.1824   -1.3513    0.3769 H   0  0  0  0  0  0  0  0  0  0  0  0
    2.5680   -0.1480    1.9433 N   0  0  0  0  0  0  0  0  0  0  0  0
    1.5726    0.3697    2.8468 C   0  0  0  0  0  0  0  0  0  0  0  0
    4.3090    1.6311   -0.2581 H   0  0  0  0  0  0  0  0  0  0  0  0
    5.2066    0.7198    0.9685 H   0  0  0  0  0  0  0  0  0  0  0  0
    1.6805   -2.8034    0.5251 H   0  0  0  0  0  0  0  0  0  0  0  0
    0.1533   -4.0764    3.6839 H   0  0  0  0  0  0  0  0  0  0  0  0
   -2.0986   -3.1971    4.4195 H   0  0  0  0  0  0  0  0  0  0  0  0
   -4.8687    0.1084    2.6562 H   0  0  0  0  0  0  0  0  0  0  0  0
   -0.3403    0.1290    0.0213 H   0  0  0  0  0  0  0  0  0  0  0  0
   -3.6665    1.8041   -0.2039 H   0  0  0  0  0  0  0  0  0  0  0  0
   -0.0113    3.3745   -3.1879 H   0  0  0  0  0  0  0  0  0  0  0  0
    0.4115    1.5272   -1.5540 H   0  0  0  0  0  0  0  0  0  0  0  0
    4.2415   -0.3578   -2.1157 H   0  0  0  0  0  0  0  0  0  0  0  0
    2.7263   -3.0448   -3.6187 H   0  0  0  0  0  0  0  0  0  0  0  0
    3.4078   -1.4145   -3.9583 H   0  0  0  0  0  0  0  0  0  0  0  0
    1.6462   -1.6415   -3.7380 H   0  0  0  0  0  0  0  0  0  0  0  0
    3.3838   -0.6047    2.3289 H   0  0  0  0  0  0  0  0  0  0  0  0
    1.1311   -0.4296    3.4626 H   0  0  0  0  0  0  0  0  0  0  0  0
    0.7775    0.8261    2.2451 H   0  0  0  0  0  0  0  0  0  0  0  0
    1.9970    1.1383    3.5129 H   0  0  0  0  0  0  0  0  0  0  0  0
    4.6469   -5.1825    2.7757 H   0  0  0  0  0  0  0  0  0  0  0  0
    5.5706   -4.9751    1.1502 H   0  0  0  0  0  0  0  0  0  0  0  0
    3.5837   -3.8197    0.2118 H   0  0  0  0  0  0  0  0  0  0  0  0
  1  2  2  0  0  0  0
  2 35  1  0  0  0  0
  3  4  1  0  0  0  0
  3 34  1  1  0  0  0
  3  2  1  0  0  0  0
  4 38  1  0  0  0  0
  5  4  1  0  0  0  0
  6 55  1  0  0  0  0
  7  6  2  0  0  0  0
  7  8  1  0  0  0  0
  8 29  2  0  0  0  0
  9 10  1  0  0  0  0
  9  8  1  0  0  0  0
 10 11  1  0  0  0  0
 11 12  2  0  0  0  0
 11 40  1  0  0  0  0
 12 41  1  0  0  0  0
 13 14  1  0  0  0  0
 13 10  2  0  0  0  0
 14 15  2  0  0  0  0
 15 16  1  0  0  0  0
 15 12  1  0  0  0  0
 17 42  1  0  0  0  0
 17 16  2  0  0  0  0
 18 17  1  0  0  0  0
 19 18  2  0  0  0  0
 19 14  1  0  0  0  0
 20 19  1  0  0  0  0
 21 20  1  0  0  0  0
 22 21  1  0  0  0  0
 22 44  1  0  0  0  0
 23 22  2  0  0  0  0
 24 23  1  0  0  0  0
 25 27  2  0  0  0  0
 25 23  1  0  0  0  0
 26 25  1  0  0  0  0
 27 28  1  0  0  0  0
 28 46  1  0  0  0  0
 28 21  2  0  0  0  0
 30  3  1  0  0  0  0
 31 30  1  0  0  0  0
 31 33  2  0  0  0  0
 32 31  1  0  0  0  0
 35 51  1  0  0  0  0
 35 36  1  0  0  0  0
 36 52  1  0  0  0  0
 36 54  1  0  0  0  0
 37  4  1  0  0  0  0
 39  9  1  0  0  0  0
 43 20  1  0  0  0  0
 45 27  1  0  0  0  0
 47 30  1  0  0  0  0
 48 32  1  0  0  0  0
 49 32  1  0  0  0  0
 50 32  1  0  0  0  0
 53 36  1  0  0  0  0
 56  6  1  0  0  0  0
 57  7  1  0  0  0  0
M  END
