57
-1 1
O        -3.295680    5.690288    0.053211
C        -2.921114    4.589782    0.415571
C        -2.066957    3.659199   -0.460951
C        -0.655445    3.498059    0.138197
S         0.481026    2.470936   -0.846567
C        -0.448160    0.309949    0.100466
C        -1.801838    0.152367   -0.078993
C        -2.747357    0.706419    0.851528
N        -4.063036    0.803507    0.342600
C        -5.038971    1.573091    0.965331
C        -5.343077    1.403777    2.349187
C        -6.327588    2.175559    2.907286
N        -5.662974    2.447162    0.212000
C        -6.591636    3.237309    0.772575
C        -6.996897    3.145063    2.114301
N        -7.971598    3.946345    2.634469
C        -8.486875    4.811583    1.802489
N        -8.144860    5.042376    0.516594
C        -7.187983    4.297868   -0.010180
N        -6.709324    4.480182   -1.262735
C        -7.123735    5.370292   -2.255131
C        -8.152384    6.309032   -2.087557
C        -8.504554    7.142123   -3.147882
Br        -9.894897    8.407373   -2.928508
C        -7.847255    7.060583   -4.369605
F        -8.187370    7.862120   -5.382408
C        -6.825865    6.133545   -4.540497
C        -6.467778    5.293111   -3.497133
O        -2.499352    1.135335    1.981663
N        -1.981126    4.160414   -1.807752
C        -2.990022    4.074065   -2.684296
C        -2.711808    4.622286   -4.069034
O        -4.092361    3.604307   -2.405506
H        -2.563054    2.681708   -0.493623
N        -3.195591    4.089641    1.646776
C        -3.958430    4.855264    2.598144
H        -0.224525    4.505429    0.271503
H        -0.765286    3.065337    1.142001
H        -4.115482    0.880221   -0.669149
H        -4.786317    0.669112    2.927935
H        -6.611661    2.077513    3.956789
H        -9.290935    5.451203    2.186720
H        -5.872216    3.924504   -1.481997
H        -8.661648    6.376466   -1.128822
H        -6.318761    6.081402   -5.505618
H        -5.661227    4.566074   -3.611754
H        -1.043911    4.344333   -2.149019
H        -3.096829    3.913864   -4.814712
H        -1.646117    4.810128   -4.257194
H        -3.262715    5.568545   -4.180646
H        -2.897885    3.144160    1.891945
H        -4.276990    4.197959    3.417417
H        -4.852491    5.286837    2.122163
H        -3.374271    5.691361    3.019461
H        -0.074554    0.626661    1.075318
H         0.257746   -0.213944   -0.542095
H        -2.185257   -0.237656   -1.025787
