57
-1 1
O         2.441281    1.291108    1.227225
C         2.658735    0.112836    1.476281
C         3.338701   -0.808538    0.438925
C         4.735631   -1.214973    0.934059
S         5.610837   -2.494317   -0.016567
C         4.944523   -4.033740    0.829927
C         3.487619   -4.233787    0.697738
C         2.613585   -3.721662    1.631934
N         1.233433   -3.650151    1.185892
C         0.322122   -2.832314    1.802120
C         0.087507   -2.895872    3.217289
C        -0.851534   -2.074717    3.777726
N        -0.340845   -1.990744    1.032458
C        -1.230396   -1.160135    1.597454
C        -1.560029   -1.149177    2.959793
N        -2.491726   -0.290080    3.467471
C        -3.034651    0.529743    2.607463
N        -2.758531    0.662364    1.288828
C        -1.851275   -0.148002    0.779083
N        -1.417741   -0.086323   -0.507798
C        -1.805671    0.742282   -1.553701
C        -2.814596    1.711649   -1.446390
C        -3.142957    2.487179   -2.556375
Br        -4.503745    3.795427   -2.421975
C        -2.482491    2.317416   -3.768092
F        -2.800135    3.065181   -4.828911
C        -1.480146    1.360793   -3.878129
C        -1.143662    0.576800   -2.784207
O         2.874678   -3.226312    2.766506
N         3.389336   -0.126020   -0.829469
C         2.368372   -0.172196   -1.717376
C         2.433283    0.858223   -2.827205
O         1.445149   -0.973044   -1.650917
H         2.724184   -1.704222    0.297494
N         2.368113   -0.471600    2.651137
C         1.728792    0.278412    3.701046
H         5.385792   -0.324781    0.953625
H         4.647938   -1.581690    1.965179
H         1.160227   -3.561538    0.176742
H         0.676088   -3.596779    3.805959
H        -1.071318   -2.098507    4.847063
H        -3.801918    1.214656    2.988392
H        -0.637938   -0.726314   -0.690693
H        -3.321967    1.846404   -0.492758
H        -0.968798    1.242298   -4.835129
H        -0.345056   -0.166176   -2.852175
H         3.957432    0.711832   -0.847466
H         2.146790    0.381749   -3.773896
H         3.426195    1.315774   -2.935248
H         1.698750    1.647787   -2.607306
H         2.543237   -1.487823    2.777910
H         1.594106   -0.376045    4.571699
H         0.739482    0.652465    3.389277
H         2.332950    1.151804    3.996302
H         5.240042   -3.949922    1.885902
H         5.545707   -4.830918    0.364443
H         3.097985   -4.578159   -0.264217
