57
-1 1
O         1.572553    0.534339    0.027372
C         2.514865    0.002281    0.597901
C         3.772695   -0.456674   -0.128539
C         4.835282    0.679548   -0.068117
S         6.191496    0.451498   -1.259424
C         4.667021   -4.820533    1.743642
C         3.602413   -4.198639    1.237464
C         2.383982   -3.977327    2.078181
N         1.453366   -3.181280    1.464425
C         0.252642   -2.721917    1.986809
C        -0.360350   -3.279857    3.150169
C        -1.578536   -2.791199    3.549642
N        -0.295947   -1.730802    1.317298
C        -1.471532   -1.237084    1.730240
C        -2.194825   -1.737864    2.826486
N        -3.420484   -1.247219    3.174946
C        -3.871537   -0.282344    2.419124
N        -3.259207    0.322340    1.377797
C        -2.055359   -0.104811    1.037520
N        -1.307590    0.473827    0.072305
C        -1.609445    1.532311   -0.790402
C        -2.870750    2.139150   -0.865346
C        -3.084275    3.171150   -1.777305
Br        -4.784659    3.994071   -1.887110
C        -2.060904    3.608720   -2.609903
F        -2.270006    4.598204   -3.480605
C        -0.806741    3.014152   -2.533479
C        -0.577136    1.984342   -1.633033
O         2.262857   -4.448178    3.196889
N         3.503433   -0.752515   -1.505995
C         2.733190   -1.763690   -1.909008
C         2.641100   -1.971393   -3.403791
O         2.096762   -2.493172   -1.141226
H         4.182422   -1.351277    0.376938
N         2.568003   -0.147959    1.943281
C         1.572639    0.369739    2.846809
H         4.309042    1.631113   -0.258066
H         5.206601    0.719819    0.968508
H         1.680488   -2.803432    0.525098
H         0.153259   -4.076443    3.683875
H        -2.098562   -3.197109    4.419519
H        -4.868660    0.108449    2.656235
H        -0.340274    0.129034    0.021282
H        -3.666534    1.804110   -0.203860
H        -0.011342    3.374504   -3.187882
H         0.411518    1.527177   -1.554041
H         4.241525   -0.357810   -2.115750
H         2.726326   -3.044766   -3.618660
H         3.407809   -1.414491   -3.958278
H         1.646244   -1.641481   -3.738014
H         3.383837   -0.604674    2.328892
H         1.131131   -0.429560    3.462570
H         0.777476    0.826112    2.245125
H         1.997005    1.138304    3.512933
H         4.646909   -5.182492    2.775667
H         5.570637   -4.975143    1.150239
H         3.583727   -3.819726    0.211765
