-1 1
 OpenBabel05232413483D

 42 41  0  0  1  0  0  0  0  0999 V2000
   -2.3438    1.4377    0.1464 O   0  0  0  0  0  0  0  0  0  0  0  0
   -1.3763    1.9006   -0.4481 C   0  0  0  0  0  0  0  0  0  0  0  0
   -0.9796    1.4950   -1.8809 C   0  0  2  0  0  0  0  0  0  0  0  0
   -2.1807    1.0189   -2.7151 C   0  0  0  0  0  0  0  0  0  0  0  0
   -1.6821    0.2574   -4.3015 S   0  0  0  0  0  1  0  0  0  0  0  0
   -1.3888   -2.5694   -1.6698 C   0  0  0  0  0  0  0  0  0  0  0  0
   -1.8712   -2.7491   -2.9045 C   0  0  0  0  0  0  0  0  0  0  0  0
   -2.2694   -1.9711   -0.6347 C   0  0  0  0  0  0  0  0  0  0  0  0
   -1.6628   -1.3795    0.4797 N   0  0  0  0  0  0  0  0  0  0  0  0
   -0.3669   -1.5229    0.9486 C   0  0  0  0  0  0  0  0  0  0  0  0
    0.3050   -0.4051    1.4736 C   0  0  0  0  0  0  0  0  0  0  0  0
    1.5960   -0.5427    1.9635 C   0  0  0  0  0  0  0  0  0  0  0  0
    2.4898    0.9892    2.6404 Br  0  0  0  0  0  0  0  0  0  0  0  0
    2.2640   -1.7664    1.9556 C   0  0  0  0  0  0  0  0  0  0  0  0
    1.5842   -2.8754    1.4547 C   0  0  0  0  0  0  0  0  0  0  0  0
    0.2842   -2.7686    0.9717 C   0  0  0  0  0  0  0  0  0  0  0  0
   -3.4712   -1.8759   -0.7649 O   0  0  0  0  0  0  0  0  0  0  0  0
    0.0025    0.4246   -1.8496 N   0  0  0  0  0  0  0  0  0  0  0  0
    1.2952    0.6142   -1.5225 C   0  0  0  0  0  0  0  0  0  0  0  0
    2.1922   -0.5820   -1.7564 C   0  0  0  0  0  0  0  0  0  0  0  0
    1.7326    1.6487   -1.0181 O   0  0  0  0  0  0  0  0  0  0  0  0
   -0.5264    2.3766   -2.3690 H   0  0  0  0  0  0  0  0  0  0  0  0
   -0.5545    2.8282    0.1037 N   0  0  0  0  0  0  0  0  0  0  0  0
   -0.7157    3.2897    1.4580 C   0  0  0  0  0  0  0  0  0  0  0  0
   -2.7593    0.3082   -2.1059 H   0  0  0  0  0  0  0  0  0  0  0  0
   -2.8324    1.8904   -2.8815 H   0  0  0  0  0  0  0  0  0  0  0  0
   -2.1536   -0.5190    0.7334 H   0  0  0  0  0  0  0  0  0  0  0  0
   -0.1894    0.5647    1.4681 H   0  0  0  0  0  0  0  0  0  0  0  0
    3.2819   -1.8494    2.3368 H   0  0  0  0  0  0  0  0  0  0  0  0
    2.0765   -3.8508    1.4548 H   0  0  0  0  0  0  0  0  0  0  0  0
   -0.2428   -3.6565    0.6206 H   0  0  0  0  0  0  0  0  0  0  0  0
   -0.2172   -0.2563   -2.5968 H   0  0  0  0  0  0  0  0  0  0  0  0
    2.2146   -1.1874   -0.8367 H   0  0  0  0  0  0  0  0  0  0  0  0
    3.2107   -0.2305   -1.9629 H   0  0  0  0  0  0  0  0  0  0  0  0
    1.8343   -1.2127   -2.5824 H   0  0  0  0  0  0  0  0  0  0  0  0
    0.3690    2.8793   -0.3329 H   0  0  0  0  0  0  0  0  0  0  0  0
   -0.6218    4.3858    1.5121 H   0  0  0  0  0  0  0  0  0  0  0  0
    0.0340    2.8480    2.1371 H   0  0  0  0  0  0  0  0  0  0  0  0
   -1.7157    2.9978    1.8036 H   0  0  0  0  0  0  0  0  0  0  0  0
   -1.2322   -3.0764   -3.7256 H   0  0  0  0  0  0  0  0  0  0  0  0
   -2.9209   -2.5463   -3.1239 H   0  0  0  0  0  0  0  0  0  0  0  0
   -0.3239   -2.6920   -1.4675 H   0  0  0  0  0  0  0  0  0  0  0  0
  2 23  1  0  0  0  0
  2  1  2  0  0  0  0
  3 22  1  6  0  0  0
  3 18  1  0  0  0  0
  3  2  1  0  0  0  0
  4 25  1  0  0  0  0
  4  3  1  0  0  0  0
  5  4  1  0  0  0  0
  6 42  1  0  0  0  0
  6  8  1  0  0  0  0
  7  6  2  0  0  0  0
  8  9  1  0  0  0  0
  9 27  1  0  0  0  0
  9 10  1  0  0  0  0
 10 16  2  0  0  0  0
 10 11  1  0  0  0  0
 11 12  2  0  0  0  0
 12 13  1  0  0  0  0
 14 12  1  0  0  0  0
 14 29  1  0  0  0  0
 15 30  1  0  0  0  0
 15 14  2  0  0  0  0
 16 15  1  0  0  0  0
 17  8  2  0  0  0  0
 18 19  1  0  0  0  0
 19 21  2  0  0  0  0
 20 19  1  0  0  0  0
 20 33  1  0  0  0  0
 23 24  1  0  0  0  0
 24 37  1  0  0  0  0
 24 39  1  0  0  0  0
 24 38  1  0  0  0  0
 26  4  1  0  0  0  0
 28 11  1  0  0  0  0
 31 16  1  0  0  0  0
 32 18  1  0  0  0  0
 34 20  1  0  0  0  0
 35 20  1  0  0  0  0
 36 23  1  0  0  0  0
 40  7  1  0  0  0  0
 41  7  1  0  0  0  0
M  END
