-1 1
 OpenBabel05232414493D

 42 41  0  0  1  0  0  0  0  0999 V2000
    2.1664    1.2627   -0.1924 O   0  0  0  0  0  0  0  0  0  0  0  0
    3.1057    1.6897   -0.8508 C   0  0  0  0  0  0  0  0  0  0  0  0
    3.4621    1.1736   -2.2623 C   0  0  2  0  0  0  0  0  0  0  0  0
    2.2464    0.5697   -2.9741 C   0  0  0  0  0  0  0  0  0  0  0  0
    2.6133   -0.3470   -4.5022 S   0  0  0  0  0  1  0  0  0  0  0  0
    2.9932   -2.6164   -2.1901 C   0  0  0  0  0  3  0  0  0  0  0  0
    2.5044   -2.6058   -3.4836 C   0  0  0  0  0  3  0  0  0  0  0  0
    2.1255   -2.1962   -1.1107 C   0  0  0  0  0  0  0  0  0  0  0  0
    2.7211   -1.7269    0.0991 N   0  0  0  0  0  0  0  0  0  0  0  0
    4.0196   -1.8286    0.5429 C   0  0  0  0  0  0  0  0  0  0  0  0
    4.6083   -0.7398    1.2196 C   0  0  0  0  0  0  0  0  0  0  0  0
    5.9010   -0.8505    1.7102 C   0  0  0  0  0  0  0  0  0  0  0  0
    6.6817    0.6471    2.5889 Br  0  0  0  0  0  0  0  0  0  0  0  0
    6.6609   -2.0096    1.5589 C   0  0  0  0  0  0  0  0  0  0  0  0
    6.0718   -3.0834    0.8909 C   0  0  0  0  0  0  0  0  0  0  0  0
    4.7758   -3.0078    0.3945 C   0  0  0  0  0  0  0  0  0  0  0  0
    0.9091   -2.1029   -1.1844 O   0  0  0  0  0  0  0  0  0  0  0  0
    4.5210    0.1905   -2.1353 N   0  0  0  0  0  0  0  0  0  0  0  0
    5.8165    0.5027   -1.9628 C   0  0  0  0  0  0  0  0  0  0  0  0
    6.7712   -0.6699   -1.9823 C   0  0  0  0  0  0  0  0  0  0  0  0
    6.2151    1.6501   -1.7608 O   0  0  0  0  0  0  0  0  0  0  0  0
    3.8600    2.0199   -2.8472 H   0  0  0  0  0  0  0  0  0  0  0  0
    3.9544    2.6454   -0.3977 N   0  0  0  0  0  0  0  0  0  0  0  0
    3.8724    3.1599    0.9448 C   0  0  0  0  0  0  0  0  0  0  0  0
    1.7239   -0.0888   -2.2682 H   0  0  0  0  0  0  0  0  0  0  0  0
    1.5475    1.3912   -3.1916 H   0  0  0  0  0  0  0  0  0  0  0  0
    2.1961   -0.9210    0.4331 H   0  0  0  0  0  0  0  0  0  0  0  0
    4.0379    0.1833    1.3324 H   0  0  0  0  0  0  0  0  0  0  0  0
    7.6771   -2.0693    1.9488 H   0  0  0  0  0  0  0  0  0  0  0  0
    6.6383   -4.0093    0.7643 H   0  0  0  0  0  0  0  0  0  0  0  0
    4.3243   -3.8689   -0.0990 H   0  0  0  0  0  0  0  0  0  0  0  0
    4.2596   -0.7555   -2.4068 H   0  0  0  0  0  0  0  0  0  0  0  0
    6.9058   -1.0322   -0.9519 H   0  0  0  0  0  0  0  0  0  0  0  0
    7.7426   -0.3268   -2.3593 H   0  0  0  0  0  0  0  0  0  0  0  0
    6.4006   -1.5016   -2.5974 H   0  0  0  0  0  0  0  0  0  0  0  0
    4.8427    2.7060   -0.9033 H   0  0  0  0  0  0  0  0  0  0  0  0
    4.0855    4.2398    0.9574 H   0  0  0  0  0  0  0  0  0  0  0  0
    4.5815    2.6597    1.6268 H   0  0  0  0  0  0  0  0  0  0  0  0
    2.8549    2.9900    1.3200 H   0  0  0  0  0  0  0  0  0  0  0  0
    3.1075   -3.0003   -4.3017 H   0  0  0  0  0  0  0  0  0  0  0  0
    1.4244   -2.6082   -3.6296 H   0  0  0  0  0  0  0  0  0  0  0  0
    4.0656   -2.7277   -2.0187 H   0  0  0  0  0  0  0  0  0  0  0  0
  2 23  1  0  0  0  0
  2  1  2  0  0  0  0
  3 22  1  6  0  0  0
  3 18  1  0  0  0  0
  3  2  1  0  0  0  0
  4 25  1  0  0  0  0
  4  3  1  0  0  0  0
  5  4  1  0  0  0  0
  6 42  1  0  0  0  0
  6  8  1  0  0  0  0
  7  6  1  0  0  0  0
  8  9  1  0  0  0  0
  9 27  1  0  0  0  0
  9 10  1  0  0  0  0
 10 11  1  0  0  0  0
 11 28  1  0  0  0  0
 11 12  2  0  0  0  0
 12 13  1  0  0  0  0
 14 12  1  0  0  0  0
 14 29  1  0  0  0  0
 15 14  2  0  0  0  0
 16 10  2  0  0  0  0
 16 15  1  0  0  0  0
 17  8  2  0  0  0  0
 18 19  1  0  0  0  0
 19 21  2  0  0  0  0
 20 19  1  0  0  0  0
 20 33  1  0  0  0  0
 23 24  1  0  0  0  0
 24 37  1  0  0  0  0
 24 39  1  0  0  0  0
 24 38  1  0  0  0  0
 26  4  1  0  0  0  0
 30 15  1  0  0  0  0
 31 16  1  0  0  0  0
 32 18  1  0  0  0  0
 34 20  1  0  0  0  0
 35 20  1  0  0  0  0
 36 23  1  0  0  0  0
 40  7  1  0  0  0  0
 41  7  1  0  0  0  0
M  END
