58
-1 1
O         5.710813    3.900152   -0.727450
C         4.905541    4.020826   -1.628691
C         4.039004    5.271338   -1.792636
C         3.834102    6.078468   -0.504848
S         2.675959    7.475253   -0.768431
C         0.018815    6.494285    1.954452
C         0.404926    5.340307    1.409764
C        -0.262879    4.054592    1.761956
N         0.236038    2.979047    1.053792
C        -0.181606    1.659651    1.095424
C         0.494701    0.763851    0.211447
C         0.164850   -0.563915    0.168158
C        -1.190657    1.171041    1.913458
C        -1.539621   -0.197465    1.871765
C        -0.860546   -1.086760    0.997288
C        -1.290236   -2.457491    1.039432
N        -0.661064   -3.369060    0.223211
C        -0.859492   -4.736007    0.040815
C        -1.837139   -5.485297    0.714720
C        -1.941880   -6.846662    0.445911
Br        -3.270934   -7.847483    1.365404
C        -1.117585   -7.502169   -0.463778
C        -0.150522   -6.746333   -1.125538
C        -0.019322   -5.386309   -0.881487
N        -2.261236   -2.848410    1.835628
C        -2.835286   -1.906828    2.619385
N        -2.543786   -0.641709    2.689543
O        -1.163343    3.964330    2.575720
N         2.760073    4.985421   -2.450604
C         1.843470    4.203095   -1.828507
C         0.401700    4.473658   -2.181509
O         2.160941    3.338680   -1.011640
H         4.586555    5.915054   -2.503200
N         4.780158    3.109585   -2.640132
C         5.420913    1.824649   -2.588906
H         3.472005    5.393328    0.280076
H         4.823123    6.426918   -0.174778
H         0.992007    3.169079    0.383986
H         1.281283    1.168016   -0.429789
H         0.717004   -1.201073   -0.527991
H        -1.723715    1.830263    2.592907
H         0.083339   -2.985046   -0.339616
H        -2.485969   -4.985057    1.429684
H        -1.226208   -8.570716   -0.650426
H         0.513310   -7.229665   -1.845491
H         0.746137   -4.812981   -1.411439
H        -3.640448   -2.273460    3.267773
H         2.358403    5.870042   -2.772673
H         0.282472    4.745147   -3.239439
H         0.076601    5.334205   -1.573742
H        -0.216644    3.600516   -1.939741
H         3.996038    3.247473   -3.263883
H         6.218573    1.880352   -1.836789
H         5.865285    1.559136   -3.561613
H         4.722741    1.022870   -2.290163
H         1.220089    5.353954    0.678162
H         0.521944    7.418455    1.656956
H        -0.793118    6.516405    2.687459
