-1 1
 OpenBabel05232413483D

 72 74  0  0  1  0  0  0  0  0999 V2000
    0.7923    1.2946   -0.8643 O   0  0  0  0  0  0  0  0  0  0  0  0
   -0.2429    1.6698   -1.4399 C   0  0  0  0  0  0  0  0  0  0  0  0
   -1.6037    1.0270   -1.1428 C   0  0  2  0  0  0  0  0  0  0  0  0
   -2.6909    2.0478   -0.7288 C   0  0  0  0  0  0  0  0  0  0  0  0
   -3.2513    3.1648   -2.0557 S   0  0  0  0  0  1  0  0  0  0  0  0
   -1.8516    5.4792   -0.5988 C   0  0  0  0  0  0  0  0  0  0  0  0
   -1.6977    5.1362    0.6884 C   0  0  0  0  0  0  0  0  0  0  0  0
   -0.5030    4.3904    1.1350 C   0  0  0  0  0  0  0  0  0  0  0  0
   -0.5847    3.9369    2.4416 N   0  0  0  0  0  0  0  0  0  0  0  0
    0.2539    2.9955    3.0570 C   0  0  0  0  0  0  0  0  0  0  0  0
    0.4368    3.0836    4.4588 C   0  0  0  0  0  0  0  0  0  0  0  0
    1.1747    2.1436    5.1352 C   0  0  0  0  0  0  0  0  0  0  0  0
    0.8484    1.9597    2.3544 C   0  0  0  0  0  0  0  0  0  0  0  0
    1.5909    0.9733    3.0414 C   0  0  0  0  0  0  0  0  0  0  0  0
    1.7615    1.0557    4.4465 C   0  0  0  0  0  0  0  0  0  0  0  0
    2.4418    0.1106    5.1635 N   0  0  0  0  0  0  0  0  0  0  0  0
    2.8785   -0.9073    4.4778 C   0  0  0  0  0  0  0  0  0  0  0  0
    2.7372   -1.1406    3.1586 N   0  0  0  0  0  0  0  0  0  0  0  0
    2.1207   -0.2321    2.4224 C   0  0  0  0  0  0  0  0  0  0  0  0
    1.9415   -0.4463    1.0928 N   0  0  0  0  0  0  0  0  0  0  0  0
    2.0215   -1.6570    0.3725 C   0  0  0  0  0  0  0  0  0  0  0  0
    1.8803   -1.5735   -1.0183 C   0  0  0  0  0  0  0  0  0  0  0  0
    1.7750   -2.7149   -1.8052 C   0  0  0  0  0  0  0  0  0  0  0  0
    1.8052   -3.9793   -1.2126 C   0  0  0  0  0  0  0  0  0  0  0  0
    1.6287   -5.1532   -1.8833 O   0  0  0  0  0  0  0  0  0  0  0  0
    1.1325   -5.1198   -3.1993 C   0  0  0  0  0  0  0  0  0  0  0  0
   -0.2104   -4.4299   -3.3324 C   0  0  0  0  0  0  0  0  0  0  0  0
   -1.1314   -4.4632   -2.2805 C   0  0  0  0  0  0  0  0  0  0  0  0
   -2.3180   -3.7399   -2.3567 C   0  0  0  0  0  0  0  0  0  0  0  0
   -2.6096   -2.9897   -3.4962 C   0  0  0  0  0  0  0  0  0  0  0  0
   -1.7169   -2.9848   -4.5653 C   0  0  0  0  0  0  0  0  0  0  0  0
   -0.5191   -3.6956   -4.4787 C   0  0  0  0  0  0  0  0  0  0  0  0
    2.0094   -4.0695    0.1657 C   0  0  0  0  0  0  0  0  0  0  0  0
    2.1258   -2.9297    0.9542 C   0  0  0  0  0  0  0  0  0  0  0  0
    0.4710    4.1675    0.4405 O   0  0  0  0  0  0  0  0  0  0  0  0
   -1.3705    0.0088   -0.1401 N   0  0  0  0  0  0  0  0  0  0  0  0
   -2.1037   -1.1232   -0.0224 C   0  0  0  0  0  0  0  0  0  0  0  0
   -1.4801   -2.1783    0.8733 C   0  0  0  0  0  0  0  0  0  0  0  0
   -3.1568   -1.3114   -0.6103 O   0  0  0  0  0  0  0  0  0  0  0  0
   -1.9621    0.5376   -2.0650 H   0  0  0  0  0  0  0  0  0  0  0  0
   -0.2468    2.6299   -2.3577 N   0  0  0  0  0  0  0  0  0  0  0  0
    0.9393    3.3992   -2.6423 C   0  0  0  0  0  0  0  0  0  0  0  0
   -3.5394    1.4460   -0.3732 H   0  0  0  0  0  0  0  0  0  0  0  0
   -2.3162    2.6260    0.1396 H   0  0  0  0  0  0  0  0  0  0  0  0
   -1.3921    4.2290    2.9754 H   0  0  0  0  0  0  0  0  0  0  0  0
   -0.0202    3.9169    4.9995 H   0  0  0  0  0  0  0  0  0  0  0  0
    1.3206    2.1964    6.2152 H   0  0  0  0  0  0  0  0  0  0  0  0
    0.7171    1.9210    1.2726 H   0  0  0  0  0  0  0  0  0  0  0  0
    3.4251   -1.6829    5.0299 H   0  0  0  0  0  0  0  0  0  0  0  0
    1.6118    0.3360    0.5186 H   0  0  0  0  0  0  0  0  0  0  0  0
    1.7958   -0.5902   -1.4824 H   0  0  0  0  0  0  0  0  0  0  0  0
    1.6231   -2.5933   -2.8768 H   0  0  0  0  0  0  0  0  0  0  0  0
    1.0554   -6.1780   -3.4937 H   0  0  0  0  0  0  0  0  0  0  0  0
    1.8621   -4.6466   -3.8836 H   0  0  0  0  0  0  0  0  0  0  0  0
   -0.8849   -5.0191   -1.3726 H   0  0  0  0  0  0  0  0  0  0  0  0
   -3.0010   -3.7016   -1.5069 H   0  0  0  0  0  0  0  0  0  0  0  0
   -3.5170   -2.3843   -3.5251 H   0  0  0  0  0  0  0  0  0  0  0  0
   -1.9343   -2.3925   -5.4572 H   0  0  0  0  0  0  0  0  0  0  0  0
    0.2021   -3.6457   -5.3007 H   0  0  0  0  0  0  0  0  0  0  0  0
    2.0542   -5.0611    0.6207 H   0  0  0  0  0  0  0  0  0  0  0  0
    2.2791   -3.0167    2.0263 H   0  0  0  0  0  0  0  0  0  0  0  0
   -0.4488    0.0264    0.2787 H   0  0  0  0  0  0  0  0  0  0  0  0
   -0.8286   -2.8187    0.2565 H   0  0  0  0  0  0  0  0  0  0  0  0
   -2.2739   -2.7984    1.3084 H   0  0  0  0  0  0  0  0  0  0  0  0
   -0.8617   -1.7460    1.6732 H   0  0  0  0  0  0  0  0  0  0  0  0
   -1.1958    2.9877   -2.6117 H   0  0  0  0  0  0  0  0  0  0  0  0
    1.7743    2.7359   -2.9145 H   0  0  0  0  0  0  0  0  0  0  0  0
    1.2398    3.9912   -1.7639 H   0  0  0  0  0  0  0  0  0  0  0  0
    0.7297    4.0693   -3.4872 H   0  0  0  0  0  0  0  0  0  0  0  0
   -2.5028    5.3124    1.4089 H   0  0  0  0  0  0  0  0  0  0  0  0
   -2.7421    5.9936   -0.9559 H   0  0  0  0  0  0  0  0  0  0  0  0
   -1.0557    5.2779   -1.3169 H   0  0  0  0  0  0  0  0  0  0  0  0
  2  3  1  0  0  0  0
  2  1  2  0  0  0  0
  3 40  1  6  0  0  0
  3  4  1  0  0  0  0
  3 36  1  0  0  0  0
  4 43  1  0  0  0  0
  4 44  1  0  0  0  0
  5  4  1  0  0  0  0
  6  7  2  0  0  0  0
  7  8  1  0  0  0  0
  7 70  1  0  0  0  0
  8  9  1  0  0  0  0
  9 45  1  0  0  0  0
  9 10  1  0  0  0  0
 10 11  1  0  0  0  0
 11 46  1  0  0  0  0
 11 12  2  0  0  0  0
 12 47  1  0  0  0  0
 13 14  1  0  0  0  0
 13 10  2  0  0  0  0
 14 15  2  0  0  0  0
 15 12  1  0  0  0  0
 15 16  1  0  0  0  0
 17 49  1  0  0  0  0
 17 16  2  0  0  0  0
 18 17  1  0  0  0  0
 19 14  1  0  0  0  0
 19 18  2  0  0  0  0
 20 19  1  0  0  0  0
 21 34  1  0  0  0  0
 21 20  1  0  0  0  0
 22 21  2  0  0  0  0
 23 24  2  0  0  0  0
 23 22  1  0  0  0  0
 24 33  1  0  0  0  0
 25 24  1  0  0  0  0
 26 25  1  0  0  0  0
 27 26  1  0  0  0  0
 27 28  1  0  0  0  0
 28 55  1  0  0  0  0
 29 28  2  0  0  0  0
 29 56  1  0  0  0  0
 30 29  1  0  0  0  0
 31 32  1  0  0  0  0
 31 30  2  0  0  0  0
 32 27  2  0  0  0  0
 33 60  1  0  0  0  0
 33 34  2  0  0  0  0
 34 61  1  0  0  0  0
 35  8  2  0  0  0  0
 36 37  1  0  0  0  0
 36 62  1  0  0  0  0
 37 38  1  0  0  0  0
 38 64  1  0  0  0  0
 38 65  1  0  0  0  0
 39 37  2  0  0  0  0
 41  2  1  0  0  0  0
 42 41  1  0  0  0  0
 42 68  1  0  0  0  0
 48 13  1  0  0  0  0
 50 20  1  0  0  0  0
 51 22  1  0  0  0  0
 52 23  1  0  0  0  0
 53 26  1  0  0  0  0
 54 26  1  0  0  0  0
 57 30  1  0  0  0  0
 58 31  1  0  0  0  0
 59 32  1  0  0  0  0
 63 38  1  0  0  0  0
 66 41  1  0  0  0  0
 67 42  1  0  0  0  0
 69 42  1  0  0  0  0
 71  6  1  0  0  0  0
 72  6  1  0  0  0  0
M  END
