72
-1 1
O         0.778661    1.239247   -0.942355
C        -0.255464    1.671710   -1.448178
C        -1.630324    1.108551   -1.062773
C        -2.600250    2.114858   -0.402782
S        -3.179352    3.499459   -1.414627
C        -2.217677    5.024697   -0.656878
C        -1.828445    4.920537    0.742655
C        -0.587021    4.355331    1.048723
N        -0.256475    4.279568    2.440124
C         0.459901    3.276855    3.051498
C         0.695303    3.392639    4.453556
C         1.343128    2.413131    5.159660
C         0.934876    2.138192    2.395416
C         1.581632    1.113346    3.120924
C         1.796918    1.236228    4.518018
N         2.398497    0.262598    5.266990
C         2.732599   -0.817806    4.623833
N         2.550780   -1.084559    3.313438
C         1.999367   -0.157830    2.554150
N         1.788337   -0.415115    1.227266
C         1.845885   -1.649280    0.551453
C         1.794727   -1.620253   -0.848565
C         1.686044   -2.788390   -1.597740
C         1.629909   -4.027650   -0.957004
O         1.449019   -5.225082   -1.588287
C         1.218704   -5.245519   -2.970564
C        -0.066315   -4.567912   -3.406897
C        -1.119193   -4.374461   -2.509268
C        -2.263454   -3.679623   -2.895587
C        -2.381038   -3.203351   -4.201012
C        -1.350894   -3.423274   -5.114016
C        -0.194151   -4.091319   -4.713945
C         1.741095   -4.069056    0.434289
C         1.854106   -2.903900    1.183997
O         0.246539    3.909524    0.236936
N        -1.413720   -0.023090   -0.194023
C        -2.157649   -1.153953   -0.250986
C        -1.636726   -2.293928    0.597964
O        -3.150590   -1.260772   -0.955413
H        -2.110530    0.729750   -1.979650
N        -0.262203    2.594750   -2.419747
C         0.926587    3.370964   -2.693952
H        -3.484594    1.536589   -0.102796
H        -2.157304    2.556006    0.507378
H        -0.806118    4.863449    3.055168
H         0.344667    4.291917    4.969091
H         1.518555    2.503810    6.233250
H         0.794512    2.085271    1.315545
H         3.214691   -1.618537    5.199617
H         1.536395    0.370718    0.623383
H         1.784962   -0.655981   -1.356787
H         1.604541   -2.703195   -2.680994
H         1.188775   -6.314058   -3.235948
H         2.072071   -4.801574   -3.518306
H        -1.017159   -4.733441   -1.483056
H        -3.042670   -3.455984   -2.164489
H        -3.268624   -2.639367   -4.494867
H        -1.433842   -3.045876   -6.136142
H         0.630075   -4.222018   -5.422139
H         1.717927   -5.042240    0.928867
H         1.939767   -2.953528    2.265836
H        -0.550189   -0.021914    0.336693
H        -0.881346   -2.848140    0.019463
H        -2.465737   -2.969745    0.841324
H        -1.152397   -1.944366    1.520491
H        -1.173762    3.015997   -2.606972
H         1.774509    2.698836   -2.885846
H         1.162486    4.004773   -1.824617
H         0.752433    3.988093   -3.585981
H        -2.547596    5.159410    1.530990
H        -2.941177    5.823550   -0.870723
H        -1.337845    5.130321   -1.304983
