72
-1 1
O         0.792275    1.294573   -0.864349
C        -0.242869    1.669766   -1.439854
C        -1.603703    1.026956   -1.142780
C        -2.690907    2.047804   -0.728801
S        -3.251252    3.164767   -2.055747
C        -1.851583    5.479151   -0.598834
C        -1.697669    5.136232    0.688360
C        -0.503020    4.390394    1.135006
N        -0.584689    3.936856    2.441602
C         0.253924    2.995503    3.056987
C         0.436814    3.083560    4.458823
C         1.174675    2.143633    5.135203
C         0.848411    1.959677    2.354386
C         1.590899    0.973342    3.041373
C         1.761455    1.055733    4.446540
N         2.441777    0.110594    5.163489
C         2.878525   -0.907350    4.477765
N         2.737159   -1.140610    3.158556
C         2.120676   -0.232076    2.422428
N         1.941544   -0.446329    1.092824
C         2.021542   -1.657012    0.372464
C         1.880319   -1.573517   -1.018347
C         1.774963   -2.714920   -1.805195
C         1.805166   -3.979257   -1.212613
O         1.628717   -5.153228   -1.883269
C         1.132455   -5.119830   -3.199274
C        -0.210450   -4.429928   -3.332383
C        -1.131408   -4.463234   -2.280491
C        -2.318022   -3.739888   -2.356674
C        -2.609551   -2.989651   -3.496236
C        -1.716903   -2.984795   -4.565328
C        -0.519052   -3.695604   -4.478750
C         2.009419   -4.069511    0.165700
C         2.125753   -2.929687    0.954234
O         0.470966    4.167496    0.440459
N        -1.370482    0.008777   -0.140052
C        -2.103704   -1.123207   -0.022437
C        -1.480135   -2.178266    0.873275
O        -3.156758   -1.311366   -0.610268
H        -1.962094    0.537604   -2.064978
N        -0.246765    2.629908   -2.357737
C         0.939346    3.399213   -2.642342
H        -3.539354    1.446022   -0.373176
H        -2.316159    2.626020    0.139615
H        -1.392064    4.229001    2.975434
H        -0.020155    3.916911    4.999463
H         1.320620    2.196410    6.215234
H         0.717144    1.920952    1.272598
H         3.425089   -1.682929    5.029852
H         1.611784    0.336031    0.518627
H         1.795782   -0.590232   -1.482427
H         1.623072   -2.593304   -2.876787
H         1.055450   -6.177995   -3.493708
H         1.862071   -4.646607   -3.883573
H        -0.884931   -5.019126   -1.372624
H        -3.000991   -3.701601   -1.506899
H        -3.517040   -2.384286   -3.525061
H        -1.934315   -2.392482   -5.457174
H         0.202093   -3.645658   -5.300693
H         2.054176   -5.061053    0.620692
H         2.279135   -3.016731    2.026299
H        -0.448763    0.026406    0.278709
H        -0.828636   -2.818667    0.256533
H        -2.273863   -2.798381    1.308361
H        -0.861729   -1.746017    1.673206
H        -1.195794    2.987681   -2.611680
H         1.774270    2.735850   -2.914456
H         1.239837    3.991217   -1.763885
H         0.729659    4.069339   -3.487249
H        -2.502820    5.312422    1.408894
H        -2.742095    5.993620   -0.955936
H        -1.055684    5.277883   -1.316922
