61
-1 1
O         0.234395   -7.164796    3.081454
C         0.233477   -5.958871    2.886410
C         1.313405   -5.329696    1.983754
C         2.396275   -4.630024    2.820776
S         3.904282   -4.354293    1.853193
C         4.303404   -2.521665    2.246740
C         3.159497   -1.620511    2.402183
C         2.622305   -0.963758    1.300184
N         1.406599   -0.233376    1.594023
C         0.728958    0.631489    0.796545
C         1.334695    1.234727   -0.356352
C         0.637894    2.133625   -1.117839
C        -0.593413    0.977451    1.099465
C        -1.310544    1.903185    0.325757
C        -0.697861    2.505922   -0.809228
C        -1.504769    3.437517   -1.539274
N        -0.960595    4.054798   -2.642220
C        -1.482931    4.986044   -3.539791
C        -2.780646    5.510279   -3.472937
C        -3.225209    6.443176   -4.417311
C        -4.630146    6.980783   -4.310621
C        -2.368295    6.858760   -5.438694
C        -1.074585    6.340473   -5.510902
C        -0.632129    5.415837   -4.576521
N        -2.743859    3.711082   -1.176541
C        -3.216088    3.071438   -0.083781
N        -2.602329    2.210349    0.673575
O         3.039039   -0.971974    0.121932
N         0.816374   -4.502006    0.887323
C         0.244081   -3.271898    0.977952
C         0.181236   -2.507925   -0.320294
O        -0.202726   -2.811095    2.026736
H         1.761355   -6.210603    1.506044
N        -0.623690   -5.096301    3.473136
C        -1.675112   -5.534463    4.350428
H         2.030461   -3.640880    3.140284
H         2.609681   -5.241309    3.710338
H         0.868193   -0.630736    2.354847
H         2.347055    0.926293   -0.610656
H         1.154188    2.556904   -1.984954
H        -1.105796    0.523273    1.949472
H        -0.008329    3.785607   -2.839901
H        -3.430547    5.172133   -2.668067
H        -4.792122    7.469733   -3.337516
H        -5.369358    6.168547   -4.390518
H        -4.844473    7.714681   -5.100734
H        -2.710473    7.587071   -6.178347
H        -0.400095    6.662113   -6.308183
H         0.383971    5.016171   -4.643359
H        -4.250499    3.322759    0.185349
H         1.274805   -4.684507    0.004288
H        -0.017023   -3.173689   -1.173024
H         1.152407   -2.003430   -0.478632
H        -0.602903   -1.744598   -0.251074
H        -0.564668   -4.115468    3.175863
H        -2.671119   -5.314598    3.930950
H        -1.603647   -5.045687    5.335863
H        -1.580555   -6.619682    4.485718
H         2.713962   -1.477014    3.389732
H         4.944972   -2.564329    3.137701
H         4.910092   -2.250040    1.371218
