61
-1 1
O         2.021716   -1.064709    8.160410
C         2.189681    0.103232    7.843109
C         3.270050    0.467537    6.810334
C         4.539480    1.031084    7.472787
S         5.932444    1.165178    6.317863
C         6.541725    3.451310    7.025173
C         5.448970    4.274616    7.186574
C         4.988872    5.104614    6.102906
N         3.707171    5.666595    6.332086
C         3.013273    6.532542    5.524559
C         3.658475    7.340757    4.537870
C         2.930346    8.221060    3.779478
C         1.633447    6.653460    5.683411
C         0.880744    7.557761    4.913194
C         1.528795    8.364124    3.938588
C         0.680535    9.256032    3.196372
N         1.250760   10.062130    2.242569
C         0.701546   11.010105    1.375251
C        -0.658221   11.340907    1.321872
C        -1.124432   12.305300    0.420149
C        -2.596351   12.631339    0.391886
C        -0.225611   12.945467   -0.435450
C         1.130446   12.619879   -0.386830
C         1.594117   11.664591    0.505546
N        -0.617795    9.309463    3.417101
C        -1.116229    8.489179    4.369131
N        -0.473072    7.638858    5.113777
O         5.595338    5.332641    5.059488
N         2.824708    1.294080    5.684333
C         2.519438    2.610060    5.713201
C         2.604464    3.318690    4.382242
O         2.188229    3.215533    6.736099
H         3.524263   -0.504335    6.369584
N         1.523885    1.137320    8.405673
C         0.509207    0.944370    9.404721
H         4.305213    2.032976    7.876033
H         4.786561    0.375777    8.323212
H         3.122718    5.095147    6.938160
H         4.728651    7.216742    4.390910
H         3.477087    8.811255    3.038338
H         1.101450    6.033096    6.406690
H         2.248886    9.950180    2.144575
H        -1.340847   10.829649    1.997652
H        -2.941251   12.981881    1.376930
H        -3.191783   11.740152    0.139592
H        -2.824161   13.412879   -0.346921
H        -0.584052   13.698995   -1.141252
H         1.837116   13.117954   -1.054881
H         2.659167   11.416726    0.534689
H        -2.200891    8.563355    4.519552
H         3.248471    0.997128    4.813924
H         2.431636    2.638143    3.537121
H         3.613865    3.749141    4.279765
H         1.876169    4.138590    4.356541
H         1.706954    2.068267    8.019402
H        -0.478949    1.286661    9.053363
H         0.749370    1.489148   10.332879
H         0.451811   -0.128632    9.629762
H         4.865491    4.254806    8.110740
H         7.022487    2.999533    7.891499
H         7.165399    3.587441    6.140466
