-1 1
 OpenBabel05232414493D

 58 59  0  0  1  0  0  0  0  0999 V2000
    2.0518   -0.1706   -8.8431 O   0  0  0  0  0  0  0  0  0  0  0  0
    2.6530    0.1123   -7.8207 C   0  0  0  0  0  0  0  0  0  0  0  0
    2.1041    1.1380   -6.8144 C   0  0  2  0  0  0  0  0  0  0  0  0
    3.0269    2.3516   -6.6055 C   0  0  0  0  0  0  0  0  0  0  0  0
    4.5056    2.0667   -5.5945 S   0  0  0  0  0  1  0  0  0  0  0  0
    3.8860    3.5013   -3.8361 C   0  0  0  0  0  3  0  0  0  0  0  0
    2.5161    3.7257   -3.7898 C   0  0  0  0  0  3  0  0  0  0  0  0
    1.6738    2.8741   -3.0002 C   0  0  0  0  0  0  0  0  0  0  0  0
    0.2942    3.0044   -3.2720 N   0  0  0  0  0  0  0  0  0  0  0  0
   -0.7622    2.4393   -2.5851 C   0  0  0  0  0  0  0  0  0  0  0  0
   -2.0349    2.3937   -3.2245 C   0  0  0  0  0  0  0  0  0  0  0  0
   -3.1351    1.8821   -2.5870 C   0  0  0  0  0  0  0  0  0  0  0  0
   -0.6447    1.9198   -1.3027 C   0  0  0  0  0  0  0  0  0  0  0  0
   -1.7667    1.3679   -0.6500 C   0  0  0  0  0  0  0  0  0  0  0  0
   -3.0374    1.3599   -1.2729 C   0  0  0  0  0  0  0  0  0  0  0  0
   -4.1492    0.8635   -0.6524 N   0  0  0  0  0  0  0  0  0  0  0  0
   -3.9750    0.3909    0.5474 C   0  0  0  0  0  0  0  0  0  0  0  0
   -2.8157    0.3129    1.2424 N   0  0  0  0  0  0  0  0  0  0  0  0
   -1.7284    0.7733    0.6658 C   0  0  0  0  0  0  0  0  0  0  0  0
   -0.5129    0.6956    1.2989 N   0  0  0  0  0  0  0  0  0  0  0  0
   -0.1560    0.2032    2.5506 C   0  0  0  0  0  0  0  0  0  0  0  0
   -1.0728   -0.3054    3.4840 C   0  0  0  0  0  0  0  0  0  0  0  0
   -0.5959   -0.7610    4.7086 C   0  0  0  0  0  0  0  0  0  0  0  0
   -1.7524   -1.3928    5.8680 Cl  0  0  0  0  0  0  0  0  0  0  0  0
    0.7514   -0.7384    5.0520 C   0  0  0  0  0  0  0  0  0  0  0  0
    1.6509   -0.2323    4.1136 C   0  0  0  0  0  0  0  0  0  0  0  0
    1.2117    0.2325    2.8821 C   0  0  0  0  0  0  0  0  0  0  0  0
    2.0612    2.0767   -2.1417 O   0  0  0  0  0  0  0  0  0  0  0  0
    1.7737    0.5055   -5.5569 N   0  0  0  0  0  0  0  0  0  0  0  0
    0.5013    0.3862   -5.0882 C   0  0  0  0  0  0  0  0  0  0  0  0
    0.3997   -0.3551   -3.7706 C   0  0  0  0  0  0  0  0  0  0  0  0
   -0.4745    0.8147   -5.6841 O   0  0  0  0  0  0  0  0  0  0  0  0
    1.1554    1.4770   -7.2512 H   0  0  0  0  0  0  0  0  0  0  0  0
    3.8383   -0.4522   -7.4676 N   0  0  0  0  0  0  0  0  0  0  0  0
    4.5277   -1.3869   -8.3146 C   0  0  0  0  0  0  0  0  0  0  0  0
    3.3003    2.7698   -7.5865 H   0  0  0  0  0  0  0  0  0  0  0  0
    2.4226    3.1075   -6.0708 H   0  0  0  0  0  0  0  0  0  0  0  0
    0.0692    3.4018   -4.1744 H   0  0  0  0  0  0  0  0  0  0  0  0
   -2.1149    2.7435   -4.2559 H   0  0  0  0  0  0  0  0  0  0  0  0
   -4.1090    1.8471   -3.0774 H   0  0  0  0  0  0  0  0  0  0  0  0
    0.3509    1.9293   -0.8634 H   0  0  0  0  0  0  0  0  0  0  0  0
   -4.8562   -0.0010    1.0694 H   0  0  0  0  0  0  0  0  0  0  0  0
    0.2657    1.0240    0.7436 H   0  0  0  0  0  0  0  0  0  0  0  0
   -2.1298   -0.3378    3.2320 H   0  0  0  0  0  0  0  0  0  0  0  0
    1.0850   -1.1065    6.0222 H   0  0  0  0  0  0  0  0  0  0  0  0
    2.7168   -0.2012    4.3492 H   0  0  0  0  0  0  0  0  0  0  0  0
    1.9322    0.6242    2.1595 H   0  0  0  0  0  0  0  0  0  0  0  0
    2.5530    0.3501   -4.9218 H   0  0  0  0  0  0  0  0  0  0  0  0
    1.0018    0.1499   -2.9993 H   0  0  0  0  0  0  0  0  0  0  0  0
    0.7784   -1.3816   -3.8914 H   0  0  0  0  0  0  0  0  0  0  0  0
   -0.6499   -0.3859   -3.4559 H   0  0  0  0  0  0  0  0  0  0  0  0
    4.3389   -0.0166   -6.6896 H   0  0  0  0  0  0  0  0  0  0  0  0
    4.8316   -2.2854   -7.7534 H   0  0  0  0  0  0  0  0  0  0  0  0
    5.4295   -0.9431   -8.7703 H   0  0  0  0  0  0  0  0  0  0  0  0
    3.8422   -1.6833   -9.1193 H   0  0  0  0  0  0  0  0  0  0  0  0
    2.0537    4.5032   -4.4040 H   0  0  0  0  0  0  0  0  0  0  0  0
    4.3104    2.8517   -3.0687 H   0  0  0  0  0  0  0  0  0  0  0  0
    4.5441    4.2853   -4.2104 H   0  0  0  0  0  0  0  0  0  0  0  0
  1  2  2  0  0  0  0
  2 34  1  0  0  0  0
  2  3  1  0  0  0  0
  3 33  1  6  0  0  0
  3  4  1  0  0  0  0
  3 29  1  0  0  0  0
  4 37  1  0  0  0  0
  4  5  1  0  0  0  0
  6  7  1  0  0  0  0
  6 57  1  0  0  0  0
  7  8  1  0  0  0  0
  8 28  2  0  0  0  0
  9  8  1  0  0  0  0
  9 10  1  0  0  0  0
 10 13  1  0  0  0  0
 11 12  1  0  0  0  0
 11 10  2  0  0  0  0
 12 15  2  0  0  0  0
 13 41  1  0  0  0  0
 13 14  2  0  0  0  0
 14 19  1  0  0  0  0
 15 16  1  0  0  0  0
 15 14  1  0  0  0  0
 16 17  2  0  0  0  0
 17 42  1  0  0  0  0
 17 18  1  0  0  0  0
 19 18  2  0  0  0  0
 19 20  1  0  0  0  0
 20 21  1  0  0  0  0
 21 27  2  0  0  0  0
 21 22  1  0  0  0  0
 22 23  2  0  0  0  0
 23 25  1  0  0  0  0
 23 24  1  0  0  0  0
 25 45  1  0  0  0  0
 26 46  1  0  0  0  0
 26 25  2  0  0  0  0
 27 26  1  0  0  0  0
 29 30  1  0  0  0  0
 29 48  1  0  0  0  0
 30 31  1  0  0  0  0
 31 51  1  0  0  0  0
 31 49  1  0  0  0  0
 32 30  2  0  0  0  0
 34 52  1  0  0  0  0
 35 53  1  0  0  0  0
 35 34  1  0  0  0  0
 36  4  1  0  0  0  0
 38  9  1  0  0  0  0
 39 11  1  0  0  0  0
 40 12  1  0  0  0  0
 43 20  1  0  0  0  0
 44 22  1  0  0  0  0
 47 27  1  0  0  0  0
 50 31  1  0  0  0  0
 54 35  1  0  0  0  0
 55 35  1  0  0  0  0
 56  7  1  0  0  0  0
 58  6  1  0  0  0  0
M  END
