58
-1 1
O         0.961107    1.128504   -7.454904
C         1.967990    0.723094   -6.895954
C         2.156191    0.864156   -5.374071
C         3.536807    1.442094   -4.978537
S         4.894433    0.205319   -4.971564
C         3.790532    0.785400   -1.186278
C         2.482874    0.906480   -1.418234
C         1.463111    0.726825   -0.345300
N         0.205892    0.498279   -0.850529
C        -0.950338    0.179180   -0.147141
C        -2.088395   -0.187515   -0.923259
C        -3.275377   -0.511372   -0.320210
C        -1.046586    0.193826    1.234628
C        -2.267374   -0.145012    1.862216
C        -3.401165   -0.497616    1.093098
N        -4.596738   -0.823536    1.667587
C        -4.636540   -0.792449    2.968255
N        -3.630412   -0.479563    3.816447
C        -2.466561   -0.163743    3.292921
N        -1.403571    0.157246    4.096722
C        -1.284052    0.229892    5.483525
C        -2.334694   -0.030200    6.376284
C        -2.092449    0.076953    7.742011
Cl        -3.413650   -0.250676    8.848451
C        -0.853276    0.430782    8.264359
C         0.181461    0.685948    7.364792
C        -0.023721    0.588886    5.995654
O         1.727887    0.747380    0.846580
N         1.974613   -0.422812   -4.727844
C         0.987096   -0.727138   -3.883375
C         1.105955   -2.063216   -3.183513
O         0.040272    0.029827   -3.628581
H         1.340267    1.520738   -5.043931
N         2.994937    0.108639   -7.528571
C         3.014885   -0.088202   -8.951211
H         3.765839    2.272323   -5.666242
H         3.439720    1.890541   -3.976494
H         0.116456    0.443236   -1.876400
H        -1.981313   -0.210365   -2.011376
H        -4.152581   -0.791760   -0.905237
H        -0.148650    0.465444    1.786624
H        -5.587650   -1.048088    3.450390
H        -0.552376    0.374105    3.596679
H        -3.311044   -0.309383    5.988543
H        -0.703873    0.503738    9.341557
H         1.167607    0.966002    7.740939
H         0.800104    0.792371    5.306572
H         2.851749   -0.962174   -4.716513
H         1.268330   -1.877012   -2.111087
H         1.929426   -2.679959   -3.565822
H         0.154954   -2.603609   -3.287086
H         3.833366   -0.096182   -6.961160
H         3.196066   -1.145357   -9.206843
H         3.797592    0.519146   -9.437162
H         2.038322    0.213625   -9.352764
H         2.119240    1.097767   -2.430142
H         4.149252    0.585615   -0.172065
H         4.511242    0.849424   -2.009199
