-1 1
 OpenBabel05232413483D

 57 57  0  0  1  0  0  0  0  0999 V2000
   -3.0045   -2.5103    0.3659 O   0  0  0  0  0  0  0  0  0  0  0  0
   -1.8118   -2.2621    0.3443 C   0  0  0  0  0  0  0  0  0  0  0  0
   -0.8902   -2.5706   -0.8570 C   0  0  2  0  0  0  0  0  0  0  0  0
   -1.6598   -3.1106   -2.0997 C   0  0  0  0  0  0  0  0  0  0  0  0
   -0.9208   -4.5682   -2.9249 S   0  0  0  0  0  1  0  0  0  0  0  0
    1.1585   -1.4225   -3.1065 C   0  0  0  0  0  0  0  0  0  0  0  0
    1.3436   -2.5851   -3.7535 C   0  0  0  0  0  0  0  0  0  0  0  0
    0.2937   -0.3932   -3.7107 C   0  0  0  0  0  0  0  0  0  0  0  0
   -0.2272    0.6259   -2.8950 N   0  0  0  0  0  0  0  0  0  0  0  0
   -0.1048    0.9249   -1.5400 C   0  0  0  0  0  0  0  0  0  0  0  0
   -1.2543    1.3400   -0.8418 C   0  0  0  0  0  0  0  0  0  0  0  0
   -1.1857    1.7128    0.4909 C   0  0  0  0  0  0  0  0  0  0  0  0
    0.0419    1.6544    1.1564 C   0  0  0  0  0  0  0  0  0  0  0  0
    0.1758    2.2775    2.8103 S   0  0  0  0  0  0  0  0  0  0  0  0
    1.3109    1.6365    3.4621 O   0  0  0  0  0  0  0  0  0  0  0  0
    0.5975    3.8758    2.6314 N   0  0  0  0  0  0  0  0  0  0  0  0
    1.9595    4.2111    2.2070 C   0  0  0  0  0  0  0  0  0  0  0  0
    1.8375    5.6886    1.8451 C   0  0  0  0  0  0  0  0  0  0  0  0
    0.4432    5.7635    1.2200 C   0  0  0  0  0  0  0  0  0  0  0  0
   -0.3908    4.8245    2.0965 C   0  0  0  0  0  0  0  0  0  0  0  0
   -1.1548    2.2794    3.4093 O   0  0  0  0  0  0  0  0  0  0  0  0
    1.1842    1.2045    0.4934 C   0  0  0  0  0  0  0  0  0  0  0  0
    1.1153    0.8658   -0.8511 C   0  0  0  0  0  0  0  0  0  0  0  0
   -0.0552   -0.3958   -4.8755 O   0  0  0  0  0  0  0  0  0  0  0  0
    0.1805   -3.4785   -0.4978 N   0  0  0  0  0  0  0  0  0  0  0  0
    1.3492   -3.0962    0.0239 C   0  0  0  0  0  0  0  0  0  0  0  0
    2.4499   -4.1374   -0.0020 C   0  0  0  0  0  0  0  0  0  0  0  0
    1.5633   -1.9762    0.5032 O   0  0  0  0  0  0  0  0  0  0  0  0
   -0.4267   -1.6040   -1.1008 H   0  0  0  0  0  0  0  0  0  0  0  0
   -1.1573   -1.6400    1.3600 N   0  0  0  0  0  0  0  0  0  0  0  0
   -1.7955   -1.3056    2.6051 C   0  0  0  0  0  0  0  0  0  0  0  0
   -2.6813   -3.3481   -1.7755 H   0  0  0  0  0  0  0  0  0  0  0  0
   -1.7356   -2.2817   -2.8220 H   0  0  0  0  0  0  0  0  0  0  0  0
   -0.9922    1.0853   -3.3771 H   0  0  0  0  0  0  0  0  0  0  0  0
   -2.2179    1.3364   -1.3555 H   0  0  0  0  0  0  0  0  0  0  0  0
   -2.0859    2.0071    1.0330 H   0  0  0  0  0  0  0  0  0  0  0  0
    2.2632    3.6246    1.3189 H   0  0  0  0  0  0  0  0  0  0  0  0
    2.6775    4.0087    3.0123 H   0  0  0  0  0  0  0  0  0  0  0  0
    2.6383    6.0202    1.1695 H   0  0  0  0  0  0  0  0  0  0  0  0
    1.8837    6.3050    2.7571 H   0  0  0  0  0  0  0  0  0  0  0  0
    0.4781    5.3768    0.1890 H   0  0  0  0  0  0  0  0  0  0  0  0
    0.0314    6.7818    1.1835 H   0  0  0  0  0  0  0  0  0  0  0  0
   -1.1769    4.3132    1.5203 H   0  0  0  0  0  0  0  0  0  0  0  0
   -0.8832    5.3558    2.9262 H   0  0  0  0  0  0  0  0  0  0  0  0
    2.1259    1.1031    1.0339 H   0  0  0  0  0  0  0  0  0  0  0  0
    2.0193    0.5475   -1.3670 H   0  0  0  0  0  0  0  0  0  0  0  0
    0.1315   -4.3262   -1.1061 H   0  0  0  0  0  0  0  0  0  0  0  0
    2.1188   -5.1005   -0.4126 H   0  0  0  0  0  0  0  0  0  0  0  0
    2.8319   -4.2774    1.0190 H   0  0  0  0  0  0  0  0  0  0  0  0
    3.2781   -3.7486   -0.6126 H   0  0  0  0  0  0  0  0  0  0  0  0
   -0.1498   -1.5027    1.2486 H   0  0  0  0  0  0  0  0  0  0  0  0
   -2.8640   -1.5387    2.5121 H   0  0  0  0  0  0  0  0  0  0  0  0
   -1.6850   -0.2362    2.8447 H   0  0  0  0  0  0  0  0  0  0  0  0
   -1.3805   -1.8878    3.4453 H   0  0  0  0  0  0  0  0  0  0  0  0
    1.9309   -3.3910   -3.3147 H   0  0  0  0  0  0  0  0  0  0  0  0
    0.9255   -2.7441   -4.7481 H   0  0  0  0  0  0  0  0  0  0  0  0
    1.5335   -1.2981   -2.0909 H   0  0  0  0  0  0  0  0  0  0  0  0
  2  1  2  0  0  0  0
  2 30  1  0  0  0  0
  3 29  1  6  0  0  0
  3 25  1  0  0  0  0
  3  2  1  0  0  0  0
  4 32  1  0  0  0  0
  4  3  1  0  0  0  0
  5  4  1  0  0  0  0
  6 57  1  0  0  0  0
  7 55  1  0  0  0  0
  7  6  2  0  0  0  0
  8  6  1  0  0  0  0
  8  9  1  0  0  0  0
  9 10  1  0  0  0  0
 10 23  2  0  0  0  0
 10 11  1  0  0  0  0
 11 12  2  0  0  0  0
 12 36  1  0  0  0  0
 12 13  1  0  0  0  0
 13 14  1  0  0  0  0
 14 21  2  0  0  0  0
 14 15  2  0  0  0  0
 16 14  1  0  0  0  0
 17 16  1  0  0  0  0
 17 38  1  0  0  0  0
 18 17  1  0  0  0  0
 18 40  1  0  0  0  0
 19 18  1  0  0  0  0
 19 20  1  0  0  0  0
 20 16  1  0  0  0  0
 20 44  1  0  0  0  0
 22 45  1  0  0  0  0
 22 13  2  0  0  0  0
 23 22  1  0  0  0  0
 24  8  2  0  0  0  0
 25 26  1  0  0  0  0
 26 28  2  0  0  0  0
 27 26  1  0  0  0  0
 27 49  1  0  0  0  0
 30 31  1  0  0  0  0
 31 53  1  0  0  0  0
 31 54  1  0  0  0  0
 33  4  1  0  0  0  0
 34  9  1  0  0  0  0
 35 11  1  0  0  0  0
 37 17  1  0  0  0  0
 39 18  1  0  0  0  0
 41 19  1  0  0  0  0
 42 19  1  0  0  0  0
 43 20  1  0  0  0  0
 46 23  1  0  0  0  0
 47 25  1  0  0  0  0
 48 27  1  0  0  0  0
 50 27  1  0  0  0  0
 51 30  1  0  0  0  0
 52 31  1  0  0  0  0
 56  7  1  0  0  0  0
M  END
