-1 1
 OpenBabel05232414493D

 57 57  0  0  1  0  0  0  0  0999 V2000
   -2.6522   -4.4845   -0.4132 O   0  0  0  0  0  0  0  0  0  0  0  0
   -1.4946   -4.1015   -0.3970 C   0  0  0  0  0  0  0  0  0  0  0  0
   -0.4962   -4.3559   -1.5477 C   0  0  2  0  0  0  0  0  0  0  0  0
   -1.1941   -4.8987   -2.8204 C   0  0  0  0  0  0  0  0  0  0  0  0
   -0.2324   -6.0769   -3.8197 S   0  0  0  0  0  1  0  0  0  0  0  0
    1.2022   -3.1386   -4.0094 C   0  0  0  0  0  3  0  0  0  0  0  0
    1.3800   -4.3442   -4.6524 C   0  0  0  0  0  3  0  0  0  0  0  0
    0.2306   -2.2050   -4.5186 C   0  0  0  0  0  0  0  0  0  0  0  0
   -0.2041   -1.1116   -3.7044 N   0  0  0  0  0  0  0  0  0  0  0  0
   -0.0397   -0.7938   -2.3702 C   0  0  0  0  0  0  0  0  0  0  0  0
   -1.1533   -0.2977   -1.6568 C   0  0  0  0  0  0  0  0  0  0  0  0
   -1.0535    0.0682   -0.3259 C   0  0  0  0  0  0  0  0  0  0  0  0
    0.1708   -0.0702    0.3362 C   0  0  0  0  0  0  0  0  0  0  0  0
    0.3403    0.5129    1.9966 S   0  0  0  0  0  0  0  0  0  0  0  0
    1.4291   -0.2090    2.6437 O   0  0  0  0  0  0  0  0  0  0  0  0
    0.8640    2.0876    1.8575 N   0  0  0  0  0  0  0  0  0  0  0  0
    2.2465    2.3379    1.4402 C   0  0  0  0  0  0  0  0  0  0  0  0
    2.2231    3.8235    1.0924 C   0  0  0  0  0  0  0  0  0  0  0  0
    0.8404    3.9939    0.4601 C   0  0  0  0  0  0  0  0  0  0  0  0
   -0.0573    3.1012    1.3224 C   0  0  0  0  0  0  0  0  0  0  0  0
   -0.9900    0.5877    2.5946 O   0  0  0  0  0  0  0  0  0  0  0  0
    1.2805   -0.5804   -0.3412 C   0  0  0  0  0  0  0  0  0  0  0  0
    1.1828   -0.9147   -1.6842 C   0  0  0  0  0  0  0  0  0  0  0  0
   -0.3186   -2.2745   -5.6109 O   0  0  0  0  0  0  0  0  0  0  0  0
    0.5876   -5.2341   -1.1432 N   0  0  0  0  0  0  0  0  0  0  0  0
    1.7118   -4.7912   -0.5554 C   0  0  0  0  0  0  0  0  0  0  0  0
    2.8820   -5.7541   -0.5769 C   0  0  0  0  0  0  0  0  0  0  0  0
    1.8253   -3.6802   -0.0377 O   0  0  0  0  0  0  0  0  0  0  0  0
   -0.0522   -3.3760   -1.7655 H   0  0  0  0  0  0  0  0  0  0  0  0
   -0.9565   -3.3711    0.6113 N   0  0  0  0  0  0  0  0  0  0  0  0
   -1.6840   -3.0387    1.8074 C   0  0  0  0  0  0  0  0  0  0  0  0
   -2.1347   -5.3780   -2.5176 H   0  0  0  0  0  0  0  0  0  0  0  0
   -1.4627   -4.0333   -3.4452 H   0  0  0  0  0  0  0  0  0  0  0  0
   -1.0367   -0.7249   -4.1357 H   0  0  0  0  0  0  0  0  0  0  0  0
   -2.1192   -0.2354   -2.1632 H   0  0  0  0  0  0  0  0  0  0  0  0
   -1.9307    0.4188    0.2209 H   0  0  0  0  0  0  0  0  0  0  0  0
    2.5150    1.7420    0.5470 H   0  0  0  0  0  0  0  0  0  0  0  0
    2.9470    2.0810    2.2454 H   0  0  0  0  0  0  0  0  0  0  0  0
    3.0478    4.1087    0.4243 H   0  0  0  0  0  0  0  0  0  0  0  0
    2.3033    4.4272    2.0106 H   0  0  0  0  0  0  0  0  0  0  0  0
    0.8572    3.6154   -0.5744 H   0  0  0  0  0  0  0  0  0  0  0  0
    0.4948    5.0368    0.4315 H   0  0  0  0  0  0  0  0  0  0  0  0
   -0.8687    2.6452    0.7350 H   0  0  0  0  0  0  0  0  0  0  0  0
   -0.5228    3.6558    2.1526 H   0  0  0  0  0  0  0  0  0  0  0  0
    2.2190   -0.7417    0.1905 H   0  0  0  0  0  0  0  0  0  0  0  0
    2.0645   -1.2809   -2.2051 H   0  0  0  0  0  0  0  0  0  0  0  0
    0.6535   -6.0451   -1.7780 H   0  0  0  0  0  0  0  0  0  0  0  0
    2.5877   -6.7795   -0.8372 H   0  0  0  0  0  0  0  0  0  0  0  0
    3.3737   -5.7400    0.4047 H   0  0  0  0  0  0  0  0  0  0  0  0
    3.6083   -5.3962   -1.3221 H   0  0  0  0  0  0  0  0  0  0  0  0
    0.0434   -3.1668    0.5506 H   0  0  0  0  0  0  0  0  0  0  0  0
   -2.7376   -3.3031    1.6503 H   0  0  0  0  0  0  0  0  0  0  0  0
   -1.6123   -1.9630    2.0313 H   0  0  0  0  0  0  0  0  0  0  0  0
   -1.3104   -3.5958    2.6835 H   0  0  0  0  0  0  0  0  0  0  0  0
    2.1982   -5.0018   -4.3615 H   0  0  0  0  0  0  0  0  0  0  0  0
    0.9879   -4.4633   -5.6623 H   0  0  0  0  0  0  0  0  0  0  0  0
    1.6603   -2.9872   -3.0346 H   0  0  0  0  0  0  0  0  0  0  0  0
  1  2  2  0  0  0  0
  2 30  1  0  0  0  0
  3 29  1  6  0  0  0
  3 25  1  0  0  0  0
  3  2  1  0  0  0  0
  4 32  1  0  0  0  0
  4  3  1  0  0  0  0
  5  4  1  0  0  0  0
  6 57  1  0  0  0  0
  7 55  1  0  0  0  0
  7  6  1  0  0  0  0
  8  6  1  0  0  0  0
  8  9  1  0  0  0  0
  9 10  1  0  0  0  0
 10 23  2  0  0  0  0
 10 11  1  0  0  0  0
 11 12  2  0  0  0  0
 12 36  1  0  0  0  0
 12 13  1  0  0  0  0
 13 14  1  0  0  0  0
 14 21  2  0  0  0  0
 14 15  2  0  0  0  0
 16 14  1  0  0  0  0
 17 16  1  0  0  0  0
 17 38  1  0  0  0  0
 18 17  1  0  0  0  0
 18 40  1  0  0  0  0
 19 18  1  0  0  0  0
 19 20  1  0  0  0  0
 20 16  1  0  0  0  0
 20 44  1  0  0  0  0
 22 45  1  0  0  0  0
 22 13  2  0  0  0  0
 23 22  1  0  0  0  0
 24  8  2  0  0  0  0
 25 26  1  0  0  0  0
 26 28  2  0  0  0  0
 27 26  1  0  0  0  0
 27 49  1  0  0  0  0
 30 31  1  0  0  0  0
 31 53  1  0  0  0  0
 31 54  1  0  0  0  0
 33  4  1  0  0  0  0
 34  9  1  0  0  0  0
 35 11  1  0  0  0  0
 37 17  1  0  0  0  0
 39 18  1  0  0  0  0
 41 19  1  0  0  0  0
 42 19  1  0  0  0  0
 43 20  1  0  0  0  0
 46 23  1  0  0  0  0
 47 25  1  0  0  0  0
 48 27  1  0  0  0  0
 50 27  1  0  0  0  0
 51 30  1  0  0  0  0
 52 31  1  0  0  0  0
 56  7  1  0  0  0  0
M  END
