57
-1 1
O        -2.652202   -4.484463   -0.413192
C        -1.494644   -4.101479   -0.397030
C        -0.496245   -4.355937   -1.547685
C        -1.194067   -4.898688   -2.820363
S        -0.232355   -6.076911   -3.819677
C         1.202169   -3.138595   -4.009389
C         1.380037   -4.344181   -4.652368
C         0.230589   -2.205038   -4.518603
N        -0.204066   -1.111618   -3.704431
C        -0.039733   -0.793842   -2.370182
C        -1.153262   -0.297674   -1.656840
C        -1.053490    0.068242   -0.325917
C         0.170793   -0.070182    0.336244
S         0.340297    0.512897    1.996642
O         1.429066   -0.209014    2.643699
N         0.864014    2.087622    1.857480
C         2.246493    2.337921    1.440202
C         2.223057    3.823474    1.092367
C         0.840391    3.993862    0.460138
C        -0.057338    3.101231    1.322431
O        -0.990016    0.587677    2.594556
C         1.280458   -0.580393   -0.341160
C         1.182795   -0.914701   -1.684203
O        -0.318569   -2.274465   -5.610949
N         0.587641   -5.234119   -1.143226
C         1.711838   -4.791178   -0.555437
C         2.881983   -5.754141   -0.576929
O         1.825283   -3.680244   -0.037690
H        -0.052219   -3.375982   -1.765505
N        -0.956501   -3.371099    0.611339
C        -1.684035   -3.038653    1.807355
H        -2.134670   -5.378034   -2.517573
H        -1.462705   -4.033252   -3.445221
H        -1.036667   -0.724903   -4.135650
H        -2.119199   -0.235399   -2.163201
H        -1.930677    0.418782    0.220874
H         2.514969    1.742014    0.547017
H         2.946965    2.080996    2.245394
H         3.047825    4.108731    0.424338
H         2.303266    4.427241    2.010609
H         0.857188    3.615406   -0.574366
H         0.494803    5.036831    0.431483
H        -0.868688    2.645200    0.735016
H        -0.522791    3.655775    2.152606
H         2.218979   -0.741727    0.190547
H         2.064496   -1.280878   -2.205146
H         0.653476   -6.045054   -1.778033
H         2.587725   -6.779543   -0.837158
H         3.373748   -5.740041    0.404686
H         3.608338   -5.396244   -1.322143
H         0.043417   -3.166808    0.550585
H        -2.737620   -3.303104    1.650324
H        -1.612324   -1.963048    2.031326
H        -1.310449   -3.595784    2.683514
H         2.198222   -5.001831   -4.361471
H         0.987908   -4.463311   -5.662333
H         1.660304   -2.987191   -3.034554
