57
-1 1
O        -3.004499   -2.510279    0.365858
C        -1.811754   -2.262056    0.344277
C        -0.890195   -2.570577   -0.856960
C        -1.659774   -3.110587   -2.099674
S        -0.920816   -4.568247   -2.924924
C         1.158453   -1.422507   -3.106520
C         1.343642   -2.585072   -3.753457
C         0.293677   -0.393207   -3.710653
N        -0.227176    0.625900   -2.894972
C        -0.104774    0.924879   -1.540009
C        -1.254266    1.340028   -0.841790
C        -1.185655    1.712839    0.490924
C         0.041877    1.654384    1.156373
S         0.175845    2.277509    2.810347
O         1.310907    1.636467    3.462061
N         0.597483    3.875758    2.631403
C         1.959479    4.211090    2.207044
C         1.837513    5.688588    1.845085
C         0.443199    5.763532    1.220022
C        -0.390846    4.824527    2.096517
O        -1.154841    2.279402    3.409311
C         1.184218    1.204511    0.493356
C         1.115329    0.865841   -0.851122
O        -0.055156   -0.395779   -4.875516
N         0.180509   -3.478506   -0.497810
C         1.349202   -3.096184    0.023864
C         2.449889   -4.137443   -0.002046
O         1.563321   -1.976249    0.503194
H        -0.426659   -1.604019   -1.100776
N        -1.157280   -1.640040    1.359993
C        -1.795529   -1.305555    2.605121
H        -2.681294   -3.348069   -1.775453
H        -1.735591   -2.281676   -2.822010
H        -0.992198    1.085283   -3.377113
H        -2.217913    1.336373   -1.355491
H        -2.085908    2.007094    1.033012
H         2.263245    3.624565    1.318872
H         2.677476    4.008673    3.012310
H         2.638336    6.020185    1.169465
H         1.883678    6.305014    2.757115
H         0.478100    5.376826    0.188977
H         0.031418    6.781825    1.183514
H        -1.176876    4.313232    1.520311
H        -0.883214    5.355779    2.926229
H         2.125945    1.103103    1.033877
H         2.019270    0.547456   -1.366973
H         0.131490   -4.326165   -1.106096
H         2.118819   -5.100477   -0.412557
H         2.831894   -4.277399    1.019039
H         3.278103   -3.748617   -0.612644
H        -0.149787   -1.502663    1.248590
H        -2.864032   -1.538709    2.512142
H        -1.684975   -0.236157    2.844659
H        -1.380491   -1.887786    3.445315
H         1.930890   -3.391025   -3.314713
H         0.925463   -2.744142   -4.748111
H         1.533544   -1.298135   -2.090934
