-1 1
 OpenBabel05192410563D

 91 95  0  0  1  0  0  0  0  0999 V2000
   -8.7590   -5.6607   -4.2934 O   0  0  0  0  0  0  0  0  0  0  0  0
   -8.6940   -5.2846   -3.1378 C   0  0  0  0  0  0  0  0  0  0  0  0
   -9.4018   -3.9939   -2.6915 C   0  0  2  0  0  0  0  0  0  0  0  0
   -8.5308   -2.7868   -3.0624 C   0  0  0  0  0  0  0  0  0  0  0  0
   -6.9705   -2.6524   -2.1074 S   0  0  0  0  0  0  0  0  0  0  0  0
   -7.0327   -0.9694   -1.2927 C   0  0  2  0  0  0  0  0  0  0  0  0
   -5.7469   -0.7412   -0.5930 C   0  0  0  0  0  3  0  0  0  0  0  0
   -4.8517    0.1855   -1.1392 C   0  0  0  0  0  0  0  0  0  0  0  0
   -3.6111    0.2758   -0.4035 N   0  0  0  0  0  0  0  0  0  0  0  0
   -2.5433    1.0974   -0.5834 C   0  0  0  0  0  0  0  0  0  0  0  0
   -1.4334    0.9740    0.2913 C   0  0  0  0  0  0  0  0  0  0  0  0
   -0.3145    1.7764    0.1549 C   0  0  0  0  0  0  0  0  0  0  0  0
   -0.2350    2.7483   -0.8552 C   0  0  0  0  0  0  0  0  0  0  0  0
    0.9283    3.6484   -1.0590 C   0  0  0  0  0  0  0  0  0  0  0  0
    2.1163    3.1894   -0.5038 N   0  0  0  0  0  0  0  0  0  0  0  0
    3.3646    3.8089   -0.4563 C   0  0  0  0  0  0  0  0  0  0  0  0
    4.4136    3.1005    0.1449 C   0  0  0  0  0  0  0  0  0  0  0  0
    5.7018    3.6397    0.2483 C   0  0  0  0  0  0  0  0  0  0  0  0
    6.6655    2.8237    0.8697 N   0  0  0  0  0  0  0  0  0  0  0  0
    7.9827    3.0238    1.1629 C   0  0  0  0  0  0  0  0  0  0  0  0
    8.5871    4.1688    0.8401 N   0  0  0  0  0  0  0  0  0  0  0  0
    9.8697    4.2781    1.1773 C   0  0  0  0  0  0  0  0  0  0  0  0
   10.6278    3.3837    1.7796 N   0  0  0  0  0  0  0  0  0  0  0  0
   10.0352    2.2107    2.1043 C   0  0  0  0  0  0  0  0  0  0  0  0
   10.8869    1.2282    2.7824 C   0  0  0  0  0  0  0  0  0  0  0  0
   12.1271    1.5534    3.2817 C   0  0  0  0  0  0  0  0  0  0  0  0
   12.6943    0.4661    3.8787 N   0  0  0  0  0  0  0  0  0  0  0  0
   13.5991    0.4523    4.3250 H   0  0  0  0  0  0  0  0  0  0  0  0
   10.6824   -0.1750    3.0835 C   0  0  0  0  0  0  0  0  0  0  0  0
   11.8417   -0.6101    3.7759 C   0  0  0  0  0  0  0  0  0  0  0  0
   12.0080   -1.9235    4.2269 C   0  0  0  0  0  0  0  0  0  0  0  0
   10.9881   -2.8259    3.9681 C   0  0  0  0  0  0  0  0  0  0  0  0
    9.8344   -2.4277    3.2670 C   0  0  0  0  0  0  0  0  0  0  0  0
    9.6753   -1.1232    2.8239 C   0  0  0  0  0  0  0  0  0  0  0  0
    8.6953    1.9938    1.8214 C   0  0  0  0  0  0  0  0  0  0  0  0
    5.9537    4.9206   -0.2567 C   0  0  0  0  0  0  0  0  0  0  0  0
    4.9019    5.6157   -0.8514 C   0  0  0  0  0  0  0  0  0  0  0  0
    3.6185    5.0930   -0.9652 C   0  0  0  0  0  0  0  0  0  0  0  0
    0.8599    4.6948   -1.6769 O   0  0  0  0  0  0  0  0  0  0  0  0
   -1.3468    2.8892   -1.7047 C   0  0  0  0  0  0  0  0  0  0  0  0
   -2.4698    2.0909   -1.5942 C   0  0  0  0  0  0  0  0  0  0  0  0
   -5.0125    0.9138   -2.1315 O   0  0  0  0  0  0  0  0  0  0  0  0
   -8.3364   -0.7183   -0.5186 C   0  0  0  0  0  0  0  0  0  0  0  0
   -8.8090   -1.7327    0.4233 N   0  0  0  0  0  0  0  0  0  0  0  0
   -7.8151   -2.1847    1.3770 C   0  0  0  0  0  0  0  0  0  0  0  0
  -10.0124   -1.2655    1.0786 C   0  0  0  0  0  0  0  0  0  0  0  0
   -9.7494   -3.9706   -1.2911 N   0  0  0  0  0  0  0  0  0  0  0  0
  -10.7154   -4.7926   -0.8108 C   0  0  0  0  0  0  0  0  0  0  0  0
  -11.0101   -4.6441    0.6722 C   0  0  0  0  0  0  0  0  0  0  0  0
  -11.3174   -5.5925   -1.5061 O   0  0  0  0  0  0  0  0  0  0  0  0
  -10.3168   -3.9702   -3.3055 H   0  0  0  0  0  0  0  0  0  0  0  0
   -7.9639   -5.9017   -2.1768 N   0  0  0  0  0  0  0  0  0  0  0  0
   -7.1237   -7.0361   -2.4480 C   0  0  0  0  0  0  0  0  0  0  0  0
   -8.2885   -2.8578   -4.1317 H   0  0  0  0  0  0  0  0  0  0  0  0
   -9.1061   -1.8609   -2.9184 H   0  0  0  0  0  0  0  0  0  0  0  0
   -3.5305   -0.3835    0.3587 H   0  0  0  0  0  0  0  0  0  0  0  0
   -1.4715    0.2355    1.0975 H   0  0  0  0  0  0  0  0  0  0  0  0
    0.4907    1.6567    0.8868 H   0  0  0  0  0  0  0  0  0  0  0  0
    2.0865    2.2472   -0.1408 H   0  0  0  0  0  0  0  0  0  0  0  0
    4.2170    2.0998    0.5447 H   0  0  0  0  0  0  0  0  0  0  0  0
    6.3111    1.9224    1.1592 H   0  0  0  0  0  0  0  0  0  0  0  0
   10.3490    5.2301    0.9174 H   0  0  0  0  0  0  0  0  0  0  0  0
   12.6251    2.5186    3.2375 H   0  0  0  0  0  0  0  0  0  0  0  0
   12.9116   -2.2271    4.7601 H   0  0  0  0  0  0  0  0  0  0  0  0
   11.0838   -3.8600    4.3056 H   0  0  0  0  0  0  0  0  0  0  0  0
    9.0522   -3.1621    3.0641 H   0  0  0  0  0  0  0  0  0  0  0  0
    8.7783   -0.8551    2.2656 H   0  0  0  0  0  0  0  0  0  0  0  0
    8.1929    1.0728    2.1131 H   0  0  0  0  0  0  0  0  0  0  0  0
    6.9496    5.3462   -0.1793 H   0  0  0  0  0  0  0  0  0  0  0  0
    5.0959    6.6150   -1.2489 H   0  0  0  0  0  0  0  0  0  0  0  0
    2.8122    5.6440   -1.4418 H   0  0  0  0  0  0  0  0  0  0  0  0
   -1.3027    3.6566   -2.4806 H   0  0  0  0  0  0  0  0  0  0  0  0
   -3.3226    2.1865   -2.2638 H   0  0  0  0  0  0  0  0  0  0  0  0
   -9.1664   -0.5574   -1.2295 H   0  0  0  0  0  0  0  0  0  0  0  0
   -8.1823    0.2511    0.0021 H   0  0  0  0  0  0  0  0  0  0  0  0
   -7.0003   -2.6955    0.8482 H   0  0  0  0  0  0  0  0  0  0  0  0
   -8.2794   -2.9050    2.0702 H   0  0  0  0  0  0  0  0  0  0  0  0
   -7.3815   -1.3555    1.9732 H   0  0  0  0  0  0  0  0  0  0  0  0
  -10.7937   -1.0614    0.3294 H   0  0  0  0  0  0  0  0  0  0  0  0
   -9.8481   -0.3322    1.6604 H   0  0  0  0  0  0  0  0  0  0  0  0
  -10.3958   -2.0310    1.7693 H   0  0  0  0  0  0  0  0  0  0  0  0
   -9.3251   -3.2483   -0.6832 H   0  0  0  0  0  0  0  0  0  0  0  0
  -11.3698   -5.6076    1.0538 H   0  0  0  0  0  0  0  0  0  0  0  0
  -11.8084   -3.8997    0.8141 H   0  0  0  0  0  0  0  0  0  0  0  0
  -10.1287   -4.3182    1.2417 H   0  0  0  0  0  0  0  0  0  0  0  0
   -7.8943   -5.4246   -1.2864 H   0  0  0  0  0  0  0  0  0  0  0  0
   -6.0548   -6.7778   -2.3707 H   0  0  0  0  0  0  0  0  0  0  0  0
   -7.3305   -7.3641   -3.4748 H   0  0  0  0  0  0  0  0  0  0  0  0
   -7.3378   -7.8680   -1.7581 H   0  0  0  0  0  0  0  0  0  0  0  0
   -5.4670   -1.3255    0.2856 H   0  0  0  0  0  0  0  0  0  0  0  0
   -7.0337   -0.2416   -2.1191 H   0  0  0  0  0  0  0  0  0  0  0  0
  1  2  2  0  0  0  0
  2  3  1  0  0  0  0
  2 52  1  0  0  0  0
  3 51  1  6  0  0  0
  3 47  1  0  0  0  0
  4 55  1  0  0  0  0
  4  3  1  0  0  0  0
  4  5  1  0  0  0  0
  5  6  1  0  0  0  0
  6 91  1  6  0  0  0
  6  7  1  0  0  0  0
  6 43  1  0  0  0  0
  7 90  1  0  0  0  0
  8  7  1  0  0  0  0
  8  9  1  0  0  0  0
  9 56  1  0  0  0  0
 10  9  1  0  0  0  0
 10 11  1  0  0  0  0
 11 57  1  0  0  0  0
 12 11  2  0  0  0  0
 12 58  1  0  0  0  0
 13 12  1  0  0  0  0
 14 13  1  0  0  0  0
 14 15  1  0  0  0  0
 15 16  1  0  0  0  0
 15 59  1  0  0  0  0
 16 17  1  0  0  0  0
 17 18  2  0  0  0  0
 17 60  1  0  0  0  0
 18 19  1  0  0  0  0
 19 61  1  0  0  0  0
 19 20  1  0  0  0  0
 20 35  2  0  0  0  0
 21 20  1  0  0  0  0
 21 22  2  0  0  0  0
 22 23  1  0  0  0  0
 23 24  2  0  0  0  0
 24 25  1  0  0  0  0
 25 29  1  0  0  0  0
 25 26  2  0  0  0  0
 26 27  1  0  0  0  0
 27 28  1  0  0  0  0
 29 30  1  0  0  0  0
 30 27  1  0  0  0  0
 30 31  2  0  0  0  0
 31 64  1  0  0  0  0
 32 31  1  0  0  0  0
 32 65  1  0  0  0  0
 33 32  2  0  0  0  0
 34 29  2  0  0  0  0
 34 33  1  0  0  0  0
 35 24  1  0  0  0  0
 35 68  1  0  0  0  0
 36 69  1  0  0  0  0
 36 18  1  0  0  0  0
 37 36  2  0  0  0  0
 38 37  1  0  0  0  0
 38 16  2  0  0  0  0
 39 14  2  0  0  0  0
 40 41  1  0  0  0  0
 40 13  2  0  0  0  0
 41 10  2  0  0  0  0
 42  8  2  0  0  0  0
 43 75  1  0  0  0  0
 43 44  1  0  0  0  0
 44 46  1  0  0  0  0
 44 45  1  0  0  0  0
 45 78  1  0  0  0  0
 45 77  1  0  0  0  0
 46 80  1  0  0  0  0
 46 81  1  0  0  0  0
 47 48  1  0  0  0  0
 47 82  1  0  0  0  0
 48 49  1  0  0  0  0
 49 84  1  0  0  0  0
 49 83  1  0  0  0  0
 49 85  1  0  0  0  0
 50 48  2  0  0  0  0
 52 86  1  0  0  0  0
 53 87  1  0  0  0  0
 53 52  1  0  0  0  0
 53 89  1  0  0  0  0
 54  4  1  0  0  0  0
 62 22  1  0  0  0  0
 63 26  1  0  0  0  0
 66 33  1  0  0  0  0
 67 34  1  0  0  0  0
 70 37  1  0  0  0  0
 71 38  1  0  0  0  0
 72 40  1  0  0  0  0
 73 41  1  0  0  0  0
 74 43  1  0  0  0  0
 76 45  1  0  0  0  0
 79 46  1  0  0  0  0
 88 53  1  0  0  0  0
M  END
