-1 1
 OpenBabel05232414493D

 91 94  0  0  1  0  0  0  0  0999 V2000
   -1.8571   -8.8850   -6.2746 O   0  0  0  0  0  0  0  0  0  0  0  0
   -1.4121   -7.7753   -6.0286 C   0  0  0  0  0  0  0  0  0  0  0  0
   -2.0058   -6.5146   -6.6824 C   0  0  2  0  0  0  0  0  0  0  0  0
   -1.0119   -5.4754   -7.2268 C   0  0  0  0  0  0  0  0  0  0  0  0
    0.1066   -4.6070   -6.0554 S   0  0  0  0  0  1  0  0  0  0  0  0
   -0.5257   -2.8317   -4.6459 C   0  0  0  0  0  3  0  0  0  0  0  0
    0.6526   -2.5266   -3.9719 C   0  0  0  0  0  3  0  0  0  0  0  0
    1.5978   -1.6225   -4.5705 C   0  0  0  0  0  0  0  0  0  0  0  0
    2.8040   -1.5100   -3.8289 N   0  0  0  0  0  0  0  0  0  0  0  0
    3.8983   -0.7107   -4.0511 C   0  0  0  0  0  0  0  0  0  0  0  0
    4.9985   -0.8228   -3.1723 C   0  0  0  0  0  0  0  0  0  0  0  0
    6.1343   -0.0478   -3.3416 C   0  0  0  0  0  0  0  0  0  0  0  0
    6.2257    0.8781   -4.3905 C   0  0  0  0  0  0  0  0  0  0  0  0
    7.4097    1.7535   -4.6266 C   0  0  0  0  0  0  0  0  0  0  0  0
    8.5970    1.2597   -4.1126 N   0  0  0  0  0  0  0  0  0  0  0  0
    9.8658    1.8456   -4.1066 C   0  0  0  0  0  0  0  0  0  0  0  0
   10.9175    1.0947   -3.5671 C   0  0  0  0  0  0  0  0  0  0  0  0
   12.2235    1.5973   -3.5065 C   0  0  0  0  0  0  0  0  0  0  0  0
   13.1912    0.7421   -2.9502 N   0  0  0  0  0  0  0  0  0  0  0  0
   14.5244    0.9064   -2.7040 C   0  0  0  0  0  0  0  0  0  0  0  0
   15.1370    2.0515   -3.0082 N   0  0  0  0  0  0  0  0  0  0  0  0
   16.4341    2.1250   -2.7189 C   0  0  0  0  0  0  0  0  0  0  0  0
   17.1972    1.1943   -2.1820 N   0  0  0  0  0  0  0  0  0  0  0  0
   16.5958    0.0202   -1.8788 C   0  0  0  0  0  0  0  0  0  0  0  0
   17.4536   -1.0040   -1.2752 C   0  0  0  0  0  0  0  0  0  0  0  0
   18.7170   -0.7216   -0.8085 C   0  0  0  0  0  0  0  0  0  0  0  0
   19.2849   -1.8430   -0.2801 N   0  0  0  0  0  0  0  0  0  0  0  0
   20.2049   -1.8914    0.1316 H   0  0  0  0  0  0  0  0  0  0  0  0
   17.2344   -2.4153   -1.0276 C   0  0  0  0  0  0  0  0  0  0  0  0
   18.4096   -2.8995   -0.3977 C   0  0  0  0  0  0  0  0  0  0  0  0
   18.5684   -4.2340   -0.0107 C   0  0  0  0  0  0  0  0  0  0  0  0
   17.5239   -5.1072   -0.2713 C   0  0  0  0  0  0  0  0  0  0  0  0
   16.3533   -4.6597   -0.9121 C   0  0  0  0  0  0  0  0  0  0  0  0
   16.2019   -3.3345   -1.2919 C   0  0  0  0  0  0  0  0  0  0  0  0
   15.2411   -0.1609   -2.1147 C   0  0  0  0  0  0  0  0  0  0  0  0
   12.4865    2.8839   -3.9919 C   0  0  0  0  0  0  0  0  0  0  0  0
   11.4309    3.6204   -4.5256 C   0  0  0  0  0  0  0  0  0  0  0  0
   10.1300    3.1335   -4.5971 C   0  0  0  0  0  0  0  0  0  0  0  0
    7.3397    2.8033   -5.2354 O   0  0  0  0  0  0  0  0  0  0  0  0
    5.1218    1.0070   -5.2457 C   0  0  0  0  0  0  0  0  0  0  0  0
    3.9835    0.2307   -5.1012 C   0  0  0  0  0  0  0  0  0  0  0  0
    1.4330   -0.9691   -5.5930 O   0  0  0  0  0  0  0  0  0  0  0  0
   -1.8066   -3.2476   -3.9512 C   0  0  0  0  0  0  0  0  0  0  0  0
   -1.9165   -4.5499   -3.2887 N   0  0  0  0  0  0  0  0  0  0  0  0
   -0.7211   -5.0959   -2.6831 C   0  0  0  0  0  0  0  0  0  0  0  0
   -3.0128   -4.5456   -2.3465 C   0  0  0  0  0  0  0  0  0  0  0  0
   -2.9769   -5.9267   -5.7797 N   0  0  0  0  0  0  0  0  0  0  0  0
   -4.2666   -5.7450   -6.1585 C   0  0  0  0  0  0  0  0  0  0  0  0
   -5.1558   -5.0919   -5.1126 C   0  0  0  0  0  0  0  0  0  0  0  0
   -4.7103   -6.0660   -7.2483 O   0  0  0  0  0  0  0  0  0  0  0  0
   -2.5883   -6.8976   -7.5309 H   0  0  0  0  0  0  0  0  0  0  0  0
   -0.4203   -7.5458   -5.1334 N   0  0  0  0  0  0  0  0  0  0  0  0
    0.2442   -8.6087   -4.4319 C   0  0  0  0  0  0  0  0  0  0  0  0
   -0.3663   -5.9697   -7.9717 H   0  0  0  0  0  0  0  0  0  0  0  0
   -1.6053   -4.7270   -7.7747 H   0  0  0  0  0  0  0  0  0  0  0  0
    2.8793   -2.1440   -3.0452 H   0  0  0  0  0  0  0  0  0  0  0  0
    4.9466   -1.5278   -2.3379 H   0  0  0  0  0  0  0  0  0  0  0  0
    6.9415   -0.1501   -2.6101 H   0  0  0  0  0  0  0  0  0  0  0  0
    8.5552    0.3141   -3.7590 H   0  0  0  0  0  0  0  0  0  0  0  0
   10.7108    0.0898   -3.1835 H   0  0  0  0  0  0  0  0  0  0  0  0
   12.8304   -0.1619   -2.6777 H   0  0  0  0  0  0  0  0  0  0  0  0
   16.9211    3.0775   -2.9615 H   0  0  0  0  0  0  0  0  0  0  0  0
   19.2312    0.2360   -0.8293 H   0  0  0  0  0  0  0  0  0  0  0  0
   19.4849   -4.5757    0.4752 H   0  0  0  0  0  0  0  0  0  0  0  0
   17.6130   -6.1566    0.0170 H   0  0  0  0  0  0  0  0  0  0  0  0
   15.5517   -5.3717   -1.1187 H   0  0  0  0  0  0  0  0  0  0  0  0
   15.2909   -3.0276   -1.8059 H   0  0  0  0  0  0  0  0  0  0  0  0
   14.7328   -1.0833   -1.8377 H   0  0  0  0  0  0  0  0  0  0  0  0
   13.4958    3.2818   -3.9461 H   0  0  0  0  0  0  0  0  0  0  0  0
   11.6352    4.6235   -4.9078 H   0  0  0  0  0  0  0  0  0  0  0  0
    9.3209    3.7172   -5.0277 H   0  0  0  0  0  0  0  0  0  0  0  0
    5.1785    1.7412   -6.0520 H   0  0  0  0  0  0  0  0  0  0  0  0
    3.1395    0.3178   -5.7818 H   0  0  0  0  0  0  0  0  0  0  0  0
   -2.6264   -3.1990   -4.6880 H   0  0  0  0  0  0  0  0  0  0  0  0
   -1.9998   -2.4360   -3.2140 H   0  0  0  0  0  0  0  0  0  0  0  0
    0.0925   -5.1173   -3.4175 H   0  0  0  0  0  0  0  0  0  0  0  0
   -0.9254   -6.1313   -2.3671 H   0  0  0  0  0  0  0  0  0  0  0  0
   -0.3909   -4.5234   -1.7878 H   0  0  0  0  0  0  0  0  0  0  0  0
   -3.9191   -4.1342   -2.8117 H   0  0  0  0  0  0  0  0  0  0  0  0
   -2.7954   -3.9337   -1.4417 H   0  0  0  0  0  0  0  0  0  0  0  0
   -3.2352   -5.5729   -2.0162 H   0  0  0  0  0  0  0  0  0  0  0  0
   -2.6272   -5.5605   -4.8833 H   0  0  0  0  0  0  0  0  0  0  0  0
   -6.1902   -5.1156   -5.4743 H   0  0  0  0  0  0  0  0  0  0  0  0
   -4.8565   -4.0445   -4.9535 H   0  0  0  0  0  0  0  0  0  0  0  0
   -5.0869   -5.6171   -4.1494 H   0  0  0  0  0  0  0  0  0  0  0  0
   -0.0357   -6.5907   -5.1125 H   0  0  0  0  0  0  0  0  0  0  0  0
    1.2648   -8.7835   -4.8142 H   0  0  0  0  0  0  0  0  0  0  0  0
   -0.3388   -9.5291   -4.5695 H   0  0  0  0  0  0  0  0  0  0  0  0
    0.3174   -8.3854   -3.3548 H   0  0  0  0  0  0  0  0  0  0  0  0
    0.9061   -3.0015   -3.0217 H   0  0  0  0  0  0  0  0  0  0  0  0
   -0.7136   -2.1772   -5.5000 H   0  0  0  0  0  0  0  0  0  0  0  0
  1  2  2  0  0  0  0
  2 52  1  0  0  0  0
  3 51  1  6  0  0  0
  3  2  1  0  0  0  0
  3 47  1  0  0  0  0
  4  3  1  0  0  0  0
  4  5  1  0  0  0  0
  6  7  1  0  0  0  0
  6 43  1  0  0  0  0
  7 90  1  0  0  0  0
  8  7  1  0  0  0  0
  8  9  1  0  0  0  0
  9 56  1  0  0  0  0
 10  9  1  0  0  0  0
 10 11  1  0  0  0  0
 11 57  1  0  0  0  0
 12 11  2  0  0  0  0
 12 58  1  0  0  0  0
 13 12  1  0  0  0  0
 14 13  1  0  0  0  0
 14 15  1  0  0  0  0
 15 16  1  0  0  0  0
 15 59  1  0  0  0  0
 16 17  1  0  0  0  0
 17 18  2  0  0  0  0
 17 60  1  0  0  0  0
 18 19  1  0  0  0  0
 19 20  1  0  0  0  0
 19 61  1  0  0  0  0
 20 35  2  0  0  0  0
 21 22  2  0  0  0  0
 21 20  1  0  0  0  0
 22 23  1  0  0  0  0
 23 24  2  0  0  0  0
 24 25  1  0  0  0  0
 25 29  1  0  0  0  0
 25 26  2  0  0  0  0
 26 27  1  0  0  0  0
 27 28  1  0  0  0  0
 29 30  1  0  0  0  0
 30 27  1  0  0  0  0
 30 31  2  0  0  0  0
 31 64  1  0  0  0  0
 32 31  1  0  0  0  0
 32 65  1  0  0  0  0
 33 32  2  0  0  0  0
 34 29  2  0  0  0  0
 34 33  1  0  0  0  0
 35 24  1  0  0  0  0
 35 68  1  0  0  0  0
 36 69  1  0  0  0  0
 36 18  1  0  0  0  0
 37 36  2  0  0  0  0
 38 37  1  0  0  0  0
 38 16  2  0  0  0  0
 39 14  2  0  0  0  0
 40 41  1  0  0  0  0
 40 13  2  0  0  0  0
 41 10  2  0  0  0  0
 42  8  2  0  0  0  0
 43 44  1  0  0  0  0
 43 75  1  0  0  0  0
 44 45  1  0  0  0  0
 44 46  1  0  0  0  0
 45 77  1  0  0  0  0
 45 78  1  0  0  0  0
 46 81  1  0  0  0  0
 46 80  1  0  0  0  0
 47 82  1  0  0  0  0
 48 47  1  0  0  0  0
 48 49  1  0  0  0  0
 49 84  1  0  0  0  0
 49 85  1  0  0  0  0
 50 48  2  0  0  0  0
 52 86  1  0  0  0  0
 52 53  1  0  0  0  0
 53 89  1  0  0  0  0
 54  4  1  0  0  0  0
 55  4  1  0  0  0  0
 62 22  1  0  0  0  0
 63 26  1  0  0  0  0
 66 33  1  0  0  0  0
 67 34  1  0  0  0  0
 70 37  1  0  0  0  0
 71 38  1  0  0  0  0
 72 40  1  0  0  0  0
 73 41  1  0  0  0  0
 74 43  1  0  0  0  0
 76 45  1  0  0  0  0
 79 46  1  0  0  0  0
 83 49  1  0  0  0  0
 87 53  1  0  0  0  0
 88 53  1  0  0  0  0
 91  6  1  0  0  0  0
M  END
