48
-1 1
O         0.705381    2.772934    5.816670
C         0.253656    2.559462    4.704667
C         0.682760    1.318911    3.909403
C         2.135696    1.473149    3.442142
S         2.401307    2.810657    2.224886
C         1.610369    0.892474    0.220752
C         2.675698    1.829490    0.654626
C         1.727193   -0.462571    0.523751
N         0.732144   -1.374206   -0.030697
C         0.218360   -1.510483   -1.283677
C        -0.662933   -2.593308   -1.543121
C        -1.208323   -2.798422   -2.795992
C        -0.893807   -1.921626   -3.840940
S        -1.522742   -2.220438   -5.458379
C        -0.257182   -3.226519   -6.235937
O        -2.724931   -3.058049   -5.362178
O        -1.570674   -0.957699   -6.205070
C        -0.032114   -0.842807   -3.611196
C         0.515429   -0.634573   -2.357237
O         2.537271   -1.015696    1.287908
N        -0.175818    1.004704    2.793070
C        -1.361285    0.358591    2.967270
C        -2.058079   -0.024182    1.674501
O        -1.839093    0.135370    4.065731
H         0.645330    0.497643    4.644187
N        -0.605874    3.386745    4.064819
C        -1.046482    4.635271    4.619697
H         2.757327    1.685636    4.321934
H         2.474287    0.532436    2.978931
H         0.679762   -2.201195    0.554527
H        -0.918536   -3.271437   -0.724956
H        -1.896126   -3.627878   -2.973487
H        -0.144479   -4.152393   -5.659094
H         0.678945   -2.655480   -6.255232
H        -0.609276   -3.437764   -7.253885
H         0.202630   -0.157191   -4.428570
H         1.194281    0.198492   -2.181991
H         0.268059    0.999992    1.863292
H        -2.884653   -0.706846    1.904224
H        -1.354399   -0.494795    0.972368
H        -2.463743    0.875366    1.186535
H        -0.843587    3.133526    3.114146
H        -0.666645    4.692673    5.648232
H        -2.146414    4.700779    4.641974
H        -0.653945    5.495909    4.052689
H         0.782638    1.264639   -0.386540
H         3.619603    1.286890    0.806939
H         2.855944    2.634704   -0.075516
