74
-1 1
O         2.015108   -2.074475   -0.910320
C         1.397387   -1.606636    0.032058
C         1.769724   -1.875835    1.506395
C         3.120991   -2.608103    1.626582
S         3.379015   -3.515561    3.194266
C         2.911391   -1.618374    4.763471
C         3.991501   -1.024101    5.380441
C         4.983105   -0.181302    4.764133
N         4.765622    0.321592    3.437485
C         3.686996    0.889227    2.815242
C         3.759673    1.127433    1.424335
C         2.702248    1.697915    0.738055
C         1.539930    2.042791    1.429980
S         0.197509    2.765625    0.551451
O        -1.056384    2.043795    0.749337
N         0.003179    4.221467    1.380060
C         1.079042    5.191553    1.233459
C         0.849230    6.134225    0.049814
N        -0.473159    6.734698    0.137226
C        -1.550932    5.757775    0.216324
C        -1.326907    4.821926    1.401718
C        -0.767128    8.067876    0.208444
C         0.402419    9.054212    0.187260
C        -0.092587   10.490046   -0.036731
C        -0.481542   11.028554    1.359081
C         0.090133   10.018536    2.379759
C         1.061334    9.141991    1.579864
O        -1.917125    8.465979    0.314340
O         0.647066    3.016136   -0.823787
C         1.441412    1.818036    2.806646
C         2.506897    1.266606    3.496314
O         6.076725    0.070377    5.249084
N         0.735357   -2.621259    2.206232
C        -0.308949   -2.013924    2.806207
C        -1.041849   -2.847482    3.837856
O        -0.652072   -0.859901    2.567887
H         1.832115   -0.882022    1.976793
N         0.340352   -0.776495   -0.123154
C        -0.160593   -0.439639   -1.430246
H         3.201646   -3.316204    0.790101
H         3.914968   -1.860835    1.479341
H         5.653486    0.436158    2.962393
H         4.657240    0.826145    0.880015
H         2.758482    1.859540   -0.339183
H         2.036953    4.662796    1.125980
H         1.129929    5.774081    2.169781
H         0.924284    5.554489   -0.885240
H         1.628693    6.902767    0.037289
H        -1.579267    5.171684   -0.718710
H        -2.494031    6.306700    0.318612
H        -2.075803    4.020477    1.420047
H        -1.412344    5.392026    2.342463
H         1.122863    8.758915   -0.589606
H        -0.928818   10.524812   -0.746588
H         0.735155   11.080652   -0.459951
H        -1.572831   11.099613    1.457493
H        -0.071827   12.037674    1.518741
H        -0.721133    9.392470    2.780746
H         0.578330   10.502285    3.238665
H         1.240036    8.163408    2.049960
H         2.040343    9.639285    1.478730
H         0.525066    2.080369    3.337421
H         2.437400    1.099058    4.570866
H         1.127553   -3.455196    2.661911
H        -2.118826   -2.652410    3.755274
H        -0.714580   -2.523121    4.837359
H        -0.843473   -3.922885    3.737262
H        -0.160132   -0.472366    0.715302
H         0.648330   -0.052007   -2.067974
H        -0.927800    0.336945   -1.324287
H        -0.595730   -1.315261   -1.942829
H         2.262216   -2.263373    5.357282
H         2.425831   -1.175370    3.898893
H         4.316585   -1.391331    6.356602
