-1 1
 OpenBabel05192410563D

 74 76  0  0  1  0  0  0  0  0999 V2000
    0.7742   -4.6225   -2.3294 O   0  0  0  0  0  0  0  0  0  0  0  0
    0.1710   -3.9816   -1.4837 C   0  0  0  0  0  0  0  0  0  0  0  0
    0.4584   -4.1120    0.0269 C   0  0  2  0  0  0  0  0  0  0  0  0
    1.8055   -4.8009    0.2624 C   0  0  0  0  0  0  0  0  0  0  0  0
    2.0827   -5.4299    1.9480 S   0  0  0  0  0  0  0  0  0  0  0  0
    1.7629   -3.8988    3.0405 C   0  0  0  0  0  0  0  0  0  0  0  0
    2.9099   -3.1737    3.6211 C   0  0  0  0  0  3  0  0  0  0  0  0
    3.8587   -2.4056    2.9508 C   0  0  0  0  0  0  0  0  0  0  0  0
    3.5911   -2.1440    1.5123 N   0  0  0  0  0  0  0  0  0  0  0  0
    2.5890   -1.4595    0.9244 C   0  0  0  0  0  0  0  0  0  0  0  0
    2.6237   -1.2267   -0.4783 C   0  0  0  0  0  0  0  0  0  0  0  0
    1.5806   -0.6021   -1.1305 C   0  0  0  0  0  0  0  0  0  0  0  0
    0.4611   -0.1778   -0.4046 C   0  0  0  0  0  0  0  0  0  0  0  0
   -0.8836    0.5448   -1.2583 S   0  0  0  0  0  0  0  0  0  0  0  0
   -2.1246   -0.2188   -1.1178 O   0  0  0  0  0  0  0  0  0  0  0  0
   -1.1382    1.9562   -0.3725 N   0  0  0  0  0  0  0  0  0  0  0  0
   -0.0825    2.9560   -0.4416 C   0  0  0  0  0  0  0  0  0  0  0  0
   -0.3036    3.9509   -1.5833 C   0  0  0  0  0  0  0  0  0  0  0  0
   -1.6431    4.5148   -1.5061 N   0  0  0  0  0  0  0  0  0  0  0  0
   -2.6971    3.5089   -1.5057 C   0  0  0  0  0  0  0  0  0  0  0  0
   -2.4824    2.5224   -0.3603 C   0  0  0  0  0  0  0  0  0  0  0  0
   -1.9724    5.8349   -1.3791 C   0  0  0  0  0  0  0  0  0  0  0  0
   -0.8278    6.8486   -1.3162 C   0  0  0  0  0  0  0  0  0  0  0  0
   -1.3526    8.2816   -1.4842 C   0  0  0  0  0  0  0  0  0  0  0  0
   -1.7909    8.7428   -0.0752 C   0  0  0  0  0  0  0  0  0  0  0  0
   -1.2284    7.6936    0.9104 C   0  0  0  0  0  0  0  0  0  0  0  0
   -0.2122    6.8818    0.0984 C   0  0  0  0  0  0  0  0  0  0  0  0
   -3.1346    6.2012   -1.2891 O   0  0  0  0  0  0  0  0  0  0  0  0
   -0.4371    0.8636   -2.6227 O   0  0  0  0  0  0  0  0  0  0  0  0
    0.4100   -0.3695    0.9844 C   0  0  0  0  0  0  0  0  0  0  0  0
    1.4577   -0.9816    1.6429 C   0  0  0  0  0  0  0  0  0  0  0  0
    4.9320   -1.9440    3.3495 O   0  0  0  0  0  0  0  0  0  0  0  0
   -0.6125   -4.8190    0.7118 N   0  0  0  0  0  0  0  0  0  0  0  0
   -1.6848   -4.1629    1.2190 C   0  0  0  0  0  0  0  0  0  0  0  0
   -2.4993   -4.9403    2.2330 C   0  0  0  0  0  0  0  0  0  0  0  0
   -1.9721   -3.0167    0.9087 O   0  0  0  0  0  0  0  0  0  0  0  0
    0.4837   -3.0880    0.4273 H   0  0  0  0  0  0  0  0  0  0  0  0
   -0.7977   -3.0885   -1.7759 N   0  0  0  0  0  0  0  0  0  0  0  0
   -1.2114   -2.8378   -3.1323 C   0  0  0  0  0  0  0  0  0  0  0  0
    1.8845   -5.6722   -0.4041 H   0  0  0  0  0  0  0  0  0  0  0  0
    2.6062   -4.1059   -0.0196 H   0  0  0  0  0  0  0  0  0  0  0  0
    4.4554   -2.1921    0.9840 H   0  0  0  0  0  0  0  0  0  0  0  0
    3.4861   -1.5769   -1.0507 H   0  0  0  0  0  0  0  0  0  0  0  0
    1.6111   -0.4490   -2.2103 H   0  0  0  0  0  0  0  0  0  0  0  0
    0.8891    2.4529   -0.5493 H   0  0  0  0  0  0  0  0  0  0  0  0
   -0.0687    3.4922    0.5233 H   0  0  0  0  0  0  0  0  0  0  0  0
   -0.1880    3.4210   -2.5434 H   0  0  0  0  0  0  0  0  0  0  0  0
    0.4560    4.7378   -1.5350 H   0  0  0  0  0  0  0  0  0  0  0  0
   -2.6823    2.9679   -2.4678 H   0  0  0  0  0  0  0  0  0  0  0  0
   -3.6569    4.0285   -1.4060 H   0  0  0  0  0  0  0  0  0  0  0  0
   -3.2099    1.7023   -0.4028 H   0  0  0  0  0  0  0  0  0  0  0  0
   -2.6097    3.0440    0.6037 H   0  0  0  0  0  0  0  0  0  0  0  0
   -0.0778    6.6102   -2.0844 H   0  0  0  0  0  0  0  0  0  0  0  0
   -2.1713    8.3301   -2.2135 H   0  0  0  0  0  0  0  0  0  0  0  0
   -0.5297    8.9119   -1.8565 H   0  0  0  0  0  0  0  0  0  0  0  0
   -2.8857    8.7901   -0.0045 H   0  0  0  0  0  0  0  0  0  0  0  0
   -1.4047    9.7497    0.1459 H   0  0  0  0  0  0  0  0  0  0  0  0
   -2.0370    7.0297    1.2513 H   0  0  0  0  0  0  0  0  0  0  0  0
   -0.7793    8.1423    1.8088 H   0  0  0  0  0  0  0  0  0  0  0  0
   -0.0229    5.8852    0.5244 H   0  0  0  0  0  0  0  0  0  0  0  0
    0.7565    7.4066    0.0523 H   0  0  0  0  0  0  0  0  0  0  0  0
   -0.4634   -0.0330    1.5458 H   0  0  0  0  0  0  0  0  0  0  0  0
    1.4368   -1.1247    2.7245 H   0  0  0  0  0  0  0  0  0  0  0  0
   -0.3132   -5.6703    1.1820 H   0  0  0  0  0  0  0  0  0  0  0  0
   -3.5438   -4.6102    2.1797 H   0  0  0  0  0  0  0  0  0  0  0  0
   -2.1149   -4.7096    3.2385 H   0  0  0  0  0  0  0  0  0  0  0  0
   -2.4395   -6.0268    2.0805 H   0  0  0  0  0  0  0  0  0  0  0  0
   -1.2955   -2.6414   -1.0044 H   0  0  0  0  0  0  0  0  0  0  0  0
   -0.3323   -2.6894   -3.7767 H   0  0  0  0  0  0  0  0  0  0  0  0
   -1.8261   -1.9296   -3.1503 H   0  0  0  0  0  0  0  0  0  0  0  0
   -1.7923   -3.6782   -3.5507 H   0  0  0  0  0  0  0  0  0  0  0  0
    1.1383   -4.3164    3.8432 H   0  0  0  0  0  0  0  0  0  0  0  0
    1.0876   -3.2955    2.4145 H   0  0  0  0  0  0  0  0  0  0  0  0
    3.1754   -3.4046    4.6560 H   0  0  0  0  0  0  0  0  0  0  0  0
  1  2  2  0  0  0  0
  2  3  1  0  0  0  0
  3  4  1  0  0  0  0
  3 37  1  1  0  0  0
  3 33  1  0  0  0  0
  4  5  1  0  0  0  0
  5  6  1  0  0  0  0
  6  7  1  0  0  0  0
  6 72  1  0  0  0  0
  7 74  1  0  0  0  0
  8 32  2  0  0  0  0
  8  7  1  0  0  0  0
  9  8  1  0  0  0  0
 10  9  1  0  0  0  0
 10 31  1  0  0  0  0
 11 10  2  0  0  0  0
 12 11  1  0  0  0  0
 12 13  2  0  0  0  0
 13 30  1  0  0  0  0
 14 15  2  0  0  0  0
 14 13  1  0  0  0  0
 14 16  1  0  0  0  0
 16 21  1  0  0  0  0
 17 16  1  0  0  0  0
 17 46  1  0  0  0  0
 18 48  1  0  0  0  0
 18 19  1  0  0  0  0
 18 17  1  0  0  0  0
 19 20  1  0  0  0  0
 19 22  1  0  0  0  0
 20 50  1  0  0  0  0
 20 21  1  0  0  0  0
 21 52  1  0  0  0  0
 22 23  1  0  0  0  0
 22 28  2  0  0  0  0
 23 27  1  0  0  0  0
 24 23  1  0  0  0  0
 24 25  1  0  0  0  0
 25 56  1  0  0  0  0
 25 57  1  0  0  0  0
 25 26  1  0  0  0  0
 26 58  1  0  0  0  0
 26 59  1  0  0  0  0
 27 60  1  0  0  0  0
 27 26  1  0  0  0  0
 29 14  2  0  0  0  0
 30 62  1  0  0  0  0
 30 31  2  0  0  0  0
 31 63  1  0  0  0  0
 33 64  1  0  0  0  0
 33 34  1  0  0  0  0
 34 35  1  0  0  0  0
 35 66  1  0  0  0  0
 36 34  2  0  0  0  0
 38  2  1  0  0  0  0
 38 68  1  0  0  0  0
 39 38  1  0  0  0  0
 40  4  1  0  0  0  0
 41  4  1  0  0  0  0
 42  9  1  0  0  0  0
 43 11  1  0  0  0  0
 44 12  1  0  0  0  0
 45 17  1  0  0  0  0
 47 18  1  0  0  0  0
 49 20  1  0  0  0  0
 51 21  1  0  0  0  0
 53 23  1  0  0  0  0
 54 24  1  0  0  0  0
 55 24  1  0  0  0  0
 61 27  1  0  0  0  0
 65 35  1  0  0  0  0
 67 35  1  0  0  0  0
 69 39  1  0  0  0  0
 70 39  1  0  0  0  0
 71 39  1  0  0  0  0
 73  6  1  0  0  0  0
M  END
