-1 1
 OpenBabel05232414493D

 76 77  0  0  1  0  0  0  0  0999 V2000
    2.3230    1.0590   -2.1152 O   0  0  0  0  0  0  0  0  0  0  0  0
    1.1848    0.9488   -1.6991 C   0  0  0  0  0  0  0  0  0  0  0  0
    0.2800    2.1559   -1.4352 C   0  0  2  0  0  0  0  0  0  0  0  0
    1.0223    3.4945   -1.3860 C   0  0  0  0  0  0  0  0  0  0  0  0
   -0.1096    4.8940   -1.0845 S   0  0  0  0  0  1  0  0  0  0  0  0
   -0.9425    5.0697   -3.4275 C   0  0  0  0  0  3  0  0  0  0  0  0
   -0.0990    5.5851   -4.3881 C   0  0  0  0  0  3  0  0  0  0  0  0
    0.9625    4.9313   -5.1157 C   0  0  0  0  0  0  0  0  0  0  0  0
    1.0894    3.5033   -5.1203 N   0  0  0  0  0  0  0  0  0  0  0  0
    0.1988    2.4653   -5.0978 C   0  0  0  0  0  0  0  0  0  0  0  0
    0.6926    1.1659   -4.8373 C   0  0  0  0  0  0  0  0  0  0  0  0
   -0.1695    0.1032   -4.6563 C   0  0  0  0  0  0  0  0  0  0  0  0
   -1.5490    0.3026   -4.7715 C   0  0  0  0  0  0  0  0  0  0  0  0
   -2.6387   -0.9690   -4.2421 S   0  0  0  0  0  0  0  0  0  0  0  0
   -2.0838   -2.2902   -4.5394 O   0  0  0  0  0  0  0  0  0  0  0  0
   -2.5490   -0.8162   -2.5718 N   0  0  0  0  0  0  0  0  0  0  0  0
   -3.1609    0.3643   -1.9657 C   0  0  0  0  0  0  0  0  0  0  0  0
   -4.5536    0.0478   -1.4299 C   0  0  0  0  0  0  0  0  0  0  0  0
   -4.5069   -1.1000   -0.5264 N   0  0  0  0  0  0  0  0  0  0  0  0
   -3.9602   -2.2904   -1.1746 C   0  0  0  0  0  0  0  0  0  0  0  0
   -2.5668   -2.0034   -1.7375 C   0  0  0  0  0  0  0  0  0  0  0  0
   -4.2454   -0.8194    0.8024 C   0  0  0  0  0  0  0  0  0  0  0  0
   -4.2955   -1.9087    1.6676 N   0  0  0  0  0  0  0  0  0  0  0  0
   -5.3678   -2.8899    1.5964 C   0  0  0  0  0  0  0  0  0  0  0  0
   -4.8714   -4.2500    2.0765 C   0  0  0  0  0  0  0  0  0  0  0  0
   -4.2654   -4.1259    3.4616 C   0  0  0  0  0  0  0  0  0  0  0  0
   -3.7164   -5.3131    3.8346 F   0  0  0  0  0  0  0  0  0  0  0  0
   -3.2342   -3.0198    3.5565 C   0  0  0  0  0  0  0  0  0  0  0  0
   -3.7883   -1.7044    3.0141 C   0  0  0  0  0  0  0  0  0  0  0  0
   -5.2709   -3.8745    4.3568 F   0  0  0  0  0  0  0  0  0  0  0  0
   -3.9879    0.3026    1.2008 O   0  0  0  0  0  0  0  0  0  0  0  0
   -3.9928   -0.6417   -4.6983 O   0  0  0  0  0  0  0  0  0  0  0  0
   -2.0505    1.5511   -5.1498 C   0  0  0  0  0  0  0  0  0  0  0  0
   -1.1844    2.6175   -5.3356 C   0  0  0  0  0  0  0  0  0  0  0  0
    1.8464    5.5303   -5.7110 O   0  0  0  0  0  0  0  0  0  0  0  0
   -0.5970    1.9585   -0.2869 N   0  0  0  0  0  0  0  0  0  0  0  0
   -0.1059    1.6131    0.9506 C   0  0  0  0  0  0  0  0  0  0  0  0
   -1.0513    1.9270    2.0915 C   0  0  0  0  0  0  0  0  0  0  0  0
    0.9680    1.0675    1.1119 O   0  0  0  0  0  0  0  0  0  0  0  0
   -0.3909    2.1762   -2.3140 H   0  0  0  0  0  0  0  0  0  0  0  0
    0.5524   -0.2487   -1.5714 N   0  0  0  0  0  0  0  0  0  0  0  0
    1.2109   -1.5086   -1.7598 C   0  0  0  0  0  0  0  0  0  0  0  0
    1.7896    3.4510   -0.5983 H   0  0  0  0  0  0  0  0  0  0  0  0
    1.5494    3.6338   -2.3421 H   0  0  0  0  0  0  0  0  0  0  0  0
    2.0603    3.2449   -5.2557 H   0  0  0  0  0  0  0  0  0  0  0  0
    1.7617    1.0266   -4.6693 H   0  0  0  0  0  0  0  0  0  0  0  0
    0.2200   -0.8791   -4.3867 H   0  0  0  0  0  0  0  0  0  0  0  0
   -3.1964    1.1807   -2.6994 H   0  0  0  0  0  0  0  0  0  0  0  0
   -2.5130    0.7051   -1.1411 H   0  0  0  0  0  0  0  0  0  0  0  0
   -5.2263   -0.2002   -2.2657 H   0  0  0  0  0  0  0  0  0  0  0  0
   -4.9542    0.9097   -0.8842 H   0  0  0  0  0  0  0  0  0  0  0  0
   -4.6391   -2.5904   -1.9898 H   0  0  0  0  0  0  0  0  0  0  0  0
   -3.8931   -3.1207   -0.4628 H   0  0  0  0  0  0  0  0  0  0  0  0
   -2.1932   -2.8559   -2.3192 H   0  0  0  0  0  0  0  0  0  0  0  0
   -1.8729   -1.8394   -0.8915 H   0  0  0  0  0  0  0  0  0  0  0  0
   -5.7571   -2.9512    0.5743 H   0  0  0  0  0  0  0  0  0  0  0  0
   -6.2093   -2.5681    2.2402 H   0  0  0  0  0  0  0  0  0  0  0  0
   -4.0952   -4.6371    1.3991 H   0  0  0  0  0  0  0  0  0  0  0  0
   -5.6916   -4.9813    2.1176 H   0  0  0  0  0  0  0  0  0  0  0  0
   -2.3542   -3.3255    2.9716 H   0  0  0  0  0  0  0  0  0  0  0  0
   -2.9294   -2.9159    4.6078 H   0  0  0  0  0  0  0  0  0  0  0  0
   -3.0074   -0.9362    2.9838 H   0  0  0  0  0  0  0  0  0  0  0  0
   -4.5860   -1.3279    3.6818 H   0  0  0  0  0  0  0  0  0  0  0  0
   -3.1254    1.6814   -5.2887 H   0  0  0  0  0  0  0  0  0  0  0  0
   -1.5706    3.5953   -5.6211 H   0  0  0  0  0  0  0  0  0  0  0  0
   -1.2924    2.7057   -0.2583 H   0  0  0  0  0  0  0  0  0  0  0  0
   -0.6478    1.4966    3.0159 H   0  0  0  0  0  0  0  0  0  0  0  0
   -2.0577    1.5292    1.8904 H   0  0  0  0  0  0  0  0  0  0  0  0
   -1.1315    3.0196    2.2039 H   0  0  0  0  0  0  0  0  0  0  0  0
   -0.3742   -0.2292   -1.1696 H   0  0  0  0  0  0  0  0  0  0  0  0
    2.1526   -1.3202   -2.2923 H   0  0  0  0  0  0  0  0  0  0  0  0
    0.5885   -2.1919   -2.3613 H   0  0  0  0  0  0  0  0  0  0  0  0
    1.4524   -1.9988   -0.8008 H   0  0  0  0  0  0  0  0  0  0  0  0
   -0.0543    6.6694   -4.5148 H   0  0  0  0  0  0  0  0  0  0  0  0
   -1.1456    4.0047   -3.3460 H   0  0  0  0  0  0  0  0  0  0  0  0
   -1.7373    5.7054   -3.0371 H   0  0  0  0  0  0  0  0  0  0  0  0
  1  2  2  0  0  0  0
  2 41  1  0  0  0  0
  2  3  1  0  0  0  0
  3 40  1  6  0  0  0
  3  4  1  0  0  0  0
  3 36  1  0  0  0  0
  4  5  1  0  0  0  0
  4 43  1  0  0  0  0
  6 75  1  0  0  0  0
  6 76  1  0  0  0  0
  7  6  1  0  0  0  0
  8  7  1  0  0  0  0
  9  8  1  0  0  0  0
  9 10  1  0  0  0  0
 10 11  1  0  0  0  0
 11 46  1  0  0  0  0
 11 12  2  0  0  0  0
 12 47  1  0  0  0  0
 13 12  1  0  0  0  0
 13 14  1  0  0  0  0
 14 16  1  0  0  0  0
 15 14  2  0  0  0  0
 16 17  1  0  0  0  0
 16 21  1  0  0  0  0
 17 18  1  0  0  0  0
 17 49  1  0  0  0  0
 18 51  1  0  0  0  0
 18 19  1  0  0  0  0
 19 22  1  0  0  0  0
 20 19  1  0  0  0  0
 20 53  1  0  0  0  0
 21 20  1  0  0  0  0
 21 55  1  0  0  0  0
 22 31  2  0  0  0  0
 22 23  1  0  0  0  0
 23 29  1  0  0  0  0
 24 23  1  0  0  0  0
 24 25  1  0  0  0  0
 24 57  1  0  0  0  0
 25 59  1  0  0  0  0
 25 26  1  0  0  0  0
 26 28  1  0  0  0  0
 26 27  1  0  0  0  0
 26 30  1  0  0  0  0
 28 61  1  0  0  0  0
 29 28  1  0  0  0  0
 29 63  1  0  0  0  0
 32 14  2  0  0  0  0
 33 13  2  0  0  0  0
 34 33  1  0  0  0  0
 34 10  2  0  0  0  0
 35  8  2  0  0  0  0
 36 66  1  0  0  0  0
 36 37  1  0  0  0  0
 37 39  2  0  0  0  0
 37 38  1  0  0  0  0
 38 69  1  0  0  0  0
 38 67  1  0  0  0  0
 41 70  1  0  0  0  0
 42 41  1  0  0  0  0
 42 73  1  0  0  0  0
 44  4  1  0  0  0  0
 45  9  1  0  0  0  0
 48 17  1  0  0  0  0
 50 18  1  0  0  0  0
 52 20  1  0  0  0  0
 54 21  1  0  0  0  0
 56 24  1  0  0  0  0
 58 25  1  0  0  0  0
 60 28  1  0  0  0  0
 62 29  1  0  0  0  0
 64 33  1  0  0  0  0
 65 34  1  0  0  0  0
 68 38  1  0  0  0  0
 71 42  1  0  0  0  0
 72 42  1  0  0  0  0
 74  7  1  0  0  0  0
M  END
