69
-1 1
O         3.535201   -4.008276   -5.035644
C         2.502814   -3.543165   -4.587067
C         2.288308   -3.238245   -3.087782
C         3.580434   -3.388243   -2.274220
S         3.914203   -5.036331   -1.600274
C         3.581896   -4.733410    0.279478
C         2.598583   -3.693771    0.601071
C         1.239203   -4.001594    0.551481
N         0.289113   -2.926328    0.597538
C         0.673418   -1.552552    0.450868
C        -0.485778   -0.768161   -0.154468
N        -1.699434   -0.940391    0.642899
C        -2.093202   -2.345822    0.719278
C        -0.939350   -3.144397    1.315694
C        -2.524126    0.041050    1.057038
N        -3.812088   -0.248409    1.233548
C        -4.669418    0.751726    1.462668
N        -4.416665    2.036874    1.533572
C        -2.071809    1.394928    1.350174
C        -3.095841    2.361695    1.516972
C        -2.724013    3.712942    1.736318
C        -1.406122    4.097103    1.894372
C        -1.074191    5.519502    2.175944
C        -0.404125    6.315373    1.246212
F        -0.056390    5.765085    0.082996
C        -0.085407    7.644194    1.482771
C        -0.455970    8.200004    2.707310
C        -1.124573    7.446089    3.663789
C        -1.436783    6.107220    3.401710
O        -2.075647    5.410028    4.357975
C        -0.411490    3.082807    1.857796
Cl         1.250900    3.495521    2.200652
C        -0.730757    1.771599    1.591938
O         0.755761   -5.153419    0.416607
N         1.200970   -4.027441   -2.545860
C        -0.094667   -3.678393   -2.655141
C        -1.075416   -4.641330   -2.037098
O        -0.456355   -2.669690   -3.272577
H         1.972349   -2.180376   -3.039620
N         1.429918   -3.211344   -5.351670
C         1.378200   -3.470811   -6.764259
H         4.424127   -3.083893   -2.905313
H         3.509884   -2.721609   -1.403308
H         1.530218   -1.497122   -0.234857
H         0.986488   -1.082800    1.413350
H        -0.691283   -1.178895   -1.159132
H        -0.247237    0.292648   -0.278704
H        -2.325415   -2.709413   -0.294971
H        -2.998189   -2.424374    1.330597
H        -1.154344   -4.220637    1.275048
H        -0.840969   -2.854886    2.387202
H        -5.718612    0.450397    1.577130
H        -3.527941    4.449379    1.797886
H         0.440046    8.214798    0.716987
H        -0.215266    9.244205    2.918094
H        -1.415373    7.868779    4.626054
H        -2.240395    4.510655    4.045432
H         0.059100    1.022664    1.617512
H         1.466115   -4.802742   -1.933045
H        -1.168192   -5.517452   -2.698652
H        -2.055960   -4.155124   -1.967473
H        -0.706979   -4.984016   -1.054389
H         0.614694   -2.833400   -4.863714
H         2.347501   -3.887480   -7.067794
H         1.194361   -2.547826   -7.338913
H         0.587227   -4.196690   -7.018093
H         3.244676   -5.731921    0.590765
H         4.574672   -4.529783    0.702952
H         2.948580   -2.685129    0.823339
