69
-1 1
O         1.758125    2.076455   -1.839292
C         0.714346    2.055521   -1.214725
C         0.635968    1.809257    0.310125
C         2.017792    1.586491    0.956650
S         2.526407   -0.133043    1.181856
C         2.085491   -0.165204    3.540417
C         1.252650    0.869595    3.940070
C        -0.175108    0.663820    3.970455
N        -1.011317    1.792481    4.036630
C        -0.564210    3.150238    3.857211
C        -1.582780    3.930215    3.029122
N        -2.918120    3.822932    3.610924
C        -3.361452    2.429282    3.638227
C        -2.375420    1.634619    4.487818
C        -3.762178    4.837921    3.877050
N        -5.070088    4.586605    3.871945
C        -5.922415    5.613760    3.942589
N        -5.645505    6.894045    4.013628
C        -3.318270    6.188875    4.196652
C        -4.327999    7.185124    4.183427
C        -3.954177    8.533455    4.417675
C        -2.664150    8.891747    4.759227
C        -2.337574   10.313802    5.047885
C        -1.508230   11.061067    4.210762
F        -1.002311   10.463525    3.132148
C        -1.189656   12.388396    4.455574
C        -1.727759   12.993682    5.591271
C        -2.558538   12.289191    6.453723
C        -2.867132   10.950839    6.185057
O        -3.666718   10.302337    7.050557
C        -1.704047    7.853481    4.898100
Cl        -0.099452    8.235530    5.472766
C        -2.017635    6.542842    4.622972
O        -0.707898   -0.452165    3.949907
N        -0.252627    0.716436    0.643467
C        -1.584563    0.797747    0.749418
C        -2.275151   -0.450473    1.237845
O        -2.215571    1.828828    0.472609
H         0.195774    2.733895    0.726360
N        -0.500546    2.300802   -1.775361
C        -0.665696    2.543850   -3.181875
H         2.761871    2.126872    0.358627
H         1.975899    2.037242    1.964411
H         0.388749    3.147471    3.313242
H        -0.395968    3.660852    4.830579
H        -1.640258    3.475280    2.025174
H        -1.288166    4.976758    2.904659
H        -3.385631    2.047040    2.604726
H        -4.371627    2.388690    4.058020
H        -2.608490    0.563516    4.450979
H        -2.474474    1.973034    5.541026
H        -6.985230    5.341871    3.910011
H        -4.737569    9.290019    4.337984
H        -0.535432   12.919797    3.764403
H        -1.490993   14.037835    5.806632
H        -2.981476   12.750922    7.346519
H        -3.809654    9.397967    6.741831
H        -1.259579    5.779101    4.785619
H         0.262174   -0.130189    0.923900
H        -1.944563   -1.326354    0.660261
H        -3.359618   -0.326076    1.133854
H        -1.993515   -0.624036    2.290889
H        -1.310528    2.308030   -1.152807
H         0.323998    2.485122   -3.653440
H        -1.089262    3.543749   -3.376765
H        -1.326184    1.794581   -3.649838
H         1.659838   -1.168410    3.495457
H         3.152288   -0.108164    3.755925
H         1.676713    1.841501    4.195331
