-1 1
 OpenBabel05232413483D

 82 85  0  0  1  0  0  0  0  0999 V2000
    1.9712   -1.4162   -1.7693 O   0  0  0  0  0  0  0  0  0  0  0  0
    1.5310   -1.9971   -2.7584 C   0  0  0  0  0  0  0  0  0  0  0  0
    2.2640   -3.1922   -3.3816 C   0  0  2  0  0  0  0  0  0  0  0  0
    2.8976   -2.7801   -4.7380 C   0  0  0  0  0  0  0  0  0  0  0  0
    1.6965   -2.7392   -6.1260 S   0  0  0  0  0  1  0  0  0  0  0  0
    1.9232   -7.5499    1.9823 C   0  0  0  0  0  0  0  0  0  0  0  0
    1.6464   -6.3721    1.4242 C   0  0  0  0  0  0  0  0  0  0  0  0
    1.9885   -5.0949    2.1348 C   0  0  0  0  0  0  0  0  0  0  0  0
    1.1597   -4.0298    1.9101 N   0  0  0  0  0  0  0  0  0  0  0  0
    1.5466   -2.7110    2.3668 C   0  0  0  0  0  0  0  0  0  0  0  0
    1.4354   -1.7048    1.2207 C   0  0  0  0  0  0  0  0  0  0  0  0
    0.0894   -1.7324    0.6586 N   0  0  0  0  0  0  0  0  0  0  0  0
   -0.3256   -3.0575    0.2329 C   0  0  0  0  0  0  0  0  0  0  0  0
   -0.1762   -4.0917    1.3413 C   0  0  0  0  0  0  0  0  0  0  0  0
   -0.8250   -0.7514    0.9160 C   0  0  0  0  0  0  0  0  0  0  0  0
   -2.0448   -1.0976    1.2880 N   0  0  0  0  0  0  0  0  0  0  0  0
   -2.9610   -0.1689    1.5852 N   0  0  0  0  0  0  0  0  0  0  0  0
   -2.6737    1.1086    1.5884 C   0  0  0  0  0  0  0  0  0  0  0  0
   -3.7636    2.0376    2.0109 C   0  0  0  0  0  0  0  0  0  0  0  0
   -4.3045    1.9721    3.3107 C   0  0  0  0  0  0  0  0  0  0  0  0
   -3.7958    0.9722    4.3157 C   0  0  0  0  0  0  0  0  0  0  0  0
   -5.3315    2.8594    3.6489 C   0  0  0  0  0  0  0  0  0  0  0  0
   -5.8222    3.7920    2.7367 C   0  0  0  0  0  0  0  0  0  0  0  0
   -5.2850    3.8520    1.4539 C   0  0  0  0  0  0  0  0  0  0  0  0
   -4.2606    2.9769    1.0999 C   0  0  0  0  0  0  0  0  0  0  0  0
   -0.4687    0.6348    0.7051 C   0  0  0  0  0  0  0  0  0  0  0  0
   -1.3977    1.5993    1.1395 C   0  0  0  0  0  0  0  0  0  0  0  0
   -1.0580    2.9673    1.0286 C   0  0  0  0  0  0  0  0  0  0  0  0
    0.1098    3.3695    0.4125 C   0  0  0  0  0  0  0  0  0  0  0  0
    0.4246    4.8170    0.2986 C   0  0  0  0  0  0  0  0  0  0  0  0
   -0.3583    5.6675   -0.4799 C   0  0  0  0  0  0  0  0  0  0  0  0
   -1.4010    5.1532   -1.1324 F   0  0  0  0  0  0  0  0  0  0  0  0
   -0.0939    7.0255   -0.6220 C   0  0  0  0  0  0  0  0  0  0  0  0
    1.0016    7.5554    0.0510 C   0  0  0  0  0  0  0  0  0  0  0  0
    1.8059    6.7460    0.8495 C   0  0  0  0  0  0  0  0  0  0  0  0
    1.5170    5.3843    0.9778 C   0  0  0  0  0  0  0  0  0  0  0  0
    2.2505    4.5588    1.7484 O   0  0  0  0  0  0  0  0  0  0  0  0
    0.9552    2.3723   -0.1449 C   0  0  0  0  0  0  0  0  0  0  0  0
    2.3403    2.8549   -1.0908 Cl  0  0  0  0  0  0  0  0  0  0  0  0
    0.6912    1.0312    0.0008 C   0  0  0  0  0  0  0  0  0  0  0  0
    2.9748   -5.0106    2.8506 O   0  0  0  0  0  0  0  0  0  0  0  0
    1.4093   -4.3304   -3.6329 N   0  0  0  0  0  0  0  0  0  0  0  0
    0.9736   -5.2023   -2.7166 C   0  0  0  0  0  0  0  0  0  0  0  0
    0.0731   -6.3046   -3.2425 C   0  0  0  0  0  0  0  0  0  0  0  0
    1.2648   -5.1472   -1.5227 O   0  0  0  0  0  0  0  0  0  0  0  0
    3.0408   -3.4668   -2.6532 H   0  0  0  0  0  0  0  0  0  0  0  0
    0.4109   -1.6219   -3.4056 N   0  0  0  0  0  0  0  0  0  0  0  0
   -0.3070   -0.4368   -3.0139 C   0  0  0  0  0  0  0  0  0  0  0  0
    3.3805   -1.8000   -4.5998 H   0  0  0  0  0  0  0  0  0  0  0  0
    3.6971   -3.5051   -4.9602 H   0  0  0  0  0  0  0  0  0  0  0  0
    2.5765   -2.7720    2.7393 H   0  0  0  0  0  0  0  0  0  0  0  0
    0.8949   -2.3951    3.2043 H   0  0  0  0  0  0  0  0  0  0  0  0
    2.1538   -1.9434    0.4217 H   0  0  0  0  0  0  0  0  0  0  0  0
    1.6635   -0.7011    1.6017 H   0  0  0  0  0  0  0  0  0  0  0  0
    0.3291   -3.3608   -0.5977 H   0  0  0  0  0  0  0  0  0  0  0  0
   -1.3662   -3.0128   -0.1084 H   0  0  0  0  0  0  0  0  0  0  0  0
   -0.3679   -5.0910    0.9356 H   0  0  0  0  0  0  0  0  0  0  0  0
   -0.9178   -3.8932    2.1374 H   0  0  0  0  0  0  0  0  0  0  0  0
   -4.0173   -0.0522    3.9846 H   0  0  0  0  0  0  0  0  0  0  0  0
   -4.2495    1.1377    5.3030 H   0  0  0  0  0  0  0  0  0  0  0  0
   -2.7019    1.0366    4.4215 H   0  0  0  0  0  0  0  0  0  0  0  0
   -5.7551    2.8171    4.6562 H   0  0  0  0  0  0  0  0  0  0  0  0
   -6.6253    4.4718    3.0311 H   0  0  0  0  0  0  0  0  0  0  0  0
   -5.6613    4.5749    0.7268 H   0  0  0  0  0  0  0  0  0  0  0  0
   -3.8365    3.0170    0.0934 H   0  0  0  0  0  0  0  0  0  0  0  0
   -1.7362    3.7252    1.4225 H   0  0  0  0  0  0  0  0  0  0  0  0
   -0.7401    7.6335   -1.2552 H   0  0  0  0  0  0  0  0  0  0  0  0
    1.2344    8.6178   -0.0455 H   0  0  0  0  0  0  0  0  0  0  0  0
    2.6614    7.1694    1.3823 H   0  0  0  0  0  0  0  0  0  0  0  0
    3.0378    5.0127    2.0614 H   0  0  0  0  0  0  0  0  0  0  0  0
    1.3184    0.2773   -0.4892 H   0  0  0  0  0  0  0  0  0  0  0  0
    1.0957   -4.3590   -4.6145 H   0  0  0  0  0  0  0  0  0  0  0  0
   -0.0945   -6.2500   -4.3265 H   0  0  0  0  0  0  0  0  0  0  0  0
   -0.8930   -6.2431   -2.7209 H   0  0  0  0  0  0  0  0  0  0  0  0
    0.5230   -7.2756   -2.9907 H   0  0  0  0  0  0  0  0  0  0  0  0
    0.3571   -1.9489   -4.3854 H   0  0  0  0  0  0  0  0  0  0  0  0
    0.3239    0.4687   -3.0491 H   0  0  0  0  0  0  0  0  0  0  0  0
   -0.6870   -0.5372   -1.9860 H   0  0  0  0  0  0  0  0  0  0  0  0
   -1.1618   -0.2965   -3.6881 H   0  0  0  0  0  0  0  0  0  0  0  0
    1.2479   -6.2911    0.4069 H   0  0  0  0  0  0  0  0  0  0  0  0
    1.7274   -8.4882    1.4571 H   0  0  0  0  0  0  0  0  0  0  0  0
    2.3705   -7.6020    2.9794 H   0  0  0  0  0  0  0  0  0  0  0  0
  2  1  2  0  0  0  0
  3  2  1  0  0  0  0
  3 46  1  1  0  0  0
  4 49  1  0  0  0  0
  4  3  1  0  0  0  0
  5  4  1  0  0  0  0
  6 82  1  0  0  0  0
  7  6  2  0  0  0  0
  7  8  1  0  0  0  0
  8 41  2  0  0  0  0
  9  8  1  0  0  0  0
  9 10  1  0  0  0  0
 10 51  1  0  0  0  0
 10 52  1  0  0  0  0
 11 54  1  0  0  0  0
 11 10  1  0  0  0  0
 12 15  1  0  0  0  0
 12 11  1  0  0  0  0
 13 12  1  0  0  0  0
 13 14  1  0  0  0  0
 14  9  1  0  0  0  0
 14 58  1  0  0  0  0
 15 16  1  0  0  0  0
 16 17  2  0  0  0  0
 17 18  1  0  0  0  0
 18 19  1  0  0  0  0
 19 20  1  0  0  0  0
 20 22  2  0  0  0  0
 20 21  1  0  0  0  0
 21 61  1  0  0  0  0
 21 60  1  0  0  0  0
 22 62  1  0  0  0  0
 23 63  1  0  0  0  0
 23 22  1  0  0  0  0
 24 23  2  0  0  0  0
 25 24  1  0  0  0  0
 25 19  2  0  0  0  0
 26 15  2  0  0  0  0
 26 27  1  0  0  0  0
 27 18  2  0  0  0  0
 28 27  1  0  0  0  0
 28 66  1  0  0  0  0
 29 28  2  0  0  0  0
 30 29  1  0  0  0  0
 30 36  1  0  0  0  0
 31 30  2  0  0  0  0
 32 31  1  0  0  0  0
 33 31  1  0  0  0  0
 33 34  2  0  0  0  0
 34 35  1  0  0  0  0
 35 36  2  0  0  0  0
 35 69  1  0  0  0  0
 36 37  1  0  0  0  0
 37 70  1  0  0  0  0
 38 40  2  0  0  0  0
 38 29  1  0  0  0  0
 39 38  1  0  0  0  0
 40 26  1  0  0  0  0
 42  3  1  0  0  0  0
 42 43  1  0  0  0  0
 43 45  2  0  0  0  0
 44 75  1  0  0  0  0
 44 74  1  0  0  0  0
 44 43  1  0  0  0  0
 47 48  1  0  0  0  0
 47  2  1  0  0  0  0
 48 78  1  0  0  0  0
 50  4  1  0  0  0  0
 53 11  1  0  0  0  0
 55 13  1  0  0  0  0
 56 13  1  0  0  0  0
 57 14  1  0  0  0  0
 59 21  1  0  0  0  0
 64 24  1  0  0  0  0
 65 25  1  0  0  0  0
 67 33  1  0  0  0  0
 68 34  1  0  0  0  0
 71 40  1  0  0  0  0
 72 42  1  0  0  0  0
 73 44  1  0  0  0  0
 76 47  1  0  0  0  0
 77 48  1  0  0  0  0
 79 48  1  0  0  0  0
 80  7  1  0  0  0  0
 81  6  1  0  0  0  0
M  END
