82
-1 1
O         1.971229   -1.416184   -1.769264
C         1.531003   -1.997060   -2.758351
C         2.263988   -3.192164   -3.381635
C         2.897590   -2.780099   -4.738017
S         1.696487   -2.739190   -6.125971
C         1.923247   -7.549911    1.982287
C         1.646408   -6.372096    1.424204
C         1.988479   -5.094883    2.134780
N         1.159675   -4.029807    1.910134
C         1.546563   -2.711012    2.366784
C         1.435379   -1.704780    1.220651
N         0.089364   -1.732445    0.658564
C        -0.325569   -3.057542    0.232852
C        -0.176214   -4.091728    1.341314
C        -0.825008   -0.751401    0.916030
N        -2.044827   -1.097574    1.288017
N        -2.961009   -0.168924    1.585196
C        -2.673667    1.108633    1.588418
C        -3.763649    2.037633    2.010885
C        -4.304454    1.972125    3.310721
C        -3.795813    0.972230    4.315678
C        -5.331517    2.859360    3.648863
C        -5.822186    3.791981    2.736663
C        -5.284966    3.851991    1.453877
C        -4.260635    2.976854    1.099920
C        -0.468719    0.634765    0.705107
C        -1.397713    1.599292    1.139545
C        -1.058036    2.967306    1.028628
C         0.109831    3.369514    0.412490
C         0.424609    4.817038    0.298601
C        -0.358342    5.667480   -0.479853
F        -1.400958    5.153227   -1.132418
C        -0.093873    7.025482   -0.622047
C         1.001623    7.555393    0.050956
C         1.805944    6.745971    0.849458
C         1.516997    5.384320    0.977838
O         2.250460    4.558769    1.748386
C         0.955167    2.372341   -0.144864
Cl         2.340277    2.854897   -1.090830
C         0.691233    1.031208    0.000809
O         2.974787   -5.010591    2.850628
N         1.409297   -4.330397   -3.632889
C         0.973612   -5.202313   -2.716597
C         0.073087   -6.304637   -3.242520
O         1.264753   -5.147213   -1.522731
H         3.040842   -3.466771   -2.653181
N         0.410873   -1.621894   -3.405644
C        -0.306957   -0.436824   -3.013861
H         3.380524   -1.799970   -4.599833
H         3.697091   -3.505148   -4.960233
H         2.576455   -2.771993    2.739256
H         0.894873   -2.395058    3.204330
H         2.153759   -1.943400    0.421741
H         1.663531   -0.701138    1.601674
H         0.329055   -3.360781   -0.597654
H        -1.366166   -3.012772   -0.108355
H        -0.367923   -5.091026    0.935578
H        -0.917799   -3.893199    2.137365
H        -4.017313   -0.052238    3.984617
H        -4.249509    1.137682    5.303031
H        -2.701866    1.036588    4.421494
H        -5.755073    2.817137    4.656244
H        -6.625343    4.471803    3.031113
H        -5.661307    4.574875    0.726782
H        -3.836459    3.017048    0.093396
H        -1.736223    3.725205    1.422540
H        -0.740061    7.633479   -1.255204
H         1.234413    8.617824   -0.045520
H         2.661376    7.169418    1.382346
H         3.037783    5.012657    2.061441
H         1.318387    0.277291   -0.489208
H         1.095683   -4.358985   -4.614528
H        -0.094474   -6.250037   -4.326463
H        -0.893038   -6.243131   -2.720943
H         0.523019   -7.275626   -2.990679
H         0.357121   -1.948932   -4.385401
H         0.323932    0.468720   -3.049101
H        -0.687007   -0.537152   -1.985992
H        -1.161818   -0.296469   -3.688053
H         1.247885   -6.291144    0.406907
H         1.727370   -8.488239    1.457078
H         2.370547   -7.602042    2.979408
