82
-1 1
O         5.230607   -5.449047   -3.699796
C         4.294235   -4.746554   -3.347814
C         3.168366   -5.255405   -2.422736
C         3.482215   -6.698129   -1.987418
S         2.091601   -7.766130   -1.519816
C         1.450072   -7.009921    0.117690
C         0.556063   -5.849766    0.053286
C         1.090319   -4.562529    0.155459
N         0.204207   -3.436021    0.056160
C         0.791376   -2.130604    0.180139
C         0.014158   -1.115069   -0.648177
N        -1.408176   -1.110071   -0.269452
C        -1.990049   -2.450014   -0.296745
C        -1.167209   -3.465325    0.494778
C        -1.922225   -0.174188    0.582121
N        -2.729230   -0.577583    1.551875
N        -3.229914    0.277874    2.444403
C        -2.899139    1.544419    2.450540
C        -3.461262    2.379055    3.553103
C        -3.142776    2.101838    4.898071
C        -2.222576    0.966729    5.262269
C        -3.705825    2.907779    5.893146
C        -4.562316    3.962709    5.583157
C        -4.874104    4.231572    4.253363
C        -4.322405    3.439724    3.248869
C        -1.657971    1.239547    0.387115
C        -2.090715    2.112191    1.406272
C        -1.773586    3.487250    1.311494
C        -1.143670    4.011455    0.201634
C        -0.826977    5.461662    0.141820
C        -1.834814    6.421767    0.079719
F        -3.103360    6.011333    0.056367
C        -1.579497    7.787822    0.026011
C        -0.254107    8.209137    0.040768
C         0.786323    7.285982    0.111396
C         0.502881    5.918155    0.166954
O         1.464421    4.980708    0.250288
C        -0.848454    3.131887   -0.872055
Cl        -0.197921    3.778740   -2.359056
C        -1.086331    1.780755   -0.785935
O         2.309923   -4.291805    0.283293
N         1.849524   -5.185008   -3.046504
C         1.087028   -4.071330   -3.091582
C        -0.393888   -4.330357   -3.237405
O         1.530635   -2.926358   -3.010566
H         3.139793   -4.623873   -1.513389
N         4.166949   -3.444904   -3.694999
C         5.092056   -2.787125   -4.574210
H         3.981826   -7.223935   -2.812821
H         4.200123   -6.656342   -1.157051
H         1.829428   -2.193194   -0.166627
H         0.813005   -1.785391    1.240010
H         0.110854   -1.379595   -1.713643
H         0.447994   -0.120676   -0.490231
H        -2.017010   -2.762865   -1.353612
H        -3.012714   -2.394560    0.092104
H        -1.597681   -4.462502    0.342293
H        -1.258555   -3.229655    1.577065
H        -2.673194    0.002521    4.987659
H        -2.000814    0.966504    6.338591
H        -1.271204    1.033053    4.712448
H        -3.462347    2.701561    6.939093
H        -4.985385    4.574243    6.383752
H        -5.546782    5.052414    3.995057
H        -4.566234    3.642815    2.202822
H        -2.040706    4.155472    2.131072
H        -2.413692    8.487265   -0.029064
H        -0.024740    9.275822   -0.001604
H         1.825752    7.623773    0.130084
H         2.332775    5.385792    0.172798
H        -0.859607    1.135670   -1.633488
H         1.337336   -6.061973   -2.926727
H        -0.601545   -5.177271   -3.906662
H        -0.892394   -3.425865   -3.606089
H        -0.770451   -4.581213   -2.233834
H         3.307966   -2.973112   -3.392283
H         5.893270   -3.496435   -4.820320
H         5.540329   -1.898759   -4.098279
H         4.606402   -2.463466   -5.510932
H        -0.503883   -6.026477   -0.139953
H         0.981612   -7.902358    0.562377
H         2.371586   -6.777959    0.671901
