79
-1 1
O         0.478554   -3.759713   -5.298519
C         1.425910   -3.841599   -6.063339
C         2.827800   -4.164239   -5.532275
C         3.310297   -3.043850   -4.586929
S         3.955118   -1.577197   -5.455786
C         1.841813   -0.426727   -5.699341
C         1.925014    0.936493   -5.920885
C         2.259861    1.926428   -4.934209
N         2.146413    1.590787   -3.538559
C         1.109577    1.064062   -2.816130
C        -0.105373    0.641530   -3.396787
C        -1.115873    0.110334   -2.615979
C        -0.954758    0.014650   -1.231092
S        -2.263195   -0.619702   -0.253338
O        -1.765925   -1.268382    0.958179
N        -3.032528    0.789313    0.274696
C        -3.336698    1.817646   -0.733916
C        -4.700996    2.395822   -0.322805
C        -5.622530    2.658669   -1.507836
N        -6.039528    1.316813   -1.879294
C        -5.958655    0.379397   -0.757665
C        -5.361729    1.210900    0.399658
C        -4.202149    0.549463    1.137537
C        -6.030311    0.942445   -3.187786
O        -6.149611   -0.388671   -3.313078
C        -5.945871   -0.928446   -4.621147
C        -4.485634   -1.081345   -4.971757
C        -3.779389   -2.223756   -4.575865
C        -2.433428   -2.376786   -4.902314
C        -1.779068   -1.380464   -5.626170
C        -2.467966   -0.232761   -6.015769
C        -3.815521   -0.082017   -5.688519
O        -5.934697    1.712439   -4.120387
O        -3.171743   -1.379932   -1.119979
C         0.230524    0.443293   -0.625436
C         1.247590    0.955176   -1.410191
O         2.709249    3.037411   -5.175590
N         3.813170   -4.381508   -6.563642
C         4.159582   -5.606512   -7.033845
C         5.345675   -5.611927   -7.983689
O         3.583194   -6.634447   -6.726959
H         2.702253   -5.101338   -4.967348
N         1.327988   -3.653936   -7.400006
C         0.091493   -3.332994   -8.061667
H         2.465073   -2.770535   -3.934994
H         4.099718   -3.454053   -3.938521
H         2.805359    2.142583   -3.001105
H        -0.242731    0.727796   -4.472591
H        -2.038520   -0.237660   -3.085122
H        -3.412497    1.378437   -1.743010
H        -2.544365    2.579401   -0.763595
H        -4.583478    3.272765    0.330209
H        -5.135963    3.146334   -2.363184
H        -6.481684    3.283603   -1.205574
H        -5.310339   -0.468260   -1.024947
H        -6.951274   -0.020768   -0.498072
H        -6.149090    1.540801    1.093854
H        -4.354577   -0.525750    1.311638
H        -4.041968    1.021395    2.120443
H        -6.456834   -0.289120   -5.354810
H        -6.437953   -1.909236   -4.590427
H        -4.288400   -2.997709   -3.995412
H        -1.865648   -3.257235   -4.596186
H        -0.719373   -1.505489   -5.852807
H        -1.946359    0.553987   -6.566668
H        -4.358416    0.822746   -5.970371
H         0.353048    0.352693    0.455493
H         2.185130    1.268642   -0.944814
H         4.372368   -3.545113   -6.759422
H         5.623706   -4.610763   -8.340836
H         5.109299   -6.260356   -8.837997
H         6.208453   -6.052900   -7.462615
H         2.192922   -3.687384   -7.922981
H         0.022763   -2.262580   -8.320501
H        -0.736440   -3.569218   -7.380585
H        -0.022159   -3.924804   -8.982699
H         2.014681    1.309521   -6.943884
H         1.586898   -0.829180   -4.717408
H         1.552819   -1.066981   -6.533571
