79
-1 1
O         4.955889   -2.135073    4.532304
C         3.826135   -1.719114    4.774257
C         3.616372   -0.399933    5.525707
C         3.329605    0.722789    4.513626
S         2.885791    2.304616    5.263179
C         1.178279    1.842454    5.899577
C         0.218331    1.380014    4.874436
C        -0.036811    0.031321    4.669639
N        -1.027327   -0.368756    3.702874
C        -1.518041    0.575213    2.733680
C        -0.541504    0.766612    1.564768
N        -0.250030   -0.532586    0.942060
C         0.166226   -1.546505    1.916772
C        -0.817227   -1.661274    3.083711
C        -0.879703   -0.928632   -0.203221
N        -1.371225   -2.158554   -0.254589
N        -2.033995   -2.600689   -1.324542
C        -2.267203   -1.828593   -2.352940
C        -3.125980   -2.410413   -3.425709
C        -2.643235   -2.769277   -4.690747
Cl        -0.949074   -2.568206   -5.073697
C        -3.478223   -3.314931   -5.664837
C        -4.824564   -3.520414   -5.378593
C        -5.326992   -3.189423   -4.121163
C        -4.481348   -2.642728   -3.161012
C        -0.943184   -0.057463   -1.364434
C        -1.729163   -0.501496   -2.446188
C        -1.882394    0.329667   -3.578002
C        -1.214978    1.531400   -3.686308
C        -1.380058    2.367639   -4.904704
C        -2.154465    3.525459   -4.892872
F        -2.730211    3.885728   -3.747601
C        -2.347376    4.320866   -6.016323
C        -1.736632    3.935075   -7.205371
C        -0.951460    2.786725   -7.263852
C        -0.770959    2.005013   -6.117755
O        -0.008711    0.894674   -6.111657
C        -0.340589    1.903455   -2.633921
Cl         0.608953    3.360423   -2.791636
C        -0.202490    1.137634   -1.499700
O         0.529359   -0.926451    5.284692
N         4.786993   -0.145352    6.323488
C         4.744767    0.196946    7.635498
C         6.110172    0.404708    8.273278
O         3.719195    0.370216    8.266041
H         2.744370   -0.500560    6.186557
N         2.681837   -2.316580    4.399391
C         2.668790   -3.560757    3.679623
H         4.215852    0.890995    3.881866
H         2.492839    0.424111    3.862774
H        -1.734407    1.540527    3.208029
H        -2.473675    0.196522    2.323595
H         0.395759    1.205618    1.944246
H        -0.978745    1.452030    0.828742
H         1.146401   -1.230856    2.314498
H         0.279918   -2.502544    1.393188
H        -0.428883   -2.350164    3.842602
H        -1.777814   -2.052462    2.707209
H        -3.063105   -3.585098   -6.636702
H        -5.478676   -3.949004   -6.140881
H        -6.379715   -3.358723   -3.886483
H        -4.861788   -2.386810   -2.170239
H        -2.525776    0.008078   -4.398879
H        -2.964129    5.216336   -5.940314
H        -1.870796    4.540867   -8.103867
H        -0.469421    2.493210   -8.200072
H         0.347041    0.730823   -6.989465
H         0.498570    1.441937   -0.723982
H         5.654725   -0.465162    5.907519
H         6.914264   -0.148052    7.765966
H         6.057739    0.102139    9.326824
H         6.349269    1.478404    8.238120
H         1.788525   -1.865403    4.706133
H         2.130550   -4.341057    4.242717
H         3.706062   -3.886912    3.525004
H         2.182404   -3.457684    2.695491
H        -0.257125    2.151685    4.269421
H         0.866863    2.779058    6.388713
H         1.343108    1.093380    6.686641
