-1 1
 OpenBabel05232414493D

 88 91  0  0  1  0  0  0  0  0999 V2000
   -2.1997    3.2518    8.0768 O   0  0  0  0  0  0  0  0  0  0  0  0
   -2.4246    2.5914    7.0803 C   0  0  0  0  0  0  0  0  0  0  0  0
   -1.2943    1.8500    6.3362 C   0  0  2  0  0  0  0  0  0  0  0  0
   -1.7104    0.5481    5.6446 C   0  0  0  0  0  0  0  0  0  0  0  0
   -2.3200   -0.7252    6.7800 S   0  0  0  0  0  1  0  0  0  0  0  0
   -4.4064   -1.1451    5.5510 C   0  0  0  0  0  0  0  0  0  0  0  0
   -4.9294   -0.0354    4.9154 C   0  0  0  0  0  0  0  0  0  0  0  0
   -4.5516    0.2599    3.5442 C   0  0  0  0  0  0  0  0  0  0  0  0
   -5.0488    1.4315    2.9471 N   0  0  0  0  0  0  0  0  0  0  0  0
   -5.8788    2.4416    3.5569 C   0  0  0  0  0  0  0  0  0  0  0  0
   -5.2078    3.8148    3.5350 C   0  0  0  0  0  0  0  0  0  0  0  0
   -4.8255    4.1377    2.1650 N   0  0  0  0  0  0  0  0  0  0  0  0
   -3.9250    3.1226    1.6101 C   0  0  0  0  0  0  0  0  0  0  0  0
   -4.6111    1.7645    1.6146 C   0  0  0  0  0  0  0  0  0  0  0  0
   -4.6966    5.4591    1.8084 C   0  0  0  0  0  0  0  0  0  0  0  0
   -4.6486    6.3634    2.7645 N   0  0  0  0  0  0  0  0  0  0  0  0
   -4.5004    7.6675    2.4903 N   0  0  0  0  0  0  0  0  0  0  0  0
   -4.3152    8.0856    1.2662 C   0  0  0  0  0  0  0  0  0  0  0  0
   -4.0497    9.5436    1.0730 C   0  0  0  0  0  0  0  0  0  0  0  0
   -5.0410   10.4077    0.5607 C   0  0  0  0  0  0  0  0  0  0  0  0
   -6.4242    9.8704    0.2557 C   0  0  0  0  0  0  0  0  0  0  0  0
   -7.4265   10.8475   -0.3486 C   0  0  0  0  0  0  0  0  0  0  0  0
   -8.7597   10.1770   -0.6631 C   0  0  0  0  0  0  0  0  0  0  0  0
   -4.7110   11.7554    0.3856 C   0  0  0  0  0  0  0  0  0  0  0  0
   -3.4466   12.2444    0.7142 C   0  0  0  0  0  0  0  0  0  0  0  0
   -2.4824   11.3887    1.2363 C   0  0  0  0  0  0  0  0  0  0  0  0
   -2.7906   10.0415    1.4133 C   0  0  0  0  0  0  0  0  0  0  0  0
   -4.6927    5.8462    0.4129 C   0  0  0  0  0  0  0  0  0  0  0  0
   -4.4027    7.1956    0.1413 C   0  0  0  0  0  0  0  0  0  0  0  0
   -4.3223    7.6280   -1.2014 C   0  0  0  0  0  0  0  0  0  0  0  0
   -4.6216    6.7846   -2.2508 C   0  0  0  0  0  0  0  0  0  0  0  0
   -4.5750    7.2934   -3.6456 C   0  0  0  0  0  0  0  0  0  0  0  0
   -5.4823    8.2526   -4.0916 C   0  0  0  0  0  0  0  0  0  0  0  0
   -6.4116    8.6946   -3.2405 F   0  0  0  0  0  0  0  0  0  0  0  0
   -5.4751    8.7614   -5.3851 C   0  0  0  0  0  0  0  0  0  0  0  0
   -4.5106    8.2896   -6.2694 C   0  0  0  0  0  0  0  0  0  0  0  0
   -3.5780    7.3372   -5.8661 C   0  0  0  0  0  0  0  0  0  0  0  0
   -3.6054    6.8433   -4.5586 C   0  0  0  0  0  0  0  0  0  0  0  0
   -2.7237    5.9329   -4.1068 O   0  0  0  0  0  0  0  0  0  0  0  0
   -5.0257    5.4582   -1.9437 C   0  0  0  0  0  0  0  0  0  0  0  0
   -5.5489    4.4009   -3.2312 Cl  0  0  0  0  0  0  0  0  0  0  0  0
   -5.0539    4.9900   -0.6513 C   0  0  0  0  0  0  0  0  0  0  0  0
   -3.8119   -0.4633    2.8780 O   0  0  0  0  0  0  0  0  0  0  0  0
   -0.2081    1.6181    7.2508 N   0  0  0  0  0  0  0  0  0  0  0  0
    0.8281    2.4759    7.4097 C   0  0  0  0  0  0  0  0  0  0  0  0
    1.6886    2.1953    8.6302 C   0  0  0  0  0  0  0  0  0  0  0  0
    1.0661    3.4027    6.6554 O   0  0  0  0  0  0  0  0  0  0  0  0
   -0.9165    2.5639    5.5842 H   0  0  0  0  0  0  0  0  0  0  0  0
   -3.6545    2.5165    6.4956 N   0  0  0  0  0  0  0  0  0  0  0  0
   -4.8177    3.0508    7.1546 C   0  0  0  0  0  0  0  0  0  0  0  0
   -2.4931    0.7604    4.8937 H   0  0  0  0  0  0  0  0  0  0  0  0
   -0.8453    0.1785    5.0740 H   0  0  0  0  0  0  0  0  0  0  0  0
   -6.1087    2.1793    4.5937 H   0  0  0  0  0  0  0  0  0  0  0  0
   -6.8432    2.5136    3.0152 H   0  0  0  0  0  0  0  0  0  0  0  0
   -4.3244    3.8097    4.2015 H   0  0  0  0  0  0  0  0  0  0  0  0
   -5.8916    4.5893    3.9037 H   0  0  0  0  0  0  0  0  0  0  0  0
   -3.0158    3.0654    2.2392 H   0  0  0  0  0  0  0  0  0  0  0  0
   -3.6043    3.3987    0.5984 H   0  0  0  0  0  0  0  0  0  0  0  0
   -3.9220    0.9743    1.2920 H   0  0  0  0  0  0  0  0  0  0  0  0
   -5.4736    1.7915    0.9173 H   0  0  0  0  0  0  0  0  0  0  0  0
   -6.8376    9.4498    1.1892 H   0  0  0  0  0  0  0  0  0  0  0  0
   -6.3337    9.0119   -0.4284 H   0  0  0  0  0  0  0  0  0  0  0  0
   -7.0079   11.2750   -1.2755 H   0  0  0  0  0  0  0  0  0  0  0  0
   -7.5913   11.6941    0.3393 H   0  0  0  0  0  0  0  0  0  0  0  0
   -8.6264    9.3631   -1.3923 H   0  0  0  0  0  0  0  0  0  0  0  0
   -9.4808   10.8930   -1.0853 H   0  0  0  0  0  0  0  0  0  0  0  0
   -9.2095    9.7417    0.2431 H   0  0  0  0  0  0  0  0  0  0  0  0
   -5.4570   12.4480   -0.0076 H   0  0  0  0  0  0  0  0  0  0  0  0
   -3.2210   13.3033    0.5666 H   0  0  0  0  0  0  0  0  0  0  0  0
   -1.4936   11.7647    1.5076 H   0  0  0  0  0  0  0  0  0  0  0  0
   -2.0480    9.3553    1.8265 H   0  0  0  0  0  0  0  0  0  0  0  0
   -4.0466    8.6633   -1.4115 H   0  0  0  0  0  0  0  0  0  0  0  0
   -6.2173    9.5058   -5.6733 H   0  0  0  0  0  0  0  0  0  0  0  0
   -4.4818    8.6708   -7.2921 H   0  0  0  0  0  0  0  0  0  0  0  0
   -2.8186    6.9762   -6.5645 H   0  0  0  0  0  0  0  0  0  0  0  0
   -2.1564    5.6343   -4.8233 H   0  0  0  0  0  0  0  0  0  0  0  0
   -5.3979    3.9769   -0.4466 H   0  0  0  0  0  0  0  0  0  0  0  0
   -0.3937    0.9089    7.9528 H   0  0  0  0  0  0  0  0  0  0  0  0
    2.6831    2.6311    8.4747 H   0  0  0  0  0  0  0  0  0  0  0  0
    1.7777    1.1194    8.8401 H   0  0  0  0  0  0  0  0  0  0  0  0
    1.2224    2.6791    9.5023 H   0  0  0  0  0  0  0  0  0  0  0  0
   -3.8127    1.7358    5.8610 H   0  0  0  0  0  0  0  0  0  0  0  0
   -4.4779    3.6980    7.9732 H   0  0  0  0  0  0  0  0  0  0  0  0
   -5.4454    2.2490    7.5800 H   0  0  0  0  0  0  0  0  0  0  0  0
   -5.4317    3.6514    6.4635 H   0  0  0  0  0  0  0  0  0  0  0  0
   -5.6305    0.5968    5.4611 H   0  0  0  0  0  0  0  0  0  0  0  0
   -4.8569   -1.4982    6.4781 H   0  0  0  0  0  0  0  0  0  0  0  0
   -3.8831   -1.8858    4.9471 H   0  0  0  0  0  0  0  0  0  0  0  0
  2  1  2  0  0  0  0
  3 48  1  6  0  0  0
  3  2  1  0  0  0  0
  3 44  1  0  0  0  0
  4  3  1  0  0  0  0
  4  5  1  0  0  0  0
  6 87  1  0  0  0  0
  7 86  1  0  0  0  0
  7  6  2  0  0  0  0
  8  7  1  0  0  0  0
  9  8  1  0  0  0  0
  9 10  1  0  0  0  0
 10 53  1  0  0  0  0
 11 10  1  0  0  0  0
 11 56  1  0  0  0  0
 11 55  1  0  0  0  0
 12 11  1  0  0  0  0
 13 14  1  0  0  0  0
 13 12  1  0  0  0  0
 13 57  1  0  0  0  0
 14  9  1  0  0  0  0
 15 12  1  0  0  0  0
 15 16  1  0  0  0  0
 17 16  2  0  0  0  0
 18 17  1  0  0  0  0
 19 18  1  0  0  0  0
 19 27  1  0  0  0  0
 20 19  2  0  0  0  0
 21 20  1  0  0  0  0
 21 61  1  0  0  0  0
 22 21  1  0  0  0  0
 22 64  1  0  0  0  0
 23 22  1  0  0  0  0
 23 67  1  0  0  0  0
 24 20  1  0  0  0  0
 24 25  2  0  0  0  0
 25 26  1  0  0  0  0
 26 27  2  0  0  0  0
 26 70  1  0  0  0  0
 27 71  1  0  0  0  0
 28 15  2  0  0  0  0
 29 28  1  0  0  0  0
 29 18  2  0  0  0  0
 30 29  1  0  0  0  0
 31 40  1  0  0  0  0
 31 30  2  0  0  0  0
 32 31  1  0  0  0  0
 33 32  1  0  0  0  0
 33 34  1  0  0  0  0
 35 33  2  0  0  0  0
 36 37  2  0  0  0  0
 36 35  1  0  0  0  0
 37 38  1  0  0  0  0
 38 39  1  0  0  0  0
 38 32  2  0  0  0  0
 40 42  2  0  0  0  0
 41 40  1  0  0  0  0
 42 77  1  0  0  0  0
 42 28  1  0  0  0  0
 43  8  2  0  0  0  0
 44 45  1  0  0  0  0
 44 78  1  0  0  0  0
 45 46  1  0  0  0  0
 46 80  1  0  0  0  0
 46 81  1  0  0  0  0
 47 45  2  0  0  0  0
 49  2  1  0  0  0  0
 49 50  1  0  0  0  0
 50 84  1  0  0  0  0
 50 83  1  0  0  0  0
 51  4  1  0  0  0  0
 52  4  1  0  0  0  0
 54 10  1  0  0  0  0
 58 13  1  0  0  0  0
 59 14  1  0  0  0  0
 60 14  1  0  0  0  0
 62 21  1  0  0  0  0
 63 22  1  0  0  0  0
 65 23  1  0  0  0  0
 66 23  1  0  0  0  0
 68 24  1  0  0  0  0
 69 25  1  0  0  0  0
 72 30  1  0  0  0  0
 73 35  1  0  0  0  0
 74 36  1  0  0  0  0
 75 37  1  0  0  0  0
 76 39  1  0  0  0  0
 79 46  1  0  0  0  0
 82 49  1  0  0  0  0
 85 50  1  0  0  0  0
 88  6  1  0  0  0  0
M  END
