88
-1 1
O         1.828400   -1.930491    6.499245
C         1.631888   -2.585991    5.487178
C         2.787273   -3.406717    4.871860
C         2.398797   -4.654944    4.082352
S         1.466731   -5.872207    5.060525
C        -0.013725   -6.181314    3.897302
C        -0.658929   -5.007515    3.278176
C        -0.351633   -4.721783    1.927592
N        -1.114027   -3.731524    1.231894
C        -1.889413   -2.701416    1.872762
C        -1.179425   -1.344503    1.855315
N        -0.822033   -1.010005    0.480583
C         0.031021   -2.044464   -0.115753
C        -0.692011   -3.385245   -0.099746
C        -0.701869    0.306634    0.123084
N        -0.632769    1.214095    1.079048
N        -0.483335    2.515704    0.800197
C        -0.321142    2.934484   -0.427233
C        -0.053591    4.391737   -0.624581
C        -1.054044    5.261506   -1.109208
C        -2.446601    4.729858   -1.379323
C        -3.459241    5.710156   -1.960599
C        -4.802345    5.044572   -2.241697
C        -0.723568    6.608286   -1.290430
C         0.550845    7.091920   -0.993854
C         1.524881    6.231204   -0.498965
C         1.215870    4.884707   -0.317039
C        -0.730284    0.697973   -1.272688
C        -0.440035    2.046290   -1.550216
C        -0.392417    2.480276   -2.894049
C        -0.726216    1.640955   -3.936292
C        -0.713484    2.152083   -5.331029
C        -1.625498    3.118230   -5.751409
F        -2.528648    3.565937   -4.875609
C        -1.649717    3.629002   -7.044180
C        -0.713085    3.151773   -7.955042
C         0.223275    2.192235   -7.578109
C         0.227733    1.696771   -6.270841
O         1.115433    0.779732   -5.844837
C        -1.132390    0.317660   -3.620233
Cl        -1.700619   -0.733027   -4.895161
C        -1.128423   -0.152697   -2.328192
O         0.563656   -5.272266    1.283269
N         3.731427   -3.708595    5.923318
C         4.865663   -2.979201    6.110360
C         5.510852   -3.171448    7.471026
O         5.333696   -2.232132    5.272632
H         3.316027   -2.720171    4.189542
N         0.458076   -2.603749    4.816476
C        -0.706856   -1.954771    5.364046
H         1.777256   -4.400312    3.211093
H         3.316835   -5.116008    3.692987
H        -2.101406   -2.976021    2.911418
H        -2.863919   -2.587187    1.357051
H        -0.273664   -1.386827    2.489322
H        -1.824307   -0.551820    2.254806
H         0.953342   -2.137789    0.488915
H         0.334072   -1.760791   -1.131080
H        -0.016520   -4.180264   -0.439168
H        -1.569171   -3.329815   -0.776817
H        -2.838348    4.312190   -0.435196
H        -2.376081    3.869668   -2.063541
H        -3.061598    6.134431   -2.898239
H        -3.604068    6.558662   -1.270412
H        -4.689770    4.228991   -2.972536
H        -5.530782    5.762668   -2.647443
H        -5.231671    4.612192   -1.324146
H        -1.476813    7.304455   -1.663099
H         0.776656    8.150238   -1.145353
H         2.522031    6.602738   -0.253161
H         1.966367    4.194435    0.074620
H        -0.115611    3.514145   -3.110033
H        -2.394181    4.379071   -7.311025
H        -0.709305    3.534199   -8.977716
H         0.960968    1.826755   -8.297186
H         1.657238    0.475040   -6.578195
H        -1.474983   -1.163291   -2.115719
H         3.335532   -4.165354    6.736489
H         6.552083   -2.831138    7.426109
H         5.471988   -4.219845    7.801461
H         4.964392   -2.558531    8.204452
H         0.261166   -3.375105    4.151589
H        -0.452476   -1.541678    6.348918
H        -1.527845   -2.681235    5.476885
H        -1.057547   -1.129928    4.721659
H        -1.573756   -4.634637    3.743890
H        -0.683778   -6.744935    4.564311
H         0.388334   -6.858219    3.131663
