88
-1 1
O         4.701634    4.093936    4.813962
C         5.183667    3.167881    4.183857
C         4.613325    2.702316    2.823147
C         3.412471    3.568936    2.403619
S         2.447895    2.873662    1.017103
C         6.598000    0.653773   -0.382596
C         5.309464    0.726621   -0.719425
C         4.802960   -0.090532   -1.869342
N         3.454626   -0.346783   -1.907647
C         2.473727    0.027619   -0.912597
C         1.397687    0.929156   -1.510766
N         0.796627    0.289384   -2.687531
C         1.797538   -0.113742   -3.673610
C         2.875506   -1.005388   -3.061414
C        -0.391850   -0.366149   -2.647853
N        -0.532453   -1.460539   -3.347622
C        -1.633952   -2.264219   -3.254039
O        -1.800491   -3.263705   -3.919935
N        -2.585345   -1.937456   -2.252835
C        -3.637607   -2.873222   -1.999671
C        -3.466060   -3.867111   -1.025119
C        -2.145638   -4.027877   -0.293419
C        -2.315433   -4.281469    1.205473
C        -1.308205   -5.122058   -0.969485
C        -4.536548   -4.741381   -0.800520
C        -5.729398   -4.630322   -1.509302
C        -5.879287   -3.635346   -2.474152
C        -4.827943   -2.759409   -2.717701
C        -1.514242    0.176032   -1.864903
C        -2.587437   -0.703791   -1.629993
C        -3.639398   -0.294205   -0.795203
C        -3.701797    1.000596   -0.292562
C        -4.822902    1.374223    0.610076
C        -6.150953    1.284527    0.188176
F        -6.414788    0.891372   -1.060915
C        -7.217626    1.600067    1.020997
C        -6.958293    2.016333    2.323917
C        -5.642827    2.114243    2.777230
C        -4.589411    1.797200    1.924478
C        -2.697132    1.913668   -0.666782
Cl        -2.803827    3.593848   -0.206562
C        -1.617220    1.504004   -1.428668
O         5.554138   -0.517027   -2.733864
N         4.193348    1.305531    2.829238
C         5.015427    0.247957    2.711114
C         4.351706   -1.049595    2.301239
O         6.232884    0.291850    2.896775
H         5.425354    2.813919    2.078891
N         6.287770    2.488500    4.583622
C         6.937260    2.750940    5.837690
H         2.769466    3.702997    3.285554
H         3.800391    4.566188    2.153508
H         2.912786    0.574210   -0.069544
H         1.995370   -0.889381   -0.517480
H         1.844661    1.894379   -1.795841
H         0.657235    1.129498   -0.731600
H         2.268326    0.808019   -4.053787
H         1.291181   -0.633568   -4.493602
H         3.678106   -1.203339   -3.781754
H         2.422473   -1.967413   -2.763191
H        -1.595438   -3.081064   -0.402463
H        -2.781578   -5.259062    1.407674
H        -2.935741   -3.503897    1.676331
H        -1.333790   -4.280760    1.702918
H        -1.799121   -6.103789   -0.866551
H        -0.310706   -5.189084   -0.508033
H        -1.186948   -4.913515   -2.042248
H        -4.432624   -5.531525   -0.053404
H        -6.546505   -5.327007   -1.308259
H        -6.810495   -3.542932   -3.036645
H        -4.914978   -1.970411   -3.466752
H        -4.437532   -0.994448   -0.552337
H        -8.233522    1.516236    0.632001
H        -7.789686    2.266167    2.986453
H        -5.434236    2.439813    3.797771
H        -3.557635    1.875026    2.273901
H        -0.853664    2.233484   -1.695363
H         3.263748    1.232689    2.386135
H         3.260849   -1.032273    2.427458
H         4.786418   -1.874612    2.880498
H         4.585207   -1.223117    1.239511
H         6.563966    1.683681    4.011946
H         6.868080    1.889122    6.523691
H         6.440898    3.611744    6.304898
H         8.004890    2.990484    5.698265
H         4.628997    1.396711   -0.177875
H         7.275697   -0.000652   -0.938559
H         6.994403    1.221313    0.461586
