91
-1 1
O         1.067703    0.292450    2.118959
C         0.970624    0.058222    3.322883
C         2.141368   -0.471737    4.177218
C         3.470703   -0.541181    3.410825
S         4.768800   -1.431104    4.343418
C         3.520720   -5.104372    3.880736
C         2.505077   -4.882494    3.045733
C         2.734481   -4.044683    1.825036
N         1.711800   -3.225409    1.413023
C         1.942682   -2.312149    0.313259
C         0.920472   -2.532184   -0.795747
N        -0.443405   -2.477632   -0.255414
C        -0.670231   -3.372519    0.893495
H        -1.648813   -3.096301    1.301885
C         0.384046   -3.100813    1.975650
C        -0.688104   -4.831280    0.445765
C        -1.246891   -1.394529   -0.414927
N        -2.122140   -1.091634    0.501435
C        -2.791387    0.100456    0.510614
O        -3.709397    0.360572    1.254348
N        -2.283230    1.104945   -0.364613
C        -2.604773    2.478627   -0.132823
C        -1.596679    3.366260    0.282951
C        -0.171947    2.912448    0.559628
C         0.772854    3.279029   -0.591931
C         0.367383    3.455967    1.886034
C        -1.957237    4.713093    0.430626
C        -3.255833    5.156159    0.202090
C        -4.245430    4.251453   -0.181663
C        -3.914136    2.912905   -0.350695
C        -1.178240   -0.587667   -1.646328
C        -1.670471    0.725304   -1.539625
C        -1.585628    1.582282   -2.651582
C        -1.098893    1.130822   -3.870539
C        -1.042790    2.072018   -5.023491
C         0.149583    2.691421   -5.417898
Cl         1.626835    2.360911   -4.551571
C         0.184796    3.582062   -6.488688
C        -0.987494    3.868074   -7.183013
C        -2.187260    3.268741   -6.804717
C        -2.208394    2.380586   -5.732883
C        -0.721081   -0.218545   -3.989499
Cl        -0.204472   -0.851647   -5.535326
C        -0.761742   -1.063756   -2.895711
O         3.797706   -4.082396    1.233422
N         1.862773   -1.805450    4.704988
C         1.141812   -2.030601    5.822947
C         1.398173   -3.372058    6.476993
O         0.337938   -1.232896    6.304611
H         2.256381    0.221851    5.031094
N        -0.162514    0.253808    4.025135
C        -1.416699    0.629283    3.426968
H         3.285021   -1.038721    2.446165
H         3.773121    0.490371    3.176174
H         2.959205   -2.480103   -0.060916
H         1.856836   -1.277511    0.688878
H         1.080260   -3.504800   -1.288675
H         1.061041   -1.748535   -1.544838
H         0.245699   -3.784636    2.819489
H         0.238495   -2.081312    2.358884
H         0.305704   -5.176433    0.123234
H        -1.397212   -4.978191   -0.382022
H        -1.002423   -5.469418    1.285134
H        -0.168706    1.816933    0.656289
H         0.830510    4.372319   -0.724644
H         0.453698    2.839638   -1.547513
H         1.785777    2.907547   -0.376064
H         0.556520    4.541224    1.842914
H         1.313624    2.949596    2.122709
H        -0.329011    3.260943    2.714232
H        -1.196227    5.430993    0.744851
H        -3.499357    6.213146    0.333439
H        -5.271180    4.587153   -0.348088
H        -4.665451    2.179458   -0.645094
H        -1.924341    2.614590   -2.562340
H         1.130848    4.047750   -6.767393
H        -0.959342    4.566233   -8.022134
H        -3.109399    3.492340   -7.344464
H        -3.142951    1.903630   -5.429852
H        -0.478277   -2.108823   -3.016618
H         2.734848   -2.364178    4.620873
H         0.644568   -3.547364    7.253591
H         2.402629   -3.361368    6.928521
H         1.382344   -4.182147    5.734777
H        -0.148668   -0.087281    4.993975
H        -2.072989   -0.235411    3.240854
H        -1.226575    1.114032    2.463514
H        -1.953792    1.339457    4.072717
H         1.514460   -5.299584    3.247147
H         3.391566   -5.706599    4.783903
H         4.494043   -4.640392    3.696723
