-1 1
 OpenBabel05232414493D

 91 94  0  0  1  0  0  0  0  0999 V2000
   -1.3140    4.6445    7.8483 O   0  0  0  0  0  0  0  0  0  0  0  0
   -1.5281    4.4506    9.0395 C   0  0  0  0  0  0  0  0  0  0  0  0
   -0.5431    3.7000    9.9612 C   0  0  2  0  0  0  0  0  0  0  0  0
    0.8423    3.5211    9.3408 C   0  0  0  0  0  0  0  0  0  0  0  0
    1.9925    2.5798   10.3739 S   0  0  0  0  0  1  0  0  0  0  0  0
    1.8017    0.4813    9.1992 C   0  0  0  0  0  3  0  0  0  0  0  0
    0.6692    0.3924    8.4020 C   0  0  0  0  0  3  0  0  0  0  0  0
    0.7118    0.9396    7.0613 C   0  0  0  0  0  0  0  0  0  0  0  0
   -0.5048    1.1385    6.3668 N   0  0  0  0  0  0  0  0  0  0  0  0
   -0.4142    2.0088    5.2152 C   0  0  0  0  0  0  0  0  0  0  0  0
   -1.5333    1.7370    4.2218 C   0  0  0  0  0  0  0  0  0  0  0  0
   -2.8400    1.8177    4.8847 N   0  0  0  0  0  0  0  0  0  0  0  0
   -2.9319    0.9572    6.0775 C   0  0  2  0  0  0  0  0  0  0  0  0
   -3.8695    1.2292    6.5747 H   0  0  0  0  0  0  0  0  0  0  0  0
   -1.7825    1.2801    7.0382 C   0  0  0  0  0  0  0  0  0  0  0  0
   -2.9637   -0.5161    5.6796 C   0  0  0  0  0  0  0  0  0  0  0  0
   -3.6283    2.9180    4.8069 C   0  0  0  0  0  0  0  0  0  0  0  0
   -4.3924    3.2495    5.8106 N   0  0  0  0  0  0  0  0  0  0  0  0
   -5.0182    4.4599    5.8836 C   0  0  0  0  0  0  0  0  0  0  0  0
   -5.8636    4.7498    6.6995 O   0  0  0  0  0  0  0  0  0  0  0  0
   -4.5535    5.4536    4.9690 N   0  0  0  0  0  0  0  0  0  0  0  0
   -4.8042    6.8347    5.2388 C   0  0  0  0  0  0  0  0  0  0  0  0
   -3.7449    7.6624    5.6514 C   0  0  0  0  0  0  0  0  0  0  0  0
   -2.3409    7.1239    5.8818 C   0  0  0  0  0  0  0  0  0  0  0  0
   -1.4591    7.2931    4.6371 C   0  0  0  0  0  0  0  0  0  0  0  0
   -1.6575    7.7468    7.1018 C   0  0  0  0  0  0  0  0  0  0  0  0
   -4.0373    9.0202    5.8407 C   0  0  0  0  0  0  0  0  0  0  0  0
   -5.3188    9.5293    5.6531 C   0  0  0  0  0  0  0  0  0  0  0  0
   -6.3598    8.6827    5.2741 C   0  0  0  0  0  0  0  0  0  0  0  0
   -6.0965    7.3340    5.0676 C   0  0  0  0  0  0  0  0  0  0  0  0
   -3.6653    3.7257    3.5735 C   0  0  0  0  0  0  0  0  0  0  0  0
   -4.0858    5.0583    3.7345 C   0  0  0  0  0  0  0  0  0  0  0  0
   -4.0725    5.9206    2.6233 C   0  0  0  0  0  0  0  0  0  0  0  0
   -3.7309    5.4570    1.3603 C   0  0  0  0  0  0  0  0  0  0  0  0
   -3.7400    6.4047    0.2112 C   0  0  0  0  0  0  0  0  0  0  0  0
   -2.5661    7.0005   -0.2657 C   0  0  0  0  0  0  0  0  0  0  0  0
   -1.0372    6.6287    0.4879 Cl  0  0  0  0  0  0  0  0  0  0  0  0
   -2.5883    7.8975   -1.3316 C   0  0  0  0  0  0  0  0  0  0  0  0
   -3.8012    8.2135   -1.9376 C   0  0  0  0  0  0  0  0  0  0  0  0
   -4.9833    7.6374   -1.4766 C   0  0  0  0  0  0  0  0  0  0  0  0
   -4.9467    6.7427   -0.4107 C   0  0  0  0  0  0  0  0  0  0  0  0
   -3.4291    4.0932    1.1984 C   0  0  0  0  0  0  0  0  0  0  0  0
   -3.0900    3.4539   -0.3940 Cl  0  0  0  0  0  0  0  0  0  0  0  0
   -3.3979    3.2413    2.2877 C   0  0  0  0  0  0  0  0  0  0  0  0
    1.7580    1.2510    6.4950 O   0  0  0  0  0  0  0  0  0  0  0  0
   -1.0891    2.3896   10.2801 N   0  0  0  0  0  0  0  0  0  0  0  0
   -1.9472    2.1575   11.2879 C   0  0  0  0  0  0  0  0  0  0  0  0
   -2.1254    0.7010   11.6625 C   0  0  0  0  0  0  0  0  0  0  0  0
   -2.5444    3.0475   11.8900 O   0  0  0  0  0  0  0  0  0  0  0  0
   -0.4641    4.2682   10.9035 H   0  0  0  0  0  0  0  0  0  0  0  0
   -2.6495    4.8469    9.6814 N   0  0  0  0  0  0  0  0  0  0  0  0
   -3.8043    5.3745    8.9998 C   0  0  0  0  0  0  0  0  0  0  0  0
    0.7137    3.0023    8.3754 H   0  0  0  0  0  0  0  0  0  0  0  0
    1.2556    4.5107    9.1016 H   0  0  0  0  0  0  0  0  0  0  0  0
    0.5638    1.8559    4.7445 H   0  0  0  0  0  0  0  0  0  0  0  0
   -0.4711    3.0706    5.5343 H   0  0  0  0  0  0  0  0  0  0  0  0
   -1.4193    0.7393    3.7695 H   0  0  0  0  0  0  0  0  0  0  0  0
   -1.4672    2.4787    3.4212 H   0  0  0  0  0  0  0  0  0  0  0  0
   -1.8502    0.5985    7.8929 H   0  0  0  0  0  0  0  0  0  0  0  0
   -1.9142    2.3105    7.4142 H   0  0  0  0  0  0  0  0  0  0  0  0
   -1.9811   -0.8600    5.3256 H   0  0  0  0  0  0  0  0  0  0  0  0
   -3.7155   -0.6972    4.8969 H   0  0  0  0  0  0  0  0  0  0  0  0
   -3.2268   -1.1243    6.5576 H   0  0  0  0  0  0  0  0  0  0  0  0
   -2.4207    6.0464    6.0916 H   0  0  0  0  0  0  0  0  0  0  0  0
   -1.3385    8.3596    4.3836 H   0  0  0  0  0  0  0  0  0  0  0  0
   -1.8751    6.7848    3.7564 H   0  0  0  0  0  0  0  0  0  0  0  0
   -0.4603    6.8716    4.8257 H   0  0  0  0  0  0  0  0  0  0  0  0
   -1.3575    8.7921    6.9197 H   0  0  0  0  0  0  0  0  0  0  0  0
   -0.7571    7.1655    7.3435 H   0  0  0  0  0  0  0  0  0  0  0  0
   -2.3103    7.7237    7.9864 H   0  0  0  0  0  0  0  0  0  0  0  0
   -3.2381    9.6939    6.1562 H   0  0  0  0  0  0  0  0  0  0  0  0
   -5.5081   10.5930    5.8154 H   0  0  0  0  0  0  0  0  0  0  0  0
   -7.3722    9.0704    5.1429 H   0  0  0  0  0  0  0  0  0  0  0  0
   -6.8887    6.6426    4.7774 H   0  0  0  0  0  0  0  0  0  0  0  0
   -4.3476    6.9677    2.7513 H   0  0  0  0  0  0  0  0  0  0  0  0
   -1.6547    8.3439   -1.6761 H   0  0  0  0  0  0  0  0  0  0  0  0
   -3.8184    8.9165   -2.7729 H   0  0  0  0  0  0  0  0  0  0  0  0
   -5.9369    7.8844   -1.9473 H   0  0  0  0  0  0  0  0  0  0  0  0
   -5.8671    6.2838   -0.0433 H   0  0  0  0  0  0  0  0  0  0  0  0
   -3.1717    2.1859    2.1378 H   0  0  0  0  0  0  0  0  0  0  0  0
   -0.5509    1.6149    9.8946 H   0  0  0  0  0  0  0  0  0  0  0  0
   -3.1718    0.5269   11.9438 H   0  0  0  0  0  0  0  0  0  0  0  0
   -1.4930    0.4916   12.5382 H   0  0  0  0  0  0  0  0  0  0  0  0
   -1.8322    0.0155   10.8552 H   0  0  0  0  0  0  0  0  0  0  0  0
   -2.7625    4.4829   10.6314 H   0  0  0  0  0  0  0  0  0  0  0  0
   -4.5963    4.6213    8.8692 H   0  0  0  0  0  0  0  0  0  0  0  0
   -3.5070    5.7119    8.0015 H   0  0  0  0  0  0  0  0  0  0  0  0
   -4.2224    6.2333    9.5467 H   0  0  0  0  0  0  0  0  0  0  0  0
   -0.2526   -0.0310    8.8060 H   0  0  0  0  0  0  0  0  0  0  0  0
    1.8518   -0.0844   10.1306 H   0  0  0  0  0  0  0  0  0  0  0  0
    2.7510    0.6793    8.7027 H   0  0  0  0  0  0  0  0  0  0  0  0
  1  2  2  0  0  0  0
  2 51  1  0  0  0  0
  2  3  1  0  0  0  0
  3 46  1  0  0  0  0
  3 50  1  1  0  0  0
  4  3  1  0  0  0  0
  4  5  1  0  0  0  0
  6 90  1  0  0  0  0
  7 89  1  0  0  0  0
  7  6  1  0  0  0  0
  8  7  1  0  0  0  0
  9 15  1  0  0  0  0
  9  8  1  0  0  0  0
 10 56  1  0  0  0  0
 10  9  1  0  0  0  0
 11 12  1  0  0  0  0
 11 10  1  0  0  0  0
 12 13  1  0  0  0  0
 13 14  1  1  0  0  0
 13 15  1  0  0  0  0
 15 60  1  0  0  0  0
 15 59  1  0  0  0  0
 16 13  1  0  0  0  0
 16 63  1  0  0  0  0
 17 12  1  0  0  0  0
 17 18  2  0  0  0  0
 18 19  1  0  0  0  0
 19 20  2  0  0  0  0
 21 22  1  0  0  0  0
 21 19  1  0  0  0  0
 22 23  1  0  0  0  0
 23 27  2  0  0  0  0
 23 24  1  0  0  0  0
 24 64  1  0  0  0  0
 24 26  1  0  0  0  0
 25 67  1  0  0  0  0
 25 24  1  0  0  0  0
 26 69  1  0  0  0  0
 26 70  1  0  0  0  0
 27 71  1  0  0  0  0
 28 72  1  0  0  0  0
 28 27  1  0  0  0  0
 29 28  2  0  0  0  0
 30 22  2  0  0  0  0
 30 29  1  0  0  0  0
 31 32  1  0  0  0  0
 31 17  1  0  0  0  0
 32 21  1  0  0  0  0
 33 75  1  0  0  0  0
 33 32  2  0  0  0  0
 34 33  1  0  0  0  0
 35 34  1  0  0  0  0
 36 35  1  0  0  0  0
 36 37  1  0  0  0  0
 38 36  2  0  0  0  0
 39 40  2  0  0  0  0
 39 38  1  0  0  0  0
 40 41  1  0  0  0  0
 41 79  1  0  0  0  0
 41 35  2  0  0  0  0
 42 34  2  0  0  0  0
 42 44  1  0  0  0  0
 43 42  1  0  0  0  0
 44 31  2  0  0  0  0
 45  8  2  0  0  0  0
 46 47  1  0  0  0  0
 47 48  1  0  0  0  0
 47 49  2  0  0  0  0
 48 82  1  0  0  0  0
 48 83  1  0  0  0  0
 51 85  1  0  0  0  0
 52 88  1  0  0  0  0
 52 51  1  0  0  0  0
 53  4  1  0  0  0  0
 54  4  1  0  0  0  0
 55 10  1  0  0  0  0
 57 11  1  0  0  0  0
 58 11  1  0  0  0  0
 61 16  1  0  0  0  0
 62 16  1  0  0  0  0
 65 25  1  0  0  0  0
 66 25  1  0  0  0  0
 68 26  1  0  0  0  0
 73 29  1  0  0  0  0
 74 30  1  0  0  0  0
 76 38  1  0  0  0  0
 77 39  1  0  0  0  0
 78 40  1  0  0  0  0
 80 44  1  0  0  0  0
 81 46  1  0  0  0  0
 84 48  1  0  0  0  0
 86 52  1  0  0  0  0
 87 52  1  0  0  0  0
 91  6  1  0  0  0  0
M  END
