-1 1
 OpenBabel05232413483D

 92 95  0  0  1  0  0  0  0  0999 V2000
    0.8751    4.2072    2.7616 O   0  0  0  0  0  0  0  0  0  0  0  0
    0.2671    3.4281    3.4812 C   0  0  0  0  0  0  0  0  0  0  0  0
    0.1221    1.9367    3.1259 C   0  0  2  0  0  0  0  0  0  0  0  0
   -1.3361    1.4399    3.2267 C   0  0  0  0  0  0  0  0  0  0  0  0
   -1.8872    1.0038    4.9207 S   0  0  0  0  0  1  0  0  0  0  0  0
    0.5945   -1.9319    6.8987 C   0  0  0  0  0  0  0  0  0  0  0  0
    0.1157   -2.0139    5.6564 C   0  0  0  0  0  0  0  0  0  0  0  0
    0.6219   -3.0928    4.7502 C   0  0  0  0  0  0  0  0  0  0  0  0
    0.0716   -3.1811    3.4968 N   0  0  0  0  0  0  0  0  0  0  0  0
   -0.7693   -2.2084    2.8299 C   0  0  0  0  0  0  0  0  0  0  0  0
    0.0116   -1.5137    1.7162 C   0  0  0  0  0  0  0  0  0  0  0  0
    0.6499   -2.4744    0.8190 N   0  0  0  0  0  0  0  0  0  0  0  0
    1.3716   -3.5934    1.4459 C   0  0  2  0  0  0  0  0  0  0  0  0
    1.4820   -4.3578    0.6675 H   0  0  0  0  0  0  0  0  0  0  0  0
    0.5432   -4.1975    2.5790 C   0  0  0  0  0  0  0  0  0  0  0  0
    2.7528   -3.1159    1.8950 C   0  0  0  0  0  0  0  0  0  0  0  0
    0.6860   -2.3374   -0.5316 C   0  0  0  0  0  0  0  0  0  0  0  0
    0.8773   -3.4058   -1.2606 N   0  0  0  0  0  0  0  0  0  0  0  0
    0.6902   -3.4206   -2.6132 C   0  0  0  0  0  0  0  0  0  0  0  0
    0.8840   -4.3896   -3.3151 O   0  0  0  0  0  0  0  0  0  0  0  0
    0.1546   -2.2394   -3.1951 N   0  0  0  0  0  0  0  0  0  0  0  0
   -0.2835   -2.2924   -4.5534 C   0  0  0  0  0  0  0  0  0  0  0  0
   -1.6554   -2.3204   -4.8414 C   0  0  0  0  0  0  0  0  0  0  0  0
   -2.7022   -2.3633   -3.7421 C   0  0  0  0  0  0  0  0  0  0  0  0
   -3.6384   -1.1526   -3.7954 C   0  0  0  0  0  0  0  0  0  0  0  0
   -3.4695   -3.6894   -3.7777 C   0  0  0  0  0  0  0  0  0  0  0  0
   -2.0348   -2.3282   -6.1902 C   0  0  0  0  0  0  0  0  0  0  0  0
   -1.0916   -2.3190   -7.2124 C   0  0  0  0  0  0  0  0  0  0  0  0
    0.2691   -2.3048   -6.9051 C   0  0  0  0  0  0  0  0  0  0  0  0
    0.6682   -2.2895   -5.5746 C   0  0  0  0  0  0  0  0  0  0  0  0
    0.5405   -1.0153   -1.1649 C   0  0  0  0  0  0  0  0  0  0  0  0
    0.2025   -1.0254   -2.5315 C   0  0  0  0  0  0  0  0  0  0  0  0
   -0.0227    0.1912   -3.1942 C   0  0  0  0  0  0  0  0  0  0  0  0
    0.1692    1.4053   -2.5467 C   0  0  0  0  0  0  0  0  0  0  0  0
   -0.0834    2.6726   -3.2811 C   0  0  0  0  0  0  0  0  0  0  0  0
   -1.3789    3.0900   -3.5752 C   0  0  0  0  0  0  0  0  0  0  0  0
   -2.3983    2.3213   -3.1868 F   0  0  0  0  0  0  0  0  0  0  0  0
   -1.6627    4.2794   -4.2371 C   0  0  0  0  0  0  0  0  0  0  0  0
   -0.5969    5.0854   -4.6226 C   0  0  0  0  0  0  0  0  0  0  0  0
    0.7162    4.7035   -4.3592 C   0  0  0  0  0  0  0  0  0  0  0  0
    0.9741    3.4999   -3.6962 C   0  0  0  0  0  0  0  0  0  0  0  0
    2.2227    3.0724   -3.4314 O   0  0  0  0  0  0  0  0  0  0  0  0
    0.6278    1.4012   -1.2170 C   0  0  0  0  0  0  0  0  0  0  0  0
    0.9222    2.8955   -0.3742 Cl  0  0  0  0  0  0  0  0  0  0  0  0
    0.8241    0.2096   -0.5390 C   0  0  0  0  0  0  0  0  0  0  0  0
    1.4846   -3.8801    5.1169 O   0  0  0  0  0  0  0  0  0  0  0  0
    1.0044    1.1479    3.9644 N   0  0  0  0  0  0  0  0  0  0  0  0
    2.1436    0.5553    3.5561 C   0  0  0  0  0  0  0  0  0  0  0  0
    2.9294   -0.1595    4.6382 C   0  0  0  0  0  0  0  0  0  0  0  0
    2.5313    0.5439    2.3910 O   0  0  0  0  0  0  0  0  0  0  0  0
    0.4841    1.8560    2.0943 H   0  0  0  0  0  0  0  0  0  0  0  0
   -0.3156    3.7800    4.6517 N   0  0  0  0  0  0  0  0  0  0  0  0
   -0.3166    5.1317    5.1381 C   0  0  0  0  0  0  0  0  0  0  0  0
   -1.9853    2.2191    2.7954 H   0  0  0  0  0  0  0  0  0  0  0  0
   -1.4407    0.5665    2.5655 H   0  0  0  0  0  0  0  0  0  0  0  0
   -1.1505   -1.4457    3.5221 H   0  0  0  0  0  0  0  0  0  0  0  0
   -1.6425   -2.7342    2.4049 H   0  0  0  0  0  0  0  0  0  0  0  0
    0.7559   -0.8469    2.1697 H   0  0  0  0  0  0  0  0  0  0  0  0
   -0.6848   -0.8954    1.1381 H   0  0  0  0  0  0  0  0  0  0  0  0
    1.1448   -4.9211    3.1402 H   0  0  0  0  0  0  0  0  0  0  0  0
   -0.3328   -4.7141    2.1500 H   0  0  0  0  0  0  0  0  0  0  0  0
    2.6863   -2.2446    2.5610 H   0  0  0  0  0  0  0  0  0  0  0  0
    3.3461   -2.8120    1.0204 H   0  0  0  0  0  0  0  0  0  0  0  0
    3.2858   -3.9171    2.4265 H   0  0  0  0  0  0  0  0  0  0  0  0
   -2.1707   -2.3254   -2.7806 H   0  0  0  0  0  0  0  0  0  0  0  0
   -4.2243   -1.1360   -4.7288 H   0  0  0  0  0  0  0  0  0  0  0  0
   -3.0777   -0.2092   -3.7273 H   0  0  0  0  0  0  0  0  0  0  0  0
   -4.3505   -1.1810   -2.9563 H   0  0  0  0  0  0  0  0  0  0  0  0
   -4.0496   -3.7931   -4.7092 H   0  0  0  0  0  0  0  0  0  0  0  0
   -4.1749   -3.7504   -2.9345 H   0  0  0  0  0  0  0  0  0  0  0  0
   -2.7776   -4.5420   -3.7117 H   0  0  0  0  0  0  0  0  0  0  0  0
   -3.0981   -2.3469   -6.4436 H   0  0  0  0  0  0  0  0  0  0  0  0
   -1.4193   -2.3268   -8.2546 H   0  0  0  0  0  0  0  0  0  0  0  0
    1.0170   -2.3051   -7.7008 H   0  0  0  0  0  0  0  0  0  0  0  0
    1.7247   -2.2802   -5.3032 H   0  0  0  0  0  0  0  0  0  0  0  0
   -0.3206    0.1915   -4.2423 H   0  0  0  0  0  0  0  0  0  0  0  0
   -2.7007    4.5532   -4.4262 H   0  0  0  0  0  0  0  0  0  0  0  0
   -0.7901    6.0284   -5.1382 H   0  0  0  0  0  0  0  0  0  0  0  0
    1.5503    5.3379   -4.6701 H   0  0  0  0  0  0  0  0  0  0  0  0
    2.8538    3.7812   -3.5835 H   0  0  0  0  0  0  0  0  0  0  0  0
    1.2335    0.2496    0.4732 H   0  0  0  0  0  0  0  0  0  0  0  0
    0.6198    0.9587    4.8922 H   0  0  0  0  0  0  0  0  0  0  0  0
    3.9966    0.0319    4.4650 H   0  0  0  0  0  0  0  0  0  0  0  0
    2.7676   -1.2453    4.5614 H   0  0  0  0  0  0  0  0  0  0  0  0
    2.6496    0.1543    5.6524 H   0  0  0  0  0  0  0  0  0  0  0  0
   -0.8930    3.0614    5.1145 H   0  0  0  0  0  0  0  0  0  0  0  0
    0.3435    5.7284    4.4948 H   0  0  0  0  0  0  0  0  0  0  0  0
    0.0522    5.1830    6.1758 H   0  0  0  0  0  0  0  0  0  0  0  0
   -1.3265    5.5756    5.1119 H   0  0  0  0  0  0  0  0  0  0  0  0
   -0.6284   -1.2785    5.3263 H   0  0  0  0  0  0  0  0  0  0  0  0
    1.3481   -2.6425    7.2505 H   0  0  0  0  0  0  0  0  0  0  0  0
    0.2409   -1.1515    7.5773 H   0  0  0  0  0  0  0  0  0  0  0  0
  1  2  2  0  0  0  0
  2 52  1  0  0  0  0
  3 51  1  6  0  0  0
  3  4  1  0  0  0  0
  3  2  1  0  0  0  0
  3 47  1  0  0  0  0
  4  5  1  0  0  0  0
  6 91  1  0  0  0  0
  6 92  1  0  0  0  0
  7  6  2  0  0  0  0
  8 46  2  0  0  0  0
  8  7  1  0  0  0  0
  9  8  1  0  0  0  0
 10  9  1  0  0  0  0
 10 56  1  0  0  0  0
 11 58  1  0  0  0  0
 11 10  1  0  0  0  0
 12 13  1  0  0  0  0
 12 11  1  0  0  0  0
 13 14  1  6  0  0  0
 13 16  1  0  0  0  0
 13 15  1  0  0  0  0
 15 60  1  0  0  0  0
 15  9  1  0  0  0  0
 16 64  1  0  0  0  0
 16 62  1  0  0  0  0
 17 12  1  0  0  0  0
 18 17  2  0  0  0  0
 19 18  1  0  0  0  0
 20 19  2  0  0  0  0
 21 19  1  0  0  0  0
 21 32  1  0  0  0  0
 22 21  1  0  0  0  0
 23 22  1  0  0  0  0
 23 24  1  0  0  0  0
 24 65  1  0  0  0  0
 25 24  1  0  0  0  0
 25 67  1  0  0  0  0
 25 68  1  0  0  0  0
 26 24  1  0  0  0  0
 26 71  1  0  0  0  0
 26 70  1  0  0  0  0
 27 23  2  0  0  0  0
 28 29  2  0  0  0  0
 28 27  1  0  0  0  0
 29 30  1  0  0  0  0
 30 75  1  0  0  0  0
 30 22  2  0  0  0  0
 31 45  1  0  0  0  0
 31 17  1  0  0  0  0
 32 31  2  0  0  0  0
 33 34  2  0  0  0  0
 33 32  1  0  0  0  0
 34 43  1  0  0  0  0
 35 34  1  0  0  0  0
 36 35  1  0  0  0  0
 36 37  1  0  0  0  0
 38 36  2  0  0  0  0
 39 40  2  0  0  0  0
 39 38  1  0  0  0  0
 40 41  1  0  0  0  0
 41 42  1  0  0  0  0
 41 35  2  0  0  0  0
 43 45  2  0  0  0  0
 43 44  1  0  0  0  0
 45 81  1  0  0  0  0
 47 82  1  0  0  0  0
 48 47  1  0  0  0  0
 48 49  1  0  0  0  0
 49 85  1  0  0  0  0
 50 48  2  0  0  0  0
 52 86  1  0  0  0  0
 52 53  1  0  0  0  0
 53 88  1  0  0  0  0
 54  4  1  0  0  0  0
 55  4  1  0  0  0  0
 57 10  1  0  0  0  0
 59 11  1  0  0  0  0
 61 15  1  0  0  0  0
 63 16  1  0  0  0  0
 66 25  1  0  0  0  0
 69 26  1  0  0  0  0
 72 27  1  0  0  0  0
 73 28  1  0  0  0  0
 74 29  1  0  0  0  0
 76 33  1  0  0  0  0
 77 38  1  0  0  0  0
 78 39  1  0  0  0  0
 79 40  1  0  0  0  0
 80 42  1  0  0  0  0
 83 49  1  0  0  0  0
 84 49  1  0  0  0  0
 87 53  1  0  0  0  0
 89 53  1  0  0  0  0
 90  7  1  0  0  0  0
M  END
