91
-1 1
O         2.878475    1.917144   -0.049731
C         3.614833    2.349340    0.850477
C         3.132757    2.421012    2.310129
C         4.113655    1.762658    3.307613
S         5.718521    2.609351    3.534398
C         6.612277   -0.311939    1.393588
C         5.705714   -1.230624    1.732704
C         5.259725   -2.276764    0.766507
N         3.942460   -2.677499    0.866670
C         2.892436   -1.904881    1.496985
C         2.119853   -1.096795    0.459366
N         1.649566   -1.946078   -0.629569
C         2.635319   -2.869312   -1.218382
H         2.056181   -3.613931   -1.777408
C         3.408222   -3.599444   -0.115984
C         3.541998   -2.098785   -2.178715
C         0.396076   -1.884820   -1.140600
N        -0.068380   -2.915161   -1.796602
C        -1.376436   -3.028861   -2.176619
O        -1.812646   -3.959030   -2.817794
N        -2.275280   -2.025318   -1.714070
C        -3.678280   -2.215096   -1.939342
C        -4.411055   -3.057658   -1.094268
C        -3.759335   -3.801211    0.057865
C        -4.481702   -3.554214    1.385301
C        -3.637307   -5.294950   -0.264714
C        -5.775327   -3.218654   -1.367406
C        -6.390422   -2.558197   -2.425567
C        -5.644299   -1.713792   -3.247028
C        -4.287472   -1.548378   -3.002077
C        -0.425076   -0.670816   -0.994230
C        -1.808686   -0.826375   -1.224152
N        -2.683864    0.153652   -1.025409
C        -2.255099    1.375316   -0.745356
C        -3.297543    2.415188   -0.534334
C        -4.187263    2.749888   -1.553503
F        -4.063818    2.147599   -2.734170
C        -5.177382    3.713358   -1.400598
C        -5.279767    4.364318   -0.175010
C        -4.417162    4.054495    0.872858
C        -3.432035    3.078511    0.696595
O        -2.586691    2.713229    1.676691
C        -0.879966    1.669647   -0.699678
Cl        -0.318826    3.305289   -0.527318
C         0.039935    0.635900   -0.801638
O         6.006246   -2.753991   -0.071773
N         1.836542    1.769875    2.313751
C         0.955526    1.739104    3.343627
C        -0.280937    0.894013    3.068065
O         1.137018    2.275924    4.420926
H         3.032853    3.484075    2.593848
N         4.859905    2.762135    0.628961
C         5.465214    2.631869   -0.669277
H         3.583235    1.724563    4.268472
H         4.263687    0.721915    2.970835
H         3.292249   -1.202834    2.237045
H         2.211033   -2.597312    2.021396
H         2.757610   -0.278638    0.091056
H         1.256035   -0.645939    0.960073
H         4.240073   -4.161775   -0.555517
H         2.730493   -4.302489    0.396795
H         4.097886   -1.300038   -1.666076
H         2.939777   -1.643210   -2.978597
H         4.281284   -2.774144   -2.631100
H        -2.738901   -3.405097    0.168667
H        -3.936224   -4.033255    2.213175
H        -5.501446   -3.971468    1.378652
H        -4.558000   -2.478004    1.601322
H        -4.632922   -5.756567   -0.370178
H        -3.102812   -5.823804    0.540186
H        -3.086766   -5.437499   -1.205312
H        -6.370758   -3.879516   -0.732263
H        -7.457716   -2.701998   -2.609606
H        -6.117605   -1.184708   -4.076640
H        -3.684511   -0.887541   -3.626103
H        -5.837968    3.939324   -2.237649
H        -6.047620    5.127163   -0.030870
H        -4.508903    4.561434    1.836565
H        -2.633738    3.320847    2.420643
H         1.104538    0.881241   -0.742393
H         1.534649    1.492457    1.385402
H        -0.635065    0.974448    2.031129
H        -1.084382    1.201177    3.748115
H        -0.042699   -0.161095    3.277006
H         5.442637    2.915307    1.492242
H         4.840841    3.104947   -1.442201
H         5.603246    1.574632   -0.956699
H         6.448597    3.120415   -0.653779
H         5.263612   -1.204293    2.731535
H         6.881222    0.490381    2.092255
H         7.056614   -0.327730    0.393401
