91
-1 1
O         2.862218    1.758292   -0.280902
C         3.835407    2.032704    0.426301
C         3.643826    2.498064    1.880203
C         4.343628    1.591207    2.917385
S         6.146895    1.609570    2.938029
C         6.562922   -0.318549    2.472936
C         5.434807   -1.203968    2.326787
C         5.066983   -1.708481    1.058927
N         3.887771   -2.523228    1.021922
C         2.684917   -2.098717    1.686635
C         1.860492   -1.193989    0.770628
N         1.539113   -1.900028   -0.470045
C         2.650855   -2.579158   -1.167972
H         2.185760   -3.354618   -1.789448
C         3.591644   -3.275671   -0.171364
C         3.339402   -1.555374   -2.067230
C         0.317072   -1.869944   -1.038987
N        -0.064374   -2.846074   -1.824341
C        -1.352158   -2.981184   -2.252983
O        -1.731198   -3.858911   -2.997543
N        -2.323542   -2.073159   -1.719402
C        -3.705301   -2.314974   -2.008752
C        -4.405332   -3.296402   -1.294740
C        -3.737895   -4.137392   -0.221043
C        -4.501169   -4.088386    1.105830
C        -3.527657   -5.574132   -0.712390
C        -5.750326   -3.502883   -1.627052
C        -6.381106   -2.755796   -2.616063
C        -5.669433   -1.775577   -3.306789
C        -4.331329   -1.562079   -3.002676
C        -0.565571   -0.709694   -0.837126
C        -1.930806   -0.892818   -1.131857
N        -2.842422    0.049188   -0.907326
C        -2.451208    1.266672   -0.559877
C        -3.523083    2.267785   -0.309788
C        -4.382717    2.668502   -1.329911
F        -4.203199    2.168003   -2.549918
C        -5.401270    3.594807   -1.135552
C        -5.564081    4.137624    0.134952
C        -4.731471    3.759178    1.185035
C        -3.716478    2.823612    0.965032
O        -2.895070    2.400976    1.945884
C        -1.088009    1.597642   -0.472789
Cl        -0.580093    3.252931   -0.268930
C        -0.135994    0.594613   -0.579530
O         5.694135   -1.553365   -0.007149
N         2.218752    2.526091    2.123428
C         1.652554    3.170814    3.171767
C         0.135609    3.111578    3.224167
O         2.295822    3.765377    4.019649
H         4.048731    3.520140    1.977563
N         5.103355    1.964924    0.012262
C         5.492311    1.395141   -1.259248
H         3.974840    1.893591    3.905085
H         4.066198    0.534559    2.727094
H         2.926789   -1.543024    2.600000
H         2.079797   -2.979306    1.975336
H         2.441052   -0.281996    0.567021
H         0.924487   -0.906691    1.268658
H         4.535677   -3.499878   -0.683121
H         3.119582   -4.229068    0.132218
H         3.734014   -0.719247   -1.478600
H         2.625905   -1.169201   -2.812284
H         4.188598   -2.015661   -2.591483
H        -2.743349   -3.705418   -0.036117
H        -3.946898   -4.632463    1.886431
H        -5.495529   -4.555870    1.022364
H        -4.642964   -3.051105    1.444810
H        -4.493975   -6.071389   -0.898791
H        -2.982014   -6.165374    0.039880
H        -2.948647   -5.574301   -1.646495
H        -6.317513   -4.271229   -1.095237
H        -7.432785   -2.939052   -2.849002
H        -6.154536   -1.178702   -4.081923
H        -3.756821   -0.796682   -3.525676
H        -6.036928    3.875622   -1.975320
H        -6.355344    4.868682    0.313272
H        -4.870387    4.182485    2.183141
H        -3.025296    2.923321    2.742450
H         0.927415    0.844132   -0.503453
H         1.651946    2.165919    1.361277
H        -0.268084    4.072876    2.872225
H        -0.163305    2.980084    4.272800
H        -0.295237    2.313119    2.605930
H         5.810616    2.032760    0.753027
H         4.651384    1.483880   -1.958527
H         5.755074    0.331478   -1.130528
H         6.352854    1.949199   -1.662689
H         4.949757   -1.598685    3.222707
H         7.227230   -0.532768    3.319009
H         7.132249   -0.228456    1.539490
