-1 1
 OpenBabel05232414493D

 90 94  0  0  1  0  0  0  0  0999 V2000
   -4.4800   -4.0738   -6.2579 O   0  0  0  0  0  0  0  0  0  0  0  0
   -5.1639   -3.0553   -6.3946 C   0  0  0  0  0  0  0  0  0  0  0  0
   -6.1073   -2.5781   -5.2801 C   0  0  2  0  0  0  0  0  0  0  0  0
   -5.8743   -1.1293   -4.7862 C   0  0  0  0  0  0  0  0  0  0  0  0
   -6.1413    0.2303   -5.9427 S   0  0  0  0  0  0  0  0  0  0  0  0
   -4.1280    1.1316   -5.8187 C   0  0  0  0  0  0  0  0  0  0  0  0
   -3.1579    0.2763   -5.2564 C   0  0  0  0  0  3  0  0  0  0  0  0
   -2.4541   -0.6258   -6.1108 C   0  0  0  0  0  0  0  0  0  0  0  0
   -1.7579   -1.7271   -5.5289 N   0  0  0  0  0  0  0  0  0  0  0  0
   -1.3441   -2.7234   -6.4970 C   0  0  0  0  0  0  0  0  0  0  0  0
   -0.3420   -3.7041   -5.9128 C   0  0  0  0  0  0  0  0  0  0  0  0
   -0.8895   -4.3189   -4.6969 N   0  0  0  0  0  0  0  0  0  0  0  0
   -1.2489   -3.3005   -3.6939 C   0  0  2  0  0  0  0  0  0  0  0  0
   -1.7586   -3.8372   -2.8857 H   0  0  0  0  0  0  0  0  0  0  0  0
   -2.2531   -2.3132   -4.2937 C   0  0  0  0  0  0  0  0  0  0  0  0
   -0.0017   -2.6107   -3.1462 C   0  0  0  0  0  0  0  0  0  0  0  0
   -1.6306   -5.4573   -4.7536 C   0  0  0  0  0  0  0  0  0  0  0  0
   -2.6725   -5.6002   -3.9850 N   0  0  0  0  0  0  0  0  0  0  0  0
   -3.5387   -6.6534   -4.0943 C   0  0  0  0  0  0  0  0  0  0  0  0
   -4.4811   -6.8202   -3.3508 O   0  0  0  0  0  0  0  0  0  0  0  0
   -3.3528   -7.5575   -5.1748 N   0  0  0  0  0  0  0  0  0  0  0  0
   -4.3319   -8.5883   -5.3850 C   0  0  0  0  0  0  0  0  0  0  0  0
   -5.5630   -8.2801   -5.9760 C   0  0  0  0  0  0  0  0  0  0  0  0
   -5.9354   -6.8696   -6.3866 C   0  0  0  0  0  0  0  0  0  0  0  0
   -6.1504   -6.7569   -7.8984 C   0  0  0  0  0  0  0  0  0  0  0  0
   -7.1473   -6.3689   -5.5970 C   0  0  0  0  0  0  0  0  0  0  0  0
   -6.4636   -9.3375   -6.1643 C   0  0  0  0  0  0  0  0  0  0  0  0
   -6.1563  -10.6402   -5.7878 C   0  0  0  0  0  0  0  0  0  0  0  0
   -4.9243  -10.9216   -5.1974 C   0  0  0  0  0  0  0  0  0  0  0  0
   -4.0171   -9.8905   -4.9948 C   0  0  0  0  0  0  0  0  0  0  0  0
   -1.2224   -6.5579   -5.6403 C   0  0  0  0  0  0  0  0  0  0  0  0
   -2.1842   -7.5604   -5.8923 C   0  0  0  0  0  0  0  0  0  0  0  0
   -1.9769   -8.5396   -6.7681 N   0  0  0  0  0  0  0  0  0  0  0  0
   -0.7924   -8.6863   -7.3415 C   0  0  0  0  0  0  0  0  0  0  0  0
   -0.6748   -9.7909   -8.3327 C   0  0  0  0  0  0  0  0  0  0  0  0
   -0.9404  -11.1093   -7.9563 C   0  0  0  0  0  0  0  0  0  0  0  0
   -1.2186  -11.3848   -6.6840 F   0  0  0  0  0  0  0  0  0  0  0  0
   -0.8971  -12.1564   -8.8683 C   0  0  0  0  0  0  0  0  0  0  0  0
   -0.5803  -11.8862  -10.1972 C   0  0  0  0  0  0  0  0  0  0  0  0
   -0.3056  -10.5800  -10.6007 C   0  0  0  0  0  0  0  0  0  0  0  0
   -0.3512   -9.5449   -9.6705 C   0  0  0  0  0  0  0  0  0  0  0  0
    0.2825   -7.8447   -7.0035 C   0  0  0  0  0  0  0  0  0  0  0  0
    1.8979   -8.1381   -7.5999 Cl  0  0  0  0  0  0  0  0  0  0  0  0
    0.0546   -6.7704   -6.1558 C   0  0  0  0  0  0  0  0  0  0  0  0
   -2.4162   -0.5199   -7.3455 O   0  0  0  0  0  0  0  0  0  0  0  0
   -5.9739   -3.5004   -4.1745 N   0  0  0  0  0  0  0  0  0  0  0  0
   -6.9527   -3.6576   -3.2476 C   0  0  0  0  0  0  0  0  0  0  0  0
   -6.6550   -4.6594   -2.1507 C   0  0  0  0  0  0  0  0  0  0  0  0
   -7.9918   -3.0172   -3.2715 O   0  0  0  0  0  0  0  0  0  0  0  0
   -7.1399   -2.6428   -5.6659 H   0  0  0  0  0  0  0  0  0  0  0  0
   -5.1871   -2.3179   -7.5113 N   0  0  0  0  0  0  0  0  0  0  0  0
   -4.3528   -2.5961   -8.6561 C   0  0  0  0  0  0  0  0  0  0  0  0
   -6.5300   -1.0006   -3.9156 H   0  0  0  0  0  0  0  0  0  0  0  0
   -4.8213   -1.0495   -4.4553 H   0  0  0  0  0  0  0  0  0  0  0  0
   -0.9111   -2.2077   -7.3623 H   0  0  0  0  0  0  0  0  0  0  0  0
   -2.2138   -3.3070   -6.8586 H   0  0  0  0  0  0  0  0  0  0  0  0
    0.6083   -3.2099   -5.6610 H   0  0  0  0  0  0  0  0  0  0  0  0
   -0.1297   -4.4631   -6.6704 H   0  0  0  0  0  0  0  0  0  0  0  0
   -2.4394   -1.5279   -3.5526 H   0  0  0  0  0  0  0  0  0  0  0  0
   -3.2030   -2.8512   -4.4568 H   0  0  0  0  0  0  0  0  0  0  0  0
    0.4134   -1.8921   -3.8674 H   0  0  0  0  0  0  0  0  0  0  0  0
    0.7724   -3.3452   -2.8774 H   0  0  0  0  0  0  0  0  0  0  0  0
   -0.2703   -2.0462   -2.2415 H   0  0  0  0  0  0  0  0  0  0  0  0
   -5.1034   -6.1963   -6.1475 H   0  0  0  0  0  0  0  0  0  0  0  0
   -7.0155   -7.3517   -8.2367 H   0  0  0  0  0  0  0  0  0  0  0  0
   -5.2636   -7.1039   -8.4507 H   0  0  0  0  0  0  0  0  0  0  0  0
   -6.3316   -5.7063   -8.1716 H   0  0  0  0  0  0  0  0  0  0  0  0
   -8.0560   -6.9480   -5.8321 H   0  0  0  0  0  0  0  0  0  0  0  0
   -7.3473   -5.3133   -5.8326 H   0  0  0  0  0  0  0  0  0  0  0  0
   -6.9571   -6.4452   -4.5171 H   0  0  0  0  0  0  0  0  0  0  0  0
   -7.4345   -9.1263   -6.6198 H   0  0  0  0  0  0  0  0  0  0  0  0
   -6.8824  -11.4399   -5.9525 H   0  0  0  0  0  0  0  0  0  0  0  0
   -4.6695  -11.9401   -4.8973 H   0  0  0  0  0  0  0  0  0  0  0  0
   -3.0437  -10.0883   -4.5435 H   0  0  0  0  0  0  0  0  0  0  0  0
   -1.1122  -13.1678   -8.5202 H   0  0  0  0  0  0  0  0  0  0  0  0
   -0.5483  -12.7038  -10.9205 H   0  0  0  0  0  0  0  0  0  0  0  0
   -0.0603  -10.3650  -11.6421 H   0  0  0  0  0  0  0  0  0  0  0  0
   -0.1449   -8.5184   -9.9811 H   0  0  0  0  0  0  0  0  0  0  0  0
    0.8784   -6.1105   -5.8840 H   0  0  0  0  0  0  0  0  0  0  0  0
   -5.1950   -4.1522   -4.2237 H   0  0  0  0  0  0  0  0  0  0  0  0
   -7.5631   -5.2500   -1.9682 H   0  0  0  0  0  0  0  0  0  0  0  0
   -6.4360   -4.0999   -1.2282 H   0  0  0  0  0  0  0  0  0  0  0  0
   -5.8136   -5.3270   -2.3790 H   0  0  0  0  0  0  0  0  0  0  0  0
   -5.5923   -1.3760   -7.4098 H   0  0  0  0  0  0  0  0  0  0  0  0
   -4.0567   -3.6533   -8.6290 H   0  0  0  0  0  0  0  0  0  0  0  0
   -3.4551   -1.9586   -8.6347 H   0  0  0  0  0  0  0  0  0  0  0  0
   -4.9196   -2.4088   -9.5811 H   0  0  0  0  0  0  0  0  0  0  0  0
   -3.0506    0.2264   -4.1729 H   0  0  0  0  0  0  0  0  0  0  0  0
   -4.4379    2.0021   -5.2357 H   0  0  0  0  0  0  0  0  0  0  0  0
   -4.0223    1.3269   -6.8888 H   0  0  0  0  0  0  0  0  0  0  0  0
  2  1  2  0  0  0  0
  2  3  1  0  0  0  0
  3 50  1  6  0  0  0
  3  4  1  0  0  0  0
  3 46  1  0  0  0  0
  4 54  1  0  0  0  0
  4 53  1  0  0  0  0
  5  6  1  0  0  0  0
  5  4  1  0  0  0  0
  6  7  1  0  0  0  0
  6 89  1  0  0  0  0
  7 88  1  0  0  0  0
  8  9  1  0  0  0  0
  8  7  1  0  0  0  0
  9 15  1  0  0  0  0
 10 11  1  0  0  0  0
 10  9  1  0  0  0  0
 11 57  1  0  0  0  0
 11 12  1  0  0  0  0
 12 13  1  0  0  0  0
 13 16  1  0  0  0  0
 13 14  1  1  0  0  0
 15 13  1  0  0  0  0
 15 59  1  0  0  0  0
 16 62  1  0  0  0  0
 16 63  1  0  0  0  0
 17 12  1  0  0  0  0
 17 18  2  0  0  0  0
 19 18  1  0  0  0  0
 19 20  2  0  0  0  0
 21 19  1  0  0  0  0
 22 21  1  0  0  0  0
 22 30  1  0  0  0  0
 23 22  2  0  0  0  0
 24 64  1  0  0  0  0
 24 23  1  0  0  0  0
 24 26  1  0  0  0  0
 25 24  1  0  0  0  0
 26 70  1  0  0  0  0
 27 23  1  0  0  0  0
 27 28  2  0  0  0  0
 28 29  1  0  0  0  0
 29 30  2  0  0  0  0
 29 73  1  0  0  0  0
 30 74  1  0  0  0  0
 31 17  1  0  0  0  0
 32 31  1  0  0  0  0
 32 21  1  0  0  0  0
 33 32  2  0  0  0  0
 34 42  2  0  0  0  0
 34 33  1  0  0  0  0
 35 36  1  0  0  0  0
 35 34  1  0  0  0  0
 36 37  1  0  0  0  0
 38 75  1  0  0  0  0
 38 36  2  0  0  0  0
 39 38  1  0  0  0  0
 40 39  2  0  0  0  0
 40 41  1  0  0  0  0
 41 35  2  0  0  0  0
 42 44  1  0  0  0  0
 43 42  1  0  0  0  0
 44 79  1  0  0  0  0
 44 31  2  0  0  0  0
 45  8  2  0  0  0  0
 46 47  1  0  0  0  0
 47 48  1  0  0  0  0
 48 81  1  0  0  0  0
 48 82  1  0  0  0  0
 49 47  2  0  0  0  0
 51 84  1  0  0  0  0
 51  2  1  0  0  0  0
 52 86  1  0  0  0  0
 52 85  1  0  0  0  0
 52 51  1  0  0  0  0
 55 10  1  0  0  0  0
 56 10  1  0  0  0  0
 58 11  1  0  0  0  0
 60 15  1  0  0  0  0
 61 16  1  0  0  0  0
 65 25  1  0  0  0  0
 66 25  1  0  0  0  0
 67 25  1  0  0  0  0
 68 26  1  0  0  0  0
 69 26  1  0  0  0  0
 71 27  1  0  0  0  0
 72 28  1  0  0  0  0
 76 39  1  0  0  0  0
 77 40  1  0  0  0  0
 78 41  1  0  0  0  0
 80 46  1  0  0  0  0
 83 48  1  0  0  0  0
 87 52  1  0  0  0  0
 90  6  1  0  0  0  0
M  END
