90
-1 1
O        -1.314449    1.586343   -0.210826
C        -1.997792    2.601521   -0.362262
C        -2.949405    3.085976    0.743496
C        -2.705170    4.523745    1.260746
S        -2.916052    5.899014    0.108500
C        -1.039913    6.749349    0.220148
C        -0.022722    5.903490    0.776050
C         0.688251    5.032110   -0.081542
N         1.445041    3.954701    0.495096
C         1.843720    2.961236   -0.481358
C         2.852626    1.975815    0.084127
N         2.318206    1.353483    1.302892
C         1.972251    2.368201    2.314560
H         1.472431    1.828657    3.127019
C         0.962733    3.358812    1.729910
C         3.226894    3.054717    2.849279
C         1.566708    0.222604    1.245377
N         0.528916    0.085344    2.021395
C        -0.353622   -0.952644    1.908695
O        -1.307557   -1.098408    2.642682
N        -0.170715   -1.869463    0.838536
C        -1.147337   -2.905882    0.644682
C        -2.374758   -2.614726    0.038241
C        -2.745258   -1.214574   -0.407053
C        -2.934459   -1.134077   -1.924317
C        -3.971302   -0.701825    0.351996
C        -3.271092   -3.678346   -0.133974
C        -2.962968   -4.971631    0.272982
C        -1.734518   -5.236567    0.878035
C        -0.831545   -4.198550    1.064673
C         1.959187   -0.877908    0.351110
C         0.992172   -1.878428    0.111739
N         1.187822   -2.861818   -0.762044
C         2.365729   -3.013346   -1.347744
C         2.470012   -4.123127   -2.334693
C         2.205293   -5.439001   -1.948702
F         1.940183   -5.707309   -0.672122
C         2.236141   -6.490878   -2.855714
C         2.539257   -6.228302   -4.189362
C         2.812744   -4.924950   -4.602521
C         2.779744   -3.884932   -3.677184
C         3.445551   -2.172275   -1.025571
Cl         5.053491   -2.470514   -1.639778
C         3.229604   -1.094930   -0.178328
O         0.694579    5.118334   -1.323780
N        -2.845429    2.152575    1.841944
C        -3.844000    1.994393    2.746527
C        -3.585009    0.966575    3.828872
O        -4.873644    2.650217    2.711794
H        -3.976998    3.037412    0.342400
N        -2.023183    3.321204   -1.491363
C        -1.177373    3.032122   -2.626219
H        -3.384127    4.658456    2.112228
H        -1.659450    4.589233    1.611818
H         2.265034    3.478046   -1.351797
H         0.970791    2.376872   -0.835878
H         3.806074    2.467265    0.328799
H         3.055541    1.221095   -0.680556
H         0.786141    4.139159    2.479036
H         0.009356    2.821982    1.575267
H         3.628899    3.779697    2.127128
H         4.006008    2.319217    3.100966
H         2.970857    3.611724    3.762278
H        -1.919625   -0.534482   -0.165608
H        -3.791273   -1.739489   -2.264842
H        -2.036952   -1.489362   -2.453536
H        -3.115055   -0.090135   -2.222969
H        -4.875378   -1.286302    0.112543
H        -4.168863    0.349033    0.093872
H        -3.798730   -0.757823    1.436020
H        -4.239065   -3.480051   -0.601405
H        -3.685535   -5.776991    0.120230
H        -1.479001   -6.247668    1.201797
H         0.139399   -4.383401    1.526669
H         2.022387   -7.499857   -2.500062
H         2.561484   -7.049726   -4.908659
H         3.047443   -4.715847   -5.647627
H         2.985176   -2.860508   -3.995261
H         4.057946   -0.436443    0.082752
H        -2.067396    1.498608    1.802798
H        -4.488193    0.351078    3.941558
H        -3.432682    1.501612    4.778650
H        -2.717785    0.324021    3.627202
H        -2.414857    4.266658   -1.401825
H        -0.882763    1.975106   -2.585466
H        -0.281149    3.671628   -2.596990
H        -1.736285    3.210411   -3.557793
H         0.093810    5.856855    1.858529
H        -1.286200    7.645020    0.800629
H        -0.888267    6.977027   -0.840555
