-1 1
 OpenBabel05192410563D

 90 94  0  0  1  0  0  0  0  0999 V2000
   -1.3144    1.5863   -0.2108 O   0  0  0  0  0  0  0  0  0  0  0  0
   -1.9978    2.6015   -0.3623 C   0  0  0  0  0  0  0  0  0  0  0  0
   -2.9494    3.0860    0.7435 C   0  0  2  0  0  0  0  0  0  0  0  0
   -2.7052    4.5237    1.2607 C   0  0  0  0  0  0  0  0  0  0  0  0
   -2.9161    5.8990    0.1085 S   0  0  0  0  0  0  0  0  0  0  0  0
   -1.0399    6.7493    0.2201 C   0  0  0  0  0  0  0  0  0  0  0  0
   -0.0227    5.9035    0.7761 C   0  0  0  0  0  3  0  0  0  0  0  0
    0.6883    5.0321   -0.0815 C   0  0  0  0  0  0  0  0  0  0  0  0
    1.4450    3.9547    0.4951 N   0  0  0  0  0  0  0  0  0  0  0  0
    1.8437    2.9612   -0.4814 C   0  0  0  0  0  0  0  0  0  0  0  0
    2.8526    1.9758    0.0841 C   0  0  0  0  0  0  0  0  0  0  0  0
    2.3182    1.3535    1.3029 N   0  0  0  0  0  0  0  0  0  0  0  0
    1.9723    2.3682    2.3146 C   0  0  2  0  0  0  0  0  0  0  0  0
    1.4724    1.8287    3.1270 H   0  0  0  0  0  0  0  0  0  0  0  0
    0.9627    3.3588    1.7299 C   0  0  0  0  0  0  0  0  0  0  0  0
    3.2269    3.0547    2.8493 C   0  0  0  0  0  0  0  0  0  0  0  0
    1.5667    0.2226    1.2454 C   0  0  0  0  0  0  0  0  0  0  0  0
    0.5289    0.0853    2.0214 N   0  0  0  0  0  0  0  0  0  0  0  0
   -0.3536   -0.9526    1.9087 C   0  0  0  0  0  0  0  0  0  0  0  0
   -1.3076   -1.0984    2.6427 O   0  0  0  0  0  0  0  0  0  0  0  0
   -0.1707   -1.8695    0.8385 N   0  0  0  0  0  0  0  0  0  0  0  0
   -1.1473   -2.9059    0.6447 C   0  0  0  0  0  0  0  0  0  0  0  0
   -2.3748   -2.6147    0.0382 C   0  0  0  0  0  0  0  0  0  0  0  0
   -2.7453   -1.2146   -0.4071 C   0  0  0  0  0  0  0  0  0  0  0  0
   -2.9345   -1.1341   -1.9243 C   0  0  0  0  0  0  0  0  0  0  0  0
   -3.9713   -0.7018    0.3520 C   0  0  0  0  0  0  0  0  0  0  0  0
   -3.2711   -3.6783   -0.1340 C   0  0  0  0  0  0  0  0  0  0  0  0
   -2.9630   -4.9716    0.2730 C   0  0  0  0  0  0  0  0  0  0  0  0
   -1.7345   -5.2366    0.8780 C   0  0  0  0  0  0  0  0  0  0  0  0
   -0.8315   -4.1986    1.0647 C   0  0  0  0  0  0  0  0  0  0  0  0
    1.9592   -0.8779    0.3511 C   0  0  0  0  0  0  0  0  0  0  0  0
    0.9922   -1.8784    0.1117 C   0  0  0  0  0  0  0  0  0  0  0  0
    1.1878   -2.8618   -0.7620 N   0  0  0  0  0  0  0  0  0  0  0  0
    2.3657   -3.0133   -1.3477 C   0  0  0  0  0  0  0  0  0  0  0  0
    2.4700   -4.1231   -2.3347 C   0  0  0  0  0  0  0  0  0  0  0  0
    2.2053   -5.4390   -1.9487 C   0  0  0  0  0  0  0  0  0  0  0  0
    1.9402   -5.7073   -0.6721 F   0  0  0  0  0  0  0  0  0  0  0  0
    2.2361   -6.4909   -2.8557 C   0  0  0  0  0  0  0  0  0  0  0  0
    2.5393   -6.2283   -4.1894 C   0  0  0  0  0  0  0  0  0  0  0  0
    2.8127   -4.9249   -4.6025 C   0  0  0  0  0  0  0  0  0  0  0  0
    2.7797   -3.8849   -3.6772 C   0  0  0  0  0  0  0  0  0  0  0  0
    3.4456   -2.1723   -1.0256 C   0  0  0  0  0  0  0  0  0  0  0  0
    5.0535   -2.4705   -1.6398 Cl  0  0  0  0  0  0  0  0  0  0  0  0
    3.2296   -1.0949   -0.1783 C   0  0  0  0  0  0  0  0  0  0  0  0
    0.6946    5.1183   -1.3238 O   0  0  0  0  0  0  0  0  0  0  0  0
   -2.8454    2.1526    1.8419 N   0  0  0  0  0  0  0  0  0  0  0  0
   -3.8440    1.9944    2.7465 C   0  0  0  0  0  0  0  0  0  0  0  0
   -3.5850    0.9666    3.8289 C   0  0  0  0  0  0  0  0  0  0  0  0
   -4.8736    2.6502    2.7118 O   0  0  0  0  0  0  0  0  0  0  0  0
   -3.9770    3.0374    0.3424 H   0  0  0  0  0  0  0  0  0  0  0  0
   -2.0232    3.3212   -1.4914 N   0  0  0  0  0  0  0  0  0  0  0  0
   -1.1774    3.0321   -2.6262 C   0  0  0  0  0  0  0  0  0  0  0  0
   -3.3841    4.6585    2.1122 H   0  0  0  0  0  0  0  0  0  0  0  0
   -1.6595    4.5892    1.6118 H   0  0  0  0  0  0  0  0  0  0  0  0
    2.2650    3.4780   -1.3518 H   0  0  0  0  0  0  0  0  0  0  0  0
    0.9708    2.3769   -0.8359 H   0  0  0  0  0  0  0  0  0  0  0  0
    3.8061    2.4673    0.3288 H   0  0  0  0  0  0  0  0  0  0  0  0
    3.0555    1.2211   -0.6806 H   0  0  0  0  0  0  0  0  0  0  0  0
    0.7861    4.1392    2.4790 H   0  0  0  0  0  0  0  0  0  0  0  0
    0.0094    2.8220    1.5753 H   0  0  0  0  0  0  0  0  0  0  0  0
    3.6289    3.7797    2.1271 H   0  0  0  0  0  0  0  0  0  0  0  0
    4.0060    2.3192    3.1010 H   0  0  0  0  0  0  0  0  0  0  0  0
    2.9709    3.6117    3.7623 H   0  0  0  0  0  0  0  0  0  0  0  0
   -1.9196   -0.5345   -0.1656 H   0  0  0  0  0  0  0  0  0  0  0  0
   -3.7913   -1.7395   -2.2648 H   0  0  0  0  0  0  0  0  0  0  0  0
   -2.0370   -1.4894   -2.4535 H   0  0  0  0  0  0  0  0  0  0  0  0
   -3.1151   -0.0901   -2.2230 H   0  0  0  0  0  0  0  0  0  0  0  0
   -4.8754   -1.2863    0.1125 H   0  0  0  0  0  0  0  0  0  0  0  0
   -4.1689    0.3490    0.0939 H   0  0  0  0  0  0  0  0  0  0  0  0
   -3.7987   -0.7578    1.4360 H   0  0  0  0  0  0  0  0  0  0  0  0
   -4.2391   -3.4801   -0.6014 H   0  0  0  0  0  0  0  0  0  0  0  0
   -3.6855   -5.7770    0.1202 H   0  0  0  0  0  0  0  0  0  0  0  0
   -1.4790   -6.2477    1.2018 H   0  0  0  0  0  0  0  0  0  0  0  0
    0.1394   -4.3834    1.5267 H   0  0  0  0  0  0  0  0  0  0  0  0
    2.0224   -7.4999   -2.5001 H   0  0  0  0  0  0  0  0  0  0  0  0
    2.5615   -7.0497   -4.9087 H   0  0  0  0  0  0  0  0  0  0  0  0
    3.0474   -4.7158   -5.6476 H   0  0  0  0  0  0  0  0  0  0  0  0
    2.9852   -2.8605   -3.9953 H   0  0  0  0  0  0  0  0  0  0  0  0
    4.0579   -0.4364    0.0828 H   0  0  0  0  0  0  0  0  0  0  0  0
   -2.0674    1.4986    1.8028 H   0  0  0  0  0  0  0  0  0  0  0  0
   -4.4882    0.3511    3.9416 H   0  0  0  0  0  0  0  0  0  0  0  0
   -3.4327    1.5016    4.7786 H   0  0  0  0  0  0  0  0  0  0  0  0
   -2.7178    0.3240    3.6272 H   0  0  0  0  0  0  0  0  0  0  0  0
   -2.4149    4.2667   -1.4018 H   0  0  0  0  0  0  0  0  0  0  0  0
   -0.8828    1.9751   -2.5855 H   0  0  0  0  0  0  0  0  0  0  0  0
   -0.2811    3.6716   -2.5970 H   0  0  0  0  0  0  0  0  0  0  0  0
   -1.7363    3.2104   -3.5578 H   0  0  0  0  0  0  0  0  0  0  0  0
    0.0938    5.8569    1.8585 H   0  0  0  0  0  0  0  0  0  0  0  0
   -1.2862    7.6450    0.8006 H   0  0  0  0  0  0  0  0  0  0  0  0
   -0.8883    6.9770   -0.8406 H   0  0  0  0  0  0  0  0  0  0  0  0
  2  1  2  0  0  0  0
  2  3  1  0  0  0  0
  3 50  1  6  0  0  0
  3  4  1  0  0  0  0
  3 46  1  0  0  0  0
  4 54  1  0  0  0  0
  4 53  1  0  0  0  0
  5  6  1  0  0  0  0
  5  4  1  0  0  0  0
  6  7  1  0  0  0  0
  6 89  1  0  0  0  0
  7 88  1  0  0  0  0
  8  9  1  0  0  0  0
  8  7  1  0  0  0  0
  9 15  1  0  0  0  0
 10 11  1  0  0  0  0
 10  9  1  0  0  0  0
 11 57  1  0  0  0  0
 11 12  1  0  0  0  0
 12 13  1  0  0  0  0
 13 16  1  0  0  0  0
 13 14  1  1  0  0  0
 15 13  1  0  0  0  0
 15 59  1  0  0  0  0
 16 62  1  0  0  0  0
 16 63  1  0  0  0  0
 17 12  1  0  0  0  0
 17 18  2  0  0  0  0
 19 18  1  0  0  0  0
 19 20  2  0  0  0  0
 21 19  1  0  0  0  0
 22 21  1  0  0  0  0
 22 30  1  0  0  0  0
 23 22  2  0  0  0  0
 24 64  1  0  0  0  0
 24 23  1  0  0  0  0
 24 26  1  0  0  0  0
 25 24  1  0  0  0  0
 26 70  1  0  0  0  0
 27 23  1  0  0  0  0
 27 28  2  0  0  0  0
 28 29  1  0  0  0  0
 29 30  2  0  0  0  0
 29 73  1  0  0  0  0
 30 74  1  0  0  0  0
 31 17  1  0  0  0  0
 32 31  1  0  0  0  0
 32 21  1  0  0  0  0
 33 32  2  0  0  0  0
 34 42  2  0  0  0  0
 34 33  1  0  0  0  0
 35 36  1  0  0  0  0
 35 34  1  0  0  0  0
 36 37  1  0  0  0  0
 38 75  1  0  0  0  0
 38 36  2  0  0  0  0
 39 38  1  0  0  0  0
 40 39  2  0  0  0  0
 40 41  1  0  0  0  0
 41 35  2  0  0  0  0
 42 44  1  0  0  0  0
 43 42  1  0  0  0  0
 44 79  1  0  0  0  0
 44 31  2  0  0  0  0
 45  8  2  0  0  0  0
 46 47  1  0  0  0  0
 47 48  1  0  0  0  0
 48 81  1  0  0  0  0
 48 82  1  0  0  0  0
 49 47  2  0  0  0  0
 51 84  1  0  0  0  0
 51  2  1  0  0  0  0
 52 86  1  0  0  0  0
 52 85  1  0  0  0  0
 52 51  1  0  0  0  0
 55 10  1  0  0  0  0
 56 10  1  0  0  0  0
 58 11  1  0  0  0  0
 60 15  1  0  0  0  0
 61 16  1  0  0  0  0
 65 25  1  0  0  0  0
 66 25  1  0  0  0  0
 67 25  1  0  0  0  0
 68 26  1  0  0  0  0
 69 26  1  0  0  0  0
 71 27  1  0  0  0  0
 72 28  1  0  0  0  0
 76 39  1  0  0  0  0
 77 40  1  0  0  0  0
 78 41  1  0  0  0  0
 80 46  1  0  0  0  0
 83 48  1  0  0  0  0
 87 52  1  0  0  0  0
 90  6  1  0  0  0  0
M  END
