-1 1
 OpenBabel05192410563D

 90 94  0  0  1  0  0  0  0  0999 V2000
   -4.1900    5.8243    3.3640 O   0  0  0  0  0  0  0  0  0  0  0  0
   -3.2651    5.0336    3.4283 C   0  0  0  0  0  0  0  0  0  0  0  0
   -1.8244    5.4684    3.7348 C   0  0  2  0  0  0  0  0  0  0  0  0
   -1.6583    5.4838    5.2588 C   0  0  0  0  0  0  0  0  0  0  0  0
    0.0254    5.7257    5.8766 S   0  0  0  0  0  0  0  0  0  0  0  0
    0.7512    3.9274    5.7723 C   0  0  0  0  0  0  0  0  0  0  0  0
   -0.0886    2.9182    5.1206 C   0  0  0  0  0  3  0  0  0  0  0  0
   -0.0239    2.7853    3.7365 C   0  0  0  0  0  0  0  0  0  0  0  0
   -0.9838    1.8749    3.1084 N   0  0  0  0  0  0  0  0  0  0  0  0
   -1.0091    1.9217    1.6631 C   0  0  0  0  0  0  0  0  0  0  0  0
    0.1154    1.1180    1.0103 C   0  0  0  0  0  0  0  0  0  0  0  0
    0.1418   -0.2511    1.5370 N   0  0  0  0  0  0  0  0  0  0  0  0
    0.0937   -0.3642    3.0107 C   0  0  2  0  0  0  0  0  0  0  0  0
   -0.1413   -1.4135    3.2220 H   0  0  0  0  0  0  0  0  0  0  0  0
   -1.0422    0.5040    3.5722 C   0  0  0  0  0  0  0  0  0  0  0  0
    1.4683   -0.0220    3.5874 C   0  0  0  0  0  0  0  0  0  0  0  0
    0.1199   -1.3652    0.7816 C   0  0  0  0  0  0  0  0  0  0  0  0
   -0.2499   -2.5038    1.3155 N   0  0  0  0  0  0  0  0  0  0  0  0
   -0.5141   -3.6197    0.5825 C   0  0  0  0  0  0  0  0  0  0  0  0
   -0.7711   -4.7056    1.0517 O   0  0  0  0  0  0  0  0  0  0  0  0
   -0.5449   -3.4620   -0.8408 N   0  0  0  0  0  0  0  0  0  0  0  0
   -1.0800   -4.5279   -1.6354 C   0  0  0  0  0  0  0  0  0  0  0  0
   -0.2725   -5.5859   -2.0710 C   0  0  0  0  0  0  0  0  0  0  0  0
    1.2017   -5.6662   -1.7245 C   0  0  0  0  0  0  0  0  0  0  0  0
    1.4597   -6.7996   -0.7263 C   0  0  0  0  0  0  0  0  0  0  0  0
    2.0705   -5.7728   -2.9804 C   0  0  0  0  0  0  0  0  0  0  0  0
   -0.8816   -6.5903   -2.8311 C   0  0  0  0  0  0  0  0  0  0  0  0
   -2.2357   -6.5470   -3.1514 C   0  0  0  0  0  0  0  0  0  0  0  0
   -3.0210   -5.4836   -2.7115 C   0  0  0  0  0  0  0  0  0  0  0  0
   -2.4363   -4.4754   -1.9530 C   0  0  0  0  0  0  0  0  0  0  0  0
    0.5618   -1.3464   -0.6298 C   0  0  0  0  0  0  0  0  0  0  0  0
    0.1434   -2.4323   -1.4312 C   0  0  0  0  0  0  0  0  0  0  0  0
    0.4472   -2.5358   -2.7232 N   0  0  0  0  0  0  0  0  0  0  0  0
    1.2533   -1.6457   -3.2854 C   0  0  0  0  0  0  0  0  0  0  0  0
    1.5338   -1.8510   -4.7372 C   0  0  0  0  0  0  0  0  0  0  0  0
    2.7645   -2.3170   -5.2116 C   0  0  0  0  0  0  0  0  0  0  0  0
    4.0591   -2.6758   -4.0958 Cl  0  0  0  0  0  0  0  0  0  0  0  0
    2.9815   -2.5315   -6.5713 C   0  0  0  0  0  0  0  0  0  0  0  0
    1.9557   -2.2813   -7.4778 C   0  0  0  0  0  0  0  0  0  0  0  0
    0.7171   -1.8299   -7.0250 C   0  0  0  0  0  0  0  0  0  0  0  0
    0.5120   -1.6242   -5.6646 C   0  0  0  0  0  0  0  0  0  0  0  0
    1.7952   -0.5826   -2.5483 C   0  0  0  0  0  0  0  0  0  0  0  0
    2.8601    0.5799   -3.2883 Cl  0  0  0  0  0  0  0  0  0  0  0  0
    1.4494   -0.4418   -1.2106 C   0  0  0  0  0  0  0  0  0  0  0  0
    0.7265    3.4159    2.9613 O   0  0  0  0  0  0  0  0  0  0  0  0
   -1.5397    6.7626    3.1681 N   0  0  0  0  0  0  0  0  0  0  0  0
   -1.4688    6.9290    1.8264 C   0  0  0  0  0  0  0  0  0  0  0  0
   -0.9812    8.2911    1.3634 C   0  0  0  0  0  0  0  0  0  0  0  0
   -1.7548    6.0481    1.0351 O   0  0  0  0  0  0  0  0  0  0  0  0
   -1.1216    4.7454    3.3003 H   0  0  0  0  0  0  0  0  0  0  0  0
   -3.4052    3.6873    3.3310 N   0  0  0  0  0  0  0  0  0  0  0  0
   -4.6798    3.0659    3.1018 C   0  0  0  0  0  0  0  0  0  0  0  0
   -2.2826    6.2854    5.6858 H   0  0  0  0  0  0  0  0  0  0  0  0
   -2.0285    4.5262    5.6476 H   0  0  0  0  0  0  0  0  0  0  0  0
   -0.9315    2.9655    1.3326 H   0  0  0  0  0  0  0  0  0  0  0  0
   -1.9805    1.5179    1.3228 H   0  0  0  0  0  0  0  0  0  0  0  0
    1.0647    1.6384    1.2118 H   0  0  0  0  0  0  0  0  0  0  0  0
   -0.0657    1.0912   -0.0696 H   0  0  0  0  0  0  0  0  0  0  0  0
   -1.0002    0.4774    4.6682 H   0  0  0  0  0  0  0  0  0  0  0  0
   -2.0056    0.0598    3.2630 H   0  0  0  0  0  0  0  0  0  0  0  0
    1.7663    1.0104    3.3545 H   0  0  0  0  0  0  0  0  0  0  0  0
    2.2257   -0.7157    3.1906 H   0  0  0  0  0  0  0  0  0  0  0  0
    1.4468   -0.1122    4.6825 H   0  0  0  0  0  0  0  0  0  0  0  0
    1.4775   -4.7280   -1.2223 H   0  0  0  0  0  0  0  0  0  0  0  0
    1.2147   -7.7805   -1.1656 H   0  0  0  0  0  0  0  0  0  0  0  0
    0.8431   -6.6571    0.1729 H   0  0  0  0  0  0  0  0  0  0  0  0
    2.5197   -6.8191   -0.4276 H   0  0  0  0  0  0  0  0  0  0  0  0
    1.9000   -6.7217   -3.5142 H   0  0  0  0  0  0  0  0  0  0  0  0
    3.1382   -5.7273   -2.7165 H   0  0  0  0  0  0  0  0  0  0  0  0
    1.8529   -4.9450   -3.6715 H   0  0  0  0  0  0  0  0  0  0  0  0
   -0.2780   -7.4319   -3.1805 H   0  0  0  0  0  0  0  0  0  0  0  0
   -2.6793   -7.3488   -3.7463 H   0  0  0  0  0  0  0  0  0  0  0  0
   -4.0847   -5.4395   -2.9548 H   0  0  0  0  0  0  0  0  0  0  0  0
   -3.0270   -3.6324   -1.5896 H   0  0  0  0  0  0  0  0  0  0  0  0
    3.9518   -2.8986   -6.9078 H   0  0  0  0  0  0  0  0  0  0  0  0
    2.1267   -2.4479   -8.5433 H   0  0  0  0  0  0  0  0  0  0  0  0
   -0.0930   -1.6412   -7.7319 H   0  0  0  0  0  0  0  0  0  0  0  0
   -0.4577   -1.2833   -5.2968 H   0  0  0  0  0  0  0  0  0  0  0  0
    1.8798    0.3741   -0.6317 H   0  0  0  0  0  0  0  0  0  0  0  0
   -1.1801    7.4798    3.7830 H   0  0  0  0  0  0  0  0  0  0  0  0
   -1.0911    9.0738    2.1274 H   0  0  0  0  0  0  0  0  0  0  0  0
   -1.5399    8.5753    0.4626 H   0  0  0  0  0  0  0  0  0  0  0  0
    0.0821    8.2094    1.0919 H   0  0  0  0  0  0  0  0  0  0  0  0
   -2.5731    3.0888    3.3717 H   0  0  0  0  0  0  0  0  0  0  0  0
   -5.4443    3.8539    3.0859 H   0  0  0  0  0  0  0  0  0  0  0  0
   -4.9288    2.3434    3.8973 H   0  0  0  0  0  0  0  0  0  0  0  0
   -4.7052    2.5343    2.1352 H   0  0  0  0  0  0  0  0  0  0  0  0
    1.6819    4.0858    5.2126 H   0  0  0  0  0  0  0  0  0  0  0  0
    0.9741    3.7011    6.8237 H   0  0  0  0  0  0  0  0  0  0  0  0
   -0.8677    2.4100    5.6938 H   0  0  0  0  0  0  0  0  0  0  0  0
  1  2  2  0  0  0  0
  2  3  1  0  0  0  0
  3 50  1  6  0  0  0
  3  4  1  0  0  0  0
  4 54  1  0  0  0  0
  4 53  1  0  0  0  0
  4  5  1  0  0  0  0
  6  5  1  0  0  0  0
  6 89  1  0  0  0  0
  7 90  1  0  0  0  0
  7  6  1  0  0  0  0
  8  7  1  0  0  0  0
  9 15  1  0  0  0  0
  9  8  1  0  0  0  0
 10  9  1  0  0  0  0
 11 57  1  0  0  0  0
 11 12  1  0  0  0  0
 11 10  1  0  0  0  0
 12 13  1  0  0  0  0
 13 14  1  1  0  0  0
 13 15  1  0  0  0  0
 13 16  1  0  0  0  0
 15 59  1  0  0  0  0
 16 63  1  0  0  0  0
 17 18  2  0  0  0  0
 17 12  1  0  0  0  0
 19 20  2  0  0  0  0
 19 18  1  0  0  0  0
 21 19  1  0  0  0  0
 22 21  1  0  0  0  0
 23 24  1  0  0  0  0
 23 22  2  0  0  0  0
 24 64  1  0  0  0  0
 24 25  1  0  0  0  0
 25 67  1  0  0  0  0
 25 66  1  0  0  0  0
 26 69  1  0  0  0  0
 26 24  1  0  0  0  0
 27 23  1  0  0  0  0
 28 27  2  0  0  0  0
 28 29  1  0  0  0  0
 29 30  2  0  0  0  0
 30 22  1  0  0  0  0
 30 74  1  0  0  0  0
 31 17  1  0  0  0  0
 32 21  1  0  0  0  0
 32 31  2  0  0  0  0
 33 32  1  0  0  0  0
 34 33  2  0  0  0  0
 34 42  1  0  0  0  0
 35 34  1  0  0  0  0
 36 35  1  0  0  0  0
 36 37  1  0  0  0  0
 38 36  2  0  0  0  0
 39 40  2  0  0  0  0
 39 38  1  0  0  0  0
 40 41  1  0  0  0  0
 41 78  1  0  0  0  0
 41 35  2  0  0  0  0
 42 44  2  0  0  0  0
 43 42  1  0  0  0  0
 44 79  1  0  0  0  0
 44 31  1  0  0  0  0
 45  8  2  0  0  0  0
 46  3  1  0  0  0  0
 46 80  1  0  0  0  0
 47 46  1  0  0  0  0
 48 47  1  0  0  0  0
 48 81  1  0  0  0  0
 49 47  2  0  0  0  0
 51 84  1  0  0  0  0
 51  2  1  0  0  0  0
 52 51  1  0  0  0  0
 52 86  1  0  0  0  0
 55 10  1  0  0  0  0
 56 10  1  0  0  0  0
 58 11  1  0  0  0  0
 60 15  1  0  0  0  0
 61 16  1  0  0  0  0
 62 16  1  0  0  0  0
 65 25  1  0  0  0  0
 68 26  1  0  0  0  0
 70 26  1  0  0  0  0
 71 27  1  0  0  0  0
 72 28  1  0  0  0  0
 73 29  1  0  0  0  0
 75 38  1  0  0  0  0
 76 39  1  0  0  0  0
 77 40  1  0  0  0  0
 82 48  1  0  0  0  0
 83 48  1  0  0  0  0
 85 52  1  0  0  0  0
 87 52  1  0  0  0  0
 88  6  1  0  0  0  0
M  END
