-1 1
 OpenBabel05232413483D

 90 93  0  0  1  0  0  0  0  0999 V2000
   -4.5731    5.0482    3.0045 O   0  0  0  0  0  0  0  0  0  0  0  0
   -3.5529    4.4610    3.3084 C   0  0  0  0  0  0  0  0  0  0  0  0
   -2.3022    5.1535    3.8471 C   0  0  2  0  0  0  0  0  0  0  0  0
   -2.5197    5.6090    5.3034 C   0  0  0  0  0  0  0  0  0  0  0  0
   -1.1472    6.6205    5.9541 S   0  0  0  0  0  1  0  0  0  0  0  0
    0.6700    4.0810    5.9545 C   0  0  0  0  0  0  0  0  0  0  0  0
    0.1434    3.0421    5.2834 C   0  0  0  0  0  0  0  0  0  0  0  0
    0.3165    2.9572    3.8201 C   0  0  0  0  0  0  0  0  0  0  0  0
   -0.4734    2.0010    3.1545 N   0  0  0  0  0  0  0  0  0  0  0  0
   -0.5041    2.0756    1.7069 C   0  0  0  0  0  0  0  0  0  0  0  0
    0.6231    1.2690    1.0702 C   0  0  0  0  0  0  0  0  0  0  0  0
    0.6182   -0.1069    1.5843 N   0  0  0  0  0  0  0  0  0  0  0  0
    0.5665   -0.2315    3.0532 C   0  0  2  0  0  0  0  0  0  0  0  0
    0.3285   -1.2816    3.2575 H   0  0  0  0  0  0  0  0  0  0  0  0
   -0.5706    0.6308    3.6207 C   0  0  0  0  0  0  0  0  0  0  0  0
    1.9281    0.1147    3.6549 C   0  0  0  0  0  0  0  0  0  0  0  0
    0.4052   -1.2025    0.8175 C   0  0  0  0  0  0  0  0  0  0  0  0
   -0.1106   -2.2742    1.3557 N   0  0  0  0  0  0  0  0  0  0  0  0
   -0.5091   -3.3596    0.6257 C   0  0  0  0  0  0  0  0  0  0  0  0
   -0.8790   -4.4041    1.1081 O   0  0  0  0  0  0  0  0  0  0  0  0
   -0.5426   -3.1976   -0.7925 N   0  0  0  0  0  0  0  0  0  0  0  0
   -1.2190   -4.1891   -1.5780 C   0  0  0  0  0  0  0  0  0  0  0  0
   -0.5483   -5.3252   -2.0462 C   0  0  0  0  0  0  0  0  0  0  0  0
    0.9182   -5.5732   -1.7498 C   0  0  0  0  0  0  0  0  0  0  0  0
    1.0822   -6.7484   -0.7805 C   0  0  0  0  0  0  0  0  0  0  0  0
    1.7299   -5.7492   -3.0358 C   0  0  0  0  0  0  0  0  0  0  0  0
   -1.2899   -6.2467   -2.7938 C   0  0  0  0  0  0  0  0  0  0  0  0
   -2.6399   -6.0488   -3.0690 C   0  0  0  0  0  0  0  0  0  0  0  0
   -3.2875   -4.9094   -2.5960 C   0  0  0  0  0  0  0  0  0  0  0  0
   -2.5702   -3.9809   -1.8500 C   0  0  0  0  0  0  0  0  0  0  0  0
    0.8056   -1.2240   -0.6024 C   0  0  0  0  0  0  0  0  0  0  0  0
    0.2415   -2.2464   -1.3963 C   0  0  0  0  0  0  0  0  0  0  0  0
    0.4933   -2.3702   -2.6975 N   0  0  0  0  0  0  0  0  0  0  0  0
    1.3761   -1.5710   -3.2792 C   0  0  0  0  0  0  0  0  0  0  0  0
    1.5906   -1.7932   -4.7393 C   0  0  0  0  0  0  0  0  0  0  0  0
    2.7508   -2.3844   -5.2503 C   0  0  0  0  0  0  0  0  0  0  0  0
    4.0288   -2.8890   -4.1723 Cl  0  0  0  0  0  0  0  0  0  0  0  0
    2.9060   -2.6097   -6.6164 C   0  0  0  0  0  0  0  0  0  0  0  0
    1.8881   -2.2433   -7.4919 C   0  0  0  0  0  0  0  0  0  0  0  0
    0.7179   -1.6657   -7.0020 C   0  0  0  0  0  0  0  0  0  0  0  0
    0.5732   -1.4505   -5.6353 C   0  0  0  0  0  0  0  0  0  0  0  0
    2.0557   -0.5796   -2.5528 C   0  0  0  0  0  0  0  0  0  0  0  0
    3.2207    0.4625   -3.3179 Cl  0  0  0  0  0  0  0  0  0  0  0  0
    1.7699   -0.4162   -1.2049 C   0  0  0  0  0  0  0  0  0  0  0  0
    1.0145    3.7221    3.1790 O   0  0  0  0  0  0  0  0  0  0  0  0
   -1.9121    6.2740    3.0312 N   0  0  0  0  0  0  0  0  0  0  0  0
   -1.4738    6.0884    1.7732 C   0  0  0  0  0  0  0  0  0  0  0  0
   -0.7705    7.2747    1.1433 C   0  0  0  0  0  0  0  0  0  0  0  0
   -1.6055    5.0303    1.1649 O   0  0  0  0  0  0  0  0  0  0  0  0
   -1.4810    4.4267    3.8444 H   0  0  0  0  0  0  0  0  0  0  0  0
   -3.4394    3.0986    3.2940 N   0  0  0  0  0  0  0  0  0  0  0  0
   -4.4841    2.2543    2.7871 C   0  0  0  0  0  0  0  0  0  0  0  0
   -3.4689    6.1676    5.3492 H   0  0  0  0  0  0  0  0  0  0  0  0
   -2.6540    4.6910    5.9006 H   0  0  0  0  0  0  0  0  0  0  0  0
   -0.4688    3.1280    1.3948 H   0  0  0  0  0  0  0  0  0  0  0  0
   -1.4727    1.6662    1.3718 H   0  0  0  0  0  0  0  0  0  0  0  0
    1.5874    1.7588    1.2797 H   0  0  0  0  0  0  0  0  0  0  0  0
    0.4641    1.2618   -0.0126 H   0  0  0  0  0  0  0  0  0  0  0  0
   -0.5432    0.5886    4.7165 H   0  0  0  0  0  0  0  0  0  0  0  0
   -1.5369    0.2101    3.2946 H   0  0  0  0  0  0  0  0  0  0  0  0
    2.2217    1.1567    3.4605 H   0  0  0  0  0  0  0  0  0  0  0  0
    2.7046   -0.5477    3.2451 H   0  0  0  0  0  0  0  0  0  0  0  0
    1.9000   -0.0197    4.7461 H   0  0  0  0  0  0  0  0  0  0  0  0
    1.3112   -4.6809   -1.2414 H   0  0  0  0  0  0  0  0  0  0  0  0
    0.7186   -7.6876   -1.2283 H   0  0  0  0  0  0  0  0  0  0  0  0
    0.5130   -6.5614    0.1415 H   0  0  0  0  0  0  0  0  0  0  0  0
    2.1424   -6.8890   -0.5176 H   0  0  0  0  0  0  0  0  0  0  0  0
    1.4379   -6.6622   -3.5792 H   0  0  0  0  0  0  0  0  0  0  0  0
    2.8039   -5.8275   -2.8076 H   0  0  0  0  0  0  0  0  0  0  0  0
    1.5836   -4.8888   -3.7056 H   0  0  0  0  0  0  0  0  0  0  0  0
   -0.7957   -7.1462   -3.1696 H   0  0  0  0  0  0  0  0  0  0  0  0
   -3.1891   -6.7894   -3.6549 H   0  0  0  0  0  0  0  0  0  0  0  0
   -4.3466   -4.7443   -2.8040 H   0  0  0  0  0  0  0  0  0  0  0  0
   -3.0517   -3.0812   -1.4622 H   0  0  0  0  0  0  0  0  0  0  0  0
    3.8214   -3.0760   -6.9825 H   0  0  0  0  0  0  0  0  0  0  0  0
    2.0107   -2.4182   -8.5627 H   0  0  0  0  0  0  0  0  0  0  0  0
   -0.0863   -1.3854   -7.6847 H   0  0  0  0  0  0  0  0  0  0  0  0
   -0.3440   -1.0106   -5.2390 H   0  0  0  0  0  0  0  0  0  0  0  0
    2.3071    0.3395   -0.6329 H   0  0  0  0  0  0  0  0  0  0  0  0
   -1.5454    7.0466    3.5980 H   0  0  0  0  0  0  0  0  0  0  0  0
   -1.0259    8.2264    1.6285 H   0  0  0  0  0  0  0  0  0  0  0  0
   -1.0248    7.3160    0.0762 H   0  0  0  0  0  0  0  0  0  0  0  0
    0.3150    7.1150    1.2316 H   0  0  0  0  0  0  0  0  0  0  0  0
   -2.5036    2.7177    3.3978 H   0  0  0  0  0  0  0  0  0  0  0  0
   -5.4020    2.8548    2.7332 H   0  0  0  0  0  0  0  0  0  0  0  0
   -4.6592    1.3892    3.4476 H   0  0  0  0  0  0  0  0  0  0  0  0
   -4.2641    1.8784    1.7714 H   0  0  0  0  0  0  0  0  0  0  0  0
    1.3112    4.7989    5.4421 H   0  0  0  0  0  0  0  0  0  0  0  0
    0.4926    4.2282    7.0191 H   0  0  0  0  0  0  0  0  0  0  0  0
   -0.5448    2.3547    5.7804 H   0  0  0  0  0  0  0  0  0  0  0  0
  1  2  2  0  0  0  0
  2  3  1  0  0  0  0
  3 50  1  6  0  0  0
  3  4  1  0  0  0  0
  4 53  1  0  0  0  0
  4 54  1  0  0  0  0
  4  5  1  0  0  0  0
  6 89  1  0  0  0  0
  7 90  1  0  0  0  0
  7  6  2  0  0  0  0
  8  7  1  0  0  0  0
  9 15  1  0  0  0  0
  9  8  1  0  0  0  0
 10  9  1  0  0  0  0
 11 57  1  0  0  0  0
 11 12  1  0  0  0  0
 11 10  1  0  0  0  0
 12 13  1  0  0  0  0
 13 14  1  1  0  0  0
 13 15  1  0  0  0  0
 13 16  1  0  0  0  0
 15 59  1  0  0  0  0
 16 63  1  0  0  0  0
 17 18  2  0  0  0  0
 17 12  1  0  0  0  0
 19 20  2  0  0  0  0
 19 18  1  0  0  0  0
 21 19  1  0  0  0  0
 22 21  1  0  0  0  0
 23 24  1  0  0  0  0
 23 22  2  0  0  0  0
 24 64  1  0  0  0  0
 24 25  1  0  0  0  0
 25 67  1  0  0  0  0
 25 66  1  0  0  0  0
 26 69  1  0  0  0  0
 26 24  1  0  0  0  0
 27 23  1  0  0  0  0
 28 27  2  0  0  0  0
 28 29  1  0  0  0  0
 29 30  2  0  0  0  0
 30 22  1  0  0  0  0
 30 74  1  0  0  0  0
 31 17  1  0  0  0  0
 32 21  1  0  0  0  0
 32 31  2  0  0  0  0
 33 32  1  0  0  0  0
 34 33  2  0  0  0  0
 34 42  1  0  0  0  0
 35 34  1  0  0  0  0
 36 35  1  0  0  0  0
 36 37  1  0  0  0  0
 38 36  2  0  0  0  0
 39 40  2  0  0  0  0
 39 38  1  0  0  0  0
 40 41  1  0  0  0  0
 41 78  1  0  0  0  0
 41 35  2  0  0  0  0
 42 44  2  0  0  0  0
 43 42  1  0  0  0  0
 44 79  1  0  0  0  0
 44 31  1  0  0  0  0
 45  8  2  0  0  0  0
 46 80  1  0  0  0  0
 46  3  1  0  0  0  0
 47 46  1  0  0  0  0
 48 83  1  0  0  0  0
 48 81  1  0  0  0  0
 48 47  1  0  0  0  0
 49 47  2  0  0  0  0
 51  2  1  0  0  0  0
 51 84  1  0  0  0  0
 52 51  1  0  0  0  0
 52 86  1  0  0  0  0
 55 10  1  0  0  0  0
 56 10  1  0  0  0  0
 58 11  1  0  0  0  0
 60 15  1  0  0  0  0
 61 16  1  0  0  0  0
 62 16  1  0  0  0  0
 65 25  1  0  0  0  0
 68 26  1  0  0  0  0
 70 26  1  0  0  0  0
 71 27  1  0  0  0  0
 72 28  1  0  0  0  0
 73 29  1  0  0  0  0
 75 38  1  0  0  0  0
 76 39  1  0  0  0  0
 77 40  1  0  0  0  0
 82 48  1  0  0  0  0
 85 52  1  0  0  0  0
 87 52  1  0  0  0  0
 88  6  1  0  0  0  0
M  END
