90
-1 1
O        -6.890572    3.870095   -5.541087
C        -5.908092    3.179581   -5.346764
C        -4.539035    3.740591   -4.958102
C        -4.493218    3.967315   -3.437399
S        -2.949776    4.704353   -2.836820
C        -1.709916    2.497920   -2.783872
C        -2.387356    1.490598   -3.435220
C        -2.259887    1.370608   -4.866897
N        -3.150659    0.456905   -5.515636
C        -3.185149    0.528959   -6.961849
C        -2.072198   -0.286174   -7.615366
N        -2.081150   -1.662153   -7.103788
C        -2.129666   -1.794608   -5.633461
H        -2.384741   -2.841918   -5.435786
C        -3.247413   -0.914302   -5.055481
C        -0.754364   -1.482018   -5.043229
C        -2.202059   -2.764357   -7.875042
N        -2.653342   -3.873307   -7.348746
C        -2.989015   -4.969160   -8.089050
O        -3.308946   -6.037518   -7.621121
N        -3.018156   -4.798734   -9.508232
C        -3.626667   -5.822072  -10.307280
C        -2.888750   -6.920550  -10.764822
C        -1.417299   -7.092168  -10.440042
C        -1.213709   -8.249773   -9.457017
C        -0.573286   -7.237833  -11.708888
C        -3.566709   -7.878240  -11.527020
C        -4.919940   -7.751029  -11.827598
C        -5.635069   -6.648208  -11.365680
C        -4.981503   -5.685003  -10.604910
C        -1.778129   -2.758257   -9.290080
C        -2.275702   -3.805729  -10.096646
N        -1.998216   -3.911380  -11.394248
C        -1.147434   -3.066412  -11.959193
C        -0.902666   -3.269450  -13.417536
C         0.289923   -3.803362  -13.916918
Cl         1.576600   -4.255144  -12.825907
C         0.472869   -4.012457  -15.282300
C        -0.549395   -3.687727  -16.169095
C        -1.751034   -3.167502  -15.691208
C        -1.922775   -2.967953  -14.325270
C        -0.528477   -2.047566  -11.218344
Cl         0.596446   -0.946062  -11.960658
C        -0.844562   -1.902863   -9.874490
O        -1.513006    2.048665   -5.565801
N        -4.229591    4.949761   -5.675081
C        -3.945582    4.887512   -6.995112
C        -3.325168    6.139146   -7.587331
O        -4.150899    3.891216   -7.673840
H        -3.778672    2.996376   -5.216599
N        -5.926544    1.816656   -5.360148
C        -7.109930    1.066611   -5.671895
H        -5.348669    4.597624   -3.145715
H        -4.640946    2.979103   -2.970240
H        -3.122248    1.579365   -7.277081
H        -4.161054    0.134901   -7.296442
H        -1.106606    0.202782   -7.411304
H        -2.246429   -0.293387   -8.696147
H        -3.203502   -0.952240   -3.959593
H        -4.222478   -1.328330   -5.366140
H        -0.437523   -0.449247   -5.248119
H        -0.000866   -2.170911   -5.453592
H        -0.779432   -1.604112   -3.950821
H        -1.078772   -6.177346   -9.932860
H        -1.522067   -9.209409   -9.903180
H        -1.809062   -8.082634   -8.547828
H        -0.152944   -8.335336   -9.173233
H        -0.806960   -8.169760  -12.248437
H         0.498600   -7.258418  -11.459490
H        -0.750273   -6.392266  -12.390057
H        -3.019096   -8.750032  -11.894158
H        -5.418265   -8.518390  -12.424566
H        -6.697243   -6.538352  -11.593611
H        -5.516494   -4.812615  -10.224906
H         1.413554   -4.433608  -15.638931
H        -0.404993   -3.849923  -17.239172
H        -2.558404   -2.919972  -16.382747
H        -2.864171   -2.573097  -13.938291
H        -0.354298   -1.123214   -9.293039
H        -3.785480    5.666522   -5.103885
H        -3.579931    7.045926   -7.021440
H        -3.657102    6.241980   -8.628194
H        -2.230790    6.020352   -7.585119
H        -5.033738    1.331890   -5.273119
H        -7.946732    1.774829   -5.738617
H        -7.336206    0.319788   -4.892398
H        -7.024473    0.540995   -6.639285
H        -0.880958    2.983716   -3.297506
H        -1.725037    2.558569   -1.696788
H        -3.161568    0.919918   -2.916796
