90
-1 1
O        -4.573131    5.048175    3.004460
C        -3.552938    4.461003    3.308396
C        -2.302207    5.153477    3.847093
C        -2.519744    5.608985    5.303402
S        -1.147167    6.620492    5.954072
C         0.670016    4.081028    5.954498
C         0.143410    3.042148    5.283407
C         0.316549    2.957236    3.820061
N        -0.473438    2.001039    3.154531
C        -0.504107    2.075634    1.706907
C         0.623138    1.269026    1.070248
N         0.618208   -0.106861    1.584301
C         0.566550   -0.231489    3.053197
H         0.328478   -1.281641    3.257544
C        -0.570620    0.630785    3.620699
C         1.928105    0.114723    3.654928
C         0.405235   -1.202511    0.817481
N        -0.110594   -2.274217    1.355655
C        -0.509125   -3.359567    0.625722
O        -0.879027   -4.404064    1.108122
N        -0.542567   -3.197591   -0.792528
C        -1.219024   -4.189122   -1.577969
C        -0.548300   -5.325245   -2.046198
C         0.918222   -5.573155   -1.749777
C         1.082204   -6.748395   -0.780470
C         1.729933   -5.749155   -3.035831
C        -1.289877   -6.246653   -2.793814
C        -2.639922   -6.048752   -3.069027
C        -3.287523   -4.909428   -2.595994
C        -2.570182   -3.980865   -1.849970
C         0.805647   -1.224024   -0.602407
C         0.241536   -2.246442   -1.396348
N         0.493343   -2.370246   -2.697549
C         1.376059   -1.570985   -3.279165
C         1.590586   -1.793215   -4.739280
C         2.750782   -2.384429   -5.250251
Cl         4.028844   -2.889021   -4.172284
C         2.905999   -2.609732   -6.616395
C         1.888060   -2.243328   -7.491898
C         0.717884   -1.665658   -7.002040
C         0.573228   -1.450473   -5.635329
C         2.055711   -0.579598   -2.552762
Cl         3.220654    0.462498   -3.317894
C         1.769895   -0.416179   -1.204855
O         1.014531    3.722051    3.179006
N        -1.912114    6.274003    3.031237
C        -1.473810    6.088353    1.773152
C        -0.770491    7.274690    1.143276
O        -1.605514    5.030332    1.164903
H        -1.480988    4.426713    3.844444
N        -3.439425    3.098625    3.294000
C        -4.484073    2.254272    2.787097
H        -3.468874    6.167594    5.349176
H        -2.654005    4.690985    5.900646
H        -0.468762    3.127982    1.394835
H        -1.472691    1.666249    1.371780
H         1.587377    1.758764    1.279719
H         0.464083    1.261765   -0.012553
H        -0.543180    0.588558    4.716539
H        -1.536867    0.210140    3.294641
H         2.221660    1.156685    3.460472
H         2.704589   -0.547698    3.245085
H         1.899990   -0.019686    4.746120
H         1.311151   -4.680930   -1.241385
H         0.718571   -7.687602   -1.228267
H         0.513018   -6.561426    0.141519
H         2.142444   -6.889015   -0.517560
H         1.437857   -6.662172   -3.579171
H         2.803863   -5.827482   -2.807578
H         1.583644   -4.888757   -3.705575
H        -0.795733   -7.146242   -3.169615
H        -3.189060   -6.789421   -3.654936
H        -4.346554   -4.744285   -2.804009
H        -3.051664   -3.081161   -1.462163
H         3.821421   -3.075995   -6.982503
H         2.010716   -2.418178   -8.562674
H        -0.086254   -1.385363   -7.684733
H        -0.344013   -1.010602   -5.238986
H         2.307129    0.339453   -0.632855
H        -1.545405    7.046580    3.597987
H        -1.025903    8.226436    1.628543
H        -1.024821    7.316007    0.076182
H         0.315021    7.115048    1.231578
H        -2.503567    2.717700    3.397840
H        -5.402024    2.854840    2.733223
H        -4.659164    1.389232    3.447643
H        -4.264106    1.878405    1.771411
H         1.311193    4.798902    5.442137
H         0.492630    4.228153    7.019130
H        -0.544821    2.354721    5.780371
