-1 1
 OpenBabel05232414493D

 90 93  0  0  1  0  0  0  0  0999 V2000
   -6.8906    3.8701   -5.5411 O   0  0  0  0  0  0  0  0  0  0  0  0
   -5.9081    3.1796   -5.3468 C   0  0  0  0  0  0  0  0  0  0  0  0
   -4.5390    3.7406   -4.9581 C   0  0  2  0  0  0  0  0  0  0  0  0
   -4.4932    3.9673   -3.4374 C   0  0  0  0  0  0  0  0  0  0  0  0
   -2.9498    4.7044   -2.8368 S   0  0  0  0  0  1  0  0  0  0  0  0
   -1.7099    2.4979   -2.7839 C   0  0  0  0  0  3  0  0  0  0  0  0
   -2.3874    1.4906   -3.4352 C   0  0  0  0  0  3  0  0  0  0  0  0
   -2.2599    1.3706   -4.8669 C   0  0  0  0  0  0  0  0  0  0  0  0
   -3.1507    0.4569   -5.5156 N   0  0  0  0  0  0  0  0  0  0  0  0
   -3.1851    0.5290   -6.9618 C   0  0  0  0  0  0  0  0  0  0  0  0
   -2.0722   -0.2862   -7.6154 C   0  0  0  0  0  0  0  0  0  0  0  0
   -2.0812   -1.6622   -7.1038 N   0  0  0  0  0  0  0  0  0  0  0  0
   -2.1297   -1.7946   -5.6335 C   0  0  2  0  0  0  0  0  0  0  0  0
   -2.3847   -2.8419   -5.4358 H   0  0  0  0  0  0  0  0  0  0  0  0
   -3.2474   -0.9143   -5.0555 C   0  0  0  0  0  0  0  0  0  0  0  0
   -0.7544   -1.4820   -5.0432 C   0  0  0  0  0  0  0  0  0  0  0  0
   -2.2021   -2.7644   -7.8750 C   0  0  0  0  0  0  0  0  0  0  0  0
   -2.6533   -3.8733   -7.3487 N   0  0  0  0  0  0  0  0  0  0  0  0
   -2.9890   -4.9692   -8.0891 C   0  0  0  0  0  0  0  0  0  0  0  0
   -3.3089   -6.0375   -7.6211 O   0  0  0  0  0  0  0  0  0  0  0  0
   -3.0182   -4.7987   -9.5082 N   0  0  0  0  0  0  0  0  0  0  0  0
   -3.6267   -5.8221  -10.3073 C   0  0  0  0  0  0  0  0  0  0  0  0
   -2.8887   -6.9206  -10.7648 C   0  0  0  0  0  0  0  0  0  0  0  0
   -1.4173   -7.0922  -10.4400 C   0  0  0  0  0  0  0  0  0  0  0  0
   -1.2137   -8.2498   -9.4570 C   0  0  0  0  0  0  0  0  0  0  0  0
   -0.5733   -7.2378  -11.7089 C   0  0  0  0  0  0  0  0  0  0  0  0
   -3.5667   -7.8782  -11.5270 C   0  0  0  0  0  0  0  0  0  0  0  0
   -4.9199   -7.7510  -11.8276 C   0  0  0  0  0  0  0  0  0  0  0  0
   -5.6351   -6.6482  -11.3657 C   0  0  0  0  0  0  0  0  0  0  0  0
   -4.9815   -5.6850  -10.6049 C   0  0  0  0  0  0  0  0  0  0  0  0
   -1.7781   -2.7583   -9.2901 C   0  0  0  0  0  0  0  0  0  0  0  0
   -2.2757   -3.8057  -10.0966 C   0  0  0  0  0  0  0  0  0  0  0  0
   -1.9982   -3.9114  -11.3942 N   0  0  0  0  0  0  0  0  0  0  0  0
   -1.1474   -3.0664  -11.9592 C   0  0  0  0  0  0  0  0  0  0  0  0
   -0.9027   -3.2694  -13.4175 C   0  0  0  0  0  0  0  0  0  0  0  0
    0.2899   -3.8034  -13.9169 C   0  0  0  0  0  0  0  0  0  0  0  0
    1.5766   -4.2551  -12.8259 Cl  0  0  0  0  0  0  0  0  0  0  0  0
    0.4729   -4.0125  -15.2823 C   0  0  0  0  0  0  0  0  0  0  0  0
   -0.5494   -3.6877  -16.1691 C   0  0  0  0  0  0  0  0  0  0  0  0
   -1.7510   -3.1675  -15.6912 C   0  0  0  0  0  0  0  0  0  0  0  0
   -1.9228   -2.9680  -14.3253 C   0  0  0  0  0  0  0  0  0  0  0  0
   -0.5285   -2.0476  -11.2183 C   0  0  0  0  0  0  0  0  0  0  0  0
    0.5964   -0.9461  -11.9607 Cl  0  0  0  0  0  0  0  0  0  0  0  0
   -0.8446   -1.9029   -9.8745 C   0  0  0  0  0  0  0  0  0  0  0  0
   -1.5130    2.0487   -5.5658 O   0  0  0  0  0  0  0  0  0  0  0  0
   -4.2296    4.9498   -5.6751 N   0  0  0  0  0  0  0  0  0  0  0  0
   -3.9456    4.8875   -6.9951 C   0  0  0  0  0  0  0  0  0  0  0  0
   -3.3252    6.1391   -7.5873 C   0  0  0  0  0  0  0  0  0  0  0  0
   -4.1509    3.8912   -7.6738 O   0  0  0  0  0  0  0  0  0  0  0  0
   -3.7787    2.9964   -5.2166 H   0  0  0  0  0  0  0  0  0  0  0  0
   -5.9265    1.8167   -5.3601 N   0  0  0  0  0  0  0  0  0  0  0  0
   -7.1099    1.0666   -5.6719 C   0  0  0  0  0  0  0  0  0  0  0  0
   -5.3487    4.5976   -3.1457 H   0  0  0  0  0  0  0  0  0  0  0  0
   -4.6409    2.9791   -2.9702 H   0  0  0  0  0  0  0  0  0  0  0  0
   -3.1222    1.5794   -7.2771 H   0  0  0  0  0  0  0  0  0  0  0  0
   -4.1611    0.1349   -7.2964 H   0  0  0  0  0  0  0  0  0  0  0  0
   -1.1066    0.2028   -7.4113 H   0  0  0  0  0  0  0  0  0  0  0  0
   -2.2464   -0.2934   -8.6961 H   0  0  0  0  0  0  0  0  0  0  0  0
   -3.2035   -0.9522   -3.9596 H   0  0  0  0  0  0  0  0  0  0  0  0
   -4.2225   -1.3283   -5.3661 H   0  0  0  0  0  0  0  0  0  0  0  0
   -0.4375   -0.4492   -5.2481 H   0  0  0  0  0  0  0  0  0  0  0  0
   -0.0009   -2.1709   -5.4536 H   0  0  0  0  0  0  0  0  0  0  0  0
   -0.7794   -1.6041   -3.9508 H   0  0  0  0  0  0  0  0  0  0  0  0
   -1.0788   -6.1773   -9.9329 H   0  0  0  0  0  0  0  0  0  0  0  0
   -1.5221   -9.2094   -9.9032 H   0  0  0  0  0  0  0  0  0  0  0  0
   -1.8091   -8.0826   -8.5478 H   0  0  0  0  0  0  0  0  0  0  0  0
   -0.1529   -8.3353   -9.1732 H   0  0  0  0  0  0  0  0  0  0  0  0
   -0.8070   -8.1698  -12.2484 H   0  0  0  0  0  0  0  0  0  0  0  0
    0.4986   -7.2584  -11.4595 H   0  0  0  0  0  0  0  0  0  0  0  0
   -0.7503   -6.3923  -12.3901 H   0  0  0  0  0  0  0  0  0  0  0  0
   -3.0191   -8.7500  -11.8942 H   0  0  0  0  0  0  0  0  0  0  0  0
   -5.4183   -8.5184  -12.4246 H   0  0  0  0  0  0  0  0  0  0  0  0
   -6.6972   -6.5384  -11.5936 H   0  0  0  0  0  0  0  0  0  0  0  0
   -5.5165   -4.8126  -10.2249 H   0  0  0  0  0  0  0  0  0  0  0  0
    1.4136   -4.4336  -15.6389 H   0  0  0  0  0  0  0  0  0  0  0  0
   -0.4050   -3.8499  -17.2392 H   0  0  0  0  0  0  0  0  0  0  0  0
   -2.5584   -2.9200  -16.3827 H   0  0  0  0  0  0  0  0  0  0  0  0
   -2.8642   -2.5731  -13.9383 H   0  0  0  0  0  0  0  0  0  0  0  0
   -0.3543   -1.1232   -9.2930 H   0  0  0  0  0  0  0  0  0  0  0  0
   -3.7855    5.6665   -5.1039 H   0  0  0  0  0  0  0  0  0  0  0  0
   -3.5799    7.0459   -7.0214 H   0  0  0  0  0  0  0  0  0  0  0  0
   -3.6571    6.2420   -8.6282 H   0  0  0  0  0  0  0  0  0  0  0  0
   -2.2308    6.0204   -7.5851 H   0  0  0  0  0  0  0  0  0  0  0  0
   -5.0337    1.3319   -5.2731 H   0  0  0  0  0  0  0  0  0  0  0  0
   -7.9467    1.7748   -5.7386 H   0  0  0  0  0  0  0  0  0  0  0  0
   -7.3362    0.3198   -4.8924 H   0  0  0  0  0  0  0  0  0  0  0  0
   -7.0245    0.5410   -6.6393 H   0  0  0  0  0  0  0  0  0  0  0  0
   -0.8810    2.9837   -3.2975 H   0  0  0  0  0  0  0  0  0  0  0  0
   -1.7250    2.5586   -1.6968 H   0  0  0  0  0  0  0  0  0  0  0  0
   -3.1616    0.9199   -2.9168 H   0  0  0  0  0  0  0  0  0  0  0  0
  1  2  2  0  0  0  0
  2  3  1  0  0  0  0
  3 50  1  6  0  0  0
  3  4  1  0  0  0  0
  4 53  1  0  0  0  0
  4 54  1  0  0  0  0
  4  5  1  0  0  0  0
  6 89  1  0  0  0  0
  7 90  1  0  0  0  0
  7  6  1  0  0  0  0
  8  7  1  0  0  0  0
  9 15  1  0  0  0  0
  9  8  1  0  0  0  0
 10  9  1  0  0  0  0
 11 57  1  0  0  0  0
 11 12  1  0  0  0  0
 11 10  1  0  0  0  0
 12 13  1  0  0  0  0
 13 14  1  1  0  0  0
 13 15  1  0  0  0  0
 13 16  1  0  0  0  0
 15 59  1  0  0  0  0
 16 63  1  0  0  0  0
 17 18  2  0  0  0  0
 17 12  1  0  0  0  0
 19 20  2  0  0  0  0
 19 18  1  0  0  0  0
 21 19  1  0  0  0  0
 22 21  1  0  0  0  0
 23 24  1  0  0  0  0
 23 22  2  0  0  0  0
 24 64  1  0  0  0  0
 24 25  1  0  0  0  0
 25 67  1  0  0  0  0
 25 66  1  0  0  0  0
 26 69  1  0  0  0  0
 26 24  1  0  0  0  0
 27 23  1  0  0  0  0
 28 27  2  0  0  0  0
 28 29  1  0  0  0  0
 29 30  2  0  0  0  0
 30 22  1  0  0  0  0
 30 74  1  0  0  0  0
 31 17  1  0  0  0  0
 32 21  1  0  0  0  0
 32 31  2  0  0  0  0
 33 32  1  0  0  0  0
 34 33  2  0  0  0  0
 34 42  1  0  0  0  0
 35 34  1  0  0  0  0
 36 35  1  0  0  0  0
 36 37  1  0  0  0  0
 38 36  2  0  0  0  0
 39 40  2  0  0  0  0
 39 38  1  0  0  0  0
 40 41  1  0  0  0  0
 41 78  1  0  0  0  0
 41 35  2  0  0  0  0
 42 44  2  0  0  0  0
 43 42  1  0  0  0  0
 44 79  1  0  0  0  0
 44 31  1  0  0  0  0
 45  8  2  0  0  0  0
 46 80  1  0  0  0  0
 46  3  1  0  0  0  0
 47 46  1  0  0  0  0
 48 83  1  0  0  0  0
 48 81  1  0  0  0  0
 48 47  1  0  0  0  0
 49 47  2  0  0  0  0
 51  2  1  0  0  0  0
 51 84  1  0  0  0  0
 52 51  1  0  0  0  0
 52 86  1  0  0  0  0
 55 10  1  0  0  0  0
 56 10  1  0  0  0  0
 58 11  1  0  0  0  0
 60 15  1  0  0  0  0
 61 16  1  0  0  0  0
 62 16  1  0  0  0  0
 65 25  1  0  0  0  0
 68 26  1  0  0  0  0
 70 26  1  0  0  0  0
 71 27  1  0  0  0  0
 72 28  1  0  0  0  0
 73 29  1  0  0  0  0
 75 38  1  0  0  0  0
 76 39  1  0  0  0  0
 77 40  1  0  0  0  0
 82 48  1  0  0  0  0
 85 52  1  0  0  0  0
 87 52  1  0  0  0  0
 88  6  1  0  0  0  0
M  END
