91
-1 1
O        -1.403525    2.825252   -1.816325
C        -1.046234    3.343870   -0.767137
C        -2.056636    3.728835    0.313332
C        -2.039282    5.236065    0.656618
S        -3.182117    5.660621    2.020866
C        -0.441424    4.872256    4.444184
C         0.607669    4.048046    4.375588
C         1.199453    3.685668    3.056812
N         1.734008    2.424545    2.915765
C         2.097456    2.056708    1.551567
C         3.021184    0.853514    1.499502
N         2.461289   -0.258397    2.271816
C         2.280495    0.128228    3.679948
H         1.783502   -0.717577    4.169033
C         1.313746    1.311812    3.766052
C         3.617072    0.396250    4.366021
C         1.479361   -1.043437    1.714117
N         0.459041   -1.395952    2.429360
C        -0.641572   -2.037471    1.905847
O        -1.581880   -2.378624    2.581497
N        -0.663055   -2.257558    0.502723
C        -1.834233   -2.830896   -0.103864
C        -2.635411   -2.073805   -0.970456
C        -2.362153   -0.616267   -1.288072
C        -2.043234   -0.399655   -2.771333
C        -3.519785    0.278427   -0.836232
C        -3.724985   -2.731565   -1.558760
C        -4.013295   -4.064956   -1.294293
C        -3.206437   -4.792964   -0.420348
C        -2.114049   -4.171502    0.169401
C         1.610040   -1.506943    0.331996
C         0.454685   -2.054833   -0.256688
N         0.434302   -2.427520   -1.532123
C         1.513522   -2.378825   -2.318698
C         1.279241   -2.715159   -3.740012
C         0.179618   -3.540190   -4.110310
O        -0.714610   -4.014689   -3.250084
C         0.010430   -3.889323   -5.461522
C         0.851094   -3.387608   -6.439738
C         1.887343   -2.512592   -6.098066
C         2.089724   -2.192886   -4.764989
C         2.757711   -2.054557   -1.723249
Cl         4.301965   -2.273744   -2.516451
C         2.784792   -1.609647   -0.410006
O         1.212877    4.482863    2.127852
N        -1.938896    2.997469    1.562707
C        -1.598465    1.720368    1.777234
C        -2.105679    1.164150    3.096961
O        -0.940050    1.028920    0.995278
H        -3.038630    3.495216   -0.131205
N         0.240949    3.689153   -0.535157
C         1.272829    3.332481   -1.468337
H        -1.010000    5.520241    0.931231
H        -2.296489    5.783636   -0.263694
H         2.582194    2.920452    1.081307
H         1.180282    1.825217    0.980877
H         4.019811    1.085912    1.896427
H         3.149432    0.581379    0.448675
H         1.244700    1.640850    4.809583
H         0.324121    0.951233    3.458147
H         4.052746    1.361083    4.067568
H         4.338285   -0.403858    4.143738
H         3.465364    0.429860    5.454729
H        -1.493467   -0.285712   -0.704742
H        -2.918541   -0.609626   -3.408786
H        -1.222109   -1.052006   -3.103877
H        -1.748051    0.649175   -2.920994
H        -4.453542    0.044105   -1.374341
H        -3.257287    1.326271   -1.039745
H        -3.707866    0.163222    0.241748
H        -4.362622   -2.171720   -2.247109
H        -4.871159   -4.541131   -1.774773
H        -3.423476   -5.840793   -0.203304
H        -1.465234   -4.716258    0.856976
H        -0.607241   -3.526477   -2.401278
H        -0.829288   -4.541533   -5.706604
H         0.684480   -3.660046   -7.484794
H         2.528560   -2.079573   -6.867404
H         2.886658   -1.497078   -4.506918
H         3.744749   -1.366650    0.046366
H        -2.479581    3.516222    2.277315
H        -3.199883    1.060407    3.036149
H        -1.886651    1.853044    3.926812
H        -1.674574    0.174575    3.290474
H         0.507634    4.058665    0.377799
H         0.934855    3.525524   -2.496340
H         1.538047    2.259318   -1.411100
H         2.173002    3.930305   -1.267258
H         1.041620    3.620699    5.284157
H        -0.874895    5.131951    5.413959
H        -0.944688    5.285295    3.557801
