75
-1 1
O         3.138335    2.507819    0.437295
C         2.741679    1.551508    1.084713
C         1.255311    1.204546    1.228936
C         0.968276   -0.288557    1.018285
S         1.591800   -0.968951   -0.530455
C         3.081927   -2.585780    2.010688
C         2.809040   -2.927636    0.713782
C         2.093005   -2.818687    3.054319
N         2.298975   -2.220747    4.323751
C         3.285430   -1.323676    4.729788
C         2.929289   -0.100368    5.317760
C         3.923564    0.777872    5.741756
S         3.457529    2.361022    6.430773
O         4.631730    2.883915    7.121755
N         3.182543    3.357458    5.129455
C         1.895637    3.270683    4.434781
C         1.661010    4.556307    3.652604
N         2.789211    4.831208    2.784133
C         4.089354    4.834123    3.419414
C         4.306135    3.556307    4.216508
C         2.579837    5.177197    1.481626
O         3.736720    5.395445    0.833953
C         3.653354    5.445071   -0.585131
C         5.034622    5.212512   -1.135498
C         5.612431    3.941547   -1.016067
C         6.895764    3.708111   -1.502035
C         7.615529    4.736301   -2.115335
C         7.044709    6.000956   -2.239912
C         5.759507    6.236342   -1.747791
O         1.493841    5.306911    0.963420
O         2.184473    2.207863    7.124532
C         5.277769    0.488219    5.583958
C         5.627649   -0.730856    5.007626
C         4.650150   -1.631584    4.599157
O         1.062169   -3.454845    2.911745
N         0.472519    2.049678    0.372378
C        -0.425788    2.940285    0.851245
C        -1.077033    3.824871   -0.186751
O        -0.682402    3.051088    2.043844
H         0.949433    1.475021    2.252873
N         3.586854    0.752983    1.786571
C         5.007817    0.819956    1.552282
H         1.423717   -0.845880    1.861583
H        -0.117664   -0.435280    1.122558
H         1.428503   -2.201176    4.843450
H         1.876335    0.160215    5.444085
H         1.096206    3.132509    5.171505
H         1.895287    2.410624    3.742385
H         1.518881    5.390550    4.364455
H         0.756574    4.440595    3.041239
H         4.169137    5.699445    4.104087
H         4.864063    4.924909    2.651470
H         5.231812    3.640533    4.800703
H         4.387251    2.696696    3.525515
H         3.254364    6.422548   -0.900881
H         2.960527    4.659625   -0.918575
H         5.027237    3.149013   -0.539925
H         7.336264    2.712402   -1.408852
H         8.621405    4.548910   -2.499370
H         7.601518    6.809969   -2.719169
H         5.314198    7.231063   -1.840411
H         6.031044    1.194477    5.933661
H         6.681732   -0.994198    4.895855
H         4.932299   -2.601334    4.187448
H         0.669193    1.997164   -0.619285
H        -0.487152    4.752083   -0.224101
H        -2.097017    4.064704    0.138247
H        -1.098706    3.366294   -1.185513
H         3.221276   -0.159104    2.046507
H         5.278285    0.423215    0.557999
H         5.527524    0.241264    2.327942
H         5.347758    1.863996    1.603928
H         3.578343   -2.856453   -0.052865
H         1.934575   -3.539114    0.494156
H         4.011218   -2.065034    2.242381
