98
-1 1
O        -2.608394   -2.705474   -1.897184
C        -2.700504   -3.919791   -2.033368
C        -1.520415   -4.742191   -2.570757
C        -1.787548   -5.551249   -3.859171
S        -0.557764   -6.859329   -4.168897
C         1.092203   -5.947975   -4.356012
C         1.560686   -4.996095   -3.313256
C         1.321886   -3.632780   -3.593208
N         1.932921   -2.599342   -2.827771
C         1.440965   -1.262438   -3.006637
C         0.447976   -0.901857   -1.909994
N         1.064175   -1.074715   -0.590316
C         1.825595   -2.318009   -0.348993
H         2.535847   -2.089505    0.454149
C         2.638653   -2.741454   -1.587866
C         0.847360   -3.378635    0.142767
C         0.838471   -0.235829    0.439978
N         1.656851   -0.292764    1.479178
C        -0.303773    0.678284    0.433647
C        -1.623295    0.396234   -0.257643
C        -0.213533    1.708761    1.341507
N        -1.252027    2.625585    1.429586
C        -1.225702    3.848760    1.084182
C        -0.109396    4.580461    0.418458
C         0.286775    5.830807    0.917063
F        -0.280976    6.270612    2.044268
C         1.237519    6.630850    0.315414
C         1.815128    6.179401   -0.873090
C         1.461478    4.952586   -1.407482
C         0.515065    4.134834   -0.769455
O         0.220559    2.983223   -1.381333
C        -2.492484    4.609491    1.419846
Cl        -3.056869    5.662890    0.080567
N         0.795363    1.770580    2.264840
C         1.004661    2.920753    3.096547
C         0.172267    3.148049    4.204809
C        -0.868005    2.145009    4.642036
C        -0.277965    1.098553    5.592891
C         0.384659    4.303647    4.960839
C         1.406463    5.192448    4.641485
C         2.238817    4.930500    3.560305
C         2.052947    3.794165    2.768041
C         3.000865    3.518136    1.626200
C         4.333482    2.936407    2.107517
C         1.646540    0.624916    2.460775
O         2.334332    0.598784    3.465439
O         0.548203   -3.246456   -4.498321
N        -0.890392   -5.537234   -1.529335
C        -1.391438   -6.697832   -1.053323
C        -0.377834   -7.591903   -0.375232
O        -2.569657   -7.034388   -1.153155
H        -0.788722   -3.980870   -2.848719
N        -3.817759   -4.618549   -1.728038
C        -4.951315   -3.992258   -1.102247
H        -2.747912   -6.084834   -3.813060
H        -1.809152   -4.850528   -4.704937
H         0.935383   -1.218320   -3.978102
H         2.284426   -0.544593   -2.992917
H        -0.453530   -1.528541   -2.021848
H         0.160213    0.150167   -2.020068
H         2.970700   -3.777536   -1.447848
H         3.551302   -2.113880   -1.622231
H         0.029682   -3.528132   -0.572108
H         0.410683   -3.070041    1.104742
H         1.355142   -4.343836    0.289293
H        -1.750894    0.906062   -1.225467
H        -2.444246    0.732729    0.392042
H        -1.752501   -0.677150   -0.449765
H         1.506069    7.580898    0.776548
H         2.563162    6.794003   -1.378051
H         1.910513    4.575365   -2.326477
H         0.001251    2.267399   -0.754920
H        -2.323999    5.257265    2.287481
H        -3.282654    3.884648    1.636638
H        -1.313004    1.647342    3.769525
H        -1.691123    2.682591    5.140361
H         0.582002    0.594879    5.128232
H        -1.032799    0.344219    5.862000
H         0.078416    1.573944    6.519974
H        -0.260889    4.498464    5.821630
H         1.553811    6.094157    5.240279
H         3.045407    5.624203    3.307902
H         3.174809    4.458656    1.079083
H         2.539167    2.824654    0.909000
H         4.993603    2.720923    1.254022
H         4.165627    2.005555    2.667355
H         4.853301    3.644829    2.771552
H         0.130129   -5.489211   -1.658209
H         0.137458   -8.164495   -1.161709
H        -0.895878   -8.287248    0.295878
H         0.373573   -7.013644    0.180573
H        -3.676914   -5.630217   -1.629431
H        -4.972887   -2.932818   -1.388868
H        -4.903355   -4.043871    0.000258
H        -5.884021   -4.474983   -1.430276
H         1.005294   -5.443122   -5.328281
H         1.764487   -6.814587   -4.465650
H         2.350831   -5.320262   -2.631136
