-1 1
 OpenBabel05192410563D

 98101  0  0  1  0  0  0  0  0999 V2000
   -2.6084   -2.7055   -1.8972 O   0  0  0  0  0  0  0  0  0  0  0  0
   -2.7005   -3.9198   -2.0334 C   0  0  0  0  0  0  0  0  0  0  0  0
   -1.5204   -4.7422   -2.5708 C   0  0  2  0  0  0  0  0  0  0  0  0
   -1.7875   -5.5512   -3.8592 C   0  0  0  0  0  0  0  0  0  0  0  0
   -0.5578   -6.8593   -4.1689 S   0  0  0  0  0  0  0  0  0  0  0  0
    1.0922   -5.9480   -4.3560 C   0  0  0  0  0  0  0  0  0  0  0  0
    1.5607   -4.9961   -3.3133 C   0  0  0  0  0  3  0  0  0  0  0  0
    1.3219   -3.6328   -3.5932 C   0  0  0  0  0  0  0  0  0  0  0  0
    1.9329   -2.5993   -2.8278 N   0  0  0  0  0  0  0  0  0  0  0  0
    1.4410   -1.2624   -3.0066 C   0  0  0  0  0  0  0  0  0  0  0  0
    0.4480   -0.9019   -1.9100 C   0  0  0  0  0  0  0  0  0  0  0  0
    1.0642   -1.0747   -0.5903 N   0  0  0  0  0  0  0  0  0  0  0  0
    1.8256   -2.3180   -0.3490 C   0  0  2  0  0  0  0  0  0  0  0  0
    2.5358   -2.0895    0.4541 H   0  0  0  0  0  0  0  0  0  0  0  0
    2.6387   -2.7415   -1.5879 C   0  0  0  0  0  0  0  0  0  0  0  0
    0.8474   -3.3786    0.1428 C   0  0  0  0  0  0  0  0  0  0  0  0
    0.8385   -0.2358    0.4400 C   0  0  0  0  0  0  0  0  0  0  0  0
    1.6569   -0.2928    1.4792 N   0  0  0  0  0  0  0  0  0  0  0  0
   -0.3038    0.6783    0.4336 C   0  0  0  0  0  0  0  0  0  0  0  0
   -1.6233    0.3962   -0.2576 C   0  0  0  0  0  0  0  0  0  0  0  0
   -0.2135    1.7088    1.3415 C   0  0  0  0  0  0  0  0  0  0  0  0
   -1.2520    2.6256    1.4296 N   0  0  0  0  0  0  0  0  0  0  0  0
   -1.2257    3.8488    1.0842 C   0  0  0  0  0  0  0  0  0  0  0  0
   -0.1094    4.5805    0.4185 C   0  0  0  0  0  0  0  0  0  0  0  0
    0.2868    5.8308    0.9171 C   0  0  0  0  0  0  0  0  0  0  0  0
   -0.2810    6.2706    2.0443 F   0  0  0  0  0  0  0  0  0  0  0  0
    1.2375    6.6308    0.3154 C   0  0  0  0  0  0  0  0  0  0  0  0
    1.8151    6.1794   -0.8731 C   0  0  0  0  0  0  0  0  0  0  0  0
    1.4615    4.9526   -1.4075 C   0  0  0  0  0  0  0  0  0  0  0  0
    0.5151    4.1348   -0.7695 C   0  0  0  0  0  0  0  0  0  0  0  0
    0.2206    2.9832   -1.3813 O   0  0  0  0  0  0  0  0  0  0  0  0
   -2.4925    4.6095    1.4198 C   0  0  0  0  0  0  0  0  0  0  0  0
   -3.0569    5.6629    0.0806 Cl  0  0  0  0  0  0  0  0  0  0  0  0
    0.7954    1.7706    2.2648 N   0  0  0  0  0  0  0  0  0  0  0  0
    1.0047    2.9208    3.0965 C   0  0  0  0  0  0  0  0  0  0  0  0
    0.1723    3.1480    4.2048 C   0  0  0  0  0  0  0  0  0  0  0  0
   -0.8680    2.1450    4.6420 C   0  0  0  0  0  0  0  0  0  0  0  0
   -0.2780    1.0986    5.5929 C   0  0  0  0  0  0  0  0  0  0  0  0
    0.3847    4.3036    4.9608 C   0  0  0  0  0  0  0  0  0  0  0  0
    1.4065    5.1924    4.6415 C   0  0  0  0  0  0  0  0  0  0  0  0
    2.2388    4.9305    3.5603 C   0  0  0  0  0  0  0  0  0  0  0  0
    2.0529    3.7942    2.7680 C   0  0  0  0  0  0  0  0  0  0  0  0
    3.0009    3.5181    1.6262 C   0  0  0  0  0  0  0  0  0  0  0  0
    4.3335    2.9364    2.1075 C   0  0  0  0  0  0  0  0  0  0  0  0
    1.6465    0.6249    2.4608 C   0  0  0  0  0  0  0  0  0  0  0  0
    2.3343    0.5988    3.4654 O   0  0  0  0  0  0  0  0  0  0  0  0
    0.5482   -3.2465   -4.4983 O   0  0  0  0  0  0  0  0  0  0  0  0
   -0.8904   -5.5372   -1.5293 N   0  0  0  0  0  0  0  0  0  0  0  0
   -1.3914   -6.6978   -1.0533 C   0  0  0  0  0  0  0  0  0  0  0  0
   -0.3778   -7.5919   -0.3752 C   0  0  0  0  0  0  0  0  0  0  0  0
   -2.5697   -7.0344   -1.1532 O   0  0  0  0  0  0  0  0  0  0  0  0
   -0.7887   -3.9809   -2.8487 H   0  0  0  0  0  0  0  0  0  0  0  0
   -3.8178   -4.6185   -1.7280 N   0  0  0  0  0  0  0  0  0  0  0  0
   -4.9513   -3.9923   -1.1022 C   0  0  0  0  0  0  0  0  0  0  0  0
   -2.7479   -6.0848   -3.8131 H   0  0  0  0  0  0  0  0  0  0  0  0
   -1.8092   -4.8505   -4.7049 H   0  0  0  0  0  0  0  0  0  0  0  0
    0.9354   -1.2183   -3.9781 H   0  0  0  0  0  0  0  0  0  0  0  0
    2.2844   -0.5446   -2.9929 H   0  0  0  0  0  0  0  0  0  0  0  0
   -0.4535   -1.5285   -2.0218 H   0  0  0  0  0  0  0  0  0  0  0  0
    0.1602    0.1502   -2.0201 H   0  0  0  0  0  0  0  0  0  0  0  0
    2.9707   -3.7775   -1.4478 H   0  0  0  0  0  0  0  0  0  0  0  0
    3.5513   -2.1139   -1.6222 H   0  0  0  0  0  0  0  0  0  0  0  0
    0.0297   -3.5281   -0.5721 H   0  0  0  0  0  0  0  0  0  0  0  0
    0.4107   -3.0700    1.1047 H   0  0  0  0  0  0  0  0  0  0  0  0
    1.3551   -4.3438    0.2893 H   0  0  0  0  0  0  0  0  0  0  0  0
   -1.7509    0.9061   -1.2255 H   0  0  0  0  0  0  0  0  0  0  0  0
   -2.4442    0.7327    0.3920 H   0  0  0  0  0  0  0  0  0  0  0  0
   -1.7525   -0.6772   -0.4498 H   0  0  0  0  0  0  0  0  0  0  0  0
    1.5061    7.5809    0.7765 H   0  0  0  0  0  0  0  0  0  0  0  0
    2.5632    6.7940   -1.3781 H   0  0  0  0  0  0  0  0  0  0  0  0
    1.9105    4.5754   -2.3265 H   0  0  0  0  0  0  0  0  0  0  0  0
    0.0013    2.2674   -0.7549 H   0  0  0  0  0  0  0  0  0  0  0  0
   -2.3240    5.2573    2.2875 H   0  0  0  0  0  0  0  0  0  0  0  0
   -3.2827    3.8846    1.6366 H   0  0  0  0  0  0  0  0  0  0  0  0
   -1.3130    1.6473    3.7695 H   0  0  0  0  0  0  0  0  0  0  0  0
   -1.6911    2.6826    5.1404 H   0  0  0  0  0  0  0  0  0  0  0  0
    0.5820    0.5949    5.1282 H   0  0  0  0  0  0  0  0  0  0  0  0
   -1.0328    0.3442    5.8620 H   0  0  0  0  0  0  0  0  0  0  0  0
    0.0784    1.5739    6.5200 H   0  0  0  0  0  0  0  0  0  0  0  0
   -0.2609    4.4985    5.8216 H   0  0  0  0  0  0  0  0  0  0  0  0
    1.5538    6.0942    5.2403 H   0  0  0  0  0  0  0  0  0  0  0  0
    3.0454    5.6242    3.3079 H   0  0  0  0  0  0  0  0  0  0  0  0
    3.1748    4.4587    1.0791 H   0  0  0  0  0  0  0  0  0  0  0  0
    2.5392    2.8247    0.9090 H   0  0  0  0  0  0  0  0  0  0  0  0
    4.9936    2.7209    1.2540 H   0  0  0  0  0  0  0  0  0  0  0  0
    4.1656    2.0056    2.6674 H   0  0  0  0  0  0  0  0  0  0  0  0
    4.8533    3.6448    2.7716 H   0  0  0  0  0  0  0  0  0  0  0  0
    0.1301   -5.4892   -1.6582 H   0  0  0  0  0  0  0  0  0  0  0  0
    0.1375   -8.1645   -1.1617 H   0  0  0  0  0  0  0  0  0  0  0  0
   -0.8959   -8.2872    0.2959 H   0  0  0  0  0  0  0  0  0  0  0  0
    0.3736   -7.0136    0.1806 H   0  0  0  0  0  0  0  0  0  0  0  0
   -3.6769   -5.6302   -1.6294 H   0  0  0  0  0  0  0  0  0  0  0  0
   -4.9729   -2.9328   -1.3889 H   0  0  0  0  0  0  0  0  0  0  0  0
   -4.9034   -4.0439    0.0003 H   0  0  0  0  0  0  0  0  0  0  0  0
   -5.8840   -4.4750   -1.4303 H   0  0  0  0  0  0  0  0  0  0  0  0
    1.0053   -5.4431   -5.3283 H   0  0  0  0  0  0  0  0  0  0  0  0
    1.7645   -6.8146   -4.4657 H   0  0  0  0  0  0  0  0  0  0  0  0
    2.3508   -5.3203   -2.6311 H   0  0  0  0  0  0  0  0  0  0  0  0
  2  1  2  0  0  0  0
  2 53  1  0  0  0  0
  3 52  1  6  0  0  0
  3  2  1  0  0  0  0
  3 48  1  0  0  0  0
  4 55  1  0  0  0  0
  4  3  1  0  0  0  0
  5  4  1  0  0  0  0
  6  5  1  0  0  0  0
  6  7  1  0  0  0  0
  7 98  1  0  0  0  0
  8  7  1  0  0  0  0
  8  9  1  0  0  0  0
  9 15  1  0  0  0  0
 10 58  1  0  0  0  0
 10  9  1  0  0  0  0
 10 11  1  0  0  0  0
 11 12  1  0  0  0  0
 12 13  1  0  0  0  0
 12 17  1  0  0  0  0
 13 16  1  0  0  0  0
 13 14  1  1  0  0  0
 15 61  1  0  0  0  0
 15 13  1  0  0  0  0
 16 65  1  0  0  0  0
 16 64  1  0  0  0  0
 17 18  2  0  0  0  0
 18 45  1  0  0  0  0
 19 17  1  0  0  0  0
 19 21  2  0  0  0  0
 20 67  1  0  0  0  0
 20 19  1  0  0  0  0
 21 22  1  0  0  0  0
 21 34  1  0  0  0  0
 23 32  1  0  0  0  0
 23 22  2  0  0  0  0
 24 25  1  0  0  0  0
 24 23  1  0  0  0  0
 25 26  1  0  0  0  0
 27 69  1  0  0  0  0
 27 25  2  0  0  0  0
 28 27  1  0  0  0  0
 29 28  2  0  0  0  0
 29 30  1  0  0  0  0
 30 24  2  0  0  0  0
 31 30  1  0  0  0  0
 31 72  1  0  0  0  0
 32 74  1  0  0  0  0
 32 73  1  0  0  0  0
 33 32  1  0  0  0  0
 34 45  1  0  0  0  0
 34 35  1  0  0  0  0
 35 36  1  0  0  0  0
 36 37  1  0  0  0  0
 36 39  2  0  0  0  0
 37 76  1  0  0  0  0
 37 38  1  0  0  0  0
 38 78  1  0  0  0  0
 38 79  1  0  0  0  0
 39 80  1  0  0  0  0
 40 39  1  0  0  0  0
 40 81  1  0  0  0  0
 41 40  2  0  0  0  0
 42 35  2  0  0  0  0
 42 41  1  0  0  0  0
 43 44  1  0  0  0  0
 43 42  1  0  0  0  0
 44 86  1  0  0  0  0
 44 87  1  0  0  0  0
 45 46  2  0  0  0  0
 47  8  2  0  0  0  0
 48 49  1  0  0  0  0
 49 50  1  0  0  0  0
 50 91  1  0  0  0  0
 50 90  1  0  0  0  0
 51 49  2  0  0  0  0
 53 92  1  0  0  0  0
 53 54  1  0  0  0  0
 54 94  1  0  0  0  0
 56  4  1  0  0  0  0
 57 10  1  0  0  0  0
 59 11  1  0  0  0  0
 60 11  1  0  0  0  0
 62 15  1  0  0  0  0
 63 16  1  0  0  0  0
 66 20  1  0  0  0  0
 68 20  1  0  0  0  0
 70 28  1  0  0  0  0
 71 29  1  0  0  0  0
 75 37  1  0  0  0  0
 77 38  1  0  0  0  0
 82 41  1  0  0  0  0
 83 43  1  0  0  0  0
 84 43  1  0  0  0  0
 85 44  1  0  0  0  0
 88 48  1  0  0  0  0
 89 50  1  0  0  0  0
 93 54  1  0  0  0  0
 95 54  1  0  0  0  0
 96  6  1  0  0  0  0
 97  6  1  0  0  0  0
M  END
