98
-1 1
O        -1.872446   -2.887192   -1.699531
C        -2.473866   -3.856807   -2.148533
C        -1.727170   -5.061923   -2.727474
C        -2.550347   -6.135014   -3.458145
S        -1.499473   -7.510487   -4.058672
C         1.657848   -5.981353   -4.105356
C         2.097339   -4.963840   -3.356560
C         1.657754   -3.575930   -3.676771
N         2.164111   -2.532453   -2.927805
C         1.576782   -1.221532   -3.104727
C         0.580974   -0.945475   -1.985821
N         1.218281   -1.114389   -0.677394
C         2.030553   -2.325992   -0.468810
H         2.690317   -2.105832    0.378730
C         2.912502   -2.600742   -1.691581
C         1.123876   -3.503396   -0.125265
C         0.973587   -0.295982    0.371515
N         1.832391   -0.307608    1.375277
C        -0.220062    0.542763    0.404972
C        -1.531440    0.191955   -0.269593
C        -0.172818    1.562251    1.330228
N        -1.261765    2.411735    1.453890
C        -1.322621    3.637802    1.123862
C        -0.269431    4.448363    0.446085
C         0.056256    5.714063    0.956978
F        -0.514325    6.098939    2.102076
C         0.940683    6.582668    0.349120
C         1.520749    6.187199   -0.857754
C         1.235948    4.947626   -1.404218
C         0.358100    4.061464   -0.760270
O         0.127685    2.900059   -1.383145
C        -2.629475    4.310510    1.492227
Cl        -3.281588    5.343055    0.177368
N         0.850531    1.671326    2.231808
C         1.002860    2.818810    3.080853
C         0.183411    2.969098    4.211437
C        -0.776268    1.890223    4.652343
C        -0.094363    0.867561    5.566911
C         0.335699    4.123553    4.983550
C         1.287016    5.085061    4.657166
C         2.109052    4.898978    3.552632
C         1.981586    3.766293    2.743953
C         2.917762    3.576236    1.575017
C         4.302057    3.089399    2.013689
C         1.786158    0.588057    2.379419
O         2.507520    0.590825    3.359062
O         0.879422   -3.354157   -4.591328
N        -0.908461   -5.668579   -1.692064
C        -1.424713   -6.004933   -0.481429
C        -0.602552   -7.022390    0.285724
O        -2.456589   -5.533935   -0.029072
H        -1.028844   -4.619920   -3.458290
N        -3.823096   -3.877380   -2.238760
C        -4.617257   -2.875783   -1.577765
H        -3.313519   -6.533713   -2.762449
H        -3.079107   -5.654237   -4.298303
H         1.058015   -1.200064   -4.069285
H         2.381359   -0.465195   -3.105415
H        -0.278829   -1.624441   -2.095741
H         0.238166    0.091586   -2.076055
H         3.400096   -3.573825   -1.571609
H         3.713929   -1.842661   -1.738188
H         0.406755   -3.728044   -0.927236
H         0.544372   -3.283415    0.783035
H         1.726252   -4.405457    0.064867
H        -1.711390    0.723332   -1.218056
H        -2.358888    0.455793    0.404952
H        -1.593213   -0.883043   -0.489551
H         1.156782    7.541453    0.819597
H         2.216214    6.856563   -1.368117
H         1.688890    4.614549   -2.338224
H        -0.044646    2.167519   -0.762127
H        -2.488308    4.955414    2.366835
H        -3.367787    3.533490    1.711280
H        -1.209797    1.380274    3.781057
H        -1.620214    2.361713    5.181459
H         0.784618    0.429886    5.072191
H        -0.790719    0.059949    5.838272
H         0.253548    1.347888    6.494577
H        -0.300509    4.259465    5.862330
H         1.387429    5.984284    5.269162
H         2.860414    5.650347    3.295058
H         3.006619    4.534208    1.037760
H         2.490047    2.860128    0.858803
H         4.955135    2.938886    1.140963
H         4.219117    2.139584    2.560572
H         4.783755    3.824233    2.677593
H        -0.276528   -6.351365   -2.114827
H        -0.847186   -8.025988   -0.095820
H        -0.861743   -6.967241    1.349833
H         0.476371   -6.862053    0.149368
H        -4.240501   -4.781422   -2.417567
H        -4.197809   -1.881635   -1.783130
H        -4.626722   -3.020170   -0.483222
H        -5.648890   -2.911639   -1.954688
H         0.973766   -5.814395   -4.939851
H         1.939045   -7.013839   -3.890425
H         2.750767   -5.152784   -2.503592
