-1 1
 OpenBabel05232414493D

 78 79  0  0  1  0  0  0  0  0999 V2000
    3.6850   -0.7026   -1.9316 O   0  0  0  0  0  0  0  0  0  0  0  0
    2.5521   -0.2532   -1.9916 C   0  0  0  0  0  0  0  0  0  0  0  0
    1.3975   -0.7437   -1.0909 C   0  0  2  0  0  0  0  0  0  0  0  0
    1.9043   -1.6859    0.0191 C   0  0  0  0  0  0  0  0  0  0  0  0
    0.6410   -2.7992    0.7347 S   0  0  0  0  0  1  0  0  0  0  0  0
   -1.0386   -1.0496    1.3466 C   0  0  0  0  0  3  0  0  0  0  0  0
   -1.1422   -0.7048    2.6777 C   0  0  0  0  0  3  0  0  0  0  0  0
   -0.1867    0.0414    3.4550 C   0  0  0  0  0  0  0  0  0  0  0  0
    0.8884    0.7263    2.7975 N   0  0  0  0  0  0  0  0  0  0  0  0
    0.9524    1.5206    1.6833 C   0  0  0  0  0  0  0  0  0  0  0  0
    2.2233    1.9074    1.2031 C   0  0  0  0  0  0  0  0  0  0  0  0
    2.3536    2.7123    0.0846 C   0  0  0  0  0  0  0  0  0  0  0  0
    1.2106    3.1463   -0.5875 C   0  0  0  0  0  0  0  0  0  0  0  0
    1.3782    4.1786   -2.0076 S   0  0  0  0  0  0  0  0  0  0  0  0
    0.7199    3.6098   -3.1821 O   0  0  0  0  0  0  0  0  0  0  0  0
    0.4395    5.5009   -1.5632 N   0  0  0  0  0  0  0  0  0  0  0  0
    0.9181    6.2393   -0.3951 C   0  0  0  0  0  0  0  0  0  0  0  0
   -0.2327    6.6495    0.5242 C   0  0  0  0  0  0  0  0  0  0  0  0
   -0.9223    7.9644    0.1262 C   0  0  0  0  0  0  0  0  0  0  0  0
   -0.9376    8.1945   -1.3103 N   0  0  0  0  0  0  0  0  0  0  0  0
   -1.3525    7.1025   -2.1811 C   0  0  0  0  0  0  0  0  0  0  0  0
   -0.1774    6.2469   -2.6534 C   0  0  0  0  0  0  0  0  0  0  0  0
   -0.3092    9.2392   -1.9130 C   0  0  0  0  0  0  0  0  0  0  0  0
    0.2183   10.1235   -1.0327 O   0  0  0  0  0  0  0  0  0  0  0  0
    1.4518   10.7129   -1.4516 C   0  0  0  0  0  0  0  0  0  0  0  0
    2.5522    9.6840   -1.3570 C   0  0  0  0  0  0  0  0  0  0  0  0
    3.1723    9.4285   -0.1293 C   0  0  0  0  0  0  0  0  0  0  0  0
    4.0727    8.3725    0.0043 C   0  0  0  0  0  0  0  0  0  0  0  0
    4.3527    7.5516   -1.0878 C   0  0  0  0  0  0  0  0  0  0  0  0
    3.7483    7.8041   -2.3183 C   0  0  0  0  0  0  0  0  0  0  0  0
    2.8592    8.8689   -2.4540 C   0  0  0  0  0  0  0  0  0  0  0  0
   -0.2089    9.3717   -3.1145 O   0  0  0  0  0  0  0  0  0  0  0  0
    2.7923    4.5530   -2.1239 O   0  0  0  0  0  0  0  0  0  0  0  0
   -0.0588    2.7750   -0.1352 C   0  0  0  0  0  0  0  0  0  0  0  0
   -0.1906    1.9899    0.9974 C   0  0  0  0  0  0  0  0  0  0  0  0
   -0.1538    0.0614    4.6773 O   0  0  0  0  0  0  0  0  0  0  0  0
    0.3444   -1.3936   -1.8550 N   0  0  0  0  0  0  0  0  0  0  0  0
   -0.6748   -0.7034   -2.4071 C   0  0  0  0  0  0  0  0  0  0  0  0
   -1.8906   -1.5273   -2.7813 C   0  0  0  0  0  0  0  0  0  0  0  0
   -0.6552    0.5103   -2.5865 O   0  0  0  0  0  0  0  0  0  0  0  0
    0.9661    0.1679   -0.6484 H   0  0  0  0  0  0  0  0  0  0  0  0
    2.2030    0.7452   -2.8345 N   0  0  0  0  0  0  0  0  0  0  0  0
    3.1512    1.3115   -3.7580 C   0  0  0  0  0  0  0  0  0  0  0  0
    2.7192   -2.2955   -0.3955 H   0  0  0  0  0  0  0  0  0  0  0  0
    2.3527   -1.0588    0.8041 H   0  0  0  0  0  0  0  0  0  0  0  0
    1.6960    0.7666    3.4084 H   0  0  0  0  0  0  0  0  0  0  0  0
    3.1173    1.5395    1.7113 H   0  0  0  0  0  0  0  0  0  0  0  0
    3.3390    2.9958   -0.2876 H   0  0  0  0  0  0  0  0  0  0  0  0
    1.5176    7.1139   -0.7023 H   0  0  0  0  0  0  0  0  0  0  0  0
    1.5950    5.5793    0.1626 H   0  0  0  0  0  0  0  0  0  0  0  0
    0.1458    6.7643    1.5516 H   0  0  0  0  0  0  0  0  0  0  0  0
   -0.9501    5.8154    0.5528 H   0  0  0  0  0  0  0  0  0  0  0  0
   -0.4017    8.8134    0.5794 H   0  0  0  0  0  0  0  0  0  0  0  0
   -1.9569    7.9751    0.5105 H   0  0  0  0  0  0  0  0  0  0  0  0
   -1.8450    7.5264   -3.0662 H   0  0  0  0  0  0  0  0  0  0  0  0
   -2.0861    6.4869   -1.6404 H   0  0  0  0  0  0  0  0  0  0  0  0
    0.5500    6.9082   -3.1578 H   0  0  0  0  0  0  0  0  0  0  0  0
   -0.5386    5.5195   -3.3916 H   0  0  0  0  0  0  0  0  0  0  0  0
    1.6197   11.5480   -0.7595 H   0  0  0  0  0  0  0  0  0  0  0  0
    1.3455   11.1015   -2.4740 H   0  0  0  0  0  0  0  0  0  0  0  0
    2.9328   10.0537    0.7358 H   0  0  0  0  0  0  0  0  0  0  0  0
    4.5438    8.1774    0.9704 H   0  0  0  0  0  0  0  0  0  0  0  0
    5.0251    6.6988   -0.9802 H   0  0  0  0  0  0  0  0  0  0  0  0
    3.9459    7.1434   -3.1639 H   0  0  0  0  0  0  0  0  0  0  0  0
    2.3586    9.0501   -3.4077 H   0  0  0  0  0  0  0  0  0  0  0  0
   -0.9468    3.1081   -0.6745 H   0  0  0  0  0  0  0  0  0  0  0  0
   -1.1795    1.7079    1.3583 H   0  0  0  0  0  0  0  0  0  0  0  0
    0.1378   -2.3270   -1.4776 H   0  0  0  0  0  0  0  0  0  0  0  0
   -2.6535   -1.3892   -2.0000 H   0  0  0  0  0  0  0  0  0  0  0  0
   -1.6695   -2.5996   -2.8672 H   0  0  0  0  0  0  0  0  0  0  0  0
   -2.3015   -1.1491   -3.7261 H   0  0  0  0  0  0  0  0  0  0  0  0
    1.2227    1.0345   -2.8615 H   0  0  0  0  0  0  0  0  0  0  0  0
    2.6920    2.1804   -4.2447 H   0  0  0  0  0  0  0  0  0  0  0  0
    3.4623    0.5829   -4.5268 H   0  0  0  0  0  0  0  0  0  0  0  0
    4.0589    1.6411   -3.2296 H   0  0  0  0  0  0  0  0  0  0  0  0
   -1.8618   -1.2302    3.3098 H   0  0  0  0  0  0  0  0  0  0  0  0
   -0.4927   -0.4375    0.6344 H   0  0  0  0  0  0  0  0  0  0  0  0
   -1.8332   -1.6497    0.9009 H   0  0  0  0  0  0  0  0  0  0  0  0
  2  1  2  0  0  0  0
  2  3  1  0  0  0  0
  3 41  1  1  0  0  0
  3  4  1  0  0  0  0
  4  5  1  0  0  0  0
  4 45  1  0  0  0  0
  6  7  1  0  0  0  0
  7 76  1  0  0  0  0
  7  8  1  0  0  0  0
  8 36  2  0  0  0  0
  9 46  1  0  0  0  0
  9  8  1  0  0  0  0
 10  9  1  0  0  0  0
 11 10  1  0  0  0  0
 11 47  1  0  0  0  0
 12 11  2  0  0  0  0
 13 34  2  0  0  0  0
 13 12  1  0  0  0  0
 14 16  1  0  0  0  0
 14 13  1  0  0  0  0
 15 14  2  0  0  0  0
 16 17  1  0  0  0  0
 17 50  1  0  0  0  0
 17 18  1  0  0  0  0
 18 52  1  0  0  0  0
 18 51  1  0  0  0  0
 19 54  1  0  0  0  0
 19 18  1  0  0  0  0
 19 53  1  0  0  0  0
 20 19  1  0  0  0  0
 21 56  1  0  0  0  0
 21 20  1  0  0  0  0
 22 21  1  0  0  0  0
 22 16  1  0  0  0  0
 23 20  1  0  0  0  0
 23 24  1  0  0  0  0
 25 26  1  0  0  0  0
 25 24  1  0  0  0  0
 25 59  1  0  0  0  0
 26 27  1  0  0  0  0
 27 28  2  0  0  0  0
 27 61  1  0  0  0  0
 28 62  1  0  0  0  0
 29 63  1  0  0  0  0
 29 28  1  0  0  0  0
 30 29  2  0  0  0  0
 31 30  1  0  0  0  0
 31 26  2  0  0  0  0
 32 23  2  0  0  0  0
 33 14  2  0  0  0  0
 34 35  1  0  0  0  0
 35 67  1  0  0  0  0
 35 10  2  0  0  0  0
 37 68  1  0  0  0  0
 37  3  1  0  0  0  0
 38 37  1  0  0  0  0
 39 38  1  0  0  0  0
 39 69  1  0  0  0  0
 40 38  2  0  0  0  0
 42  2  1  0  0  0  0
 43 75  1  0  0  0  0
 43 42  1  0  0  0  0
 44  4  1  0  0  0  0
 48 12  1  0  0  0  0
 49 17  1  0  0  0  0
 55 21  1  0  0  0  0
 57 22  1  0  0  0  0
 58 22  1  0  0  0  0
 60 25  1  0  0  0  0
 64 30  1  0  0  0  0
 65 31  1  0  0  0  0
 66 34  1  0  0  0  0
 70 39  1  0  0  0  0
 71 39  1  0  0  0  0
 72 42  1  0  0  0  0
 73 43  1  0  0  0  0
 74 43  1  0  0  0  0
 77  6  1  0  0  0  0
 78  6  1  0  0  0  0
M  END
