-1 1
 OpenBabel05232413483D

 78 79  0  0  1  0  0  0  0  0999 V2000
    2.6474   -2.9007   -1.8897 O   0  0  0  0  0  0  0  0  0  0  0  0
    1.4623   -3.0485   -1.6449 C   0  0  0  0  0  0  0  0  0  0  0  0
    0.9509   -3.7772   -0.3856 C   0  0  2  0  0  0  0  0  0  0  0  0
    2.0392   -3.8864    0.6836 C   0  0  0  0  0  0  0  0  0  0  0  0
    1.4887   -4.7939    2.1722 S   0  0  0  0  0  1  0  0  0  0  0  0
   -2.3382   -4.7534    1.6806 C   0  0  0  0  0  0  0  0  0  0  0  0
   -2.9356   -4.2792    2.7750 C   0  0  0  0  0  0  0  0  0  0  0  0
   -2.1596   -3.6552    3.8870 C   0  0  0  0  0  0  0  0  0  0  0  0
   -1.1742   -2.7306    3.5654 N   0  0  0  0  0  0  0  0  0  0  0  0
   -1.0122   -1.9350    2.4395 C   0  0  0  0  0  0  0  0  0  0  0  0
    0.2781   -1.4923    2.1063 C   0  0  0  0  0  0  0  0  0  0  0  0
    0.4825   -0.6764    1.0018 C   0  0  0  0  0  0  0  0  0  0  0  0
   -0.6075   -0.2926    0.2205 C   0  0  0  0  0  0  0  0  0  0  0  0
   -0.3818    0.7586   -1.1811 S   0  0  0  0  0  0  0  0  0  0  0  0
   -1.2992    0.3788   -2.2543 O   0  0  0  0  0  0  0  0  0  0  0  0
   -0.9738    2.2319   -0.5970 N   0  0  0  0  0  0  0  0  0  0  0  0
   -0.2065    2.8032    0.5110 C   0  0  0  0  0  0  0  0  0  0  0  0
   -1.1174    3.4921    1.5277 C   0  0  0  0  0  0  0  0  0  0  0  0
   -1.4517    4.9537    1.1918 C   0  0  0  0  0  0  0  0  0  0  0  0
   -1.5375    5.2080   -0.2377 N   0  0  0  0  0  0  0  0  0  0  0  0
   -2.3038    4.2811   -1.0589 C   0  0  0  0  0  0  0  0  0  0  0  0
   -1.4504    3.1485   -1.6289 C   0  0  0  0  0  0  0  0  0  0  0  0
   -0.7086    6.0589   -0.9016 C   0  0  0  0  0  0  0  0  0  0  0  0
    0.1015    6.7625   -0.0764 O   0  0  0  0  0  0  0  0  0  0  0  0
    1.4121    7.0070   -0.5955 C   0  0  0  0  0  0  0  0  0  0  0  0
    2.2039    5.7224   -0.5792 C   0  0  0  0  0  0  0  0  0  0  0  0
    2.8139    5.2869    0.6022 C   0  0  0  0  0  0  0  0  0  0  0  0
    3.4156    4.0308    0.6679 C   0  0  0  0  0  0  0  0  0  0  0  0
    3.4036    3.1915   -0.4459 C   0  0  0  0  0  0  0  0  0  0  0  0
    2.8067    3.6201   -1.6306 C   0  0  0  0  0  0  0  0  0  0  0  0
    2.2155    4.8804   -1.6984 C   0  0  0  0  0  0  0  0  0  0  0  0
   -0.6794    6.1758   -2.1084 O   0  0  0  0  0  0  0  0  0  0  0  0
    1.0496    0.8632   -1.4644 O   0  0  0  0  0  0  0  0  0  0  0  0
   -1.8985   -0.7083    0.5453 C   0  0  0  0  0  0  0  0  0  0  0  0
   -2.1014   -1.5111    1.6562 C   0  0  0  0  0  0  0  0  0  0  0  0
   -2.3257   -3.9950    5.0389 O   0  0  0  0  0  0  0  0  0  0  0  0
    0.4685   -5.1175   -0.6946 N   0  0  0  0  0  0  0  0  0  0  0  0
   -0.7678   -5.3608   -1.1757 C   0  0  0  0  0  0  0  0  0  0  0  0
   -1.2029   -6.8122   -1.0874 C   0  0  0  0  0  0  0  0  0  0  0  0
   -1.5039   -4.4979   -1.6456 O   0  0  0  0  0  0  0  0  0  0  0  0
    0.0993   -3.1972    0.0097 H   0  0  0  0  0  0  0  0  0  0  0  0
    0.4720   -2.5504   -2.4282 N   0  0  0  0  0  0  0  0  0  0  0  0
    0.7525   -1.8861   -3.6735 C   0  0  0  0  0  0  0  0  0  0  0  0
    2.9150   -4.3690    0.2220 H   0  0  0  0  0  0  0  0  0  0  0  0
    2.3658   -2.8632    0.9236 H   0  0  0  0  0  0  0  0  0  0  0  0
   -0.3859   -2.7650    4.2037 H   0  0  0  0  0  0  0  0  0  0  0  0
    1.1255   -1.8649    2.6846 H   0  0  0  0  0  0  0  0  0  0  0  0
    1.4900   -0.3691    0.7153 H   0  0  0  0  0  0  0  0  0  0  0  0
    0.5743    3.4902    0.1395 H   0  0  0  0  0  0  0  0  0  0  0  0
    0.3174    1.9827    1.0162 H   0  0  0  0  0  0  0  0  0  0  0  0
   -0.6346    3.4759    2.5171 H   0  0  0  0  0  0  0  0  0  0  0  0
   -2.0311    2.8853    1.6197 H   0  0  0  0  0  0  0  0  0  0  0  0
   -0.6763    5.6165    1.5874 H   0  0  0  0  0  0  0  0  0  0  0  0
   -2.4020    5.2405    1.6749 H   0  0  0  0  0  0  0  0  0  0  0  0
   -2.7384    4.8361   -1.9009 H   0  0  0  0  0  0  0  0  0  0  0  0
   -3.1268    3.8773   -0.4511 H   0  0  0  0  0  0  0  0  0  0  0  0
   -0.6134    3.5997   -2.1922 H   0  0  0  0  0  0  0  0  0  0  0  0
   -2.0568    2.5684   -2.3363 H   0  0  0  0  0  0  0  0  0  0  0  0
    1.8482    7.7590    0.0745 H   0  0  0  0  0  0  0  0  0  0  0  0
    1.3339    7.4232   -1.6095 H   0  0  0  0  0  0  0  0  0  0  0  0
    2.8032    5.9336    1.4845 H   0  0  0  0  0  0  0  0  0  0  0  0
    3.8825    3.6982    1.5978 H   0  0  0  0  0  0  0  0  0  0  0  0
    3.8405    2.1928   -0.3914 H   0  0  0  0  0  0  0  0  0  0  0  0
    2.7731    2.9505   -2.4912 H   0  0  0  0  0  0  0  0  0  0  0  0
    1.7185    5.2067   -2.6148 H   0  0  0  0  0  0  0  0  0  0  0  0
   -2.7425   -0.3994   -0.0735 H   0  0  0  0  0  0  0  0  0  0  0  0
   -3.1126   -1.8237    1.9113 H   0  0  0  0  0  0  0  0  0  0  0  0
    0.8501   -5.8053   -0.0384 H   0  0  0  0  0  0  0  0  0  0  0  0
   -2.1740   -6.9262   -1.5831 H   0  0  0  0  0  0  0  0  0  0  0  0
   -1.2879   -7.1122   -0.0312 H   0  0  0  0  0  0  0  0  0  0  0  0
   -0.4624   -7.4723   -1.5620 H   0  0  0  0  0  0  0  0  0  0  0  0
   -0.4702   -2.8906   -2.2351 H   0  0  0  0  0  0  0  0  0  0  0  0
   -0.0530   -1.1748   -3.8986 H   0  0  0  0  0  0  0  0  0  0  0  0
    0.8580   -2.5958   -4.5148 H   0  0  0  0  0  0  0  0  0  0  0  0
    1.6958   -1.3336   -3.5744 H   0  0  0  0  0  0  0  0  0  0  0  0
   -3.9955   -4.4525    2.9848 H   0  0  0  0  0  0  0  0  0  0  0  0
   -1.2518   -4.6428    1.5380 H   0  0  0  0  0  0  0  0  0  0  0  0
   -2.9058   -5.2925    0.9180 H   0  0  0  0  0  0  0  0  0  0  0  0
  1  2  2  0  0  0  0
  2  3  1  0  0  0  0
  3 41  1  1  0  0  0
  3  4  1  0  0  0  0
  4 45  1  0  0  0  0
  4  5  1  0  0  0  0
  6  7  2  0  0  0  0
  7 76  1  0  0  0  0
  7  8  1  0  0  0  0
  8 36  2  0  0  0  0
  9  8  1  0  0  0  0
  9 46  1  0  0  0  0
 10  9  1  0  0  0  0
 11 10  1  0  0  0  0
 11 47  1  0  0  0  0
 12 11  2  0  0  0  0
 13 34  2  0  0  0  0
 13 12  1  0  0  0  0
 14 16  1  0  0  0  0
 14 13  1  0  0  0  0
 15 14  2  0  0  0  0
 16 17  1  0  0  0  0
 17 50  1  0  0  0  0
 17 18  1  0  0  0  0
 18 52  1  0  0  0  0
 18 51  1  0  0  0  0
 19 18  1  0  0  0  0
 19 53  1  0  0  0  0
 19 54  1  0  0  0  0
 20 19  1  0  0  0  0
 21 56  1  0  0  0  0
 21 20  1  0  0  0  0
 22 21  1  0  0  0  0
 22 16  1  0  0  0  0
 23 20  1  0  0  0  0
 23 24  1  0  0  0  0
 25 26  1  0  0  0  0
 25 24  1  0  0  0  0
 25 59  1  0  0  0  0
 26 27  1  0  0  0  0
 27 28  2  0  0  0  0
 27 61  1  0  0  0  0
 28 62  1  0  0  0  0
 29 63  1  0  0  0  0
 29 28  1  0  0  0  0
 30 29  2  0  0  0  0
 31 30  1  0  0  0  0
 31 26  2  0  0  0  0
 32 23  2  0  0  0  0
 33 14  2  0  0  0  0
 34 35  1  0  0  0  0
 35 67  1  0  0  0  0
 35 10  2  0  0  0  0
 37  3  1  0  0  0  0
 37 68  1  0  0  0  0
 38 39  1  0  0  0  0
 38 37  1  0  0  0  0
 39 70  1  0  0  0  0
 40 38  2  0  0  0  0
 42 72  1  0  0  0  0
 42  2  1  0  0  0  0
 43 75  1  0  0  0  0
 43 42  1  0  0  0  0
 44  4  1  0  0  0  0
 48 12  1  0  0  0  0
 49 17  1  0  0  0  0
 55 21  1  0  0  0  0
 57 22  1  0  0  0  0
 58 22  1  0  0  0  0
 60 25  1  0  0  0  0
 64 30  1  0  0  0  0
 65 31  1  0  0  0  0
 66 34  1  0  0  0  0
 69 39  1  0  0  0  0
 71 39  1  0  0  0  0
 73 43  1  0  0  0  0
 74 43  1  0  0  0  0
 77  6  1  0  0  0  0
 78  6  1  0  0  0  0
M  END
