94
-1 1
O        -2.633241   -0.083242   -3.250190
C        -2.210101   -1.225537   -3.165854
C        -2.561324   -2.161027   -2.011782
C        -3.913268   -2.860561   -2.274540
S        -4.506421   -3.818081   -0.839309
C        -2.136737   -6.033130   -2.094507
C        -0.868683   -5.753624   -1.784269
C        -0.118451   -4.727867   -2.555868
N         0.770064   -3.944572   -1.857270
C         0.542584   -3.643955   -0.448468
C         1.763132   -3.037357    0.244220
N         2.426370   -2.017657   -0.556746
C         2.750834   -2.501598   -1.908473
H         3.166111   -1.641757   -2.443551
C         1.445170   -2.883001   -2.597309
C         3.776528   -3.630360   -1.879947
C         2.299333   -0.671520   -0.382377
N         2.560139    0.110405   -1.388355
C         2.325738    1.457072   -1.380727
O         2.703971    2.212258   -2.247392
N         1.550881    1.963769   -0.304783
C         1.097813    3.326804   -0.354734
C        -0.140149    3.617174   -0.941615
C        -0.962872    2.547219   -1.630780
C        -2.448061    2.584819   -1.263378
C        -0.763175    2.635929   -3.150238
C        -0.559779    4.953291   -0.927752
C         0.224448    5.949495   -0.359968
C         1.462660    5.635291    0.195810
C         1.922750    4.319176    0.199537
C         3.263329    3.962109    0.782528
C         1.908585   -0.083489    0.906865
C         1.402089    1.235941    0.844458
N         0.832732    1.817884    1.894545
C         0.812147    1.226880    3.094678
C         0.103743    1.939294    4.175330
C        -0.583848    1.262483    5.193087
F        -0.700972   -0.062657    5.115967
C        -1.182915    1.909466    6.261074
C        -1.113686    3.302597    6.309677
C        -0.500608    4.022802    5.295385
C         0.079938    3.359239    4.203965
O         0.600444    4.098639    3.228899
C         1.528032    0.037061    3.277543
F         1.739475   -0.462731    4.494262
C         2.050331   -0.627593    2.180648
O        -0.297591   -4.566203   -3.759486
N        -2.646922   -1.452167   -0.759906
C        -1.625896   -0.789203   -0.211165
C        -1.860724   -0.218606    1.170501
O        -0.535532   -0.645235   -0.775321
H        -1.785755   -2.939843   -1.939359
N        -1.451408   -1.793448   -4.133109
C        -1.056851   -1.046540   -5.299498
H        -4.640815   -2.079295   -2.552285
H        -3.775000   -3.496118   -3.164951
H         0.260467   -4.552361    0.096097
H        -0.290414   -2.933925   -0.360596
H         2.498535   -3.819079    0.494818
H         1.399743   -2.619751    1.184428
H         1.628082   -3.242798   -3.617046
H         0.800328   -1.989038   -2.655785
H         3.361278   -4.566834   -1.479270
H         4.653811   -3.344233   -1.281073
H         4.113615   -3.837455   -2.906014
H        -0.581202    1.566232   -1.316793
H        -2.954981    3.470460   -1.681983
H        -2.594010    2.601090   -0.171548
H        -2.936706    1.689651   -1.676527
H         0.303071    2.553298   -3.409155
H        -1.134380    3.600435   -3.537454
H        -1.321397    1.821574   -3.634146
H        -1.522016    5.210853   -1.375705
H        -0.127674    6.983885   -0.354023
H         2.083386    6.420187    0.634820
H         3.158783    3.312814    1.666557
H         3.805568    4.864235    1.096612
H         3.877156    3.429409    0.040462
H        -1.704262    1.321935    7.016607
H        -1.576408    3.834339    7.144085
H        -0.479200    5.113083    5.297307
H         0.712786    3.526986    2.434923
H         2.584798   -1.561042    2.353977
H        -3.438510   -1.781866   -0.191388
H        -1.127289   -0.652747    1.866866
H        -2.872994   -0.409000    1.549434
H        -1.679892    0.864943    1.139551
H        -1.106129   -2.745766   -4.023731
H        -0.324590   -0.259602   -5.051548
H        -1.926923   -0.554332   -5.760174
H        -0.604783   -1.732411   -6.028241
H        -2.630331   -5.538145   -2.933047
H        -2.730458   -6.738879   -1.513103
H        -0.393428   -6.219397   -0.917485
