-1 1
 OpenBabel05232414493D

 94 97  0  0  1  0  0  0  0  0999 V2000
   -6.9465    3.6364    3.0416 O   0  0  0  0  0  0  0  0  0  0  0  0
   -6.4451    2.5224    3.1004 C   0  0  0  0  0  0  0  0  0  0  0  0
   -6.7375    1.5397    4.2380 C   0  0  2  0  0  0  0  0  0  0  0  0
   -7.9606    0.6861    3.8723 C   0  0  0  0  0  0  0  0  0  0  0  0
   -8.3230   -0.6570    5.0438 S   0  0  0  0  0  1  0  0  0  0  0  0
   -6.6512   -2.1522    4.2246 C   0  0  0  0  0  3  0  0  0  0  0  0
   -5.3479   -1.8586    4.6053 C   0  0  0  0  0  3  0  0  0  0  0  0
   -4.5420   -0.9627    3.8299 C   0  0  0  0  0  0  0  0  0  0  0  0
   -3.4463   -0.3370    4.4626 N   0  0  0  0  0  0  0  0  0  0  0  0
   -3.5915    0.0109    5.8680 C   0  0  0  0  0  0  0  0  0  0  0  0
   -2.3212    0.5869    6.4845 C   0  0  0  0  0  0  0  0  0  0  0  0
   -1.7077    1.6083    5.6455 N   0  0  0  0  0  0  0  0  0  0  0  0
   -1.4449    1.0933    4.2885 C   0  0  2  0  0  0  0  0  0  0  0  0
   -1.0559    1.9407    3.7155 H   0  0  0  0  0  0  0  0  0  0  0  0
   -2.7824    0.6926    3.6723 C   0  0  0  0  0  0  0  0  0  0  0  0
   -0.4165   -0.0336    4.2943 C   0  0  0  0  0  0  0  0  0  0  0  0
   -1.8646    2.9502    5.7984 C   0  0  0  0  0  0  0  0  0  0  0  0
   -1.6516    3.7243    4.7721 N   0  0  0  0  0  0  0  0  0  0  0  0
   -1.9133    5.0641    4.7641 C   0  0  0  0  0  0  0  0  0  0  0  0
   -1.5664    5.8167    3.8815 O   0  0  0  0  0  0  0  0  0  0  0  0
   -2.6794    5.5733    5.8470 N   0  0  0  0  0  0  0  0  0  0  0  0
   -3.1096    6.9438    5.8119 C   0  0  0  0  0  0  0  0  0  0  0  0
   -4.3500    7.2663    5.2492 C   0  0  0  0  0  0  0  0  0  0  0  0
   -5.2117    6.2203    4.5720 C   0  0  0  0  0  0  0  0  0  0  0  0
   -6.6812    6.2790    4.9963 C   0  0  0  0  0  0  0  0  0  0  0  0
   -5.0638    6.3314    3.0486 C   0  0  0  0  0  0  0  0  0  0  0  0
   -4.7405    8.6110    5.2786 C   0  0  0  0  0  0  0  0  0  0  0  0
   -3.9265    9.5863    5.8403 C   0  0  0  0  0  0  0  0  0  0  0  0
   -2.6877    9.2407    6.3758 C   0  0  0  0  0  0  0  0  0  0  0  0
   -2.2570    7.9149    6.3635 C   0  0  0  0  0  0  0  0  0  0  0  0
   -0.9179    7.5245    6.9281 C   0  0  0  0  0  0  0  0  0  0  0  0
   -2.2580    3.5520    7.0840 C   0  0  0  0  0  0  0  0  0  0  0  0
   -2.8131    4.8515    7.0014 C   0  0  0  0  0  0  0  0  0  0  0  0
   -3.4118    5.4256    8.0389 N   0  0  0  0  0  0  0  0  0  0  0  0
   -3.4183    4.8504    9.2472 C   0  0  0  0  0  0  0  0  0  0  0  0
   -4.1715    5.5459   10.3087 C   0  0  0  0  0  0  0  0  0  0  0  0
   -4.8439    4.8537   11.3256 C   0  0  0  0  0  0  0  0  0  0  0  0
   -4.9013    3.5228   11.2656 F   0  0  0  0  0  0  0  0  0  0  0  0
   -5.4884    5.4874   12.3751 C   0  0  0  0  0  0  0  0  0  0  0  0
   -5.4823    6.8829   12.4042 C   0  0  0  0  0  0  0  0  0  0  0  0
   -4.8858    7.6155   11.3889 C   0  0  0  0  0  0  0  0  0  0  0  0
   -4.2581    6.9637   10.3163 C   0  0  0  0  0  0  0  0  0  0  0  0
   -3.7545    7.7119    9.3397 O   0  0  0  0  0  0  0  0  0  0  0  0
   -2.6540    3.6969    9.4523 C   0  0  0  0  0  0  0  0  0  0  0  0
   -2.4323    3.2224   10.6780 F   0  0  0  0  0  0  0  0  0  0  0  0
   -2.0973    3.0384    8.3674 C   0  0  0  0  0  0  0  0  0  0  0  0
   -4.7742   -0.6740    2.6408 O   0  0  0  0  0  0  0  0  0  0  0  0
   -6.9433    2.2272    5.4911 N   0  0  0  0  0  0  0  0  0  0  0  0
   -5.9540    2.9005    6.1014 C   0  0  0  0  0  0  0  0  0  0  0  0
   -6.2559    3.4726    7.4691 C   0  0  0  0  0  0  0  0  0  0  0  0
   -4.8440    3.0416    5.5901 O   0  0  0  0  0  0  0  0  0  0  0  0
   -5.8725    0.8762    4.3401 H   0  0  0  0  0  0  0  0  0  0  0  0
   -5.6474    2.0103    2.1424 N   0  0  0  0  0  0  0  0  0  0  0  0
   -5.2899    2.7791    0.9793 C   0  0  0  0  0  0  0  0  0  0  0  0
   -8.8333    1.3540    3.7777 H   0  0  0  0  0  0  0  0  0  0  0  0
   -7.7724    0.2646    2.8731 H   0  0  0  0  0  0  0  0  0  0  0  0
   -3.8617   -0.8739    6.4552 H   0  0  0  0  0  0  0  0  0  0  0  0
   -4.3951    0.7540    5.9981 H   0  0  0  0  0  0  0  0  0  0  0  0
   -1.5768   -0.2050    6.6627 H   0  0  0  0  0  0  0  0  0  0  0  0
   -2.6030    0.9898    7.4575 H   0  0  0  0  0  0  0  0  0  0  0  0
   -2.6375    0.3047    2.6565 H   0  0  0  0  0  0  0  0  0  0  0  0
   -3.4077    1.6013    3.5947 H   0  0  0  0  0  0  0  0  0  0  0  0
   -0.8284   -0.9705    4.6963 H   0  0  0  0  0  0  0  0  0  0  0  0
    0.4749    0.2492    4.8745 H   0  0  0  0  0  0  0  0  0  0  0  0
   -0.1028   -0.2354    3.2598 H   0  0  0  0  0  0  0  0  0  0  0  0
   -4.8363    5.2292    4.8606 H   0  0  0  0  0  0  0  0  0  0  0  0
   -7.1862    7.1811    4.6115 H   0  0  0  0  0  0  0  0  0  0  0  0
   -6.7829    6.2821    6.0933 H   0  0  0  0  0  0  0  0  0  0  0  0
   -7.2014    5.3994    4.5887 H   0  0  0  0  0  0  0  0  0  0  0  0
   -4.0090    6.2277    2.7530 H   0  0  0  0  0  0  0  0  0  0  0  0
   -5.4242    7.3112    2.6907 H   0  0  0  0  0  0  0  0  0  0  0  0
   -5.6575    5.5390    2.5708 H   0  0  0  0  0  0  0  0  0  0  0  0
   -5.7040    8.8924    4.8478 H   0  0  0  0  0  0  0  0  0  0  0  0
   -4.2558   10.6280    5.8586 H   0  0  0  0  0  0  0  0  0  0  0  0
   -2.0438   10.0085    6.8116 H   0  0  0  0  0  0  0  0  0  0  0  0
   -1.0270    6.8683    7.8067 H   0  0  0  0  0  0  0  0  0  0  0  0
   -0.3533    8.4119    7.2447 H   0  0  0  0  0  0  0  0  0  0  0  0
   -0.3229    6.9859    6.1751 H   0  0  0  0  0  0  0  0  0  0  0  0
   -5.9936    4.8876   13.1320 H   0  0  0  0  0  0  0  0  0  0  0  0
   -5.9809    7.4051   13.2239 H   0  0  0  0  0  0  0  0  0  0  0  0
   -4.9122    8.7056   11.3757 H   0  0  0  0  0  0  0  0  0  0  0  0
   -3.5974    7.1347    8.5570 H   0  0  0  0  0  0  0  0  0  0  0  0
   -1.5236    2.1328    8.5596 H   0  0  0  0  0  0  0  0  0  0  0  0
   -7.7852    1.9896    6.0030 H   0  0  0  0  0  0  0  0  0  0  0  0
   -5.6123    2.9772    8.2118 H   0  0  0  0  0  0  0  0  0  0  0  0
   -7.3051    3.3574    7.7715 H   0  0  0  0  0  0  0  0  0  0  0  0
   -5.9897    4.5385    7.4675 H   0  0  0  0  0  0  0  0  0  0  0  0
   -5.2760    1.0571    2.2552 H   0  0  0  0  0  0  0  0  0  0  0  0
   -4.5720    3.5803    1.2236 H   0  0  0  0  0  0  0  0  0  0  0  0
   -6.1787    3.2548    0.5365 H   0  0  0  0  0  0  0  0  0  0  0  0
   -4.8319    2.1130    0.2361 H   0  0  0  0  0  0  0  0  0  0  0  0
   -6.9430   -1.9515    3.1909 H   0  0  0  0  0  0  0  0  0  0  0  0
   -7.1730   -2.9840    4.6997 H   0  0  0  0  0  0  0  0  0  0  0  0
   -5.0104   -2.1764    5.5916 H   0  0  0  0  0  0  0  0  0  0  0  0
  1  2  2  0  0  0  0
  2  3  1  0  0  0  0
  3 52  1  1  0  0  0
  3 48  1  0  0  0  0
  4  3  1  0  0  0  0
  4  5  1  0  0  0  0
  6  7  1  0  0  0  0
  6 93  1  0  0  0  0
  7 94  1  0  0  0  0
  8  9  1  0  0  0  0
  8  7  1  0  0  0  0
  9 10  1  0  0  0  0
 10 58  1  0  0  0  0
 10 57  1  0  0  0  0
 10 11  1  0  0  0  0
 11 59  1  0  0  0  0
 11 60  1  0  0  0  0
 12 17  1  0  0  0  0
 12 11  1  0  0  0  0
 13 14  1  6  0  0  0
 13 16  1  0  0  0  0
 13 12  1  0  0  0  0
 15 13  1  0  0  0  0
 15  9  1  0  0  0  0
 16 63  1  0  0  0  0
 16 64  1  0  0  0  0
 17 32  1  0  0  0  0
 18 17  2  0  0  0  0
 19 18  1  0  0  0  0
 19 21  1  0  0  0  0
 20 19  2  0  0  0  0
 21 33  1  0  0  0  0
 22 21  1  0  0  0  0
 22 30  1  0  0  0  0
 23 27  1  0  0  0  0
 23 22  2  0  0  0  0
 24 66  1  0  0  0  0
 24 25  1  0  0  0  0
 24 23  1  0  0  0  0
 25 68  1  0  0  0  0
 26 24  1  0  0  0  0
 27 28  2  0  0  0  0
 28 74  1  0  0  0  0
 28 29  1  0  0  0  0
 29 75  1  0  0  0  0
 30 29  2  0  0  0  0
 30 31  1  0  0  0  0
 31 77  1  0  0  0  0
 31 76  1  0  0  0  0
 32 46  1  0  0  0  0
 33 32  2  0  0  0  0
 33 34  1  0  0  0  0
 34 35  2  0  0  0  0
 35 44  1  0  0  0  0
 35 36  1  0  0  0  0
 36 42  2  0  0  0  0
 36 37  1  0  0  0  0
 37 39  2  0  0  0  0
 38 37  1  0  0  0  0
 39 40  1  0  0  0  0
 39 79  1  0  0  0  0
 40 80  1  0  0  0  0
 41 40  2  0  0  0  0
 42 41  1  0  0  0  0
 43 42  1  0  0  0  0
 44 45  1  0  0  0  0
 46 83  1  0  0  0  0
 46 44  2  0  0  0  0
 47  8  2  0  0  0  0
 48 84  1  0  0  0  0
 48 49  1  0  0  0  0
 49 50  1  0  0  0  0
 50 86  1  0  0  0  0
 50 85  1  0  0  0  0
 51 49  2  0  0  0  0
 53 88  1  0  0  0  0
 53  2  1  0  0  0  0
 54 89  1  0  0  0  0
 54 53  1  0  0  0  0
 55  4  1  0  0  0  0
 56  4  1  0  0  0  0
 61 15  1  0  0  0  0
 62 15  1  0  0  0  0
 65 16  1  0  0  0  0
 67 25  1  0  0  0  0
 69 25  1  0  0  0  0
 70 26  1  0  0  0  0
 71 26  1  0  0  0  0
 72 26  1  0  0  0  0
 73 27  1  0  0  0  0
 78 31  1  0  0  0  0
 81 41  1  0  0  0  0
 82 43  1  0  0  0  0
 87 50  1  0  0  0  0
 90 54  1  0  0  0  0
 91 54  1  0  0  0  0
 92  6  1  0  0  0  0
M  END
