94
-1 1
O        -2.730661    0.004777   -3.177268
C        -2.240774   -1.115449   -3.080381
C        -2.537134   -2.032142   -1.883336
C        -3.707530   -2.950620   -2.255118
S        -4.019074   -4.368947   -1.165774
C        -2.636968   -5.537603   -1.720920
C        -1.269565   -5.174043   -1.308418
C        -0.423180   -4.496085   -2.174798
N         0.815253   -3.965500   -1.669370
C         0.834361   -3.657975   -0.254313
C         2.161823   -3.084076    0.226594
N         2.657758   -2.027695   -0.645615
C         2.787070   -2.521093   -2.033294
H         3.112488   -1.662459   -2.628261
C         1.390393   -2.919901   -2.503774
C         3.815054   -3.641466   -2.154956
C         2.499458   -0.695290   -0.456964
N         2.692014    0.103029   -1.473329
C         2.405423    1.433718   -1.463928
O         2.754107    2.213007   -2.323987
N         1.604088    1.905010   -0.388253
C         1.156415    3.269945   -0.395933
C        -0.094043    3.588203   -0.939361
C        -0.947362    2.541326   -1.626290
C        -2.436595    2.650954   -1.290264
C        -0.716655    2.601358   -3.143143
C        -0.499289    4.927590   -0.884114
C         0.309608    5.902719   -0.314326
C         1.556004    5.562032    0.205265
C         2.000919    4.241192    0.167646
C         3.347684    3.856244    0.717038
C         2.093659   -0.112710    0.837914
C         1.484421    1.164223    0.756852
N         0.846001    1.706079    1.786737
C         0.835623    1.119995    2.989599
C         0.025953    1.773936    4.036144
C        -0.645921    1.045389    5.027023
F        -0.647245   -0.286446    4.952865
C        -1.346927    1.641446    6.062522
C        -1.400864    3.035576    6.102724
C        -0.807178    3.801653    5.110615
C        -0.121247    3.186598    4.051826
O         0.377189    3.963903    3.095761
C         1.643978    0.000324    3.200728
F         1.857680   -0.477919    4.426947
C         2.252729   -0.623471    2.122376
O        -0.684102   -4.243774   -3.393270
N        -2.796994   -1.270640   -0.685482
C        -1.804419   -0.656007   -0.009998
C        -2.190820    0.074063    1.257831
O        -0.635514   -0.700637   -0.379511
H        -1.657075   -2.654144   -1.695619
N        -1.460709   -1.688777   -4.007900
C        -1.089525   -0.988819   -5.208628
H        -4.637931   -2.360537   -2.306653
H        -3.514454   -3.341366   -3.263895
H         0.664625   -4.573488    0.328731
H         0.034283   -2.941313    0.009455
H         2.933962   -3.867074    0.276677
H         2.006489   -2.726391    1.243001
H         1.425411   -3.290251   -3.535577
H         0.767789   -2.003906   -2.505316
H         3.437643   -4.592234   -1.752519
H         4.755582   -3.375320   -1.648585
H         4.033859   -3.805326   -3.220123
H        -0.608108    1.552118   -1.286475
H        -2.897213    3.540614   -1.751403
H        -2.602907    2.713412   -0.203111
H        -2.951724    1.763901   -1.687451
H         0.348256    2.465814   -3.383376
H        -1.032118    3.580649   -3.542216
H        -1.308141    1.813078   -3.630331
H        -1.470183    5.205993   -1.299169
H        -0.031225    6.940186   -0.275857
H         2.194865    6.329401    0.649375
H         3.252366    3.168691    1.572928
H         3.897299    4.742569    1.062066
H         3.949647    3.354050   -0.055406
H        -1.847630    1.013812    6.799623
H        -1.944114    3.529042    6.911798
H        -0.879234    4.889802    5.105157
H         0.585711    3.399578    2.315219
H         2.863915   -1.500468    2.326892
H        -3.752452   -1.152082   -0.379765
H        -1.766638   -0.468048    2.116591
H        -3.275878    0.171555    1.398397
H        -1.730097    1.071018    1.242092
H        -1.102914   -2.655892   -3.832259
H        -0.311599   -0.229741   -5.017556
H        -1.957912   -0.469668   -5.643125
H        -0.699056   -1.710843   -5.938455
H        -2.724911   -5.588001   -2.815969
H        -2.989785   -6.491724   -1.297129
H        -1.008409   -5.345264   -0.265654
