74
-1 1
O        -2.342939   -4.190307    0.735208
C        -1.444820   -3.415288    0.413856
C        -0.047563   -3.940302    0.032183
C         0.441951   -3.428515   -1.340736
S         0.942532   -1.668969   -1.364553
C         3.515695   -3.080056    0.681840
C         3.644129   -3.658121    1.879607
C         4.238859   -3.009378    3.073588
N         4.036854   -1.647624    3.282878
C         3.008260   -0.783333    2.891319
C         1.711659   -1.223719    2.602386
C         0.725176   -0.315252    2.240471
C         1.025402    1.043038    2.193350
S        -0.227504    2.215031    1.757421
O        -0.108046    3.407460    2.598874
N         0.252849    2.688980    0.227674
C         0.228435    1.673455   -0.831080
C        -1.111843    1.611718   -1.554198
N        -1.525131    2.947183   -1.972853
C        -1.546724    3.946245   -0.918731
C        -0.187527    4.004167   -0.224189
C        -1.951188    3.158726   -3.247372
O        -2.329982    4.443502   -3.429653
C        -2.808780    4.914068   -4.706426
C        -4.087451    4.174874   -5.102748
C        -3.107865    6.387693   -4.440273
C        -1.718597    4.775588   -5.769787
O        -1.984529    2.309894   -4.112159
O        -1.514109    1.512699    1.732201
C         2.306428    1.506542    2.497424
C         3.290970    0.593883    2.838635
O         4.963579   -3.614571    3.839928
N        -0.157066   -5.383040    0.089595
C         0.884893   -6.229969    0.185881
C         0.513162   -7.697558    0.332724
O         2.057963   -5.886109    0.156323
H         0.683674   -3.596631    0.784787
N        -1.586089   -2.080201    0.365303
C        -2.863739   -1.441522    0.561661
H         1.302024   -4.057811   -1.613594
H        -0.348481   -3.624893   -2.085832
H         4.675834   -1.285321    3.982602
H         1.469258   -2.284054    2.643998
H        -0.276363   -0.671318    1.997177
H         0.479730    0.679001   -0.432046
H         1.027010    1.935335   -1.543486
H        -1.875912    1.185658   -0.882013
H        -1.027488    0.963706   -2.433893
H        -2.324183    3.684380   -0.177818
H        -1.795097    4.922583   -1.346131
H        -0.213642    4.689557    0.632683
H         0.571555    4.369512   -0.936292
H        -3.881186    3.113724   -5.286248
H        -4.508740    4.623433   -6.015268
H        -4.835812    4.257446   -4.300027
H        -3.862793    6.489145   -3.646789
H        -3.489138    6.871224   -5.351747
H        -2.196222    6.913115   -4.119644
H        -1.491901    3.719452   -5.958275
H        -0.799641    5.281828   -5.437304
H        -2.051673    5.245848   -6.707486
H         2.525008    2.574993    2.459194
H         4.303383    0.939520    3.059907
H        -1.108997   -5.698547    0.264752
H         0.984353   -8.258843   -0.486494
H        -0.569772   -7.882661    0.323681
H         0.939065   -8.073229    1.274113
H        -0.822170   -1.581088   -0.140172
H        -3.448347   -2.013302    1.294868
H        -3.449159   -1.393763   -0.373619
H        -2.708297   -0.420165    0.935908
H         3.148173   -3.667830   -0.160703
H         3.744714   -2.028184    0.494940
H         3.421737   -4.722714    1.990575
