75
-1 1
O         7.243178    1.672772    3.111488
C         6.149216    2.074558    3.460523
C         4.950206    1.167576    3.759235
C         4.709824    1.132303    5.289483
S         3.558345    2.405216    5.887564
C         1.736918    0.856463    4.276752
C         1.931325    1.474912    5.603276
C         2.167740   -0.443846    4.044524
N         2.038101   -1.000553    2.716893
C         1.253462   -0.710257    1.652357
C         1.650822   -1.192554    0.372763
C         0.873110   -0.977617   -0.745602
C        -0.332283   -0.266061   -0.634105
S        -1.375530   -0.107216   -2.034580
O        -0.572074   -0.045384   -3.252952
N        -2.211210   -1.559511   -2.168714
C        -3.028235   -2.015634   -1.045297
H        -2.536940   -1.801372   -0.080161
C        -3.333273   -3.509035   -1.202558
C        -4.464674   -3.556840   -2.237449
N        -5.090592   -2.244949   -2.118840
C        -4.432080   -1.410016   -1.123502
C        -5.844623   -1.788955   -3.150772
O        -6.174934   -0.487767   -2.991873
C        -6.625706    0.174606   -4.160484
C        -5.499523    0.447633   -5.132803
C        -5.750872    0.496522   -6.506350
C        -4.718955    0.763827   -7.404524
C        -3.420431    0.967665   -6.937291
C        -3.160769    0.912277   -5.568267
C        -4.198025    0.663346   -4.670994
O        -6.190776   -2.461951   -4.094977
O        -2.384807    0.912072   -1.748026
C        -0.738778    0.226357    0.611962
C         0.039349    0.016082    1.737858
O         2.773331   -1.207155    4.836992
N         5.107913   -0.185323    3.265853
C         5.050407   -0.558891    1.958174
C         5.291387    0.503769    0.911696
O         4.797068   -1.717109    1.645127
H         4.049976    1.620323    3.310596
N         5.858289    3.391803    3.650139
C         6.853939    4.426109    3.553115
H         4.259325    0.164642    5.554034
H         5.657145    1.244283    5.836525
H         2.781082   -1.675249    2.544606
H         2.608024   -1.715018    0.294494
H         1.205949   -1.336873   -1.722253
H        -1.585192   -2.261234   -2.556354
H        -3.675402   -3.896148   -0.231415
H        -2.454512   -4.101344   -1.496371
H        -5.179683   -4.370483   -2.039146
H        -4.091507   -3.694771   -3.264511
H        -4.930564   -1.487932   -0.141158
H        -4.420816   -0.358042   -1.424286
H        -7.061412    1.116593   -3.796291
H        -7.414458   -0.416313   -4.649705
H        -6.761826    0.308335   -6.879269
H        -4.927489    0.795364   -8.476839
H        -2.608075    1.161168   -7.641836
H        -2.147859    1.050034   -5.182593
H        -3.977741    0.629279   -3.602195
H        -1.675346    0.782158    0.689560
H        -0.285195    0.388692    2.708420
H         4.710660   -0.896430    3.885098
H         4.585884    1.340392    1.034990
H         5.147966    0.053681   -0.076890
H         6.309386    0.905376    1.007209
H         4.945146    3.613606    4.040702
H         7.766638    3.974413    3.143599
H         7.090572    4.864326    4.537119
H         6.524592    5.235299    2.882057
H         1.386884    1.482873    3.454664
H         1.913556    0.714444    6.396485
H         1.186458    2.251194    5.837242
