-1 1
 OpenBabel05232414493D

 75 76  0  0  1  0  0  0  0  0999 V2000
   10.5191   -1.4336    3.6890 O   0  0  0  0  0  0  0  0  0  0  0  0
    9.6665   -1.0987    4.4956 C   0  0  0  0  0  0  0  0  0  0  0  0
    8.4967   -2.0163    4.9022 C   0  0  2  0  0  0  0  0  0  0  0  0
    8.3652   -2.1676    6.4349 C   0  0  0  0  0  0  0  0  0  0  0  0
    7.4639   -0.8125    7.2535 S   0  0  0  0  0  1  0  0  0  0  0  0
    5.2243   -2.4151    5.4503 C   0  0  0  0  0  3  0  0  0  0  0  0
    5.2921   -1.7869    6.6823 C   0  0  0  0  0  3  0  0  0  0  0  0
    5.5938   -3.7964    5.2992 C   0  0  0  0  0  0  0  0  0  0  0  0
    5.4873   -4.3727    3.9995 N   0  0  0  0  0  0  0  0  0  0  0  0
    4.7128   -4.0670    2.9138 C   0  0  0  0  0  0  0  0  0  0  0  0
    5.1246   -4.5394    1.6425 C   0  0  0  0  0  0  0  0  0  0  0  0
    4.3564   -4.3110    0.5172 C   0  0  0  0  0  0  0  0  0  0  0  0
    3.1549   -3.5979    0.6265 C   0  0  0  0  0  0  0  0  0  0  0  0
    2.1234   -3.4156   -0.7895 S   0  0  0  0  0  0  0  0  0  0  0  0
    2.9470   -3.3429   -1.9920 O   0  0  0  0  0  0  0  0  0  0  0  0
    1.2875   -4.8593   -0.9414 N   0  0  0  0  0  0  0  0  0  0  0  0
    0.4389   -5.3192    0.1571 C   0  0  2  0  0  0  0  0  0  0  0  0
    0.9053   -5.1104    1.1355 H   0  0  0  0  0  0  0  0  0  0  0  0
    0.1364   -6.8114   -0.0157 C   0  0  0  0  0  0  0  0  0  0  0  0
   -0.9685   -6.8522   -1.0794 C   0  0  0  0  0  0  0  0  0  0  0  0
   -1.5937   -5.5392   -0.9717 N   0  0  0  0  0  0  0  0  0  0  0  0
   -0.9615   -4.7108    0.0450 C   0  0  0  0  0  0  0  0  0  0  0  0
   -2.3186   -5.0757   -2.0220 C   0  0  0  0  0  0  0  0  0  0  0  0
   -2.6510   -3.7756   -1.8640 O   0  0  0  0  0  0  0  0  0  0  0  0
   -3.0716   -3.1054   -3.0402 C   0  0  0  0  0  0  0  0  0  0  0  0
   -1.9206   -2.8312   -3.9822 C   0  0  0  0  0  0  0  0  0  0  0  0
   -2.1322   -2.7947   -5.3626 C   0  0  0  0  0  0  0  0  0  0  0  0
   -1.0765   -2.5268   -6.2325 C   0  0  0  0  0  0  0  0  0  0  0  0
    0.2063   -2.3098   -5.7295 C   0  0  0  0  0  0  0  0  0  0  0  0
    0.4266   -2.3529   -4.3531 C   0  0  0  0  0  0  0  0  0  0  0  0
   -0.6344   -2.6028   -3.4845 C   0  0  0  0  0  0  0  0  0  0  0  0
   -2.6384   -5.7433   -2.9789 O   0  0  0  0  0  0  0  0  0  0  0  0
    1.1217   -2.3928   -0.4956 O   0  0  0  0  0  0  0  0  0  0  0  0
    2.7366   -3.1130    1.8685 C   0  0  0  0  0  0  0  0  0  0  0  0
    3.5031   -3.3445    3.0013 C   0  0  0  0  0  0  0  0  0  0  0  0
    6.0662   -4.5233    6.1672 O   0  0  0  0  0  0  0  0  0  0  0  0
    8.6036   -3.3278    4.2960 N   0  0  0  0  0  0  0  0  0  0  0  0
    8.2792   -3.6839    3.0315 C   0  0  0  0  0  0  0  0  0  0  0  0
    7.9495   -2.5665    2.0704 C   0  0  0  0  0  0  0  0  0  0  0  0
    8.2161   -4.8659    2.7018 O   0  0  0  0  0  0  0  0  0  0  0  0
    7.5698   -1.5332    4.5543 H   0  0  0  0  0  0  0  0  0  0  0  0
    9.6251    0.1172    5.0892 N   0  0  0  0  0  0  0  0  0  0  0  0
   10.6272    1.1228    4.8647 C   0  0  0  0  0  0  0  0  0  0  0  0
    7.8122   -3.0955    6.6317 H   0  0  0  0  0  0  0  0  0  0  0  0
    9.3671   -2.2713    6.8830 H   0  0  0  0  0  0  0  0  0  0  0  0
    6.1951   -5.0880    3.8520 H   0  0  0  0  0  0  0  0  0  0  0  0
    6.0872   -5.0526    1.5690 H   0  0  0  0  0  0  0  0  0  0  0  0
    4.6977   -4.6607   -0.4598 H   0  0  0  0  0  0  0  0  0  0  0  0
    1.9035   -5.5624   -1.3422 H   0  0  0  0  0  0  0  0  0  0  0  0
   -0.2311   -7.2025    0.9445 H   0  0  0  0  0  0  0  0  0  0  0  0
    1.0216   -7.4036   -0.2895 H   0  0  0  0  0  0  0  0  0  0  0  0
   -1.6899   -7.6649   -0.9019 H   0  0  0  0  0  0  0  0  0  0  0  0
   -0.5704   -6.9879   -2.0974 H   0  0  0  0  0  0  0  0  0  0  0  0
   -1.4853   -4.7931    1.0138 H   0  0  0  0  0  0  0  0  0  0  0  0
   -0.9417   -3.6571   -0.2496 H   0  0  0  0  0  0  0  0  0  0  0  0
   -3.5135   -2.1644   -2.6812 H   0  0  0  0  0  0  0  0  0  0  0  0
   -3.8498   -3.6916   -3.5514 H   0  0  0  0  0  0  0  0  0  0  0  0
   -3.1305   -2.9932   -5.7632 H   0  0  0  0  0  0  0  0  0  0  0  0
   -1.2539   -2.5049   -7.3106 H   0  0  0  0  0  0  0  0  0  0  0  0
    1.0374   -2.1155   -6.4116 H   0  0  0  0  0  0  0  0  0  0  0  0
    1.4274   -2.2043   -3.9408 H   0  0  0  0  0  0  0  0  0  0  0  0
   -0.4465   -2.6282   -2.4092 H   0  0  0  0  0  0  0  0  0  0  0  0
    1.8031   -2.5521    1.9418 H   0  0  0  0  0  0  0  0  0  0  0  0
    3.1652   -2.9802    3.9709 H   0  0  0  0  0  0  0  0  0  0  0  0
    8.7413   -4.1147    4.9209 H   0  0  0  0  0  0  0  0  0  0  0  0
    7.0195   -2.0654    2.3838 H   0  0  0  0  0  0  0  0  0  0  0  0
    7.8010   -2.9946    1.0728 H   0  0  0  0  0  0  0  0  0  0  0  0
    8.7583   -1.8240    2.0503 H   0  0  0  0  0  0  0  0  0  0  0  0
    8.8997    0.2619    5.8024 H   0  0  0  0  0  0  0  0  0  0  0  0
   11.2905    0.7731    4.0628 H   0  0  0  0  0  0  0  0  0  0  0  0
   11.2341    1.3050    5.7677 H   0  0  0  0  0  0  0  0  0  0  0  0
   10.1709    2.0786    4.5597 H   0  0  0  0  0  0  0  0  0  0  0  0
    5.0056   -1.8268    4.5564 H   0  0  0  0  0  0  0  0  0  0  0  0
    5.3613   -2.4086    7.5760 H   0  0  0  0  0  0  0  0  0  0  0  0
    4.8358   -0.8060    6.8113 H   0  0  0  0  0  0  0  0  0  0  0  0
  1  2  2  0  0  0  0
  2  3  1  0  0  0  0
  2 42  1  0  0  0  0
  3 41  1  6  0  0  0
  3  4  1  0  0  0  0
  4 44  1  0  0  0  0
  4 45  1  0  0  0  0
  4  5  1  0  0  0  0
  6  7  1  0  0  0  0
  7 75  1  0  0  0  0
  7 74  1  0  0  0  0
  8  6  1  0  0  0  0
  8 36  2  0  0  0  0
  9  8  1  0  0  0  0
 10 35  1  0  0  0  0
 10  9  1  0  0  0  0
 11 10  2  0  0  0  0
 12 13  2  0  0  0  0
 12 11  1  0  0  0  0
 13 34  1  0  0  0  0
 14 33  2  0  0  0  0
 14 13  1  0  0  0  0
 15 14  2  0  0  0  0
 16 14  1  0  0  0  0
 16 17  1  0  0  0  0
 17 18  1  1  0  0  0
 19 17  1  0  0  0  0
 19 50  1  0  0  0  0
 20 21  1  0  0  0  0
 20 52  1  0  0  0  0
 20 19  1  0  0  0  0
 21 22  1  0  0  0  0
 22 17  1  0  0  0  0
 22 54  1  0  0  0  0
 23 24  1  0  0  0  0
 23 21  1  0  0  0  0
 25 56  1  0  0  0  0
 25 24  1  0  0  0  0
 26 31  1  0  0  0  0
 26 25  1  0  0  0  0
 27 26  2  0  0  0  0
 28 29  2  0  0  0  0
 28 27  1  0  0  0  0
 29 30  1  0  0  0  0
 30 61  1  0  0  0  0
 30 31  2  0  0  0  0
 31 62  1  0  0  0  0
 32 23  2  0  0  0  0
 34 63  1  0  0  0  0
 34 35  2  0  0  0  0
 35 64  1  0  0  0  0
 37  3  1  0  0  0  0
 37 65  1  0  0  0  0
 38 37  1  0  0  0  0
 39 66  1  0  0  0  0
 39 38  1  0  0  0  0
 40 38  2  0  0  0  0
 42 69  1  0  0  0  0
 43 42  1  0  0  0  0
 43 71  1  0  0  0  0
 46  9  1  0  0  0  0
 47 11  1  0  0  0  0
 48 12  1  0  0  0  0
 49 16  1  0  0  0  0
 51 19  1  0  0  0  0
 53 20  1  0  0  0  0
 55 22  1  0  0  0  0
 57 25  1  0  0  0  0
 58 27  1  0  0  0  0
 59 28  1  0  0  0  0
 60 29  1  0  0  0  0
 67 39  1  0  0  0  0
 68 39  1  0  0  0  0
 70 43  1  0  0  0  0
 72 43  1  0  0  0  0
 73  6  1  0  0  0  0
M  END
