-1 1
 OpenBabel05232414493D

 79 80  0  0  1  0  0  0  0  0999 V2000
    3.7675   -2.0993    5.4022 O   0  0  0  0  0  0  0  0  0  0  0  0
    2.5755   -2.3301    5.4964 C   0  0  0  0  0  0  0  0  0  0  0  0
    1.5403   -1.8682    4.4511 C   0  0  2  0  0  0  0  0  0  0  0  0
    2.1927   -1.2116    3.2372 C   0  0  0  0  0  0  0  0  0  0  0  0
    1.0030   -0.7466    1.9518 S   0  0  0  0  0  1  0  0  0  0  0  0
    0.7841    1.5380    2.4219 C   0  0  0  0  0  3  0  0  0  0  0  0
   -0.5430    1.6345    1.7563 C   0  0  0  0  0  0  0  0  0  0  0  0
   -1.7257    1.8683    2.4608 C   0  0  0  0  0  0  0  0  0  0  0  0
   -2.9700    1.8427    1.8204 C   0  0  0  0  0  0  0  0  0  0  0  0
   -4.2661    2.0670    2.5492 C   0  0  0  0  0  0  0  0  0  0  0  0
   -4.2167    1.9674    3.9105 N   0  0  0  0  0  0  0  0  0  0  0  0
   -5.3051    2.3201    1.9683 O   0  0  0  0  0  0  0  0  0  0  0  0
   -3.0375    1.5847    0.4514 C   0  0  0  0  0  0  0  0  0  0  0  0
   -1.8667    1.3723   -0.2791 C   0  0  0  0  0  0  0  0  0  0  0  0
   -1.9325    0.9379   -1.7211 C   0  0  0  0  0  0  0  0  0  0  0  0
   -2.3824   -0.4468   -1.8355 N   0  0  0  0  0  0  0  0  0  0  0  0
   -2.5005   -0.9053   -3.2057 C   0  0  0  0  0  0  0  0  0  0  0  0
   -1.1590   -1.2772   -3.8608 C   0  0  0  0  0  0  0  0  0  0  0  0
   -0.4438   -2.2466   -3.0334 N   0  0  0  0  0  0  0  0  0  0  0  0
   -0.2910   -1.7655   -1.6607 C   0  0  0  0  0  0  0  0  0  0  0  0
   -1.6465   -1.4242   -1.0410 C   0  0  0  0  0  0  0  0  0  0  0  0
   -0.4462   -3.5938   -3.3149 C   0  0  0  0  0  0  0  0  0  0  0  0
   -0.2366   -4.0970   -4.6326 C   0  0  0  0  0  0  0  0  0  0  0  0
    0.1154   -3.2429   -5.7301 C   0  0  0  0  0  0  0  0  0  0  0  0
    0.4209   -2.5995   -6.6449 N   0  0  0  0  0  0  0  0  0  0  0  0
   -0.2627   -5.4783   -4.8938 C   0  0  0  0  0  0  0  0  0  0  0  0
   -0.4537   -6.3986   -3.8771 C   0  0  0  0  0  0  0  0  0  0  0  0
   -0.6115   -5.9217   -2.5724 C   0  0  0  0  0  0  0  0  0  0  0  0
   -0.6114   -4.5641   -2.2968 C   0  0  0  0  0  0  0  0  0  0  0  0
   -0.6387    1.4266    0.3745 C   0  0  0  0  0  0  0  0  0  0  0  0
    0.9662    1.8865    3.7651 C   0  0  0  0  0  3  0  0  0  0  0  0
    2.2687    2.1966    4.2744 C   0  0  0  0  0  0  0  0  0  0  0  0
    3.3263    2.2042    3.6647 O   0  0  0  0  0  0  0  0  0  0  0  0
    2.2266    2.4937    5.6148 O   0  0  0  0  0  0  0  0  0  0  0  0
    3.4661    2.7436    6.2453 C   0  0  0  0  0  0  0  0  0  0  0  0
    3.9338    4.1761    6.0481 C   0  0  0  0  0  0  0  0  0  0  0  0
    0.5785   -0.9473    5.0348 N   0  0  0  0  0  0  0  0  0  0  0  0
   -0.5499   -1.3410    5.6464 C   0  0  0  0  0  0  0  0  0  0  0  0
   -1.6027   -0.2636    5.8180 C   0  0  0  0  0  0  0  0  0  0  0  0
   -0.7535   -2.4949    6.0194 O   0  0  0  0  0  0  0  0  0  0  0  0
    0.9823   -2.7659    4.1332 H   0  0  0  0  0  0  0  0  0  0  0  0
    2.0189   -3.0372    6.5152 N   0  0  0  0  0  0  0  0  0  0  0  0
    2.7841   -3.5057    7.6373 C   0  0  0  0  0  0  0  0  0  0  0  0
    2.7414   -0.3135    3.5627 H   0  0  0  0  0  0  0  0  0  0  0  0
    2.9463   -1.8945    2.8230 H   0  0  0  0  0  0  0  0  0  0  0  0
   -1.6593    2.0869    3.5272 H   0  0  0  0  0  0  0  0  0  0  0  0
   -3.4204    1.5795    4.3937 H   0  0  0  0  0  0  0  0  0  0  0  0
   -5.0944    2.0393    4.4062 H   0  0  0  0  0  0  0  0  0  0  0  0
   -4.0168    1.5352   -0.0285 H   0  0  0  0  0  0  0  0  0  0  0  0
   -0.9417    1.1203   -2.1898 H   0  0  0  0  0  0  0  0  0  0  0  0
   -2.6572    1.5603   -2.2725 H   0  0  0  0  0  0  0  0  0  0  0  0
   -3.0027   -0.1321   -3.8098 H   0  0  0  0  0  0  0  0  0  0  0  0
   -3.1464   -1.8022   -3.2191 H   0  0  0  0  0  0  0  0  0  0  0  0
   -0.5245   -0.3840   -3.9897 H   0  0  0  0  0  0  0  0  0  0  0  0
   -1.3425   -1.6756   -4.8639 H   0  0  0  0  0  0  0  0  0  0  0  0
    0.3394   -0.8614   -1.6940 H   0  0  0  0  0  0  0  0  0  0  0  0
    0.2674   -2.4852   -1.0509 H   0  0  0  0  0  0  0  0  0  0  0  0
   -1.5088   -1.0637   -0.0129 H   0  0  0  0  0  0  0  0  0  0  0  0
   -2.2618   -2.3390   -0.9828 H   0  0  0  0  0  0  0  0  0  0  0  0
   -0.1001   -5.8122   -5.9206 H   0  0  0  0  0  0  0  0  0  0  0  0
   -0.4663   -7.4683   -4.0902 H   0  0  0  0  0  0  0  0  0  0  0  0
   -0.7568   -6.6242   -1.7483 H   0  0  0  0  0  0  0  0  0  0  0  0
   -0.7723   -4.2401   -1.2697 H   0  0  0  0  0  0  0  0  0  0  0  0
    0.2801    1.2294   -0.1856 H   0  0  0  0  0  0  0  0  0  0  0  0
    4.2238    2.0421    5.8636 H   0  0  0  0  0  0  0  0  0  0  0  0
    3.2992    2.5323    7.3129 H   0  0  0  0  0  0  0  0  0  0  0  0
    4.1347    4.3577    4.9833 H   0  0  0  0  0  0  0  0  0  0  0  0
    4.8596    4.3607    6.6158 H   0  0  0  0  0  0  0  0  0  0  0  0
    3.1666    4.8871    6.3915 H   0  0  0  0  0  0  0  0  0  0  0  0
    0.6693    0.0251    4.7256 H   0  0  0  0  0  0  0  0  0  0  0  0
   -2.2318   -0.5068    6.6829 H   0  0  0  0  0  0  0  0  0  0  0  0
   -2.2303   -0.2665    4.9122 H   0  0  0  0  0  0  0  0  0  0  0  0
   -1.1597    0.7352    5.9391 H   0  0  0  0  0  0  0  0  0  0  0  0
    1.0004   -3.1292    6.5075 H   0  0  0  0  0  0  0  0  0  0  0  0
    2.4784   -3.0145    8.5769 H   0  0  0  0  0  0  0  0  0  0  0  0
    3.8402   -3.2721    7.4485 H   0  0  0  0  0  0  0  0  0  0  0  0
    2.6816   -4.5955    7.7709 H   0  0  0  0  0  0  0  0  0  0  0  0
    1.6391    1.7464    1.7754 H   0  0  0  0  0  0  0  0  0  0  0  0
    0.1314    1.9850    4.4604 H   0  0  0  0  0  0  0  0  0  0  0  0
  1  2  2  0  0  0  0
  2 42  1  0  0  0  0
  3 41  1  6  0  0  0
  3 37  1  0  0  0  0
  3  2  1  0  0  0  0
  4 44  1  0  0  0  0
  4  3  1  0  0  0  0
  5  4  1  0  0  0  0
  6 31  1  0  0  0  0
  7  6  1  0  0  0  0
  7  8  1  0  0  0  0
  8 46  1  0  0  0  0
  9  8  2  0  0  0  0
  9 10  1  0  0  0  0
 10 11  1  0  0  0  0
 11 47  1  0  0  0  0
 11 48  1  0  0  0  0
 12 10  2  0  0  0  0
 13  9  1  0  0  0  0
 14 30  1  0  0  0  0
 14 13  2  0  0  0  0
 15 14  1  0  0  0  0
 16 15  1  0  0  0  0
 16 21  1  0  0  0  0
 17 16  1  0  0  0  0
 18 17  1  0  0  0  0
 18 19  1  0  0  0  0
 19 20  1  0  0  0  0
 20 57  1  0  0  0  0
 20 21  1  0  0  0  0
 21 59  1  0  0  0  0
 21 58  1  0  0  0  0
 22 19  1  0  0  0  0
 22 29  1  0  0  0  0
 23 22  2  0  0  0  0
 24 23  1  0  0  0  0
 25 24  3  0  0  0  0
 26 23  1  0  0  0  0
 26 27  2  0  0  0  0
 27 28  1  0  0  0  0
 28 29  2  0  0  0  0
 28 62  1  0  0  0  0
 29 63  1  0  0  0  0
 30  7  2  0  0  0  0
 31 32  1  0  0  0  0
 31 79  1  0  0  0  0
 32 34  1  0  0  0  0
 33 32  2  0  0  0  0
 34 35  1  0  0  0  0
 35 66  1  0  0  0  0
 36 35  1  0  0  0  0
 36 69  1  0  0  0  0
 36 68  1  0  0  0  0
 37 38  1  0  0  0  0
 38 39  1  0  0  0  0
 38 40  2  0  0  0  0
 39 73  1  0  0  0  0
 39 71  1  0  0  0  0
 42 43  1  0  0  0  0
 43 77  1  0  0  0  0
 43 75  1  0  0  0  0
 45  4  1  0  0  0  0
 49 13  1  0  0  0  0
 50 15  1  0  0  0  0
 51 15  1  0  0  0  0
 52 17  1  0  0  0  0
 53 17  1  0  0  0  0
 54 18  1  0  0  0  0
 55 18  1  0  0  0  0
 56 20  1  0  0  0  0
 60 26  1  0  0  0  0
 61 27  1  0  0  0  0
 64 30  1  0  0  0  0
 65 35  1  0  0  0  0
 67 36  1  0  0  0  0
 70 37  1  0  0  0  0
 72 39  1  0  0  0  0
 74 42  1  0  0  0  0
 76 43  1  0  0  0  0
 78  6  1  0  0  0  0
M  END
