-1 1
 OpenBabel05232413483D

 79 80  0  0  1  0  0  0  0  0999 V2000
    2.5501   -0.2059    3.3351 O   0  0  0  0  0  0  0  0  0  0  0  0
    1.3616   -0.4844    3.3140 C   0  0  0  0  0  0  0  0  0  0  0  0
    0.8122   -1.5587    2.3464 C   0  0  2  0  0  0  0  0  0  0  0  0
    1.8498   -1.9055    1.2610 C   0  0  0  0  0  0  0  0  0  0  0  0
    1.2074   -3.0707    0.0057 S   0  0  0  0  0  1  0  0  0  0  0  0
    1.3080    2.4870    1.5235 C   0  0  0  0  0  0  0  0  0  0  0  0
   -0.0822    2.3176    1.0894 C   0  0  0  0  0  0  0  0  0  0  0  0
   -1.1714    2.3070    1.9729 C   0  0  0  0  0  0  0  0  0  0  0  0
   -2.4712    2.1666    1.4877 C   0  0  0  0  0  0  0  0  0  0  0  0
   -3.6738    2.2044    2.3965 C   0  0  0  0  0  0  0  0  0  0  0  0
   -3.5492    1.4922    3.5481 N   0  0  0  0  0  0  0  0  0  0  0  0
   -4.6694    2.8408    2.1016 O   0  0  0  0  0  0  0  0  0  0  0  0
   -2.6889    1.9949    0.1181 C   0  0  0  0  0  0  0  0  0  0  0  0
   -1.6172    1.9303   -0.7701 C   0  0  0  0  0  0  0  0  0  0  0  0
   -1.8319    1.5226   -2.2071 C   0  0  0  0  0  0  0  0  0  0  0  0
   -1.9890    0.0771   -2.3077 N   0  0  0  0  0  0  0  0  0  0  0  0
   -2.4497   -0.3891   -3.6039 C   0  0  0  0  0  0  0  0  0  0  0  0
   -1.3484   -0.4439   -4.6747 C   0  0  0  0  0  0  0  0  0  0  0  0
   -0.2132   -1.2360   -4.2095 N   0  0  0  0  0  0  0  0  0  0  0  0
    0.2820   -0.7350   -2.9299 C   0  0  0  0  0  0  0  0  0  0  0  0
   -0.8291   -0.7030   -1.8834 C   0  0  0  0  0  0  0  0  0  0  0  0
   -0.0872   -2.5798   -4.5185 C   0  0  0  0  0  0  0  0  0  0  0  0
   -0.2844   -3.0723   -5.8403 C   0  0  0  0  0  0  0  0  0  0  0  0
   -0.4994   -2.2023   -6.9598 C   0  0  0  0  0  0  0  0  0  0  0  0
   -0.6567   -1.5384   -7.8980 N   0  0  0  0  0  0  0  0  0  0  0  0
   -0.1704   -4.4464   -6.1243 C   0  0  0  0  0  0  0  0  0  0  0  0
    0.1764   -5.3527   -5.1379 C   0  0  0  0  0  0  0  0  0  0  0  0
    0.4284   -4.8707   -3.8488 C   0  0  0  0  0  0  0  0  0  0  0  0
    0.2992   -3.5260   -3.5408 C   0  0  0  0  0  0  0  0  0  0  0  0
   -0.3280    2.1194   -0.2739 C   0  0  0  0  0  0  0  0  0  0  0  0
    1.7400    2.8625    2.7331 C   0  0  0  0  0  0  0  0  0  0  0  0
    3.1905    2.8606    3.0178 C   0  0  0  0  0  0  0  0  0  0  0  0
    4.0700    2.7688    2.1987 O   0  0  0  0  0  0  0  0  0  0  0  0
    3.4220    2.9689    4.3394 O   0  0  0  0  0  0  0  0  0  0  0  0
    4.7695    2.8135    4.7692 C   0  0  0  0  0  0  0  0  0  0  0  0
    5.5555    4.1065    4.6563 C   0  0  0  0  0  0  0  0  0  0  0  0
   -0.4371   -1.2629    1.6451 N   0  0  0  0  0  0  0  0  0  0  0  0
   -1.6731   -1.1174    2.1259 C   0  0  0  0  0  0  0  0  0  0  0  0
   -2.7902   -1.2867    1.1198 C   0  0  0  0  0  0  0  0  0  0  0  0
   -1.9436   -0.8782    3.3169 O   0  0  0  0  0  0  0  0  0  0  0  0
    0.6483   -2.4589    2.9706 H   0  0  0  0  0  0  0  0  0  0  0  0
    0.4624    0.0299    4.1855 N   0  0  0  0  0  0  0  0  0  0  0  0
    0.8380    0.8715    5.2885 C   0  0  0  0  0  0  0  0  0  0  0  0
    2.1733   -0.9612    0.7923 H   0  0  0  0  0  0  0  0  0  0  0  0
    2.7328   -2.3130    1.7687 H   0  0  0  0  0  0  0  0  0  0  0  0
   -1.0056    2.3970    3.0481 H   0  0  0  0  0  0  0  0  0  0  0  0
   -2.9233    0.6783    3.5796 H   0  0  0  0  0  0  0  0  0  0  0  0
   -4.3903    1.4441    4.1108 H   0  0  0  0  0  0  0  0  0  0  0  0
   -3.7121    1.8654   -0.2423 H   0  0  0  0  0  0  0  0  0  0  0  0
   -1.0004    1.9257   -2.8249 H   0  0  0  0  0  0  0  0  0  0  0  0
   -2.7570    1.9836   -2.5889 H   0  0  0  0  0  0  0  0  0  0  0  0
   -3.2775    0.2500   -3.9525 H   0  0  0  0  0  0  0  0  0  0  0  0
   -2.8537   -1.4092   -3.4760 H   0  0  0  0  0  0  0  0  0  0  0  0
   -0.9918    0.5731   -4.9141 H   0  0  0  0  0  0  0  0  0  0  0  0
   -1.7627   -0.8498   -5.6031 H   0  0  0  0  0  0  0  0  0  0  0  0
    0.6711    0.2837   -3.1066 H   0  0  0  0  0  0  0  0  0  0  0  0
    1.1198   -1.3385   -2.5590 H   0  0  0  0  0  0  0  0  0  0  0  0
   -0.4400   -0.3194   -0.9325 H   0  0  0  0  0  0  0  0  0  0  0  0
   -1.1534   -1.7368   -1.6829 H   0  0  0  0  0  0  0  0  0  0  0  0
   -0.3373   -4.7776   -7.1515 H   0  0  0  0  0  0  0  0  0  0  0  0
    0.2664   -6.4156   -5.3682 H   0  0  0  0  0  0  0  0  0  0  0  0
    0.7207   -5.5545   -3.0487 H   0  0  0  0  0  0  0  0  0  0  0  0
    0.4967   -3.2155   -2.5103 H   0  0  0  0  0  0  0  0  0  0  0  0
    0.5211    2.0784   -0.9626 H   0  0  0  0  0  0  0  0  0  0  0  0
    5.2411    2.0131    4.1808 H   0  0  0  0  0  0  0  0  0  0  0  0
    4.6961    2.4847    5.8154 H   0  0  0  0  0  0  0  0  0  0  0  0
    5.6511    4.4042    3.6032 H   0  0  0  0  0  0  0  0  0  0  0  0
    6.5659    3.9703    5.0712 H   0  0  0  0  0  0  0  0  0  0  0  0
    5.0586    4.9156    5.2123 H   0  0  0  0  0  0  0  0  0  0  0  0
   -0.3598   -1.7213    0.7124 H   0  0  0  0  0  0  0  0  0  0  0  0
   -2.9639   -2.3648    0.9753 H   0  0  0  0  0  0  0  0  0  0  0  0
   -2.5579   -0.8454    0.1412 H   0  0  0  0  0  0  0  0  0  0  0  0
   -3.7056   -0.8338    1.5201 H   0  0  0  0  0  0  0  0  0  0  0  0
   -0.5021   -0.3083    4.1035 H   0  0  0  0  0  0  0  0  0  0  0  0
    1.8463    1.2677    5.1176 H   0  0  0  0  0  0  0  0  0  0  0  0
    0.8377    0.3197    6.2457 H   0  0  0  0  0  0  0  0  0  0  0  0
    0.1389    1.7182    5.3897 H   0  0  0  0  0  0  0  0  0  0  0  0
    2.0791    2.2560    0.7808 H   0  0  0  0  0  0  0  0  0  0  0  0
    1.0671    3.1042    3.5571 H   0  0  0  0  0  0  0  0  0  0  0  0
  2  1  2  0  0  0  0
  2 42  1  0  0  0  0
  3 41  1  1  0  0  0
  3  2  1  0  0  0  0
  4 45  1  0  0  0  0
  4  3  1  0  0  0  0
  5  4  1  0  0  0  0
  6 31  2  0  0  0  0
  7  6  1  0  0  0  0
  7  8  1  0  0  0  0
  8 46  1  0  0  0  0
  9  8  2  0  0  0  0
  9 10  1  0  0  0  0
 10 11  1  0  0  0  0
 11 47  1  0  0  0  0
 11 48  1  0  0  0  0
 12 10  2  0  0  0  0
 13  9  1  0  0  0  0
 14 30  1  0  0  0  0
 14 13  2  0  0  0  0
 15 14  1  0  0  0  0
 16 15  1  0  0  0  0
 16 21  1  0  0  0  0
 17 53  1  0  0  0  0
 17 16  1  0  0  0  0
 18 19  1  0  0  0  0
 18 17  1  0  0  0  0
 19 20  1  0  0  0  0
 20 57  1  0  0  0  0
 20 21  1  0  0  0  0
 21 59  1  0  0  0  0
 21 58  1  0  0  0  0
 22 19  1  0  0  0  0
 22 29  1  0  0  0  0
 23 22  2  0  0  0  0
 24 23  1  0  0  0  0
 25 24  3  0  0  0  0
 26 23  1  0  0  0  0
 26 27  2  0  0  0  0
 27 28  1  0  0  0  0
 28 29  2  0  0  0  0
 28 62  1  0  0  0  0
 29 63  1  0  0  0  0
 30  7  2  0  0  0  0
 31 32  1  0  0  0  0
 31 79  1  0  0  0  0
 32 34  1  0  0  0  0
 33 32  2  0  0  0  0
 34 35  1  0  0  0  0
 35 66  1  0  0  0  0
 36 35  1  0  0  0  0
 36 68  1  0  0  0  0
 36 69  1  0  0  0  0
 37 38  1  0  0  0  0
 37  3  1  0  0  0  0
 38 40  2  0  0  0  0
 39 73  1  0  0  0  0
 39 38  1  0  0  0  0
 42 43  1  0  0  0  0
 43 77  1  0  0  0  0
 43 76  1  0  0  0  0
 44  4  1  0  0  0  0
 49 13  1  0  0  0  0
 50 15  1  0  0  0  0
 51 15  1  0  0  0  0
 52 17  1  0  0  0  0
 54 18  1  0  0  0  0
 55 18  1  0  0  0  0
 56 20  1  0  0  0  0
 60 26  1  0  0  0  0
 61 27  1  0  0  0  0
 64 30  1  0  0  0  0
 65 35  1  0  0  0  0
 67 36  1  0  0  0  0
 70 37  1  0  0  0  0
 71 39  1  0  0  0  0
 72 39  1  0  0  0  0
 74 42  1  0  0  0  0
 75 43  1  0  0  0  0
 78  6  1  0  0  0  0
M  END
