-1 1
 OpenBabel05192410563D

 79 81  0  0  1  0  0  0  0  0999 V2000
    3.6879   -1.9004    5.3826 O   0  0  0  0  0  0  0  0  0  0  0  0
    2.6605   -1.4389    5.8496 C   0  0  0  0  0  0  0  0  0  0  0  0
    1.4603   -1.0275    4.9646 C   0  0  2  0  0  0  0  0  0  0  0  0
    1.8051   -1.2200    3.4879 C   0  0  0  0  0  0  0  0  0  0  0  0
    0.3835   -1.0589    2.3662 S   0  0  0  0  0  0  0  0  0  0  0  0
    0.6880    0.6955    1.6143 C   0  0  1  0  0  0  0  0  0  0  0  0
   -0.4980    0.8874    0.7037 C   0  0  0  0  0  0  0  0  0  0  0  0
   -1.7879    0.9783    1.2327 C   0  0  0  0  0  0  0  0  0  0  0  0
   -2.9012    1.1412    0.4039 C   0  0  0  0  0  0  0  0  0  0  0  0
   -4.3060    1.2013    0.9371 C   0  0  0  0  0  0  0  0  0  0  0  0
   -4.4826    0.7028    2.1946 N   0  0  0  0  0  0  0  0  0  0  0  0
   -5.2319    1.6562    0.2910 O   0  0  0  0  0  0  0  0  0  0  0  0
   -2.7240    1.2444   -0.9767 C   0  0  0  0  0  0  0  0  0  0  0  0
   -1.4451    1.1620   -1.5281 C   0  0  0  0  0  0  0  0  0  0  0  0
   -1.2663    1.2261   -3.0271 C   0  0  0  0  0  0  0  0  0  0  0  0
   -2.0307    0.1922   -3.7118 N   0  0  0  0  0  0  0  0  0  0  0  0
   -2.0738    0.3293   -5.1537 C   0  0  0  0  0  0  0  0  0  0  0  0
   -0.7987   -0.1514   -5.8640 C   0  0  0  0  0  0  0  0  0  0  0  0
   -0.4953   -1.5271   -5.4697 N   0  0  0  0  0  0  0  0  0  0  0  0
   -0.4157   -1.6597   -4.0180 C   0  0  0  0  0  0  0  0  0  0  0  0
   -1.6968   -1.1720   -3.3341 C   0  0  0  0  0  0  0  0  0  0  0  0
   -0.8408   -2.6033   -6.2603 C   0  0  0  0  0  0  0  0  0  0  0  0
   -0.5565   -2.6333   -7.6561 C   0  0  0  0  0  0  0  0  0  0  0  0
    0.2066   -1.6003   -8.2962 C   0  0  0  0  0  0  0  0  0  0  0  0
    0.8351   -0.8005   -8.8517 N   0  0  0  0  0  0  0  0  0  0  0  0
   -0.9281   -3.7328   -8.4475 C   0  0  0  0  0  0  0  0  0  0  0  0
   -1.5477   -4.8404   -7.8914 C   0  0  0  0  0  0  0  0  0  0  0  0
   -1.7906   -4.8449   -6.5158 C   0  0  0  0  0  0  0  0  0  0  0  0
   -1.4524   -3.7592   -5.7224 C   0  0  0  0  0  0  0  0  0  0  0  0
   -0.3479    0.9760   -0.6832 C   0  0  0  0  0  0  0  0  0  0  0  0
    0.9022    1.7957    2.5705 C   0  0  0  0  0  3  0  0  0  0  0  0
    2.1999    2.2889    2.7801 C   0  0  0  0  0  0  0  0  0  0  0  0
    3.2696    1.8410    2.3600 O   0  0  0  0  0  0  0  0  0  0  0  0
    2.2090    3.3918    3.6349 O   0  0  0  0  0  0  0  0  0  0  0  0
    3.4734    3.9101    3.9723 C   0  0  0  0  0  0  0  0  0  0  0  0
    4.0094    4.8575    2.9102 C   0  0  0  0  0  0  0  0  0  0  0  0
    1.0406    0.3455    5.1760 N   0  0  0  0  0  0  0  0  0  0  0  0
    0.2832    0.7765    6.1970 C   0  0  0  0  0  0  0  0  0  0  0  0
   -0.2360    2.1911    6.0412 C   0  0  0  0  0  0  0  0  0  0  0  0
    0.0141    0.0961    7.1904 O   0  0  0  0  0  0  0  0  0  0  0  0
    0.6260   -1.6973    5.2462 H   0  0  0  0  0  0  0  0  0  0  0  0
    2.4385   -1.2818    7.1769 N   0  0  0  0  0  0  0  0  0  0  0  0
    3.4391   -1.5793    8.1641 C   0  0  0  0  0  0  0  0  0  0  0  0
    2.5718   -0.4887    3.1862 H   0  0  0  0  0  0  0  0  0  0  0  0
    2.2419   -2.2160    3.3509 H   0  0  0  0  0  0  0  0  0  0  0  0
   -1.8946    0.9266    2.3188 H   0  0  0  0  0  0  0  0  0  0  0  0
   -3.7704    0.1581    2.6589 H   0  0  0  0  0  0  0  0  0  0  0  0
   -5.4272    0.6761    2.5525 H   0  0  0  0  0  0  0  0  0  0  0  0
   -3.6004    1.3668   -1.6160 H   0  0  0  0  0  0  0  0  0  0  0  0
   -0.1791    1.2020   -3.2556 H   0  0  0  0  0  0  0  0  0  0  0  0
   -1.6344    2.1973   -3.3983 H   0  0  0  0  0  0  0  0  0  0  0  0
   -2.2701    1.3813   -5.4149 H   0  0  0  0  0  0  0  0  0  0  0  0
   -2.9228   -0.2669   -5.5358 H   0  0  0  0  0  0  0  0  0  0  0  0
    0.0608    0.4898   -5.6051 H   0  0  0  0  0  0  0  0  0  0  0  0
   -0.9295   -0.0757   -6.9486 H   0  0  0  0  0  0  0  0  0  0  0  0
    0.4366   -1.0464   -3.6783 H   0  0  0  0  0  0  0  0  0  0  0  0
   -0.1728   -2.6946   -3.7453 H   0  0  0  0  0  0  0  0  0  0  0  0
   -1.5955   -1.2363   -2.2410 H   0  0  0  0  0  0  0  0  0  0  0  0
   -2.5390   -1.8248   -3.6238 H   0  0  0  0  0  0  0  0  0  0  0  0
   -0.6915   -3.7065   -9.5130 H   0  0  0  0  0  0  0  0  0  0  0  0
   -1.8270   -5.6915   -8.5140 H   0  0  0  0  0  0  0  0  0  0  0  0
   -2.2745   -5.7067   -6.0500 H   0  0  0  0  0  0  0  0  0  0  0  0
   -1.6983   -3.7909   -4.6619 H   0  0  0  0  0  0  0  0  0  0  0  0
    0.6562    0.8936   -1.1105 H   0  0  0  0  0  0  0  0  0  0  0  0
    4.1881    3.0868    4.1288 H   0  0  0  0  0  0  0  0  0  0  0  0
    3.3333    4.4410    4.9281 H   0  0  0  0  0  0  0  0  0  0  0  0
    4.1839    4.2997    1.9797 H   0  0  0  0  0  0  0  0  0  0  0  0
    4.9612    5.3092    3.2341 H   0  0  0  0  0  0  0  0  0  0  0  0
    3.2885    5.6656    2.7107 H   0  0  0  0  0  0  0  0  0  0  0  0
    1.0865    0.9500    4.3293 H   0  0  0  0  0  0  0  0  0  0  0  0
   -0.3543    2.6367    7.0370 H   0  0  0  0  0  0  0  0  0  0  0  0
   -1.2261    2.1558    5.5608 H   0  0  0  0  0  0  0  0  0  0  0  0
    0.4277    2.8043    5.4146 H   0  0  0  0  0  0  0  0  0  0  0  0
    1.5316   -0.8895    7.4519 H   0  0  0  0  0  0  0  0  0  0  0  0
    3.7146   -0.6835    8.7456 H   0  0  0  0  0  0  0  0  0  0  0  0
    4.3323   -1.9502    7.6443 H   0  0  0  0  0  0  0  0  0  0  0  0
    3.0955   -2.3538    8.8706 H   0  0  0  0  0  0  0  0  0  0  0  0
    1.6014    0.5523    1.0213 H   0  0  0  0  0  0  0  0  0  0  0  0
    0.0513    2.3805    2.9262 H   0  0  0  0  0  0  0  0  0  0  0  0
  1  2  2  0  0  0  0
  2 42  1  0  0  0  0
  3 37  1  0  0  0  0
  3 41  1  1  0  0  0
  3  2  1  0  0  0  0
  4  3  1  0  0  0  0
  5  4  1  0  0  0  0
  6 78  1  6  0  0  0
  6  5  1  0  0  0  0
  6 31  1  0  0  0  0
  7  8  1  0  0  0  0
  7  6  1  0  0  0  0
  8 46  1  0  0  0  0
  9 10  1  0  0  0  0
  9  8  2  0  0  0  0
 10 11  1  0  0  0  0
 11 48  1  0  0  0  0
 11 47  1  0  0  0  0
 12 10  2  0  0  0  0
 13  9  1  0  0  0  0
 14 13  2  0  0  0  0
 14 30  1  0  0  0  0
 15 14  1  0  0  0  0
 16 21  1  0  0  0  0
 16 15  1  0  0  0  0
 17 16  1  0  0  0  0
 18 54  1  0  0  0  0
 18 19  1  0  0  0  0
 18 17  1  0  0  0  0
 19 20  1  0  0  0  0
 20 57  1  0  0  0  0
 20 56  1  0  0  0  0
 20 21  1  0  0  0  0
 21 58  1  0  0  0  0
 22 29  1  0  0  0  0
 22 19  1  0  0  0  0
 23 22  2  0  0  0  0
 24 23  1  0  0  0  0
 25 24  3  0  0  0  0
 26 27  2  0  0  0  0
 26 23  1  0  0  0  0
 27 28  1  0  0  0  0
 28 62  1  0  0  0  0
 28 29  2  0  0  0  0
 29 63  1  0  0  0  0
 30  7  2  0  0  0  0
 31 32  1  0  0  0  0
 31 79  1  0  0  0  0
 32 34  1  0  0  0  0
 33 32  2  0  0  0  0
 34 35  1  0  0  0  0
 35 65  1  0  0  0  0
 35 66  1  0  0  0  0
 36 68  1  0  0  0  0
 36 35  1  0  0  0  0
 37 38  1  0  0  0  0
 38 40  2  0  0  0  0
 39 38  1  0  0  0  0
 39 71  1  0  0  0  0
 42 74  1  0  0  0  0
 42 43  1  0  0  0  0
 43 75  1  0  0  0  0
 43 77  1  0  0  0  0
 44  4  1  0  0  0  0
 45  4  1  0  0  0  0
 49 13  1  0  0  0  0
 50 15  1  0  0  0  0
 51 15  1  0  0  0  0
 52 17  1  0  0  0  0
 53 17  1  0  0  0  0
 55 18  1  0  0  0  0
 59 21  1  0  0  0  0
 60 26  1  0  0  0  0
 61 27  1  0  0  0  0
 64 30  1  0  0  0  0
 67 36  1  0  0  0  0
 69 36  1  0  0  0  0
 70 37  1  0  0  0  0
 72 39  1  0  0  0  0
 73 39  1  0  0  0  0
 76 43  1  0  0  0  0
M  END
