70
-1 1
O         0.254554    7.580875   -3.831147
C         0.815854    7.034846   -2.897854
C         0.628389    7.456727   -1.425251
C        -0.592631    8.379908   -1.241035
S        -0.536930    9.463942    0.226189
C        -0.646762    7.821625    1.962783
C         0.146152    6.697553    1.784311
C        -0.356334    5.564651    1.054804
N         0.651162    4.658440    0.648431
C         0.562464    3.734718   -0.378835
C         1.782927    3.200455   -0.890123
C         1.792942    2.308444   -1.930883
C        -0.631764    3.326239   -0.958546
C        -0.626953    2.422964   -2.042911
C         0.584374    1.891628   -2.542623
N         0.620658    1.007715   -3.585497
C        -0.531851    0.678072   -4.093560
N        -1.755922    1.117348   -3.723088
C        -1.820619    1.980104   -2.730688
N        -3.021286    2.489756   -2.322101
C        -4.323808    2.259739   -2.770836
C        -5.349893    3.001381   -2.159633
C        -6.672609    2.831976   -2.537246
C        -7.047421    1.921205   -3.537593
C        -8.524915    1.770169   -3.924635
C        -9.060753    3.120733   -4.434558
C        -8.727437    0.725735   -5.029700
C        -9.335101    1.329119   -2.691694
C        -6.015413    1.193579   -4.134748
C        -4.676576    1.347598   -3.771411
O        -1.533167    5.374600    0.744533
N         1.824515    8.077534   -0.875188
C         2.815717    7.377052   -0.302233
C         3.740312    8.171892    0.594326
O         2.978113    6.162436   -0.453101
H         0.463419    6.524103   -0.877934
N         1.633288    5.960372   -3.030904
C         1.913054    5.336755   -4.295374
H        -0.686304    9.011843   -2.135414
H        -1.485090    7.740292   -1.200058
H         1.593536    5.015369    0.774939
H         2.723412    3.541972   -0.451630
H         2.727655    1.904500   -2.323824
H        -1.538243    3.765810   -0.546037
H        -0.528204   -0.036597   -4.926081
H        -2.950470    3.183270   -1.589444
H        -5.100346    3.724828   -1.378135
H        -7.431000    3.435523   -2.031929
H        -8.492951    3.457868   -5.315239
H        -8.982971    3.905563   -3.667647
H       -10.122185    3.034796   -4.719944
H        -8.192307    0.999468   -5.951791
H        -9.797732    0.646164   -5.276845
H        -8.382729   -0.271494   -4.715824
H        -9.265142    2.062590   -1.874769
H        -8.967144    0.365193   -2.307727
H       -10.401143    1.214329   -2.948272
H        -6.236728    0.470407   -4.920953
H        -3.892845    0.772602   -4.258000
H         1.603539    8.992998   -0.461322
H         3.768546    9.237763    0.331677
H         4.748414    7.741743    0.545908
H         3.373959    8.082416    1.628742
H         2.111010    5.638451   -2.189436
H         1.729925    4.251463   -4.244408
H         2.956625    5.499120   -4.616398
H         1.246593    5.778344   -5.047626
H         1.211648    6.729511    2.031679
H        -0.345907    8.589225    2.677230
H        -1.722551    7.703236    1.823112
