-1 1
 OpenBabel05232413483D

 58 59  0  0  1  0  0  0  0  0999 V2000
    0.0547    1.0630   -1.7288 O   0  0  0  0  0  0  0  0  0  0  0  0
    0.2349    2.1242   -1.1558 C   0  0  0  0  0  0  0  0  0  0  0  0
    1.6011    2.5686   -0.6180 C   0  0  2  0  0  0  0  0  0  0  0  0
    2.1005    3.8340   -1.3656 C   0  0  0  0  0  0  0  0  0  0  0  0
    3.8710    4.1896   -1.1115 S   0  0  0  0  0  1  0  0  0  0  0  0
    2.5569    5.7397    1.5483 C   0  0  0  0  0  0  0  0  0  0  0  0
    1.9044    4.8999    2.3568 C   0  0  0  0  0  0  0  0  0  0  0  0
    0.5156    4.4806    2.0538 C   0  0  0  0  0  0  0  0  0  0  0  0
    0.1379    3.3104    2.6784 N   0  0  0  0  0  0  0  0  0  0  0  0
   -1.0425    2.6095    2.3272 C   0  0  0  0  0  0  0  0  0  0  0  0
   -2.3069    3.2081    2.5263 C   0  0  0  0  0  0  0  0  0  0  0  0
   -3.4518    2.5305    2.1806 C   0  0  0  0  0  0  0  0  0  0  0  0
   -0.9483    1.3533    1.7660 C   0  0  0  0  0  0  0  0  0  0  0  0
   -2.1129    0.6603    1.3745 C   0  0  0  0  0  0  0  0  0  0  0  0
   -3.3853    1.2382    1.6040 C   0  0  0  0  0  0  0  0  0  0  0  0
   -4.5467    0.5946    1.2796 N   0  0  0  0  0  0  0  0  0  0  0  0
   -4.4044   -0.5828    0.7387 C   0  0  0  0  0  0  0  0  0  0  0  0
   -3.2610   -1.2219    0.4240 N   0  0  0  0  0  0  0  0  0  0  0  0
   -2.1138   -0.6254    0.7010 C   0  0  0  0  0  0  0  0  0  0  0  0
   -0.9321   -1.2062    0.3735 N   0  0  0  0  0  0  0  0  0  0  0  0
   -0.6769   -2.4684   -0.1732 C   0  0  0  0  0  0  0  0  0  0  0  0
    0.6702   -2.8746   -0.1951 C   0  0  0  0  0  0  0  0  0  0  0  0
    1.0406   -4.1057   -0.7169 C   0  0  0  0  0  0  0  0  0  0  0  0
    0.0592   -4.9592   -1.2187 C   0  0  0  0  0  0  0  0  0  0  0  0
    0.5553   -6.6540   -1.9287 Br  0  0  0  0  0  0  0  0  0  0  0  0
   -1.2781   -4.5808   -1.2002 C   0  0  0  0  0  0  0  0  0  0  0  0
   -1.6504   -3.3414   -0.6820 C   0  0  0  0  0  0  0  0  0  0  0  0
   -0.2273    5.0747    1.2872 O   0  0  0  0  0  0  0  0  0  0  0  0
    2.5879    1.5327   -0.7632 N   0  0  0  0  0  0  0  0  0  0  0  0
    2.5864    0.3786   -0.1045 C   0  0  0  0  0  0  0  0  0  0  0  0
    3.7609   -0.5346   -0.3804 C   0  0  0  0  0  0  0  0  0  0  0  0
    1.6919    0.0178    0.6761 O   0  0  0  0  0  0  0  0  0  0  0  0
    1.4903    2.8088    0.4524 H   0  0  0  0  0  0  0  0  0  0  0  0
   -0.7520    3.0322   -0.9487 N   0  0  0  0  0  0  0  0  0  0  0  0
   -2.1135    2.7864   -1.3462 C   0  0  0  0  0  0  0  0  0  0  0  0
    1.8919    3.6919   -2.4398 H   0  0  0  0  0  0  0  0  0  0  0  0
    1.4720    4.6742   -1.0332 H   0  0  0  0  0  0  0  0  0  0  0  0
    0.8887    2.7510    3.0646 H   0  0  0  0  0  0  0  0  0  0  0  0
   -2.3565    4.2099    2.9546 H   0  0  0  0  0  0  0  0  0  0  0  0
   -4.4416    2.9635    2.3332 H   0  0  0  0  0  0  0  0  0  0  0  0
    0.0450    0.9383    1.5732 H   0  0  0  0  0  0  0  0  0  0  0  0
   -5.3230   -1.1301    0.4909 H   0  0  0  0  0  0  0  0  0  0  0  0
   -0.0869   -0.6315    0.4616 H   0  0  0  0  0  0  0  0  0  0  0  0
    1.4213   -2.1959    0.2137 H   0  0  0  0  0  0  0  0  0  0  0  0
    2.0911   -4.4010   -0.7258 H   0  0  0  0  0  0  0  0  0  0  0  0
   -2.0445   -5.2499   -1.5953 H   0  0  0  0  0  0  0  0  0  0  0  0
   -2.6935   -3.0387   -0.6629 H   0  0  0  0  0  0  0  0  0  0  0  0
    3.4699    1.9141   -1.1405 H   0  0  0  0  0  0  0  0  0  0  0  0
    4.6126   -0.0075   -0.8307 H   0  0  0  0  0  0  0  0  0  0  0  0
    3.4291   -1.3213   -1.0755 H   0  0  0  0  0  0  0  0  0  0  0  0
    4.0697   -1.0147    0.5576 H   0  0  0  0  0  0  0  0  0  0  0  0
   -0.5634    3.8477   -0.3696 H   0  0  0  0  0  0  0  0  0  0  0  0
   -2.2515    1.7071   -1.4976 H   0  0  0  0  0  0  0  0  0  0  0  0
   -2.3704    3.2984   -2.2898 H   0  0  0  0  0  0  0  0  0  0  0  0
   -2.8023    3.1305   -0.5617 H   0  0  0  0  0  0  0  0  0  0  0  0
    2.4162    4.4157    3.1943 H   0  0  0  0  0  0  0  0  0  0  0  0
    3.6039    5.9956    1.7090 H   0  0  0  0  0  0  0  0  0  0  0  0
    2.0551    6.1853    0.6871 H   0  0  0  0  0  0  0  0  0  0  0  0
  1  2  2  0  0  0  0
  2 34  1  0  0  0  0
  2  3  1  0  0  0  0
  3 33  1  1  0  0  0
  4  5  1  0  0  0  0
  4 37  1  0  0  0  0
  4  3  1  0  0  0  0
  6 57  1  0  0  0  0
  6  7  2  0  0  0  0
  7 56  1  0  0  0  0
  8  7  1  0  0  0  0
  8  9  1  0  0  0  0
  9 38  1  0  0  0  0
 10 11  1  0  0  0  0
 10  9  1  0  0  0  0
 11 39  1  0  0  0  0
 12 40  1  0  0  0  0
 12 11  2  0  0  0  0
 13 10  2  0  0  0  0
 14 15  2  0  0  0  0
 14 13  1  0  0  0  0
 15 12  1  0  0  0  0
 16 15  1  0  0  0  0
 17 16  2  0  0  0  0
 18 19  2  0  0  0  0
 18 17  1  0  0  0  0
 19 14  1  0  0  0  0
 20 43  1  0  0  0  0
 20 19  1  0  0  0  0
 21 20  1  0  0  0  0
 22 21  1  0  0  0  0
 22 44  1  0  0  0  0
 23 22  2  0  0  0  0
 24 26  2  0  0  0  0
 24 23  1  0  0  0  0
 25 24  1  0  0  0  0
 26 27  1  0  0  0  0
 27 47  1  0  0  0  0
 27 21  2  0  0  0  0
 28  8  2  0  0  0  0
 29  3  1  0  0  0  0
 29 30  1  0  0  0  0
 30 32  2  0  0  0  0
 31 30  1  0  0  0  0
 31 51  1  0  0  0  0
 34 52  1  0  0  0  0
 35 34  1  0  0  0  0
 35 55  1  0  0  0  0
 36  4  1  0  0  0  0
 41 13  1  0  0  0  0
 42 17  1  0  0  0  0
 45 23  1  0  0  0  0
 46 26  1  0  0  0  0
 48 29  1  0  0  0  0
 49 31  1  0  0  0  0
 50 31  1  0  0  0  0
 53 35  1  0  0  0  0
 54 35  1  0  0  0  0
 58  6  1  0  0  0  0
M  END
