-1 1
 OpenBabel05232414493D

 58 59  0  0  1  0  0  0  0  0999 V2000
   -0.1186   -3.2366   -4.2476 O   0  0  0  0  0  0  0  0  0  0  0  0
   -0.0240   -2.2632   -3.5184 C   0  0  0  0  0  0  0  0  0  0  0  0
    1.3068   -1.8263   -2.8793 C   0  0  2  0  0  0  0  0  0  0  0  0
    1.7743   -0.4855   -3.4781 C   0  0  0  0  0  0  0  0  0  0  0  0
    3.3720    0.1160   -2.8449 S   0  0  0  0  0  1  0  0  0  0  0  0
    2.3776    1.1660   -0.8939 C   0  0  0  0  0  3  0  0  0  0  0  0
    1.7020    0.3095   -0.0434 C   0  0  0  0  0  3  0  0  0  0  0  0
    0.3344   -0.0509   -0.2815 C   0  0  0  0  0  0  0  0  0  0  0  0
   -0.1134   -1.1700    0.4487 N   0  0  0  0  0  0  0  0  0  0  0  0
   -1.2891   -1.8454    0.0688 C   0  0  0  0  0  0  0  0  0  0  0  0
   -2.5442   -1.2001    0.1840 C   0  0  0  0  0  0  0  0  0  0  0  0
   -3.6960   -1.8447   -0.1979 C   0  0  0  0  0  0  0  0  0  0  0  0
   -1.2225   -3.1199   -0.4591 C   0  0  0  0  0  0  0  0  0  0  0  0
   -2.3914   -3.7792   -0.8950 C   0  0  0  0  0  0  0  0  0  0  0  0
   -3.6521   -3.1539   -0.7368 C   0  0  0  0  0  0  0  0  0  0  0  0
   -4.8190   -3.7700   -1.0959 N   0  0  0  0  0  0  0  0  0  0  0  0
   -4.6948   -4.9630   -1.6034 C   0  0  0  0  0  0  0  0  0  0  0  0
   -3.5572   -5.6380   -1.8694 N   0  0  0  0  0  0  0  0  0  0  0  0
   -2.4080   -5.0650   -1.5620 C   0  0  0  0  0  0  0  0  0  0  0  0
   -1.2251   -5.6682   -1.8679 N   0  0  0  0  0  0  0  0  0  0  0  0
   -0.9765   -6.9400   -2.3903 C   0  0  0  0  0  0  0  0  0  0  0  0
    0.3730   -7.3364   -2.4539 C   0  0  0  0  0  0  0  0  0  0  0  0
    0.7341   -8.5800   -2.9516 C   0  0  0  0  0  0  0  0  0  0  0  0
   -0.2575   -9.4574   -3.3879 C   0  0  0  0  0  0  0  0  0  0  0  0
    0.2273  -11.1688   -4.0660 Br  0  0  0  0  0  0  0  0  0  0  0  0
   -1.5965   -9.0893   -3.3280 C   0  0  0  0  0  0  0  0  0  0  0  0
   -1.9603   -7.8375   -2.8341 C   0  0  0  0  0  0  0  0  0  0  0  0
   -0.4369    0.4910   -1.0842 O   0  0  0  0  0  0  0  0  0  0  0  0
    2.3237   -2.8287   -3.0786 N   0  0  0  0  0  0  0  0  0  0  0  0
    2.3131   -4.0289   -2.4959 C   0  0  0  0  0  0  0  0  0  0  0  0
    3.4643   -4.9474   -2.8425 C   0  0  0  0  0  0  0  0  0  0  0  0
    1.4219   -4.4112   -1.7310 O   0  0  0  0  0  0  0  0  0  0  0  0
    1.1468   -1.7023   -1.7998 H   0  0  0  0  0  0  0  0  0  0  0  0
   -1.0635   -1.4554   -3.2122 N   0  0  0  0  0  0  0  0  0  0  0  0
   -2.3908   -1.7327   -3.6963 C   0  0  0  0  0  0  0  0  0  0  0  0
    1.8312   -0.6029   -4.5737 H   0  0  0  0  0  0  0  0  0  0  0  0
    0.9960    0.2612   -3.2734 H   0  0  0  0  0  0  0  0  0  0  0  0
    0.6313   -1.7678    0.7855 H   0  0  0  0  0  0  0  0  0  0  0  0
   -2.5728   -0.1853    0.5814 H   0  0  0  0  0  0  0  0  0  0  0  0
   -4.6751   -1.3723   -0.1022 H   0  0  0  0  0  0  0  0  0  0  0  0
   -0.2382   -3.5702   -0.6033 H   0  0  0  0  0  0  0  0  0  0  0  0
   -5.6192   -5.4914   -1.8698 H   0  0  0  0  0  0  0  0  0  0  0  0
   -0.3811   -5.0948   -1.7865 H   0  0  0  0  0  0  0  0  0  0  0  0
    1.1343   -6.6391   -2.0987 H   0  0  0  0  0  0  0  0  0  0  0  0
    1.7863   -8.8667   -2.9930 H   0  0  0  0  0  0  0  0  0  0  0  0
   -2.3716   -9.7764   -3.6719 H   0  0  0  0  0  0  0  0  0  0  0  0
   -3.0042   -7.5397   -2.7877 H   0  0  0  0  0  0  0  0  0  0  0  0
    3.1754   -2.5010   -3.5230 H   0  0  0  0  0  0  0  0  0  0  0  0
    4.3076   -4.4268   -3.3158 H   0  0  0  0  0  0  0  0  0  0  0  0
    3.0904   -5.7158   -3.5363 H   0  0  0  0  0  0  0  0  0  0  0  0
    3.8059   -5.4504   -1.9284 H   0  0  0  0  0  0  0  0  0  0  0  0
   -0.9343   -0.7094   -2.5209 H   0  0  0  0  0  0  0  0  0  0  0  0
   -2.5693   -2.8184   -3.7153 H   0  0  0  0  0  0  0  0  0  0  0  0
   -2.5485   -1.3524   -4.7206 H   0  0  0  0  0  0  0  0  0  0  0  0
   -3.1247   -1.2639   -3.0279 H   0  0  0  0  0  0  0  0  0  0  0  0
    2.2583   -0.2530    0.7123 H   0  0  0  0  0  0  0  0  0  0  0  0
    3.3583    1.5480   -0.6099 H   0  0  0  0  0  0  0  0  0  0  0  0
    1.7915    1.8104   -1.5520 H   0  0  0  0  0  0  0  0  0  0  0  0
  1  2  2  0  0  0  0
  2 34  1  0  0  0  0
  2  3  1  0  0  0  0
  3 33  1  1  0  0  0
  4 37  1  0  0  0  0
  4  3  1  0  0  0  0
  4  5  1  0  0  0  0
  6 57  1  0  0  0  0
  6  7  1  0  0  0  0
  7 56  1  0  0  0  0
  8  7  1  0  0  0  0
  8  9  1  0  0  0  0
  9 38  1  0  0  0  0
 10 11  1  0  0  0  0
 10  9  1  0  0  0  0
 11 39  1  0  0  0  0
 12 40  1  0  0  0  0
 12 11  2  0  0  0  0
 13 10  2  0  0  0  0
 14 15  2  0  0  0  0
 14 13  1  0  0  0  0
 15 12  1  0  0  0  0
 16 15  1  0  0  0  0
 17 16  2  0  0  0  0
 18 17  1  0  0  0  0
 18 19  2  0  0  0  0
 19 14  1  0  0  0  0
 20 43  1  0  0  0  0
 20 19  1  0  0  0  0
 21 20  1  0  0  0  0
 22 21  1  0  0  0  0
 22 44  1  0  0  0  0
 23 22  2  0  0  0  0
 24 26  2  0  0  0  0
 24 23  1  0  0  0  0
 25 24  1  0  0  0  0
 26 27  1  0  0  0  0
 27 47  1  0  0  0  0
 27 21  2  0  0  0  0
 28  8  2  0  0  0  0
 29  3  1  0  0  0  0
 29 30  1  0  0  0  0
 30 32  2  0  0  0  0
 31 30  1  0  0  0  0
 31 51  1  0  0  0  0
 34 52  1  0  0  0  0
 35 34  1  0  0  0  0
 35 55  1  0  0  0  0
 36  4  1  0  0  0  0
 41 13  1  0  0  0  0
 42 17  1  0  0  0  0
 45 23  1  0  0  0  0
 46 26  1  0  0  0  0
 48 29  1  0  0  0  0
 49 31  1  0  0  0  0
 50 31  1  0  0  0  0
 53 35  1  0  0  0  0
 54 35  1  0  0  0  0
 58  6  1  0  0  0  0
M  END
