67
-1 1
O        -4.083889    4.949084    0.813997
C        -4.537403    3.966453    0.255070
C        -3.749294    3.232757   -0.826934
C        -3.821091    4.062834   -2.139187
S        -3.464033    3.128445   -3.659776
C        -1.182138    2.587493   -3.221169
C        -0.910051    1.969401   -2.010567
C        -0.983628    0.542808   -1.879919
N        -0.865932    0.083665   -0.548984
C        -0.937773   -1.220633   -0.097877
C        -1.215623   -1.433495    1.284004
C        -1.285478   -2.697173    1.813686
C        -0.758591   -2.330505   -0.915240
C        -0.839934   -3.631606   -0.376607
C        -1.096662   -3.840151    0.998189
N        -1.178797   -5.092085    1.547168
C        -1.009806   -6.086663    0.724870
N        -0.769461   -6.030783   -0.604793
C        -0.687394   -4.835383   -1.162489
N        -0.452012   -4.747093   -2.495722
C        -0.372530   -5.874661   -3.395633
C         0.935936   -5.926905   -4.155665
C         0.961335   -5.596489   -5.491881
C         2.167212   -5.595348   -6.234020
C         3.348390   -5.925623   -5.623425
C         2.160103   -6.282864   -3.497419
C         3.375325   -6.277863   -4.245053
C         4.591173   -6.627178   -3.596684
C         4.607694   -6.968504   -2.266874
C         3.402802   -6.980203   -1.525996
C         2.209564   -6.647965   -2.122041
O        -1.148722   -0.259441   -2.802188
N        -4.208502    1.884287   -1.064813
C        -3.859797    0.872347   -0.219509
C        -4.103750   -0.516306   -0.769513
O        -3.392343    1.080136    0.890754
H        -2.712564    3.213125   -0.463934
N        -5.790689    3.486675    0.471944
C        -6.671577    4.032574    1.465365
H        -4.835019    4.482671   -2.239412
H        -3.136534    4.915697   -2.022472
H        -1.042606    0.787430    0.157940
H        -1.415940   -0.563219    1.913226
H        -1.504039   -2.856470    2.871023
H        -0.594093   -2.140101   -1.973776
H        -1.066552   -7.099813    1.143325
H        -0.378765   -3.823028   -2.897704
H        -1.201207   -5.830488   -4.122566
H        -0.522721   -6.776541   -2.787837
H         0.028448   -5.321084   -5.991550
H         2.148666   -5.322202   -7.291344
H         4.286327   -5.921396   -6.184820
H         5.516732   -6.616935   -4.178502
H         5.549042   -7.231258   -1.778605
H         3.419070   -7.252806   -0.468447
H         1.291623   -6.665206   -1.529464
H        -4.250848    1.672300   -2.071352
H        -5.110657   -0.596271   -1.204691
H        -3.977530   -1.254495    0.030985
H        -3.373579   -0.725238   -1.568549
H        -6.026166    2.629153   -0.011896
H        -6.181938    4.920744    1.886587
H        -6.863313    3.317132    2.282772
H        -7.639189    4.334133    1.030988
H        -0.729147    2.569819   -1.115019
H        -0.909192    3.634206   -3.360871
H        -1.160062    1.969051   -4.120394
