67
-1 1
O        -3.172236    6.375744    2.224964
C        -3.500580    5.385321    1.597351
C        -2.507324    4.657974    0.690284
C        -2.343941    5.510108   -0.592772
S        -1.694707    4.662791   -2.057815
C         0.120559    4.341800   -1.600373
C         0.387524    3.697567   -0.307701
C         0.168063    2.334109   -0.149731
N         0.307586    1.855209    1.200660
C         0.275423    0.561125    1.647354
C         0.086044    0.325895    3.043031
C         0.054367   -0.943293    3.563906
C         0.410946   -0.547553    0.811623
C         0.363431   -1.850898    1.341419
C         0.193425   -2.077943    2.727750
N         0.148584   -3.337417    3.265387
C         0.266701   -4.321934    2.423298
N         0.420918   -4.248791    1.080033
C         0.464834   -3.046580    0.534797
N         0.611212   -2.938199   -0.811249
C         0.612083   -4.051708   -1.729727
C         1.861392   -4.110987   -2.583389
C         1.794902   -3.763904   -3.913912
C         2.943428   -3.770865   -4.742067
C         4.160665   -4.126967   -4.223729
C         3.124776   -4.492911   -2.020761
C         4.282233   -4.497224   -2.855222
C         5.536098   -4.873713   -2.301391
C         5.643566   -5.231889   -0.980255
C         4.495895   -5.233413   -0.153301
C         3.267942   -4.875067   -0.656610
O        -0.176753    1.517605   -1.036704
N        -2.898806    3.303847    0.374671
C        -2.766609    2.325338    1.332556
C        -2.867245    0.916850    0.798202
O        -2.611628    2.598324    2.509502
H        -1.554639    4.653013    1.237721
N        -4.768087    4.897050    1.561929
C        -5.818111    5.406607    2.399099
H        -3.330039    5.883036   -0.911322
H        -1.731099    6.387764   -0.343292
H         0.240828    2.566715    1.915666
H        -0.066963    1.186774    3.698948
H        -0.095075   -1.112633    4.631897
H         0.503765   -0.339376   -0.253429
H         0.239056   -5.340519    2.831713
H         0.650031   -2.006517   -1.200856
H        -0.265660   -3.989114   -2.395656
H         0.495360   -4.960622   -1.124663
H         0.832517   -3.467824   -4.340467
H         2.852275   -3.483241   -5.791831
H         5.055234   -4.129567   -4.852034
H         6.417008   -4.870528   -2.948998
H         6.613566   -5.515475   -0.565011
H         4.584719   -5.518361    0.897376
H         2.395064   -4.883695    0.001135
H        -2.664824    3.030834   -0.583263
H        -3.847535    0.759097    0.322444
H        -2.732125    0.205589    1.621130
H        -2.082293    0.765057    0.037516
H        -4.886622    4.021122    1.067678
H        -5.447222    6.324790    2.873444
H        -6.094898    4.691481    3.191994
H        -6.720512    5.647986    1.814042
H         0.671669    4.317477    0.546676
H         0.613078    5.320441   -1.695675
H         0.417843    3.710352   -2.452589
