-1 1
 OpenBabel05232414493D

 67 69  0  0  1  0  0  0  0  0999 V2000
   -4.0839    4.9491    0.8140 O   0  0  0  0  0  0  0  0  0  0  0  0
   -4.5374    3.9665    0.2551 C   0  0  0  0  0  0  0  0  0  0  0  0
   -3.7493    3.2328   -0.8269 C   0  0  2  0  0  0  0  0  0  0  0  0
   -3.8211    4.0628   -2.1392 C   0  0  0  0  0  0  0  0  0  0  0  0
   -3.4640    3.1284   -3.6598 S   0  0  0  0  0  1  0  0  0  0  0  0
   -1.1821    2.5875   -3.2212 C   0  0  0  0  0  3  0  0  0  0  0  0
   -0.9101    1.9694   -2.0106 C   0  0  0  0  0  3  0  0  0  0  0  0
   -0.9836    0.5428   -1.8799 C   0  0  0  0  0  0  0  0  0  0  0  0
   -0.8659    0.0837   -0.5490 N   0  0  0  0  0  0  0  0  0  0  0  0
   -0.9378   -1.2206   -0.0979 C   0  0  0  0  0  0  0  0  0  0  0  0
   -1.2156   -1.4335    1.2840 C   0  0  0  0  0  0  0  0  0  0  0  0
   -1.2855   -2.6972    1.8137 C   0  0  0  0  0  0  0  0  0  0  0  0
   -0.7586   -2.3305   -0.9152 C   0  0  0  0  0  0  0  0  0  0  0  0
   -0.8399   -3.6316   -0.3766 C   0  0  0  0  0  0  0  0  0  0  0  0
   -1.0967   -3.8402    0.9982 C   0  0  0  0  0  0  0  0  0  0  0  0
   -1.1788   -5.0921    1.5472 N   0  0  0  0  0  0  0  0  0  0  0  0
   -1.0098   -6.0867    0.7249 C   0  0  0  0  0  0  0  0  0  0  0  0
   -0.7695   -6.0308   -0.6048 N   0  0  0  0  0  0  0  0  0  0  0  0
   -0.6874   -4.8354   -1.1625 C   0  0  0  0  0  0  0  0  0  0  0  0
   -0.4520   -4.7471   -2.4957 N   0  0  0  0  0  0  0  0  0  0  0  0
   -0.3725   -5.8747   -3.3956 C   0  0  0  0  0  0  0  0  0  0  0  0
    0.9359   -5.9269   -4.1557 C   0  0  0  0  0  0  0  0  0  0  0  0
    0.9613   -5.5965   -5.4919 C   0  0  0  0  0  0  0  0  0  0  0  0
    2.1672   -5.5953   -6.2340 C   0  0  0  0  0  0  0  0  0  0  0  0
    3.3484   -5.9256   -5.6234 C   0  0  0  0  0  0  0  0  0  0  0  0
    2.1601   -6.2829   -3.4974 C   0  0  0  0  0  0  0  0  0  0  0  0
    3.3753   -6.2779   -4.2451 C   0  0  0  0  0  0  0  0  0  0  0  0
    4.5912   -6.6272   -3.5967 C   0  0  0  0  0  0  0  0  0  0  0  0
    4.6077   -6.9685   -2.2669 C   0  0  0  0  0  0  0  0  0  0  0  0
    3.4028   -6.9802   -1.5260 C   0  0  0  0  0  0  0  0  0  0  0  0
    2.2096   -6.6480   -2.1220 C   0  0  0  0  0  0  0  0  0  0  0  0
   -1.1487   -0.2594   -2.8022 O   0  0  0  0  0  0  0  0  0  0  0  0
   -4.2085    1.8843   -1.0648 N   0  0  0  0  0  0  0  0  0  0  0  0
   -3.8598    0.8723   -0.2195 C   0  0  0  0  0  0  0  0  0  0  0  0
   -4.1037   -0.5163   -0.7695 C   0  0  0  0  0  0  0  0  0  0  0  0
   -3.3923    1.0801    0.8908 O   0  0  0  0  0  0  0  0  0  0  0  0
   -2.7126    3.2131   -0.4639 H   0  0  0  0  0  0  0  0  0  0  0  0
   -5.7907    3.4867    0.4719 N   0  0  0  0  0  0  0  0  0  0  0  0
   -6.6716    4.0326    1.4654 C   0  0  0  0  0  0  0  0  0  0  0  0
   -4.8350    4.4827   -2.2394 H   0  0  0  0  0  0  0  0  0  0  0  0
   -3.1365    4.9157   -2.0225 H   0  0  0  0  0  0  0  0  0  0  0  0
   -1.0426    0.7874    0.1579 H   0  0  0  0  0  0  0  0  0  0  0  0
   -1.4159   -0.5632    1.9132 H   0  0  0  0  0  0  0  0  0  0  0  0
   -1.5040   -2.8565    2.8710 H   0  0  0  0  0  0  0  0  0  0  0  0
   -0.5941   -2.1401   -1.9738 H   0  0  0  0  0  0  0  0  0  0  0  0
   -1.0666   -7.0998    1.1433 H   0  0  0  0  0  0  0  0  0  0  0  0
   -0.3788   -3.8230   -2.8977 H   0  0  0  0  0  0  0  0  0  0  0  0
   -1.2012   -5.8305   -4.1226 H   0  0  0  0  0  0  0  0  0  0  0  0
   -0.5227   -6.7765   -2.7878 H   0  0  0  0  0  0  0  0  0  0  0  0
    0.0284   -5.3211   -5.9916 H   0  0  0  0  0  0  0  0  0  0  0  0
    2.1487   -5.3222   -7.2913 H   0  0  0  0  0  0  0  0  0  0  0  0
    4.2863   -5.9214   -6.1848 H   0  0  0  0  0  0  0  0  0  0  0  0
    5.5167   -6.6169   -4.1785 H   0  0  0  0  0  0  0  0  0  0  0  0
    5.5490   -7.2313   -1.7786 H   0  0  0  0  0  0  0  0  0  0  0  0
    3.4191   -7.2528   -0.4684 H   0  0  0  0  0  0  0  0  0  0  0  0
    1.2916   -6.6652   -1.5295 H   0  0  0  0  0  0  0  0  0  0  0  0
   -4.2508    1.6723   -2.0714 H   0  0  0  0  0  0  0  0  0  0  0  0
   -5.1107   -0.5963   -1.2047 H   0  0  0  0  0  0  0  0  0  0  0  0
   -3.9775   -1.2545    0.0310 H   0  0  0  0  0  0  0  0  0  0  0  0
   -3.3736   -0.7252   -1.5685 H   0  0  0  0  0  0  0  0  0  0  0  0
   -6.0262    2.6292   -0.0119 H   0  0  0  0  0  0  0  0  0  0  0  0
   -6.1819    4.9207    1.8866 H   0  0  0  0  0  0  0  0  0  0  0  0
   -6.8633    3.3171    2.2828 H   0  0  0  0  0  0  0  0  0  0  0  0
   -7.6392    4.3341    1.0310 H   0  0  0  0  0  0  0  0  0  0  0  0
   -0.7291    2.5698   -1.1150 H   0  0  0  0  0  0  0  0  0  0  0  0
   -0.9092    3.6342   -3.3609 H   0  0  0  0  0  0  0  0  0  0  0  0
   -1.1601    1.9691   -4.1204 H   0  0  0  0  0  0  0  0  0  0  0  0
  2 38  1  0  0  0  0
  2  1  2  0  0  0  0
  3 37  1  1  0  0  0
  3  2  1  0  0  0  0
  4 41  1  0  0  0  0
  4  3  1  0  0  0  0
  5  4  1  0  0  0  0
  6  7  1  0  0  0  0
  7  8  1  0  0  0  0
  7 65  1  0  0  0  0
  8  9  1  0  0  0  0
  9 10  1  0  0  0  0
  9 42  1  0  0  0  0
 10 11  1  0  0  0  0
 11 12  2  0  0  0  0
 11 43  1  0  0  0  0
 12 44  1  0  0  0  0
 13 14  1  0  0  0  0
 13 10  2  0  0  0  0
 14 15  2  0  0  0  0
 15 16  1  0  0  0  0
 15 12  1  0  0  0  0
 17 46  1  0  0  0  0
 17 16  2  0  0  0  0
 18 17  1  0  0  0  0
 19 18  2  0  0  0  0
 19 14  1  0  0  0  0
 20 19  1  0  0  0  0
 21 49  1  0  0  0  0
 21 20  1  0  0  0  0
 22 26  1  0  0  0  0
 22 21  1  0  0  0  0
 23 22  2  0  0  0  0
 24 25  2  0  0  0  0
 24 23  1  0  0  0  0
 25 27  1  0  0  0  0
 26 31  1  0  0  0  0
 27 28  1  0  0  0  0
 27 26  2  0  0  0  0
 28 29  2  0  0  0  0
 29 54  1  0  0  0  0
 29 30  1  0  0  0  0
 30 55  1  0  0  0  0
 31 56  1  0  0  0  0
 31 30  2  0  0  0  0
 32  8  2  0  0  0  0
 33  3  1  0  0  0  0
 33 34  1  0  0  0  0
 34 36  2  0  0  0  0
 35 34  1  0  0  0  0
 35 59  1  0  0  0  0
 38 39  1  0  0  0  0
 39 62  1  0  0  0  0
 39 63  1  0  0  0  0
 40  4  1  0  0  0  0
 45 13  1  0  0  0  0
 47 20  1  0  0  0  0
 48 21  1  0  0  0  0
 50 23  1  0  0  0  0
 51 24  1  0  0  0  0
 52 25  1  0  0  0  0
 53 28  1  0  0  0  0
 57 33  1  0  0  0  0
 58 35  1  0  0  0  0
 60 35  1  0  0  0  0
 61 38  1  0  0  0  0
 64 39  1  0  0  0  0
 66  6  1  0  0  0  0
 67  6  1  0  0  0  0
M  END
