67
-1 1
O        -1.303532    6.345723    2.877673
C        -2.327688    5.886864    2.406901
C        -2.427118    5.497185    0.935801
C        -2.726083    6.753409    0.073230
S        -3.293293    6.345307   -1.613748
C        -1.196545    3.285733   -2.800718
C        -1.082623    2.807608   -1.561336
C        -0.695420    1.395101   -1.285518
N        -0.909806    1.028829    0.022328
C        -0.774169   -0.236255    0.589314
C        -1.247555   -0.391738    1.923555
C        -1.160867   -1.600206    2.566267
C        -0.225133   -1.327092   -0.065705
C        -0.136668   -2.573895    0.592967
C        -0.602911   -2.731184    1.918290
N        -0.536570   -3.927188    2.579760
C        -0.016169   -4.918040    1.913975
N         0.464445   -4.906411    0.651573
C         0.413749   -3.764941   -0.013661
N         0.891513   -3.723437   -1.281428
C         1.408951   -4.862029   -2.007615
C         2.819959   -4.640062   -2.508060
C         3.039569   -4.416448   -3.848625
C         4.336902   -4.164050   -4.356578
C         5.411288   -4.133655   -3.506964
C         3.931539   -4.621719   -1.601281
C         5.237657   -4.361879   -2.113281
C         6.342179   -4.337533   -1.218914
C         6.166326   -4.562033    0.124089
C         4.873223   -4.827684    0.632141
C         3.783614   -4.858480   -0.205166
O        -0.266673    0.636890   -2.140970
N        -3.454095    4.512061    0.665773
C        -3.300965    3.215854    0.978548
C        -4.276973    2.255086    0.338556
O        -2.399210    2.807395    1.717304
H        -1.435088    5.097799    0.667864
N        -3.486290    5.759317    3.111312
C        -3.593679    6.098702    4.502064
H        -3.496820    7.346904    0.595708
H        -1.808531    7.358748    0.065153
H        -1.310793    1.736231    0.648451
H        -1.692756    0.478177    2.414363
H        -1.522967   -1.726969    3.587794
H         0.112515   -1.178011   -1.089238
H         0.048773   -5.886580    2.425934
H         0.883571   -2.833076   -1.758642
H         0.757387   -5.080612   -2.870507
H         1.348504   -5.723994   -1.330628
H         2.190790   -4.427713   -4.538074
H         4.472036   -3.986368   -5.425636
H         6.416213   -3.931919   -3.886622
H         7.337859   -4.133674   -1.621519
H         7.022291   -4.536401    0.802282
H         4.737139   -5.007632    1.700759
H         2.795396   -5.068491    0.210233
H        -3.953173    4.768108   -0.214364
H        -5.120642    2.762401   -0.146535
H        -4.641942    1.549429    1.097061
H        -3.730490    1.675174   -0.421125
H        -4.266693    5.337150    2.625625
H        -2.619453    6.493718    4.819193
H        -3.834904    5.219023    5.122270
H        -4.361268    6.871031    4.677565
H        -1.311770    3.458486   -0.714219
H        -1.538435    4.316026   -2.950091
H        -0.972648    2.644465   -3.658520
