-1 1
 OpenBabel05192410563D

 67 70  0  0  1  0  0  0  0  0999 V2000
   -3.1722    6.3757    2.2250 O   0  0  0  0  0  0  0  0  0  0  0  0
   -3.5006    5.3853    1.5974 C   0  0  0  0  0  0  0  0  0  0  0  0
   -2.5073    4.6580    0.6903 C   0  0  2  0  0  0  0  0  0  0  0  0
   -2.3439    5.5101   -0.5928 C   0  0  0  0  0  0  0  0  0  0  0  0
   -1.6947    4.6628   -2.0578 S   0  0  0  0  0  0  0  0  0  0  0  0
    0.1206    4.3418   -1.6004 C   0  0  0  0  0  0  0  0  0  0  0  0
    0.3875    3.6976   -0.3077 C   0  0  0  0  0  3  0  0  0  0  0  0
    0.1681    2.3341   -0.1497 C   0  0  0  0  0  0  0  0  0  0  0  0
    0.3076    1.8552    1.2007 N   0  0  0  0  0  0  0  0  0  0  0  0
    0.2754    0.5611    1.6474 C   0  0  0  0  0  0  0  0  0  0  0  0
    0.0860    0.3259    3.0430 C   0  0  0  0  0  0  0  0  0  0  0  0
    0.0544   -0.9433    3.5639 C   0  0  0  0  0  0  0  0  0  0  0  0
    0.4109   -0.5476    0.8116 C   0  0  0  0  0  0  0  0  0  0  0  0
    0.3634   -1.8509    1.3414 C   0  0  0  0  0  0  0  0  0  0  0  0
    0.1934   -2.0779    2.7277 C   0  0  0  0  0  0  0  0  0  0  0  0
    0.1486   -3.3374    3.2654 N   0  0  0  0  0  0  0  0  0  0  0  0
    0.2667   -4.3219    2.4233 C   0  0  0  0  0  0  0  0  0  0  0  0
    0.4209   -4.2488    1.0800 N   0  0  0  0  0  0  0  0  0  0  0  0
    0.4648   -3.0466    0.5348 C   0  0  0  0  0  0  0  0  0  0  0  0
    0.6112   -2.9382   -0.8112 N   0  0  0  0  0  0  0  0  0  0  0  0
    0.6121   -4.0517   -1.7297 C   0  0  0  0  0  0  0  0  0  0  0  0
    1.8614   -4.1110   -2.5834 C   0  0  0  0  0  0  0  0  0  0  0  0
    1.7949   -3.7639   -3.9139 C   0  0  0  0  0  0  0  0  0  0  0  0
    2.9434   -3.7709   -4.7421 C   0  0  0  0  0  0  0  0  0  0  0  0
    4.1607   -4.1270   -4.2237 C   0  0  0  0  0  0  0  0  0  0  0  0
    3.1248   -4.4929   -2.0208 C   0  0  0  0  0  0  0  0  0  0  0  0
    4.2822   -4.4972   -2.8552 C   0  0  0  0  0  0  0  0  0  0  0  0
    5.5361   -4.8737   -2.3014 C   0  0  0  0  0  0  0  0  0  0  0  0
    5.6436   -5.2319   -0.9803 C   0  0  0  0  0  0  0  0  0  0  0  0
    4.4959   -5.2334   -0.1533 C   0  0  0  0  0  0  0  0  0  0  0  0
    3.2679   -4.8751   -0.6566 C   0  0  0  0  0  0  0  0  0  0  0  0
   -0.1768    1.5176   -1.0367 O   0  0  0  0  0  0  0  0  0  0  0  0
   -2.8988    3.3038    0.3747 N   0  0  0  0  0  0  0  0  0  0  0  0
   -2.7666    2.3253    1.3326 C   0  0  0  0  0  0  0  0  0  0  0  0
   -2.8672    0.9169    0.7982 C   0  0  0  0  0  0  0  0  0  0  0  0
   -2.6116    2.5983    2.5095 O   0  0  0  0  0  0  0  0  0  0  0  0
   -1.5546    4.6530    1.2377 H   0  0  0  0  0  0  0  0  0  0  0  0
   -4.7681    4.8971    1.5619 N   0  0  0  0  0  0  0  0  0  0  0  0
   -5.8181    5.4066    2.3991 C   0  0  0  0  0  0  0  0  0  0  0  0
   -3.3300    5.8830   -0.9113 H   0  0  0  0  0  0  0  0  0  0  0  0
   -1.7311    6.3878   -0.3433 H   0  0  0  0  0  0  0  0  0  0  0  0
    0.2408    2.5667    1.9157 H   0  0  0  0  0  0  0  0  0  0  0  0
   -0.0670    1.1868    3.6989 H   0  0  0  0  0  0  0  0  0  0  0  0
   -0.0951   -1.1126    4.6319 H   0  0  0  0  0  0  0  0  0  0  0  0
    0.5038   -0.3394   -0.2534 H   0  0  0  0  0  0  0  0  0  0  0  0
    0.2391   -5.3405    2.8317 H   0  0  0  0  0  0  0  0  0  0  0  0
    0.6500   -2.0065   -1.2009 H   0  0  0  0  0  0  0  0  0  0  0  0
   -0.2657   -3.9891   -2.3957 H   0  0  0  0  0  0  0  0  0  0  0  0
    0.4954   -4.9606   -1.1247 H   0  0  0  0  0  0  0  0  0  0  0  0
    0.8325   -3.4678   -4.3405 H   0  0  0  0  0  0  0  0  0  0  0  0
    2.8523   -3.4832   -5.7918 H   0  0  0  0  0  0  0  0  0  0  0  0
    5.0552   -4.1296   -4.8520 H   0  0  0  0  0  0  0  0  0  0  0  0
    6.4170   -4.8705   -2.9490 H   0  0  0  0  0  0  0  0  0  0  0  0
    6.6136   -5.5155   -0.5650 H   0  0  0  0  0  0  0  0  0  0  0  0
    4.5847   -5.5184    0.8974 H   0  0  0  0  0  0  0  0  0  0  0  0
    2.3951   -4.8837    0.0011 H   0  0  0  0  0  0  0  0  0  0  0  0
   -2.6648    3.0308   -0.5833 H   0  0  0  0  0  0  0  0  0  0  0  0
   -3.8475    0.7591    0.3224 H   0  0  0  0  0  0  0  0  0  0  0  0
   -2.7321    0.2056    1.6211 H   0  0  0  0  0  0  0  0  0  0  0  0
   -2.0823    0.7651    0.0375 H   0  0  0  0  0  0  0  0  0  0  0  0
   -4.8866    4.0211    1.0677 H   0  0  0  0  0  0  0  0  0  0  0  0
   -5.4472    6.3248    2.8734 H   0  0  0  0  0  0  0  0  0  0  0  0
   -6.0949    4.6915    3.1920 H   0  0  0  0  0  0  0  0  0  0  0  0
   -6.7205    5.6480    1.8140 H   0  0  0  0  0  0  0  0  0  0  0  0
    0.6717    4.3175    0.5467 H   0  0  0  0  0  0  0  0  0  0  0  0
    0.6131    5.3204   -1.6957 H   0  0  0  0  0  0  0  0  0  0  0  0
    0.4178    3.7104   -2.4526 H   0  0  0  0  0  0  0  0  0  0  0  0
  2  1  2  0  0  0  0
  3 37  1  1  0  0  0
  3  2  1  0  0  0  0
  4 41  1  0  0  0  0
  4  3  1  0  0  0  0
  5  6  1  0  0  0  0
  5  4  1  0  0  0  0
  6  7  1  0  0  0  0
  7  8  1  0  0  0  0
  7 65  1  0  0  0  0
  8  9  1  0  0  0  0
  9 10  1  0  0  0  0
  9 42  1  0  0  0  0
 10 11  1  0  0  0  0
 11 12  2  0  0  0  0
 11 43  1  0  0  0  0
 12 44  1  0  0  0  0
 13 14  1  0  0  0  0
 13 10  2  0  0  0  0
 14 15  2  0  0  0  0
 15 16  1  0  0  0  0
 15 12  1  0  0  0  0
 17 46  1  0  0  0  0
 17 16  2  0  0  0  0
 18 17  1  0  0  0  0
 19 18  2  0  0  0  0
 19 14  1  0  0  0  0
 20 19  1  0  0  0  0
 21 49  1  0  0  0  0
 21 20  1  0  0  0  0
 22 26  1  0  0  0  0
 22 21  1  0  0  0  0
 23 22  2  0  0  0  0
 24 25  2  0  0  0  0
 24 23  1  0  0  0  0
 25 27  1  0  0  0  0
 26 31  1  0  0  0  0
 27 28  1  0  0  0  0
 27 26  2  0  0  0  0
 28 29  2  0  0  0  0
 29 54  1  0  0  0  0
 29 30  1  0  0  0  0
 30 55  1  0  0  0  0
 31 30  2  0  0  0  0
 31 56  1  0  0  0  0
 32  8  2  0  0  0  0
 33  3  1  0  0  0  0
 33 34  1  0  0  0  0
 34 36  2  0  0  0  0
 35 34  1  0  0  0  0
 35 59  1  0  0  0  0
 38  2  1  0  0  0  0
 38 39  1  0  0  0  0
 39 62  1  0  0  0  0
 39 63  1  0  0  0  0
 40  4  1  0  0  0  0
 45 13  1  0  0  0  0
 47 20  1  0  0  0  0
 48 21  1  0  0  0  0
 50 23  1  0  0  0  0
 51 24  1  0  0  0  0
 52 25  1  0  0  0  0
 53 28  1  0  0  0  0
 57 33  1  0  0  0  0
 58 35  1  0  0  0  0
 60 35  1  0  0  0  0
 61 38  1  0  0  0  0
 64 39  1  0  0  0  0
 66  6  1  0  0  0  0
 67  6  1  0  0  0  0
M  END
