-1 1
 OpenBabel05192410563D

 81 83  0  0  1  0  0  0  0  0999 V2000
   -0.8498   -2.1886    4.9627 O   0  0  0  0  0  0  0  0  0  0  0  0
   -0.4361   -3.2016    5.4923 C   0  0  0  0  0  0  0  0  0  0  0  0
    0.9921   -3.7516    5.2753 C   0  0  2  0  0  0  0  0  0  0  0  0
    1.8790   -2.8354    4.4127 C   0  0  0  0  0  0  0  0  0  0  0  0
    1.8605   -3.1454    2.6253 S   0  0  0  0  0  0  0  0  0  0  0  0
    0.4797   -1.9634    2.0462 C   0  0  0  0  0  0  0  0  0  0  0  0
    0.6523   -0.5564    2.4328 C   0  0  0  0  0  3  0  0  0  0  0  0
    1.4360    0.3771    1.7719 C   0  0  0  0  0  0  0  0  0  0  0  0
    2.0030   -0.0414    0.4815 N   0  0  0  0  0  0  0  0  0  0  0  0
    1.3143   -0.1541   -0.6883 C   0  0  0  0  0  0  0  0  0  0  0  0
    2.0211   -0.2771   -1.9121 C   0  0  0  0  0  0  0  0  0  0  0  0
    1.3600   -0.3418   -3.1226 C   0  0  0  0  0  0  0  0  0  0  0  0
   -0.0416   -0.3006   -3.1555 C   0  0  0  0  0  0  0  0  0  0  0  0
   -0.8714   -0.0602   -4.6831 S   0  0  0  0  0  0  0  0  0  0  0  0
   -2.3018   -0.2768   -4.4824 O   0  0  0  0  0  0  0  0  0  0  0  0
   -0.6923    1.5956   -5.0060 N   0  0  0  0  0  0  0  0  0  0  0  0
    0.5874    1.9895   -5.5901 C   0  0  0  0  0  0  0  0  0  0  0  0
    0.5211    3.4368   -6.0772 C   0  0  0  0  0  0  0  0  0  0  0  0
    0.0991    4.4035   -4.9607 C   0  0  1  0  0  0  0  0  0  0  0  0
   -1.2129    3.8981   -4.3532 C   0  0  0  0  0  0  0  0  0  0  0  0
   -1.1241    2.4497   -3.8959 C   0  0  0  0  0  0  0  0  0  0  0  0
    1.2584    4.5648   -3.9499 C   0  0  0  0  0  0  0  0  0  0  0  0
    0.8866    4.9999   -2.6292 N   0  0  0  0  0  0  0  0  0  0  0  0
    0.9793    4.1547   -1.5580 C   0  0  0  0  0  0  0  0  0  0  0  0
    0.4385    4.7240   -0.4715 O   0  0  0  0  0  0  0  0  0  0  0  0
    0.2755    3.8897    0.6753 C   0  0  0  0  0  0  0  0  0  0  0  0
   -1.0089    3.0965    0.6313 C   0  0  0  0  0  0  0  0  0  0  0  0
   -1.9214    3.2002   -0.4199 C   0  0  0  0  0  0  0  0  0  0  0  0
   -3.0698    2.4075   -0.4424 C   0  0  0  0  0  0  0  0  0  0  0  0
   -3.3220    1.5129    0.5959 C   0  0  0  0  0  0  0  0  0  0  0  0
   -2.4195    1.4175    1.6571 C   0  0  0  0  0  0  0  0  0  0  0  0
   -1.2704    2.2021    1.6750 C   0  0  0  0  0  0  0  0  0  0  0  0
    1.4747    3.0537   -1.5943 O   0  0  0  0  0  0  0  0  0  0  0  0
   -0.1655   -0.7479   -5.7644 O   0  0  0  0  0  0  0  0  0  0  0  0
   -0.7598   -0.2211   -1.9557 C   0  0  0  0  0  0  0  0  0  0  0  0
   -0.0995   -0.1737   -0.7424 C   0  0  0  0  0  0  0  0  0  0  0  0
    1.7297    1.5374    2.1279 O   0  0  0  0  0  0  0  0  0  0  0  0
    0.9722   -5.0912    4.7169 N   0  0  0  0  0  0  0  0  0  0  0  0
    0.8075   -6.2210    5.4273 C   0  0  0  0  0  0  0  0  0  0  0  0
    0.9418   -7.5134    4.6500 C   0  0  0  0  0  0  0  0  0  0  0  0
    0.5653   -6.2290    6.6322 O   0  0  0  0  0  0  0  0  0  0  0  0
    1.4373   -3.8285    6.2826 H   0  0  0  0  0  0  0  0  0  0  0  0
   -1.1647   -3.9511    6.3595 N   0  0  0  0  0  0  0  0  0  0  0  0
   -2.5321   -3.6418    6.6832 C   0  0  0  0  0  0  0  0  0  0  0  0
    1.5979   -1.7819    4.5626 H   0  0  0  0  0  0  0  0  0  0  0  0
    2.9230   -2.9579    4.7325 H   0  0  0  0  0  0  0  0  0  0  0  0
    2.9447    0.3183    0.3724 H   0  0  0  0  0  0  0  0  0  0  0  0
    3.1132   -0.3008   -1.8894 H   0  0  0  0  0  0  0  0  0  0  0  0
    1.9235   -0.4303   -4.0539 H   0  0  0  0  0  0  0  0  0  0  0  0
    0.8031    1.3181   -6.4296 H   0  0  0  0  0  0  0  0  0  0  0  0
    1.4079    1.8728   -4.8542 H   0  0  0  0  0  0  0  0  0  0  0  0
   -0.2018    3.4982   -6.9063 H   0  0  0  0  0  0  0  0  0  0  0  0
    1.5069    3.7196   -6.4829 H   0  0  0  0  0  0  0  0  0  0  0  0
   -0.0993    5.3920   -5.4108 H   0  0  0  0  0  0  0  0  0  0  0  0
   -2.0065    3.9864   -5.1130 H   0  0  0  0  0  0  0  0  0  0  0  0
   -1.5120    4.5221   -3.4975 H   0  0  0  0  0  0  0  0  0  0  0  0
   -2.1085    2.1014   -3.5558 H   0  0  0  0  0  0  0  0  0  0  0  0
   -0.4279    2.3571   -3.0409 H   0  0  0  0  0  0  0  0  0  0  0  0
    2.0068    5.2501   -4.3848 H   0  0  0  0  0  0  0  0  0  0  0  0
    1.7657    3.6035   -3.7950 H   0  0  0  0  0  0  0  0  0  0  0  0
    0.4013    5.8745   -2.4851 H   0  0  0  0  0  0  0  0  0  0  0  0
    0.2697    4.5783    1.5319 H   0  0  0  0  0  0  0  0  0  0  0  0
    1.1230    3.1952    0.8008 H   0  0  0  0  0  0  0  0  0  0  0  0
   -1.7273    3.8975   -1.2375 H   0  0  0  0  0  0  0  0  0  0  0  0
   -3.7660    2.4850   -1.2816 H   0  0  0  0  0  0  0  0  0  0  0  0
   -4.2139    0.8820    0.5725 H   0  0  0  0  0  0  0  0  0  0  0  0
   -2.5855    0.6991    2.4629 H   0  0  0  0  0  0  0  0  0  0  0  0
   -0.5241    2.0822    2.4642 H   0  0  0  0  0  0  0  0  0  0  0  0
   -1.8501   -0.1778   -1.9805 H   0  0  0  0  0  0  0  0  0  0  0  0
   -0.6638   -0.0948    0.1863 H   0  0  0  0  0  0  0  0  0  0  0  0
    1.1191   -5.1075    3.7047 H   0  0  0  0  0  0  0  0  0  0  0  0
    1.7837   -8.0835    5.0680 H   0  0  0  0  0  0  0  0  0  0  0  0
    1.1064   -7.3620    3.5750 H   0  0  0  0  0  0  0  0  0  0  0  0
    0.0325   -8.1107    4.8030 H   0  0  0  0  0  0  0  0  0  0  0  0
   -0.7165   -4.7786    6.7559 H   0  0  0  0  0  0  0  0  0  0  0  0
   -2.8142   -2.7351    6.1328 H   0  0  0  0  0  0  0  0  0  0  0  0
   -2.6600   -3.4534    7.7619 H   0  0  0  0  0  0  0  0  0  0  0  0
   -3.2124   -4.4591    6.3922 H   0  0  0  0  0  0  0  0  0  0  0  0
   -0.4446   -2.3855    2.4593 H   0  0  0  0  0  0  0  0  0  0  0  0
    0.5021   -2.1567    0.9638 H   0  0  0  0  0  0  0  0  0  0  0  0
    0.2094   -0.2415    3.3801 H   0  0  0  0  0  0  0  0  0  0  0  0
  1  2  2  0  0  0  0
  2 43  1  0  0  0  0
  3  2  1  0  0  0  0
  3 42  1  1  0  0  0
  4 45  1  0  0  0  0
  4 46  1  0  0  0  0
  4  3  1  0  0  0  0
  5  4  1  0  0  0  0
  6  7  1  0  0  0  0
  6 79  1  0  0  0  0
  6  5  1  0  0  0  0
  7 81  1  0  0  0  0
  8 37  2  0  0  0  0
  8  7  1  0  0  0  0
  9  8  1  0  0  0  0
 10  9  1  0  0  0  0
 11 48  1  0  0  0  0
 11 10  2  0  0  0  0
 12 11  1  0  0  0  0
 13 12  2  0  0  0  0
 13 35  1  0  0  0  0
 14 15  2  0  0  0  0
 14 13  1  0  0  0  0
 16 14  1  0  0  0  0
 16 21  1  0  0  0  0
 17 16  1  0  0  0  0
 17 51  1  0  0  0  0
 18 17  1  0  0  0  0
 18 19  1  0  0  0  0
 19 54  1  6  0  0  0
 19 20  1  0  0  0  0
 19 22  1  0  0  0  0
 20 21  1  0  0  0  0
 20 56  1  0  0  0  0
 21 57  1  0  0  0  0
 21 58  1  0  0  0  0
 22 60  1  0  0  0  0
 22 23  1  0  0  0  0
 23 61  1  0  0  0  0
 23 24  1  0  0  0  0
 24 25  1  0  0  0  0
 25 26  1  0  0  0  0
 26 63  1  0  0  0  0
 26 62  1  0  0  0  0
 27 26  1  0  0  0  0
 27 32  1  0  0  0  0
 28 27  2  0  0  0  0
 29 28  1  0  0  0  0
 29 30  2  0  0  0  0
 30 31  1  0  0  0  0
 31 32  2  0  0  0  0
 31 67  1  0  0  0  0
 32 68  1  0  0  0  0
 33 24  2  0  0  0  0
 34 14  2  0  0  0  0
 35 36  2  0  0  0  0
 36 10  1  0  0  0  0
 36 70  1  0  0  0  0
 38  3  1  0  0  0  0
 38 39  1  0  0  0  0
 39 41  2  0  0  0  0
 40 74  1  0  0  0  0
 40 72  1  0  0  0  0
 40 39  1  0  0  0  0
 43 44  1  0  0  0  0
 43 75  1  0  0  0  0
 44 77  1  0  0  0  0
 47  9  1  0  0  0  0
 49 12  1  0  0  0  0
 50 17  1  0  0  0  0
 52 18  1  0  0  0  0
 53 18  1  0  0  0  0
 55 20  1  0  0  0  0
 59 22  1  0  0  0  0
 64 28  1  0  0  0  0
 65 29  1  0  0  0  0
 66 30  1  0  0  0  0
 69 35  1  0  0  0  0
 71 38  1  0  0  0  0
 73 40  1  0  0  0  0
 76 44  1  0  0  0  0
 78 44  1  0  0  0  0
 80  6  1  0  0  0  0
M  END
