81
-1 1
O         1.796164   -1.463864    4.364967
C         0.739252   -1.919061    4.774510
C         0.424306   -3.433413    4.818511
C         1.562426   -4.296143    4.225746
S         1.396884   -4.643929    2.433412
C         3.467720   -2.199800    0.497489
C         3.094773   -1.205214    1.305971
C         3.188070    0.238312    0.983396
N         3.191036    0.663497   -0.347326
C         2.435815    0.251355   -1.448640
C         2.768117    0.809262   -2.695633
C         1.952500    0.623329   -3.800392
C         0.797126   -0.152448   -3.671753
S        -0.468921   -0.014306   -4.898837
O        -1.473306   -1.040208   -4.651325
N        -1.187196    1.468572   -4.520665
C        -0.499143    2.655143   -5.026909
C        -1.373878    3.895567   -4.851587
C        -1.830801    4.081602   -3.397691
C        -2.519925    2.791920   -2.943059
C        -1.630274    1.572505   -3.125632
C        -0.632673    4.506844   -2.522254
N        -0.820592    4.332839   -1.104855
C        -0.036479    3.488529   -0.376030
O        -0.505935    3.387495    0.876458
C         0.047911    2.355381    1.688125
C        -0.515222    0.991945    1.359850
C        -1.600421    0.818597    0.497103
C        -2.073410   -0.462746    0.209694
C        -1.463797   -1.580050    0.779840
C        -0.385084   -1.414203    1.650086
C         0.075574   -0.132173    1.942760
O         0.941145    2.913418   -0.798118
O         0.126184    0.149361   -6.222097
C         0.506859   -0.788287   -2.463317
C         1.327594   -0.601465   -1.360766
O         3.329989    1.081206    1.851131
N        -0.807810   -3.763408    4.131483
C        -2.055634   -3.561425    4.561351
C        -3.145672   -4.045804    3.626574
O        -2.341647   -2.990602    5.618805
H         0.292408   -3.670538    5.890435
N        -0.250315   -1.146223    5.284179
C        -0.173892    0.288505    5.326975
H         2.504311   -3.769021    4.428679
H         1.583092   -5.246847    4.782082
H         3.410132    1.655498   -0.379775
H         3.660954    1.432896   -2.775563
H         2.198505    1.085130   -4.758358
H        -0.276750    2.496473   -6.088639
H         0.468051    2.799901   -4.505914
H        -2.258547    3.801905   -5.500949
H        -0.807688    4.775690   -5.198526
H        -2.577887    4.893839   -3.368229
H        -3.442711    2.658566   -3.530119
H        -2.814511    2.855469   -1.885046
H        -2.182785    0.658666   -2.870327
H        -0.762045    1.633423   -2.441104
H        -0.385406    5.557180   -2.756698
H         0.258683    3.913595   -2.766195
H        -1.626830    4.725985   -0.638321
H        -0.208474    2.639875    2.718543
H         1.145201    2.342061    1.598645
H        -2.077255    1.689473    0.041902
H        -2.918741   -0.586594   -0.472652
H        -1.812750   -2.587133    0.539276
H         0.139462   -2.291755    2.049526
H         0.923052   -0.016234    2.622566
H        -0.397194   -1.391508   -2.366563
H         1.059862   -1.065956   -0.414596
H        -0.591325   -4.220239    3.223289
H        -3.935232   -4.525126    4.220565
H        -2.775132   -4.741744    2.861972
H        -3.586022   -3.169396    3.127138
H        -1.098801   -1.625166    5.602455
H        -0.857344    0.757284    4.597457
H         0.854064    0.590178    5.084850
H        -0.427856    0.666079    6.330652
H         3.364010   -3.232162    0.849384
H         3.845066   -2.018962   -0.514318
H         2.751026   -1.421519    2.324172
