81
-1 1
O        -0.849757   -2.188591    4.962672
C        -0.436122   -3.201557    5.492295
C         0.992129   -3.751648    5.275315
C         1.878966   -2.835431    4.412693
S         1.860548   -3.145401    2.625288
C         0.479711   -1.963392    2.046221
C         0.652326   -0.556368    2.432837
C         1.435981    0.377143    1.771909
N         2.003027   -0.041386    0.481484
C         1.314323   -0.154110   -0.688255
C         2.021112   -0.277101   -1.912080
C         1.359994   -0.341815   -3.122608
C        -0.041570   -0.300601   -3.155478
S        -0.871391   -0.060234   -4.683139
O        -2.301784   -0.276821   -4.482358
N        -0.692269    1.595597   -5.006038
C         0.587368    1.989541   -5.590138
C         0.521054    3.436827   -6.077198
C         0.099134    4.403536   -4.960663
C        -1.212923    3.898119   -4.353194
C        -1.124124    2.449696   -3.895910
C         1.258433    4.564799   -3.949930
N         0.886630    4.999880   -2.629189
C         0.979322    4.154713   -1.557981
O         0.438541    4.723976   -0.471488
C         0.275526    3.889729    0.675327
C        -1.008863    3.096543    0.631312
C        -1.921357    3.200174   -0.419934
C        -3.069755    2.407542   -0.442388
C        -3.322047    1.512907    0.595857
C        -2.419506    1.417483    1.657052
C        -1.270415    2.202148    1.674951
O         1.474656    3.053730   -1.594335
O        -0.165548   -0.747929   -5.764419
C        -0.759753   -0.221066   -1.955683
C        -0.099466   -0.173661   -0.742380
O         1.729712    1.537428    2.127938
N         0.972199   -5.091205    4.716922
C         0.807527   -6.220976    5.427251
C         0.941829   -7.513355    4.649953
O         0.565294   -6.229036    6.632243
H         1.437284   -3.828489    6.282573
N        -1.164724   -3.951089    6.359491
C        -2.532113   -3.641845    6.683244
H         1.597862   -1.781869    4.562611
H         2.922998   -2.957929    4.732524
H         2.944707    0.318258    0.372423
H         3.113248   -0.300760   -1.889434
H         1.923482   -0.430250   -4.053894
H         0.803127    1.318111   -6.429628
H         1.407937    1.872794   -4.854230
H        -0.201784    3.498220   -6.906324
H         1.506924    3.719640   -6.482886
H        -0.099346    5.392013   -5.410793
H        -2.006538    3.986441   -5.112955
H        -1.512042    4.522100   -3.497538
H        -2.108539    2.101384   -3.555828
H        -0.427889    2.357103   -3.040911
H         2.006774    5.250064   -4.384785
H         1.765664    3.603499   -3.794984
H         0.401280    5.874485   -2.485098
H         0.269746    4.578305    1.531903
H         1.123003    3.195215    0.800816
H        -1.727326    3.897457   -1.237480
H        -3.766030    2.485042   -1.281561
H        -4.213921    0.882039    0.572452
H        -2.585522    0.699111    2.462900
H        -0.524095    2.082219    2.464235
H        -1.850098   -0.177755   -1.980540
H        -0.663771   -0.094807    0.186335
H         1.119119   -5.107547    3.704724
H         1.783701   -8.083472    5.068012
H         1.106434   -7.362022    3.575031
H         0.032482   -8.110749    4.803014
H        -0.716490   -4.778566    6.755863
H        -2.814248   -2.735094    6.132836
H        -2.659975   -3.453395    7.761900
H        -3.212447   -4.459140    6.392208
H        -0.444550   -2.385467    2.459300
H         0.502077   -2.156671    0.963769
H         0.209355   -0.241517    3.380114
