81
-1 1
O        -4.259449   -4.616584    8.983987
C        -3.716806   -5.413964    9.726622
C        -2.241722   -5.857273    9.593873
C        -1.478031   -5.171716    8.444315
S        -1.602309   -5.994354    6.831523
C        -3.257983   -4.399609    5.932326
C        -3.042881   -3.128686    6.424808
C        -2.112957   -2.181861    5.888774
N        -1.602281   -2.399169    4.570140
C        -2.309773   -2.477050    3.391152
C        -1.589222   -2.590281    2.181500
C        -2.228598   -2.530733    0.956609
C        -3.619531   -2.377018    0.910069
S        -4.390692   -1.905131   -0.600830
O        -5.837841   -1.996876   -0.436852
N        -4.034114   -0.253571   -0.730284
C        -2.707430    0.068980   -1.251660
C        -2.608805    1.561524   -1.565362
C        -2.963226    2.433338   -0.351762
C        -4.342800    2.008730    0.159465
C        -4.413925    0.518604    0.456411
C        -1.835828    2.344333    0.700877
N        -2.207822    2.717525    2.041405
C        -2.224071    1.801604    3.053184
O        -2.746473    2.346519    4.163369
C        -3.008733    1.460523    5.247867
C        -4.328213    0.738610    5.101234
C        -5.180751    0.950206    4.016249
C        -6.369302    0.229660    3.897416
C        -6.722844   -0.703081    4.870509
C        -5.882180   -0.907198    5.965971
C        -4.694140   -0.190878    6.080459
O        -1.830372    0.662912    2.960429
O        -3.728703   -2.544441   -1.735845
C        -4.355000   -2.334298    2.098417
C        -3.715040   -2.405302    3.323765
O        -1.682253   -1.197035    6.489633
N        -2.129366   -7.296664    9.445523
C        -2.161016   -8.194046   10.438381
C        -1.880027   -9.627897   10.036287
O        -2.398905   -7.906036   11.613095
H        -1.769109   -5.588377   10.555587
N        -4.339942   -5.979451   10.794803
C        -5.722860   -5.733451   11.099000
H        -1.844440   -4.136015    8.340110
H        -0.417640   -5.114596    8.732940
H        -0.696026   -1.955083    4.468431
H        -0.503467   -2.699670    2.223267
H        -1.655709   -2.603129    0.029974
H        -2.543166   -0.519393   -2.162025
H        -1.919998   -0.218525   -0.526832
H        -3.294884    1.795984   -2.394643
H        -1.586874    1.780914   -1.916698
H        -3.035493    3.483347   -0.685096
H        -5.094376    2.259736   -0.606355
H        -4.610074    2.564717    1.070763
H        -5.438160    0.237749    0.735750
H        -3.757557    0.267648    1.311823
H        -0.983698    2.953384    0.352337
H        -1.469568    1.312796    0.787059
H        -2.599786    3.628242    2.238007
H        -3.020694    2.099173    6.142129
H        -2.199120    0.721982    5.363084
H        -4.910331    1.678009    3.248952
H        -7.018442    0.393559    3.033500
H        -7.646492   -1.277777    4.771274
H        -6.131116   -1.653434    6.723347
H        -4.011930   -0.387213    6.910689
H        -5.438314   -2.208553    2.059618
H        -4.296546   -2.344791    4.242132
H        -1.983502   -7.561750    8.462055
H        -0.972649   -9.963395   10.558929
H        -1.742097   -9.756261    8.954599
H        -2.710559  -10.259288   10.381655
H        -3.793358   -6.627088   11.367204
H        -6.112219   -5.023948   10.357301
H        -5.846257   -5.295561   12.103762
H        -6.322095   -6.658428   11.051772
H        -4.056775   -4.994167    6.372220
H        -2.951362   -4.674500    4.922516
H        -3.469577   -2.866637    7.394298
