-1 1
 OpenBabel05232414493D

 75 76  0  0  1  0  0  0  0  0999 V2000
   -2.9359  -10.6583   -3.3587 O   0  0  0  0  0  0  0  0  0  0  0  0
   -3.3741   -9.5410   -3.1469 C   0  0  0  0  0  0  0  0  0  0  0  0
   -4.3509   -8.8890   -4.1235 C   0  0  2  0  0  0  0  0  0  0  0  0
   -3.5286   -8.3568   -5.3326 C   0  0  0  0  0  0  0  0  0  0  0  0
   -4.3195   -7.0293   -6.2898 S   0  0  0  0  0  1  0  0  0  0  0  0
   -2.9207   -5.3326   -5.0367 C   0  0  0  0  0  3  0  0  0  0  0  0
   -3.3433   -4.0287   -4.9443 C   0  0  0  0  0  3  0  0  0  0  0  0
   -4.3233   -3.5332   -4.0131 C   0  0  0  0  0  0  0  0  0  0  0  0
   -4.6659   -4.3305   -2.8624 N   0  0  0  0  0  0  0  0  0  0  0  0
   -3.8803   -4.8980   -1.8870 C   0  0  0  0  0  0  0  0  0  0  0  0
   -4.5238   -5.4938   -0.7756 C   0  0  0  0  0  0  0  0  0  0  0  0
   -3.8013   -6.0523    0.2623 C   0  0  0  0  0  0  0  0  0  0  0  0
   -2.4045   -6.0320    0.2148 C   0  0  0  0  0  0  0  0  0  0  0  0
   -1.4841   -6.6776    1.5672 S   0  0  0  0  0  0  0  0  0  0  0  0
   -0.0796   -6.7965    1.1575 O   0  0  0  0  0  0  0  0  0  0  0  0
   -1.6553   -5.4510    2.7003 N   0  0  0  0  0  0  0  0  0  0  0  0
   -1.1671   -4.1149    2.3100 C   0  0  0  0  0  0  0  0  0  0  0  0
   -0.7543   -3.4793    3.6351 C   0  0  0  0  0  0  0  0  0  0  0  0
   -0.2179   -4.6792    4.4114 C   0  0  2  0  0  0  0  0  0  0  0  0
    0.7566   -4.9668    3.9957 H   0  0  0  0  0  0  0  0  0  0  0  0
   -1.2388   -5.7753    4.0707 C   0  0  0  0  0  0  0  0  0  0  0  0
   -0.0358   -4.4561    5.8283 N   0  0  0  0  0  0  0  0  0  0  0  0
    0.7926   -5.2193    6.6018 C   0  0  0  0  0  0  0  0  0  0  0  0
    1.8168   -5.7135    5.8772 O   0  0  0  0  0  0  0  0  0  0  0  0
    2.2907   -7.0091    6.2497 C   0  0  0  0  0  0  0  0  0  0  0  0
    1.3741   -8.0454    5.6524 C   0  0  0  0  0  0  0  0  0  0  0  0
    1.4651   -8.3552    4.2894 C   0  0  0  0  0  0  0  0  0  0  0  0
    0.5241   -9.1844    3.6860 C   0  0  0  0  0  0  0  0  0  0  0  0
   -0.5189   -9.7185    4.4436 C   0  0  0  0  0  0  0  0  0  0  0  0
   -0.6113   -9.4257    5.8027 C   0  0  0  0  0  0  0  0  0  0  0  0
    0.3286   -8.5879    6.4052 C   0  0  0  0  0  0  0  0  0  0  0  0
    0.6452   -5.4080    7.7859 O   0  0  0  0  0  0  0  0  0  0  0  0
   -2.1458   -7.8426    2.1487 O   0  0  0  0  0  0  0  0  0  0  0  0
   -1.7450   -5.4652   -0.8764 C   0  0  0  0  0  0  0  0  0  0  0  0
   -2.4699   -4.9003   -1.9148 C   0  0  0  0  0  0  0  0  0  0  0  0
   -4.9566   -2.4979   -4.1425 O   0  0  0  0  0  0  0  0  0  0  0  0
   -5.1347   -7.8181   -3.5485 N   0  0  0  0  0  0  0  0  0  0  0  0
   -6.1766   -8.0861   -2.7136 C   0  0  0  0  0  0  0  0  0  0  0  0
   -7.1905   -6.9637   -2.5798 C   0  0  0  0  0  0  0  0  0  0  0  0
   -6.3129   -9.1460   -2.1314 O   0  0  0  0  0  0  0  0  0  0  0  0
   -5.0166   -9.7006   -4.4597 H   0  0  0  0  0  0  0  0  0  0  0  0
   -2.9701   -8.7515   -2.1197 N   0  0  0  0  0  0  0  0  0  0  0  0
   -2.0367   -9.1991   -1.1198 C   0  0  0  0  0  0  0  0  0  0  0  0
   -2.5602   -7.9830   -4.9505 H   0  0  0  0  0  0  0  0  0  0  0  0
   -3.2898   -9.2181   -5.9704 H   0  0  0  0  0  0  0  0  0  0  0  0
   -5.5868   -4.0529   -2.5394 H   0  0  0  0  0  0  0  0  0  0  0  0
   -5.6144   -5.5178   -0.7448 H   0  0  0  0  0  0  0  0  0  0  0  0
   -4.3138   -6.5160    1.1069 H   0  0  0  0  0  0  0  0  0  0  0  0
   -1.9512   -3.5544    1.7812 H   0  0  0  0  0  0  0  0  0  0  0  0
   -0.2917   -4.1959    1.6418 H   0  0  0  0  0  0  0  0  0  0  0  0
   -1.6319   -3.0561    4.1525 H   0  0  0  0  0  0  0  0  0  0  0  0
   -0.0126   -2.6791    3.5090 H   0  0  0  0  0  0  0  0  0  0  0  0
   -2.1038   -5.7229    4.7547 H   0  0  0  0  0  0  0  0  0  0  0  0
   -0.8143   -6.7856    4.1497 H   0  0  0  0  0  0  0  0  0  0  0  0
   -0.8345   -4.1052    6.3451 H   0  0  0  0  0  0  0  0  0  0  0  0
    2.3382   -7.0822    7.3453 H   0  0  0  0  0  0  0  0  0  0  0  0
    3.3048   -7.0770    5.8357 H   0  0  0  0  0  0  0  0  0  0  0  0
    2.2618   -7.9134    3.6850 H   0  0  0  0  0  0  0  0  0  0  0  0
    0.5802   -9.3840    2.6150 H   0  0  0  0  0  0  0  0  0  0  0  0
   -1.2730  -10.3424    3.9610 H   0  0  0  0  0  0  0  0  0  0  0  0
   -1.4317   -9.8363    6.3956 H   0  0  0  0  0  0  0  0  0  0  0  0
    0.2380   -8.3280    7.4630 H   0  0  0  0  0  0  0  0  0  0  0  0
   -0.6539   -5.4666   -0.9056 H   0  0  0  0  0  0  0  0  0  0  0  0
   -1.9512   -4.4431   -2.7557 H   0  0  0  0  0  0  0  0  0  0  0  0
   -5.2268   -7.0290   -4.2034 H   0  0  0  0  0  0  0  0  0  0  0  0
   -8.0518   -7.2024   -3.2221 H   0  0  0  0  0  0  0  0  0  0  0  0
   -6.7886   -5.9919   -2.8942 H   0  0  0  0  0  0  0  0  0  0  0  0
   -7.5479   -6.9201   -1.5422 H   0  0  0  0  0  0  0  0  0  0  0  0
   -3.4544   -7.8697   -1.9987 H   0  0  0  0  0  0  0  0  0  0  0  0
   -1.1417   -8.5565   -1.0834 H   0  0  0  0  0  0  0  0  0  0  0  0
   -1.7282  -10.2177   -1.3876 H   0  0  0  0  0  0  0  0  0  0  0  0
   -2.4904   -9.2144   -0.1168 H   0  0  0  0  0  0  0  0  0  0  0  0
   -3.1103   -3.3196   -5.7414 H   0  0  0  0  0  0  0  0  0  0  0  0
   -3.0470   -6.0240   -4.2032 H   0  0  0  0  0  0  0  0  0  0  0  0
   -2.1321   -5.5968   -5.7407 H   0  0  0  0  0  0  0  0  0  0  0  0
  1  2  2  0  0  0  0
  2 42  1  0  0  0  0
  3 41  1  6  0  0  0
  3 37  1  0  0  0  0
  3  2  1  0  0  0  0
  4 44  1  0  0  0  0
  4  3  1  0  0  0  0
  5  4  1  0  0  0  0
  6  7  1  0  0  0  0
  6 74  1  0  0  0  0
  7  8  1  0  0  0  0
  8  9  1  0  0  0  0
  9 46  1  0  0  0  0
  9 10  1  0  0  0  0
 10 11  1  0  0  0  0
 11 47  1  0  0  0  0
 11 12  2  0  0  0  0
 12 48  1  0  0  0  0
 13 12  1  0  0  0  0
 13 14  1  0  0  0  0
 14 33  2  0  0  0  0
 14 16  1  0  0  0  0
 15 14  2  0  0  0  0
 16 21  1  0  0  0  0
 17 16  1  0  0  0  0
 17 18  1  0  0  0  0
 18 51  1  0  0  0  0
 18 19  1  0  0  0  0
 19 20  1  6  0  0  0
 19 22  1  0  0  0  0
 21 54  1  0  0  0  0
 21 19  1  0  0  0  0
 21 53  1  0  0  0  0
 22 55  1  0  0  0  0
 22 23  1  0  0  0  0
 23 32  2  0  0  0  0
 24 25  1  0  0  0  0
 24 23  1  0  0  0  0
 25 56  1  0  0  0  0
 26 25  1  0  0  0  0
 26 31  1  0  0  0  0
 27 26  2  0  0  0  0
 28 27  1  0  0  0  0
 28 29  2  0  0  0  0
 29 30  1  0  0  0  0
 30 61  1  0  0  0  0
 30 31  2  0  0  0  0
 31 62  1  0  0  0  0
 34 13  2  0  0  0  0
 35 10  2  0  0  0  0
 35 34  1  0  0  0  0
 36  8  2  0  0  0  0
 37 38  1  0  0  0  0
 38 39  1  0  0  0  0
 38 40  2  0  0  0  0
 39 68  1  0  0  0  0
 42 69  1  0  0  0  0
 42 43  1  0  0  0  0
 43 70  1  0  0  0  0
 43 72  1  0  0  0  0
 45  4  1  0  0  0  0
 49 17  1  0  0  0  0
 50 17  1  0  0  0  0
 52 18  1  0  0  0  0
 57 25  1  0  0  0  0
 58 27  1  0  0  0  0
 59 28  1  0  0  0  0
 60 29  1  0  0  0  0
 63 34  1  0  0  0  0
 64 35  1  0  0  0  0
 65 37  1  0  0  0  0
 66 39  1  0  0  0  0
 67 39  1  0  0  0  0
 71 43  1  0  0  0  0
 73  7  1  0  0  0  0
 75  6  1  0  0  0  0
M  END
