75
-1 1
O        -0.075308   -2.993047   -4.502313
C        -0.913188   -2.351828   -3.889679
C        -2.288645   -2.073281   -4.519214
C        -2.167182   -1.733257   -6.020293
S        -2.195415    0.036886   -6.439410
C        -0.722253    0.747583   -5.526077
C        -0.825407    2.222732   -5.418877
C        -1.634440    2.895450   -4.512513
N        -2.212593    2.031853   -3.420989
C        -1.507119    1.608806   -2.334868
C        -2.189548    1.179689   -1.164756
C        -1.503195    0.688452   -0.070877
C        -0.104409    0.632975   -0.100455
S         0.762206    0.005123    1.283507
O         2.192004   -0.064922    0.952498
N         0.488938    1.202117    2.430467
C         0.910500    2.568137    2.061527
C         1.292769    3.204449    3.395722
C         1.876652    2.020106    4.161485
H         2.864791    1.778567    3.748611
C         0.904555    0.886514    3.801916
N         2.039750    2.235774    5.582322
C         2.893908    1.503461    6.356026
O         3.941746    1.055126    5.634743
C         4.468151   -0.219407    6.006730
C         3.594422   -1.292732    5.410146
C         3.688533   -1.588911    4.044492
C         2.780264   -2.454351    3.442132
C         1.767759   -3.039052    4.203766
C         1.673069   -2.760061    5.565633
C         2.579691   -1.885703    6.166971
O         2.748942    1.302205    7.538702
O         0.122619   -1.200099    1.813225
C         0.593685    1.071278   -1.231070
C        -0.091768    1.538626   -2.336190
O        -1.972425    4.078861   -4.437346
N        -3.103075   -1.131223   -3.791543
C        -4.266533   -1.502749   -3.187251
C        -5.123142   -0.355521   -2.687229
O        -4.604942   -2.662075   -3.035219
H        -2.803473   -3.044305   -4.431851
N        -0.744081   -1.934190   -2.616793
C         0.448819   -2.249965   -1.870565
H        -1.264128   -2.226726   -6.404867
H        -3.032334   -2.147957   -6.557627
H        -3.131993    2.395361   -3.185964
H        -3.279746    1.232364   -1.138412
H        -2.044225    0.345787    0.813538
H         0.100052    3.096744    1.540309
H         1.787097    2.540916    1.391024
H         0.396952    3.584584    3.915731
H         2.000111    4.036883    3.281204
H         0.031783    0.899846    4.478435
H         1.367659   -0.107022    3.878064
H         1.225043    2.552682    6.096037
H         4.519414   -0.291157    7.102379
H         5.483824   -0.245838    5.591867
H         4.457810   -1.106146    3.436108
H         2.835735   -2.640573    2.368824
H         1.037581   -3.691645    3.722206
H         0.875818   -3.209845    6.161811
H         2.485163   -1.636013    7.226889
H         1.684378    1.027154   -1.236113
H         0.439134    1.879979   -3.226718
H        -2.968336   -0.145251   -4.026030
H        -6.147094   -0.503758   -3.055857
H        -4.757939    0.628028   -3.010221
H        -5.159004   -0.392113   -1.588646
H        -1.455534   -1.340472   -2.207138
H         1.243917   -1.502124   -2.022113
H         0.830910   -3.222698   -2.207984
H         0.216613   -2.296744   -0.797995
H        -0.409373    2.831263   -6.225035
H        -0.697270    0.234710   -4.551450
H         0.174379    0.431983   -6.078334
