-1 1
 OpenBabel05232413483D

 75 76  0  0  1  0  0  0  0  0999 V2000
   -0.6958   -4.0201   -3.6004 O   0  0  0  0  0  0  0  0  0  0  0  0
   -1.1177   -2.8835   -3.4744 C   0  0  0  0  0  0  0  0  0  0  0  0
   -2.1437   -2.3220   -4.4510 C   0  0  2  0  0  0  0  0  0  0  0  0
   -1.4022   -1.8909   -5.7475 C   0  0  0  0  0  0  0  0  0  0  0  0
   -2.3788   -0.8178   -6.8490 S   0  0  0  0  0  1  0  0  0  0  0  0
   -0.8460    1.3723   -5.3536 C   0  0  0  0  0  0  0  0  0  0  0  0
   -1.1909    2.6678   -5.2530 C   0  0  0  0  0  0  0  0  0  0  0  0
   -2.1840    3.1954   -4.3080 C   0  0  0  0  0  0  0  0  0  0  0  0
   -2.4815    2.4796   -3.1252 N   0  0  0  0  0  0  0  0  0  0  0  0
   -1.6779    1.8413   -2.1940 C   0  0  0  0  0  0  0  0  0  0  0  0
   -2.3148    1.1962   -1.1128 C   0  0  0  0  0  0  0  0  0  0  0  0
   -1.5832    0.6146   -0.0919 C   0  0  0  0  0  0  0  0  0  0  0  0
   -0.1889    0.6638   -0.1384 C   0  0  0  0  0  0  0  0  0  0  0  0
    0.7471    0.0087    1.2058 S   0  0  0  0  0  0  0  0  0  0  0  0
    2.1492   -0.0858    0.7852 O   0  0  0  0  0  0  0  0  0  0  0  0
    0.5636    1.2215    2.3495 N   0  0  0  0  0  0  0  0  0  0  0  0
    1.0550    2.5627    1.9821 C   0  0  0  0  0  0  0  0  0  0  0  0
    1.4461    3.1837    3.3206 C   0  0  0  0  0  0  0  0  0  0  0  0
    1.9722    1.9757    4.0917 C   0  0  2  0  0  0  0  0  0  0  0  0
    2.9533    1.6942    3.6875 H   0  0  0  0  0  0  0  0  0  0  0  0
    0.9587    0.8817    3.7231 C   0  0  0  0  0  0  0  0  0  0  0  0
    2.1326    2.1829    5.5131 N   0  0  0  0  0  0  0  0  0  0  0  0
    2.9546    1.4143    6.2892 C   0  0  0  0  0  0  0  0  0  0  0  0
    3.9925    0.9365    5.5737 O   0  0  0  0  0  0  0  0  0  0  0  0
    4.4676   -0.3625    5.9340 C   0  0  0  0  0  0  0  0  0  0  0  0
    3.5683   -1.3938    5.3027 C   0  0  0  0  0  0  0  0  0  0  0  0
    3.6886   -1.6828    3.9374 C   0  0  0  0  0  0  0  0  0  0  0  0
    2.7646   -2.5079    3.3028 C   0  0  0  0  0  0  0  0  0  0  0  0
    1.7091   -3.0584    4.0310 C   0  0  0  0  0  0  0  0  0  0  0  0
    1.5876   -2.7862    5.3920 C   0  0  0  0  0  0  0  0  0  0  0  0
    2.5108   -1.9529    6.0260 C   0  0  0  0  0  0  0  0  0  0  0  0
    2.7898    1.2091    7.4680 O   0  0  0  0  0  0  0  0  0  0  0  0
    0.0979   -1.1689    1.7725 O   0  0  0  0  0  0  0  0  0  0  0  0
    0.4634    1.2608   -1.2161 C   0  0  0  0  0  0  0  0  0  0  0  0
   -0.2718    1.8482   -2.2363 C   0  0  0  0  0  0  0  0  0  0  0  0
   -2.8400    4.1922   -4.5341 O   0  0  0  0  0  0  0  0  0  0  0  0
   -2.9004   -1.1908   -3.9540 N   0  0  0  0  0  0  0  0  0  0  0  0
   -3.8619   -1.3319   -3.0009 C   0  0  0  0  0  0  0  0  0  0  0  0
   -4.9089   -0.2304   -3.0053 C   0  0  0  0  0  0  0  0  0  0  0  0
   -3.9092   -2.2622   -2.2168 O   0  0  0  0  0  0  0  0  0  0  0  0
   -2.8224   -3.1592   -4.6841 H   0  0  0  0  0  0  0  0  0  0  0  0
   -0.6433   -2.0070   -2.5496 N   0  0  0  0  0  0  0  0  0  0  0  0
    0.3220   -2.3958   -1.5561 C   0  0  0  0  0  0  0  0  0  0  0  0
   -0.4718   -1.3743   -5.4419 H   0  0  0  0  0  0  0  0  0  0  0  0
   -1.0867   -2.8127   -6.2557 H   0  0  0  0  0  0  0  0  0  0  0  0
   -3.3848    2.7728   -2.7681 H   0  0  0  0  0  0  0  0  0  0  0  0
   -3.4047    1.1500   -1.0872 H   0  0  0  0  0  0  0  0  0  0  0  0
   -2.0882    0.1116    0.7343 H   0  0  0  0  0  0  0  0  0  0  0  0
    0.2775    3.1281    1.4485 H   0  0  0  0  0  0  0  0  0  0  0  0
    1.9406    2.4902    1.3264 H   0  0  0  0  0  0  0  0  0  0  0  0
    0.5599    3.6000    3.8288 H   0  0  0  0  0  0  0  0  0  0  0  0
    2.1887    3.9861    3.2152 H   0  0  0  0  0  0  0  0  0  0  0  0
    0.0825    0.9249    4.3932 H   0  0  0  0  0  0  0  0  0  0  0  0
    1.3837   -0.1289    3.7972 H   0  0  0  0  0  0  0  0  0  0  0  0
    1.3242    2.5220    6.0228 H   0  0  0  0  0  0  0  0  0  0  0  0
    4.4951   -0.4529    7.0290 H   0  0  0  0  0  0  0  0  0  0  0  0
    5.4896   -0.4177    5.5382 H   0  0  0  0  0  0  0  0  0  0  0  0
    4.4962   -1.2293    3.3565 H   0  0  0  0  0  0  0  0  0  0  0  0
    2.8440   -2.6930    2.2306 H   0  0  0  0  0  0  0  0  0  0  0  0
    0.9684   -3.6790    3.5239 H   0  0  0  0  0  0  0  0  0  0  0  0
    0.7579   -3.2102    5.9620 H   0  0  0  0  0  0  0  0  0  0  0  0
    2.3978   -1.7103    7.0858 H   0  0  0  0  0  0  0  0  0  0  0  0
    1.5542    1.2689   -1.2485 H   0  0  0  0  0  0  0  0  0  0  0  0
    0.2443    2.3249   -3.0672 H   0  0  0  0  0  0  0  0  0  0  0  0
   -3.0965   -0.5500   -4.7446 H   0  0  0  0  0  0  0  0  0  0  0  0
   -5.7122   -0.5199   -3.7003 H   0  0  0  0  0  0  0  0  0  0  0  0
   -4.4992    0.7280   -3.3524 H   0  0  0  0  0  0  0  0  0  0  0  0
   -5.3414   -0.1331   -2.0008 H   0  0  0  0  0  0  0  0  0  0  0  0
   -1.1352   -1.1264   -2.4593 H   0  0  0  0  0  0  0  0  0  0  0  0
    1.1855   -1.7113   -1.5405 H   0  0  0  0  0  0  0  0  0  0  0  0
    0.6736   -3.4021   -1.8169 H   0  0  0  0  0  0  0  0  0  0  0  0
   -0.1152   -2.4279   -0.5453 H   0  0  0  0  0  0  0  0  0  0  0  0
   -0.8970    3.3928   -6.0154 H   0  0  0  0  0  0  0  0  0  0  0  0
   -1.1661    0.6279   -4.6235 H   0  0  0  0  0  0  0  0  0  0  0  0
   -0.1960    1.0131   -6.1517 H   0  0  0  0  0  0  0  0  0  0  0  0
  1  2  2  0  0  0  0
  2 42  1  0  0  0  0
  3 41  1  6  0  0  0
  3 37  1  0  0  0  0
  3  2  1  0  0  0  0
  4 44  1  0  0  0  0
  4  3  1  0  0  0  0
  5  4  1  0  0  0  0
  6  7  2  0  0  0  0
  6 74  1  0  0  0  0
  7  8  1  0  0  0  0
  8  9  1  0  0  0  0
  9 46  1  0  0  0  0
  9 10  1  0  0  0  0
 10 11  1  0  0  0  0
 11 47  1  0  0  0  0
 11 12  2  0  0  0  0
 12 48  1  0  0  0  0
 13 12  1  0  0  0  0
 13 14  1  0  0  0  0
 14 33  2  0  0  0  0
 14 16  1  0  0  0  0
 15 14  2  0  0  0  0
 16 21  1  0  0  0  0
 17 16  1  0  0  0  0
 17 18  1  0  0  0  0
 18 51  1  0  0  0  0
 18 19  1  0  0  0  0
 19 20  1  6  0  0  0
 19 22  1  0  0  0  0
 21 54  1  0  0  0  0
 21 19  1  0  0  0  0
 21 53  1  0  0  0  0
 22 55  1  0  0  0  0
 22 23  1  0  0  0  0
 23 32  2  0  0  0  0
 24 25  1  0  0  0  0
 24 23  1  0  0  0  0
 25 56  1  0  0  0  0
 26 25  1  0  0  0  0
 26 31  1  0  0  0  0
 27 26  2  0  0  0  0
 28 27  1  0  0  0  0
 28 29  2  0  0  0  0
 29 30  1  0  0  0  0
 30 61  1  0  0  0  0
 30 31  2  0  0  0  0
 31 62  1  0  0  0  0
 34 13  2  0  0  0  0
 35 10  2  0  0  0  0
 35 34  1  0  0  0  0
 36  8  2  0  0  0  0
 37 38  1  0  0  0  0
 38 40  2  0  0  0  0
 39 38  1  0  0  0  0
 39 68  1  0  0  0  0
 42 69  1  0  0  0  0
 42 43  1  0  0  0  0
 43 70  1  0  0  0  0
 43 72  1  0  0  0  0
 45  4  1  0  0  0  0
 49 17  1  0  0  0  0
 50 17  1  0  0  0  0
 52 18  1  0  0  0  0
 57 25  1  0  0  0  0
 58 27  1  0  0  0  0
 59 28  1  0  0  0  0
 60 29  1  0  0  0  0
 63 34  1  0  0  0  0
 64 35  1  0  0  0  0
 65 37  1  0  0  0  0
 66 39  1  0  0  0  0
 67 39  1  0  0  0  0
 71 43  1  0  0  0  0
 73  7  1  0  0  0  0
 75  6  1  0  0  0  0
M  END
