-1 1
 OpenBabel05192410563D

 75 77  0  0  1  0  0  0  0  0999 V2000
   -0.0753   -2.9930   -4.5023 O   0  0  0  0  0  0  0  0  0  0  0  0
   -0.9132   -2.3518   -3.8897 C   0  0  0  0  0  0  0  0  0  0  0  0
   -2.2886   -2.0733   -4.5192 C   0  0  2  0  0  0  0  0  0  0  0  0
   -2.1672   -1.7333   -6.0203 C   0  0  0  0  0  0  0  0  0  0  0  0
   -2.1954    0.0369   -6.4394 S   0  0  0  0  0  0  0  0  0  0  0  0
   -0.7223    0.7476   -5.5261 C   0  0  0  0  0  0  0  0  0  0  0  0
   -0.8254    2.2227   -5.4189 C   0  0  0  0  0  3  0  0  0  0  0  0
   -1.6344    2.8954   -4.5125 C   0  0  0  0  0  0  0  0  0  0  0  0
   -2.2126    2.0319   -3.4210 N   0  0  0  0  0  0  0  0  0  0  0  0
   -1.5071    1.6088   -2.3349 C   0  0  0  0  0  0  0  0  0  0  0  0
   -2.1895    1.1797   -1.1648 C   0  0  0  0  0  0  0  0  0  0  0  0
   -1.5032    0.6885   -0.0709 C   0  0  0  0  0  0  0  0  0  0  0  0
   -0.1044    0.6330   -0.1005 C   0  0  0  0  0  0  0  0  0  0  0  0
    0.7622    0.0051    1.2835 S   0  0  0  0  0  0  0  0  0  0  0  0
    2.1920   -0.0649    0.9525 O   0  0  0  0  0  0  0  0  0  0  0  0
    0.4889    1.2021    2.4305 N   0  0  0  0  0  0  0  0  0  0  0  0
    0.9105    2.5681    2.0615 C   0  0  0  0  0  0  0  0  0  0  0  0
    1.2928    3.2044    3.3957 C   0  0  0  0  0  0  0  0  0  0  0  0
    1.8767    2.0201    4.1615 C   0  0  2  0  0  0  0  0  0  0  0  0
    2.8648    1.7786    3.7486 H   0  0  0  0  0  0  0  0  0  0  0  0
    0.9046    0.8865    3.8019 C   0  0  0  0  0  0  0  0  0  0  0  0
    2.0398    2.2358    5.5823 N   0  0  0  0  0  0  0  0  0  0  0  0
    2.8939    1.5035    6.3560 C   0  0  0  0  0  0  0  0  0  0  0  0
    3.9417    1.0551    5.6347 O   0  0  0  0  0  0  0  0  0  0  0  0
    4.4682   -0.2194    6.0067 C   0  0  0  0  0  0  0  0  0  0  0  0
    3.5944   -1.2927    5.4101 C   0  0  0  0  0  0  0  0  0  0  0  0
    3.6885   -1.5889    4.0445 C   0  0  0  0  0  0  0  0  0  0  0  0
    2.7803   -2.4544    3.4421 C   0  0  0  0  0  0  0  0  0  0  0  0
    1.7678   -3.0391    4.2038 C   0  0  0  0  0  0  0  0  0  0  0  0
    1.6731   -2.7601    5.5656 C   0  0  0  0  0  0  0  0  0  0  0  0
    2.5797   -1.8857    6.1670 C   0  0  0  0  0  0  0  0  0  0  0  0
    2.7489    1.3022    7.5387 O   0  0  0  0  0  0  0  0  0  0  0  0
    0.1226   -1.2001    1.8132 O   0  0  0  0  0  0  0  0  0  0  0  0
    0.5937    1.0713   -1.2311 C   0  0  0  0  0  0  0  0  0  0  0  0
   -0.0918    1.5386   -2.3362 C   0  0  0  0  0  0  0  0  0  0  0  0
   -1.9724    4.0789   -4.4373 O   0  0  0  0  0  0  0  0  0  0  0  0
   -3.1031   -1.1312   -3.7915 N   0  0  0  0  0  0  0  0  0  0  0  0
   -4.2665   -1.5027   -3.1873 C   0  0  0  0  0  0  0  0  0  0  0  0
   -5.1231   -0.3555   -2.6872 C   0  0  0  0  0  0  0  0  0  0  0  0
   -4.6049   -2.6621   -3.0352 O   0  0  0  0  0  0  0  0  0  0  0  0
   -2.8035   -3.0443   -4.4319 H   0  0  0  0  0  0  0  0  0  0  0  0
   -0.7441   -1.9342   -2.6168 N   0  0  0  0  0  0  0  0  0  0  0  0
    0.4488   -2.2500   -1.8706 C   0  0  0  0  0  0  0  0  0  0  0  0
   -1.2641   -2.2267   -6.4049 H   0  0  0  0  0  0  0  0  0  0  0  0
   -3.0323   -2.1480   -6.5576 H   0  0  0  0  0  0  0  0  0  0  0  0
   -3.1320    2.3954   -3.1860 H   0  0  0  0  0  0  0  0  0  0  0  0
   -3.2797    1.2324   -1.1384 H   0  0  0  0  0  0  0  0  0  0  0  0
   -2.0442    0.3458    0.8135 H   0  0  0  0  0  0  0  0  0  0  0  0
    0.1001    3.0967    1.5403 H   0  0  0  0  0  0  0  0  0  0  0  0
    1.7871    2.5409    1.3910 H   0  0  0  0  0  0  0  0  0  0  0  0
    0.3970    3.5846    3.9157 H   0  0  0  0  0  0  0  0  0  0  0  0
    2.0001    4.0369    3.2812 H   0  0  0  0  0  0  0  0  0  0  0  0
    0.0318    0.8998    4.4784 H   0  0  0  0  0  0  0  0  0  0  0  0
    1.3677   -0.1070    3.8781 H   0  0  0  0  0  0  0  0  0  0  0  0
    1.2250    2.5527    6.0960 H   0  0  0  0  0  0  0  0  0  0  0  0
    4.5194   -0.2912    7.1024 H   0  0  0  0  0  0  0  0  0  0  0  0
    5.4838   -0.2458    5.5919 H   0  0  0  0  0  0  0  0  0  0  0  0
    4.4578   -1.1061    3.4361 H   0  0  0  0  0  0  0  0  0  0  0  0
    2.8357   -2.6406    2.3688 H   0  0  0  0  0  0  0  0  0  0  0  0
    1.0376   -3.6916    3.7222 H   0  0  0  0  0  0  0  0  0  0  0  0
    0.8758   -3.2098    6.1618 H   0  0  0  0  0  0  0  0  0  0  0  0
    2.4852   -1.6360    7.2269 H   0  0  0  0  0  0  0  0  0  0  0  0
    1.6844    1.0272   -1.2361 H   0  0  0  0  0  0  0  0  0  0  0  0
    0.4391    1.8800   -3.2267 H   0  0  0  0  0  0  0  0  0  0  0  0
   -2.9683   -0.1453   -4.0260 H   0  0  0  0  0  0  0  0  0  0  0  0
   -6.1471   -0.5038   -3.0559 H   0  0  0  0  0  0  0  0  0  0  0  0
   -4.7579    0.6280   -3.0102 H   0  0  0  0  0  0  0  0  0  0  0  0
   -5.1590   -0.3921   -1.5886 H   0  0  0  0  0  0  0  0  0  0  0  0
   -1.4555   -1.3405   -2.2071 H   0  0  0  0  0  0  0  0  0  0  0  0
    1.2439   -1.5021   -2.0221 H   0  0  0  0  0  0  0  0  0  0  0  0
    0.8309   -3.2227   -2.2080 H   0  0  0  0  0  0  0  0  0  0  0  0
    0.2166   -2.2967   -0.7980 H   0  0  0  0  0  0  0  0  0  0  0  0
   -0.4094    2.8313   -6.2250 H   0  0  0  0  0  0  0  0  0  0  0  0
   -0.6973    0.2347   -4.5514 H   0  0  0  0  0  0  0  0  0  0  0  0
    0.1744    0.4320   -6.0783 H   0  0  0  0  0  0  0  0  0  0  0  0
  1  2  2  0  0  0  0
  2 42  1  0  0  0  0
  3 41  1  1  0  0  0
  3  2  1  0  0  0  0
  3 37  1  0  0  0  0
  4  3  1  0  0  0  0
  5  4  1  0  0  0  0
  5  6  1  0  0  0  0
  6  7  1  0  0  0  0
  6 74  1  0  0  0  0
  7  8  1  0  0  0  0
  8 36  2  0  0  0  0
  8  9  1  0  0  0  0
  9 46  1  0  0  0  0
  9 10  1  0  0  0  0
 10 11  1  0  0  0  0
 11 47  1  0  0  0  0
 11 12  2  0  0  0  0
 12 48  1  0  0  0  0
 13 12  1  0  0  0  0
 13 14  1  0  0  0  0
 14 33  2  0  0  0  0
 14 16  1  0  0  0  0
 15 14  2  0  0  0  0
 16 21  1  0  0  0  0
 17 16  1  0  0  0  0
 17 18  1  0  0  0  0
 18 51  1  0  0  0  0
 18 19  1  0  0  0  0
 19 20  1  6  0  0  0
 19 22  1  0  0  0  0
 21 54  1  0  0  0  0
 21 19  1  0  0  0  0
 21 53  1  0  0  0  0
 22 55  1  0  0  0  0
 22 23  1  0  0  0  0
 23 32  2  0  0  0  0
 24 25  1  0  0  0  0
 24 23  1  0  0  0  0
 25 56  1  0  0  0  0
 26 25  1  0  0  0  0
 26 31  1  0  0  0  0
 27 26  2  0  0  0  0
 28 27  1  0  0  0  0
 28 29  2  0  0  0  0
 29 30  1  0  0  0  0
 30 61  1  0  0  0  0
 30 31  2  0  0  0  0
 31 62  1  0  0  0  0
 34 13  2  0  0  0  0
 35 10  2  0  0  0  0
 35 34  1  0  0  0  0
 37 38  1  0  0  0  0
 38 40  2  0  0  0  0
 38 39  1  0  0  0  0
 39 68  1  0  0  0  0
 42 69  1  0  0  0  0
 42 43  1  0  0  0  0
 43 72  1  0  0  0  0
 44  4  1  0  0  0  0
 45  4  1  0  0  0  0
 49 17  1  0  0  0  0
 50 17  1  0  0  0  0
 52 18  1  0  0  0  0
 57 25  1  0  0  0  0
 58 27  1  0  0  0  0
 59 28  1  0  0  0  0
 60 29  1  0  0  0  0
 63 34  1  0  0  0  0
 64 35  1  0  0  0  0
 65 37  1  0  0  0  0
 66 39  1  0  0  0  0
 67 39  1  0  0  0  0
 70 43  1  0  0  0  0
 71 43  1  0  0  0  0
 73  7  1  0  0  0  0
 75  6  1  0  0  0  0
M  END
