75
-1 1
O        -2.935874  -10.658278   -3.358740
C        -3.374143   -9.541033   -3.146867
C        -4.350911   -8.888978   -4.123468
C        -3.528633   -8.356784   -5.332638
S        -4.319456   -7.029350   -6.289838
C        -2.920680   -5.332611   -5.036685
C        -3.343253   -4.028731   -4.944284
C        -4.323347   -3.533203   -4.013082
N        -4.665896   -4.330462   -2.862437
C        -3.880281   -4.897985   -1.887044
C        -4.523833   -5.493803   -0.775647
C        -3.801314   -6.052258    0.262269
C        -2.404492   -6.031962    0.214833
S        -1.484095   -6.677611    1.567179
O        -0.079630   -6.796487    1.157484
N        -1.655254   -5.450967    2.700271
C        -1.167110   -4.114858    2.309987
C        -0.754281   -3.479293    3.635059
C        -0.217927   -4.679216    4.411429
H         0.756591   -4.966829    3.995683
C        -1.238794   -5.775275    4.070683
N        -0.035830   -4.456136    5.828256
C         0.792623   -5.219335    6.601822
O         1.816762   -5.713491    5.877164
C         2.290714   -7.009062    6.249654
C         1.374145   -8.045446    5.652357
C         1.465118   -8.355200    4.289399
C         0.524125   -9.184362    3.685959
C        -0.518932   -9.718547    4.443627
C        -0.611311   -9.425656    5.802681
C         0.328630   -8.587938    6.405203
O         0.645231   -5.408009    7.785871
O        -2.145792   -7.842614    2.148693
C        -1.744971   -5.465164   -0.876419
C        -2.469923   -4.900337   -1.914833
O        -4.956587   -2.497940   -4.142522
N        -5.134658   -7.818062   -3.548479
C        -6.176552   -8.086147   -2.713560
C        -7.190509   -6.963738   -2.579791
O        -6.312900   -9.145999   -2.131396
H        -5.016574   -9.700579   -4.459731
N        -2.970141   -8.751497   -2.119737
C        -2.036653   -9.199147   -1.119809
H        -2.560225   -7.983030   -4.950545
H        -3.289846   -9.218051   -5.970375
H        -5.586817   -4.052851   -2.539401
H        -5.614420   -5.517841   -0.744795
H        -4.313791   -6.515985    1.106886
H        -1.951201   -3.554361    1.781208
H        -0.291662   -4.195908    1.641848
H        -1.631906   -3.056058    4.152503
H        -0.012580   -2.679075    3.508951
H        -2.103831   -5.722866    4.754710
H        -0.814291   -6.785641    4.149667
H        -0.834545   -4.105197    6.345085
H         2.338214   -7.082209    7.345323
H         3.304800   -7.076950    5.835734
H         2.261805   -7.913441    3.684975
H         0.580211   -9.384039    2.614968
H        -1.273035  -10.342380    3.960984
H        -1.431675   -9.836265    6.395634
H         0.238040   -8.328017    7.463039
H        -0.653908   -5.466586   -0.905552
H        -1.951201   -4.443065   -2.755697
H        -5.226785   -7.028985   -4.203362
H        -8.051822   -7.202418   -3.222057
H        -6.788580   -5.991854   -2.894213
H        -7.547929   -6.920114   -1.542213
H        -3.454361   -7.869723   -1.998694
H        -1.141670   -8.556532   -1.083361
H        -1.728226  -10.217714   -1.387632
H        -2.490360   -9.214358   -0.116826
H        -3.110274   -3.319560   -5.741415
H        -3.046968   -6.023954   -4.203176
H        -2.132053   -5.596769   -5.740718
