-1 1
 OpenBabel05232414493D

 59 59  0  0  1  0  0  0  0  0999 V2000
   -0.9279   -0.1868    2.5972 O   0  0  0  0  0  0  0  0  0  0  0  0
   -1.2118   -0.4561    1.4443 C   0  0  0  0  0  0  0  0  0  0  0  0
   -2.0125    0.5212    0.5598 C   0  0  2  0  0  0  0  0  0  0  0  0
   -1.5050    0.6984   -0.8721 C   0  0  0  0  0  0  0  0  0  0  0  0
    0.1245    1.4770   -0.9778 S   0  0  0  0  0  1  0  0  0  0  0  0
    0.9527    0.0603   -2.7394 C   0  0  0  0  0  3  0  0  0  0  0  0
    0.0077   -0.5507   -3.5468 C   0  0  0  0  0  3  0  0  0  0  0  0
   -0.6503   -1.8252   -3.3930 C   0  0  0  0  0  0  0  0  0  0  0  0
   -0.1814   -2.7859   -2.4353 N   0  0  0  0  0  0  0  0  0  0  0  0
    1.0881   -3.1345   -2.0116 C   0  0  0  0  0  0  0  0  0  0  0  0
    2.2676   -2.6876   -2.6399 C   0  0  0  0  0  0  0  0  0  0  0  0
    3.4976   -2.8657   -2.0277 C   0  0  0  0  0  0  0  0  0  0  0  0
    3.5790   -3.5402   -0.8075 C   0  0  0  0  0  0  0  0  0  0  0  0
    5.0065   -3.3145    0.2161 S   0  0  0  0  0  0  0  0  0  0  0  0
    6.1826   -3.1621   -0.6369 O   0  0  0  0  0  0  0  0  0  0  0  0
    4.7712   -1.8498    0.9631 N   0  0  0  0  0  0  0  0  0  0  0  0
    5.1829   -0.6017    0.3192 C   0  0  0  0  0  0  0  0  0  0  0  0
    3.9962    0.1814   -0.2388 C   0  0  0  0  0  0  0  0  0  0  0  0
    3.0026    0.3733    0.7970 N   0  0  0  0  0  0  0  0  0  0  0  0
    2.5049   -0.8975    1.2855 C   0  0  0  0  0  0  0  0  0  0  0  0
    3.6511   -1.6993    1.8972 C   0  0  0  0  0  0  0  0  0  0  0  0
    4.9626   -4.3365    1.2586 O   0  0  0  0  0  0  0  0  0  0  0  0
    2.4472   -4.1578   -0.2766 C   0  0  0  0  0  0  0  0  0  0  0  0
    1.2175   -3.9751   -0.8907 C   0  0  0  0  0  0  0  0  0  0  0  0
   -1.6496   -2.1620   -4.0146 O   0  0  0  0  0  0  0  0  0  0  0  0
   -2.1034    1.7941    1.2216 N   0  0  0  0  0  0  0  0  0  0  0  0
   -3.0385    2.0504    2.1735 C   0  0  0  0  0  0  0  0  0  0  0  0
   -2.7621    3.2897    3.0042 C   0  0  0  0  0  0  0  0  0  0  0  0
   -4.0185    1.3519    2.3580 O   0  0  0  0  0  0  0  0  0  0  0  0
   -3.0356    0.1089    0.5338 H   0  0  0  0  0  0  0  0  0  0  0  0
   -0.9609   -1.6809    0.9037 N   0  0  0  0  0  0  0  0  0  0  0  0
   -0.4574   -2.7561    1.7194 C   0  0  0  0  0  0  0  0  0  0  0  0
   -1.4751   -0.2682   -1.4092 H   0  0  0  0  0  0  0  0  0  0  0  0
   -2.2482    1.3064   -1.4090 H   0  0  0  0  0  0  0  0  0  0  0  0
   -0.8993   -3.4884   -2.2895 H   0  0  0  0  0  0  0  0  0  0  0  0
    2.1951   -2.1365   -3.5765 H   0  0  0  0  0  0  0  0  0  0  0  0
    4.4015   -2.4479   -2.4757 H   0  0  0  0  0  0  0  0  0  0  0  0
    5.9221   -0.8331   -0.4577 H   0  0  0  0  0  0  0  0  0  0  0  0
    5.6816    0.0080    1.0922 H   0  0  0  0  0  0  0  0  0  0  0  0
    3.5950   -0.3554   -1.1246 H   0  0  0  0  0  0  0  0  0  0  0  0
    4.3555    1.1611   -0.5910 H   0  0  0  0  0  0  0  0  0  0  0  0
    2.2102    0.9111    0.4374 H   0  0  0  0  0  0  0  0  0  0  0  0
    2.0247   -1.4977    0.4823 H   0  0  0  0  0  0  0  0  0  0  0  0
    1.7351   -0.7138    2.0509 H   0  0  0  0  0  0  0  0  0  0  0  0
    3.3237   -2.6941    2.2276 H   0  0  0  0  0  0  0  0  0  0  0  0
    4.0330   -1.1662    2.7840 H   0  0  0  0  0  0  0  0  0  0  0  0
    2.5280   -4.7321    0.6481 H   0  0  0  0  0  0  0  0  0  0  0  0
    0.3217   -4.4166   -0.4498 H   0  0  0  0  0  0  0  0  0  0  0  0
   -1.2495    2.3430    1.1975 H   0  0  0  0  0  0  0  0  0  0  0  0
   -2.3024    4.0941    2.4119 H   0  0  0  0  0  0  0  0  0  0  0  0
   -2.0657    3.0153    3.8113 H   0  0  0  0  0  0  0  0  0  0  0  0
   -3.7008    3.6399    3.4500 H   0  0  0  0  0  0  0  0  0  0  0  0
   -1.0277   -1.8058   -0.0999 H   0  0  0  0  0  0  0  0  0  0  0  0
   -0.6654   -2.5088    2.7681 H   0  0  0  0  0  0  0  0  0  0  0  0
    0.6286   -2.9037    1.6122 H   0  0  0  0  0  0  0  0  0  0  0  0
   -0.9642   -3.7005    1.4665 H   0  0  0  0  0  0  0  0  0  0  0  0
   -0.4260    0.0239   -4.3688 H   0  0  0  0  0  0  0  0  0  0  0  0
    1.5053   -0.5014   -1.9896 H   0  0  0  0  0  0  0  0  0  0  0  0
    1.4820    0.9261   -3.1363 H   0  0  0  0  0  0  0  0  0  0  0  0
  2  1  2  0  0  0  0
  3 30  1  6  0  0  0
  3 26  1  0  0  0  0
  3  2  1  0  0  0  0
  4  3  1  0  0  0  0
  5  4  1  0  0  0  0
  6 58  1  0  0  0  0
  7  8  1  0  0  0  0
  7  6  1  0  0  0  0
  8  9  1  0  0  0  0
  9 35  1  0  0  0  0
  9 10  1  0  0  0  0
 10 24  1  0  0  0  0
 11 12  1  0  0  0  0
 11 10  2  0  0  0  0
 12 13  2  0  0  0  0
 13 23  1  0  0  0  0
 13 14  1  0  0  0  0
 14 16  1  0  0  0  0
 14 22  2  0  0  0  0
 15 14  2  0  0  0  0
 16 21  1  0  0  0  0
 17 16  1  0  0  0  0
 17 39  1  0  0  0  0
 18 17  1  0  0  0  0
 18 19  1  0  0  0  0
 19 20  1  0  0  0  0
 20 21  1  0  0  0  0
 20 44  1  0  0  0  0
 21 45  1  0  0  0  0
 21 46  1  0  0  0  0
 23 47  1  0  0  0  0
 24 48  1  0  0  0  0
 24 23  2  0  0  0  0
 25  8  2  0  0  0  0
 26 27  1  0  0  0  0
 27 29  2  0  0  0  0
 27 28  1  0  0  0  0
 28 52  1  0  0  0  0
 28 51  1  0  0  0  0
 31  2  1  0  0  0  0
 31 32  1  0  0  0  0
 32 54  1  0  0  0  0
 33  4  1  0  0  0  0
 34  4  1  0  0  0  0
 36 11  1  0  0  0  0
 37 12  1  0  0  0  0
 38 17  1  0  0  0  0
 40 18  1  0  0  0  0
 41 18  1  0  0  0  0
 42 19  1  0  0  0  0
 43 20  1  0  0  0  0
 49 26  1  0  0  0  0
 50 28  1  0  0  0  0
 53 31  1  0  0  0  0
 55 32  1  0  0  0  0
 56 32  1  0  0  0  0
 57  7  1  0  0  0  0
 59  6  1  0  0  0  0
M  END
