59
-1 1
O        -4.196126   -0.518447    2.920345
C        -3.393688   -0.096684    2.105085
C        -3.516435    1.313329    1.494875
C        -3.507942    1.315066   -0.051412
S        -1.844828    1.103836   -0.809632
C        -0.352373    0.885933   -4.167643
C        -0.366875   -0.162753   -4.992573
C        -1.032857   -1.457053   -4.664484
N        -0.858790   -2.005996   -3.405657
C         0.171411   -1.881576   -2.469801
C         1.480397   -1.526303   -2.826174
C         2.471987   -1.434218   -1.856912
C         2.174437   -1.731282   -0.528663
S         3.394804   -1.433960    0.733332
O         4.691904   -1.381924    0.063921
N         3.109711    0.085394    1.335433
C         3.299083    1.240340    0.456971
C         1.977042    1.735331   -0.121689
N         1.020796    1.995733    0.943726
C         0.781380    0.802967    1.744113
C         2.079241    0.297985    2.354653
O         3.149631   -2.366516    1.829338
C         0.891286   -2.145069   -0.169475
C        -0.104813   -2.202274   -1.131707
O        -1.776073   -1.993652   -5.460668
N        -2.460213    2.181043    1.965480
C        -2.544172    3.044706    3.005125
C        -1.294676    3.889030    3.214508
O        -3.521410    3.159785    3.723023
H        -4.472368    1.698914    1.877045
N        -2.315410   -0.802683    1.673737
C        -2.013627   -2.117046    2.164320
H        -4.187704    0.522794   -0.402084
H        -3.932781    2.275557   -0.381792
H        -1.576910   -2.688440   -3.188132
H         1.725716   -1.317393   -3.866444
H         3.488103   -1.145002   -2.129568
H         4.016355    0.978041   -0.331819
H         3.753830    2.037837    1.068625
H         1.592833    0.992196   -0.850349
H         2.160603    2.668313   -0.677580
H         0.135604    2.225454    0.481795
H         0.323110   -0.002151    1.141209
H         0.063180    1.037792    2.544368
H         1.929267   -0.636645    2.908863
H         2.479907    1.047592    3.058064
H         0.667388   -2.396506    0.868147
H        -1.123094   -2.471073   -0.845979
H        -1.668631    2.213453    1.325078
H        -0.447271    3.596962    2.576371
H        -1.000889    3.812106    4.270796
H        -1.546847    4.942340    3.021471
H        -1.808623   -0.408829    0.866635
H        -2.745746   -2.365901    2.944308
H        -1.002122   -2.164332    2.604610
H        -2.079181   -2.883799    1.372358
H        -0.029046   -0.085402   -6.030470
H        -0.769271    0.845281   -3.151373
H         0.040487    1.848743   -4.505707
