59
-1 1
O        -0.927859   -0.186844    2.597167
C        -1.211799   -0.456125    1.444293
C        -2.012502    0.521247    0.559842
C        -1.504950    0.698351   -0.872095
S         0.124467    1.476952   -0.977809
C         0.952708    0.060255   -2.739353
C         0.007668   -0.550727   -3.546752
C        -0.650346   -1.825207   -3.392953
N        -0.181356   -2.785910   -2.435303
C         1.088080   -3.134499   -2.011567
C         2.267567   -2.687588   -2.639926
C         3.497598   -2.865720   -2.027719
C         3.579012   -3.540226   -0.807473
S         5.006543   -3.314497    0.216093
O         6.182650   -3.162082   -0.636902
N         4.771193   -1.849826    0.963131
C         5.182892   -0.601679    0.319215
C         3.996233    0.181350   -0.238843
N         3.002632    0.373328    0.796978
C         2.504862   -0.897532    1.285539
C         3.651104   -1.699266    1.897180
O         4.962566   -4.336455    1.258558
C         2.447196   -4.157751   -0.276604
C         1.217518   -3.975135   -0.890685
O        -1.649639   -2.161987   -4.014602
N        -2.103432    1.794132    1.221592
C        -3.038508    2.050379    2.173503
C        -2.762140    3.289667    3.004168
O        -4.018480    1.351869    2.357994
H        -3.035576    0.108879    0.533800
N        -0.960861   -1.680894    0.903710
C        -0.457436   -2.756099    1.719357
H        -1.475143   -0.268154   -1.409155
H        -2.248190    1.306352   -1.408987
H        -0.899340   -3.488429   -2.289480
H         2.195145   -2.136534   -3.576547
H         4.401461   -2.447900   -2.475723
H         5.922129   -0.833114   -0.457703
H         5.681608    0.008024    1.092156
H         3.595033   -0.355444   -1.124598
H         4.355467    1.161130   -0.590968
H         2.210234    0.911082    0.437375
H         2.024687   -1.497737    0.482257
H         1.735146   -0.713768    2.050920
H         3.323711   -2.694074    2.227587
H         4.032971   -1.166155    2.784011
H         2.527983   -4.732072    0.648071
H         0.321715   -4.416559   -0.449779
H        -1.249493    2.342964    1.197453
H        -2.302433    4.094096    2.411893
H        -2.065672    3.015290    3.811339
H        -3.700823    3.639866    3.449967
H        -1.027733   -1.805754   -0.099903
H        -0.665353   -2.508761    2.768054
H         0.628551   -2.903663    1.612166
H        -0.964240   -3.700536    1.466549
H        -0.426020    0.023928   -4.368773
H         1.505262   -0.501404   -1.989573
H         1.481994    0.926077   -3.136275
