71
-1 1
O         3.029217    2.370285   -1.030702
C         2.238256    1.968100   -0.176723
C         1.103253    2.884099    0.338805
C        -0.327675    2.323891    0.578312
S        -0.600937    0.647937    1.253661
C         0.180047   -0.341553   -1.846842
C        -0.947904   -0.315385   -1.057183
C         0.636399    0.841017   -2.526277
N         1.917755    0.811547   -3.142301
C         2.711913   -0.240659   -3.507023
C         4.117332   -0.082095   -3.440777
C         4.966674   -1.090023   -3.853080
C         4.431270   -2.289863   -4.338183
S         5.515995   -3.564629   -4.879631
O         4.713249   -4.733237   -5.248887
N         6.199331   -2.871904   -6.259615
C         5.285788   -2.658908   -7.375975
C         5.933061   -1.729530   -8.392204
N         7.207887   -2.285114   -8.819246
C         8.108786   -2.473001   -7.689005
C         7.490819   -3.411074   -6.665970
C         7.747200   -1.800717  -10.015169
C         8.719414   -2.557338  -10.724263
C         9.135069   -3.937732  -10.294324
C         9.212888   -1.995484  -11.897390
C         8.735891   -0.767905  -12.358566
C         7.735651   -0.151563  -11.618957
N         7.264324   -0.649555  -10.479405
O         6.629231   -3.735494   -3.947962
C         3.048785   -2.472823   -4.404272
C         2.195085   -1.457760   -3.997786
O         0.068296    1.932035   -2.535298
N         0.979902    3.991609   -0.578850
C         1.674749    5.147404   -0.432975
C         1.712668    6.008872   -1.683711
O         2.229001    5.484806    0.598109
H         1.493045    3.294515    1.283930
N         2.345462    0.773272    0.425082
C         3.352330   -0.186286    0.059673
H        -0.817911    3.051853    1.241308
H        -0.846020    2.377243   -0.387529
H         2.411613    1.673298   -2.909967
H         4.514177    0.846396   -3.024392
H         6.048839   -0.962309   -3.788125
H         4.362299   -2.196597   -6.998900
H         5.020592   -3.619019   -7.857818
H         6.058470   -0.721873   -7.952525
H         5.278803   -1.621367   -9.266225
H         8.321360   -1.498841   -7.204001
H         9.066089   -2.887061   -8.025370
H         8.135558   -3.486035   -5.781245
H         7.384366   -4.420332   -7.110784
H         9.990045   -3.925462   -9.598874
H         9.434593   -4.538847  -11.164691
H         8.302611   -4.445276   -9.785094
H         9.957829   -2.546806  -12.478665
H         9.109367   -0.321270  -13.281246
H         7.292852    0.792523  -11.955587
H         2.649865   -3.413912   -4.786908
H         1.115513   -1.591471   -4.067919
H         0.685610    3.705350   -1.511331
H         2.510613    5.629543   -2.340595
H         1.945842    7.042920   -1.402267
H         0.765446    5.972581   -2.241167
H         1.506572    0.458245    0.942861
H         4.234222    0.340513   -0.327881
H         3.002810   -0.882940   -0.722146
H         3.644617   -0.777441    0.940066
H         0.849300   -1.201798   -1.791790
H        -1.680985    0.480965   -1.193287
H        -1.316011   -1.235233   -0.603500
