75
-1 1
O        -2.897489    6.003782   -3.444445
C        -2.592907    4.815584   -3.461996
C        -3.664299    3.724953   -3.608304
C        -3.525576    2.823297   -4.859862
S        -2.014941    1.834559   -5.073799
C        -2.288664    0.410288   -3.855089
C        -2.784116    0.773691   -2.512816
C        -2.089762    1.508041   -1.555415
N        -0.622704    1.596931   -1.707440
C         0.296590    0.596212   -1.676315
C        -0.050599   -0.774683   -1.772579
C         0.924741   -1.755518   -1.731587
C         2.275732   -1.411561   -1.598143
S         3.500992   -2.657647   -1.419546
O         4.781356   -2.175314   -1.931768
N         3.770941   -2.803974    0.240727
C         2.633876   -2.950350    1.135870
H         1.914455   -2.117342    1.008500
C         1.878912   -4.275658    1.003540
C         1.149339   -4.387650    2.339487
N         2.051069   -3.709892    3.265165
C         3.106133   -2.970646    2.594419
C         1.861831   -3.768028    4.600118
O         2.823387   -3.080501    5.256716
C         2.682838   -2.968581    6.669690
C         1.913886   -1.729054    7.056699
C         0.515864   -1.707412    6.971039
C        -0.191168   -0.550618    7.290441
C         0.487718    0.595805    7.704685
C         1.878254    0.581521    7.796922
C         2.585312   -0.575447    7.471446
O         0.957379   -4.364993    5.146111
O         2.940938   -3.929031   -1.863312
C         2.644186   -0.062501   -1.502352
C         1.673584    0.918739   -1.541353
O        -2.530550    2.183072   -0.614598
N        -4.928714    4.427367   -3.649537
C        -6.134046    3.839021   -3.478567
C        -7.305328    4.804345   -3.375328
O        -6.299941    2.634116   -3.399954
H        -3.613849    3.093547   -2.705823
N        -1.329646    4.370716   -3.322629
C        -0.203747    5.252275   -3.173822
H        -4.387420    2.141457   -4.847114
H        -3.604639    3.452689   -5.759789
H        -0.310140    2.468941   -1.291762
H        -1.107597   -1.033838   -1.854655
H         0.643813   -2.807638   -1.810078
H         4.400144   -2.050946    0.512732
H         2.610904   -5.087854    0.878067
H         1.201510   -4.301734    0.142104
H         0.975590   -5.426182    2.654449
H         0.169183   -3.881322    2.318057
H         4.078032   -3.490461    2.668064
H         3.221010   -1.964321    3.021811
H         3.707485   -2.924299    7.062504
H         2.185323   -3.871085    7.051294
H        -0.007554   -2.605823    6.635714
H        -1.280571   -0.542524    7.212540
H        -0.068856    1.502582    7.952029
H         2.415828    1.476642    8.118073
H         3.677010   -0.581638    7.537648
H         3.698689    0.209270   -1.415108
H         1.964086    1.970615   -1.479659
H        -4.822049    5.438828   -3.628321
H        -7.068626    5.818869   -3.725372
H        -7.620846    4.857566   -2.322544
H        -8.145835    4.399437   -3.954170
H        -1.164475    3.376165   -3.483160
H        -0.580434    6.272676   -3.029816
H         0.446739    5.237399   -4.064049
H         0.402451    4.969520   -2.298146
H        -2.988848   -0.269010   -4.361794
H        -1.293356   -0.064429   -3.889529
H        -3.867590    0.761435   -2.369176
