-1 1
 OpenBabel05232414493D

 75 76  0  0  1  0  0  0  0  0999 V2000
   -2.8490    3.5002   -3.6212 O   0  0  0  0  0  0  0  0  0  0  0  0
   -2.1934    2.4682   -3.7380 C   0  0  0  0  0  0  0  0  0  0  0  0
   -2.8441    1.0873   -3.5602 C   0  0  2  0  0  0  0  0  0  0  0  0
   -2.7207    0.1640   -4.7960 C   0  0  0  0  0  0  0  0  0  0  0  0
   -1.0464   -0.4210   -5.2269 S   0  0  0  0  0  1  0  0  0  0  0  0
   -1.0675   -2.2261   -3.5370 C   0  0  0  0  0  3  0  0  0  0  0  0
   -1.5350   -1.8033   -2.3098 C   0  0  0  0  0  3  0  0  0  0  0  0
   -0.7343   -1.0562   -1.3807 C   0  0  0  0  0  0  0  0  0  0  0  0
    0.6984   -1.2070   -1.4171 N   0  0  0  0  0  0  0  0  0  0  0  0
    1.4878   -2.3245   -1.3896 C   0  0  0  0  0  0  0  0  0  0  0  0
    0.9860   -3.6441   -1.4581 C   0  0  0  0  0  0  0  0  0  0  0  0
    1.8444   -4.7296   -1.3929 C   0  0  0  0  0  0  0  0  0  0  0  0
    3.2229   -4.5379   -1.2565 C   0  0  0  0  0  0  0  0  0  0  0  0
    4.2997   -5.9170   -1.0478 S   0  0  0  0  0  0  0  0  0  0  0  0
    5.6330   -5.5758   -1.5338 O   0  0  0  0  0  0  0  0  0  0  0  0
    4.5094   -6.0845    0.6151 N   0  0  0  0  0  0  0  0  0  0  0  0
    3.3436   -6.1386    1.4834 C   0  0  1  0  0  0  0  0  0  0  0  0
    2.6935   -5.2535    1.3356 H   0  0  0  0  0  0  0  0  0  0  0  0
    2.4935   -7.4041    1.3407 C   0  0  0  0  0  0  0  0  0  0  0  0
    1.7253   -7.4498    2.6589 C   0  0  0  0  0  0  0  0  0  0  0  0
    2.6507   -6.8300    3.6014 N   0  0  0  0  0  0  0  0  0  0  0  0
    3.7780   -6.1842    2.9530 C   0  0  0  0  0  0  0  0  0  0  0  0
    2.4168   -6.8489    4.9312 C   0  0  0  0  0  0  0  0  0  0  0  0
    3.4097   -6.2287    5.6065 O   0  0  0  0  0  0  0  0  0  0  0  0
    3.2352   -6.0771    7.0125 C   0  0  0  0  0  0  0  0  0  0  0  0
    2.5503   -4.7759    7.3513 C   0  0  0  0  0  0  0  0  0  0  0  0
    1.1593   -4.6567    7.2378 C   0  0  0  0  0  0  0  0  0  0  0  0
    0.5319   -3.4439    7.5130 C   0  0  0  0  0  0  0  0  0  0  0  0
    1.2844   -2.3379    7.9095 C   0  0  0  0  0  0  0  0  0  0  0  0
    2.6686   -2.4489    8.0286 C   0  0  0  0  0  0  0  0  0  0  0  0
    3.2960   -3.6621    7.7480 C   0  0  0  0  0  0  0  0  0  0  0  0
    1.4508   -7.3619    5.4557 O   0  0  0  0  0  0  0  0  0  0  0  0
    3.6073   -7.1156   -1.5040 O   0  0  0  0  0  0  0  0  0  0  0  0
    3.7432   -3.2403   -1.1943 C   0  0  0  0  0  0  0  0  0  0  0  0
    2.8888   -2.1558   -1.2623 C   0  0  0  0  0  0  0  0  0  0  0  0
   -1.1516   -0.2182   -0.5940 O   0  0  0  0  0  0  0  0  0  0  0  0
   -4.2312    1.3547   -3.2411 N   0  0  0  0  0  0  0  0  0  0  0  0
   -5.0923    0.4579   -2.7180 C   0  0  0  0  0  0  0  0  0  0  0  0
   -6.4554    1.0238   -2.3452 C   0  0  0  0  0  0  0  0  0  0  0  0
   -4.8374   -0.7218   -2.5360 O   0  0  0  0  0  0  0  0  0  0  0  0
   -2.3605    0.5974   -2.7000 H   0  0  0  0  0  0  0  0  0  0  0  0
   -0.8741    2.4434   -4.0010 N   0  0  0  0  0  0  0  0  0  0  0  0
   -0.1273    3.6387   -4.2857 C   0  0  0  0  0  0  0  0  0  0  0  0
   -3.3514   -0.7103   -4.5769 H   0  0  0  0  0  0  0  0  0  0  0  0
   -3.1662    0.6812   -5.6615 H   0  0  0  0  0  0  0  0  0  0  0  0
    1.1364   -0.3660   -1.0574 H   0  0  0  0  0  0  0  0  0  0  0  0
   -0.0873   -3.7972   -1.5627 H   0  0  0  0  0  0  0  0  0  0  0  0
    1.4452   -5.7437   -1.4556 H   0  0  0  0  0  0  0  0  0  0  0  0
    5.2030   -5.3996    0.9095 H   0  0  0  0  0  0  0  0  0  0  0  0
    3.1654   -8.2698    1.2394 H   0  0  0  0  0  0  0  0  0  0  0  0
    1.8384   -7.3879    0.4619 H   0  0  0  0  0  0  0  0  0  0  0  0
    1.4687   -8.4702    2.9767 H   0  0  0  0  0  0  0  0  0  0  0  0
    0.7848   -6.8747    2.6095 H   0  0  0  0  0  0  0  0  0  0  0  0
    4.7030   -6.7798    3.0535 H   0  0  0  0  0  0  0  0  0  0  0  0
    3.9635   -5.1870    3.3767 H   0  0  0  0  0  0  0  0  0  0  0  0
    4.2483   -6.1011    7.4357 H   0  0  0  0  0  0  0  0  0  0  0  0
    2.6608   -6.9321    7.3954 H   0  0  0  0  0  0  0  0  0  0  0  0
    0.5786   -5.5244    6.9160 H   0  0  0  0  0  0  0  0  0  0  0  0
   -0.5527   -3.3603    7.4152 H   0  0  0  0  0  0  0  0  0  0  0  0
    0.7904   -1.3872    8.1227 H   0  0  0  0  0  0  0  0  0  0  0  0
    3.2634   -1.5860    8.3366 H   0  0  0  0  0  0  0  0  0  0  0  0
    4.3830   -3.7448    7.8363 H   0  0  0  0  0  0  0  0  0  0  0  0
    4.8216   -3.0879   -1.1124 H   0  0  0  0  0  0  0  0  0  0  0  0
    3.2976   -1.1430   -1.2293 H   0  0  0  0  0  0  0  0  0  0  0  0
   -4.4617    2.3447   -3.2814 H   0  0  0  0  0  0  0  0  0  0  0  0
   -6.6254    2.0449   -2.7141 H   0  0  0  0  0  0  0  0  0  0  0  0
   -6.5454    1.0193   -1.2489 H   0  0  0  0  0  0  0  0  0  0  0  0
   -7.2313    0.3554   -2.7425 H   0  0  0  0  0  0  0  0  0  0  0  0
   -0.4973    1.5247   -4.2825 H   0  0  0  0  0  0  0  0  0  0  0  0
   -0.6965    4.5038   -3.9219 H   0  0  0  0  0  0  0  0  0  0  0  0
    0.0471    3.7681   -5.3680 H   0  0  0  0  0  0  0  0  0  0  0  0
    0.8509    3.6135   -3.7808 H   0  0  0  0  0  0  0  0  0  0  0  0
   -1.7301   -2.7903   -4.1941 H   0  0  0  0  0  0  0  0  0  0  0  0
   -0.0023   -2.3782   -3.7191 H   0  0  0  0  0  0  0  0  0  0  0  0
   -2.6126   -1.7152   -2.1462 H   0  0  0  0  0  0  0  0  0  0  0  0
  2  1  2  0  0  0  0
  2  3  1  0  0  0  0
  3 37  1  0  0  0  0
  3 41  1  1  0  0  0
  4 44  1  0  0  0  0
  4  3  1  0  0  0  0
  5  4  1  0  0  0  0
  6  7  1  0  0  0  0
  7 75  1  0  0  0  0
  7  8  1  0  0  0  0
  8 36  2  0  0  0  0
  9 10  1  0  0  0  0
  9  8  1  0  0  0  0
  9 46  1  0  0  0  0
 10 35  1  0  0  0  0
 11 12  1  0  0  0  0
 11 10  2  0  0  0  0
 12 13  2  0  0  0  0
 13 34  1  0  0  0  0
 13 14  1  0  0  0  0
 14 16  1  0  0  0  0
 15 14  2  0  0  0  0
 16 49  1  0  0  0  0
 16 17  1  0  0  0  0
 17 18  1  6  0  0  0
 17 22  1  0  0  0  0
 19 17  1  0  0  0  0
 19 20  1  0  0  0  0
 20 52  1  0  0  0  0
 20 21  1  0  0  0  0
 21 23  1  0  0  0  0
 22 54  1  0  0  0  0
 22 55  1  0  0  0  0
 22 21  1  0  0  0  0
 23 32  2  0  0  0  0
 23 24  1  0  0  0  0
 24 25  1  0  0  0  0
 25 26  1  0  0  0  0
 25 57  1  0  0  0  0
 25 56  1  0  0  0  0
 26 31  1  0  0  0  0
 27 26  2  0  0  0  0
 27 28  1  0  0  0  0
 28 29  2  0  0  0  0
 29 30  1  0  0  0  0
 29 60  1  0  0  0  0
 30 61  1  0  0  0  0
 31 62  1  0  0  0  0
 31 30  2  0  0  0  0
 33 14  2  0  0  0  0
 34 63  1  0  0  0  0
 35 64  1  0  0  0  0
 35 34  2  0  0  0  0
 37 38  1  0  0  0  0
 38 40  2  0  0  0  0
 38 39  1  0  0  0  0
 39 67  1  0  0  0  0
 42  2  1  0  0  0  0
 43 42  1  0  0  0  0
 43 70  1  0  0  0  0
 43 72  1  0  0  0  0
 45  4  1  0  0  0  0
 47 11  1  0  0  0  0
 48 12  1  0  0  0  0
 50 19  1  0  0  0  0
 51 19  1  0  0  0  0
 53 20  1  0  0  0  0
 58 27  1  0  0  0  0
 59 28  1  0  0  0  0
 65 37  1  0  0  0  0
 66 39  1  0  0  0  0
 68 39  1  0  0  0  0
 69 42  1  0  0  0  0
 71 43  1  0  0  0  0
 73  6  1  0  0  0  0
 74  6  1  0  0  0  0
M  END
