-1 1
 OpenBabel05232414493D

 75 76  0  0  1  0  0  0  0  0999 V2000
    0.3427   -2.9652    7.5822 O   0  0  0  0  0  0  0  0  0  0  0  0
    0.2583   -4.0609    7.0404 C   0  0  0  0  0  0  0  0  0  0  0  0
   -1.0153   -4.5623    6.3501 C   0  0  2  0  0  0  0  0  0  0  0  0
   -2.2631   -3.7078    6.5756 C   0  0  0  0  0  0  0  0  0  0  0  0
   -3.4987   -3.9821    5.2632 S   0  0  0  0  0  1  0  0  0  0  0  0
   -2.3023   -2.2550    3.6860 C   0  0  0  0  0  3  0  0  0  0  0  0
   -0.9790   -2.5023    3.4260 C   0  0  0  0  0  3  0  0  0  0  0  0
    0.1174   -2.2145    4.3251 C   0  0  0  0  0  0  0  0  0  0  0  0
   -0.0467   -1.2229    5.3310 N   0  0  0  0  0  0  0  0  0  0  0  0
   -0.6139    0.0182    5.3019 C   0  0  0  0  0  0  0  0  0  0  0  0
   -0.8270    0.6839    6.5341 C   0  0  0  0  0  0  0  0  0  0  0  0
   -1.3309    1.9695    6.5722 C   0  0  0  0  0  0  0  0  0  0  0  0
   -1.6436    2.6263    5.3761 C   0  0  0  0  0  0  0  0  0  0  0  0
   -2.2051    4.2903    5.4269 S   0  0  0  0  0  0  0  0  0  0  0  0
   -3.1250    4.5150    6.5399 O   0  0  0  0  0  0  0  0  0  0  0  0
   -0.8058    5.1043    5.8604 N   0  0  0  0  0  0  0  0  0  0  0  0
    0.3254    5.0787    4.9312 C   0  0  0  0  0  0  0  0  0  0  0  0
    1.2617    6.1096    5.5430 C   0  0  0  0  0  0  0  0  0  0  0  0
    0.2886    7.1961    6.0193 C   0  0  1  0  0  0  0  0  0  0  0  0
    0.0017    7.8174    5.1593 H   0  0  0  0  0  0  0  0  0  0  0  0
   -0.9364    6.4061    6.5193 C   0  0  0  0  0  0  0  0  0  0  0  0
    0.8162    8.1005    7.0083 N   0  0  0  0  0  0  0  0  0  0  0  0
    1.1293    9.3911    6.7395 C   0  0  0  0  0  0  0  0  0  0  0  0
    1.6559    9.9752    7.8363 O   0  0  0  0  0  0  0  0  0  0  0  0
    1.9676   11.3631    7.7414 C   0  0  0  0  0  0  0  0  0  0  0  0
    0.8034   12.2318    8.1509 C   0  0  0  0  0  0  0  0  0  0  0  0
    0.7203   12.7409    9.4502 C   0  0  0  0  0  0  0  0  0  0  0  0
   -0.3662   13.5228    9.8401 C   0  0  0  0  0  0  0  0  0  0  0  0
   -1.3853   13.8001    8.9304 C   0  0  0  0  0  0  0  0  0  0  0  0
   -1.3120   13.2948    7.6320 C   0  0  0  0  0  0  0  0  0  0  0  0
   -0.2241   12.5167    7.2427 C   0  0  0  0  0  0  0  0  0  0  0  0
    0.9703    9.9501    5.6774 O   0  0  0  0  0  0  0  0  0  0  0  0
   -2.6127    4.6841    4.0756 O   0  0  0  0  0  0  0  0  0  0  0  0
   -1.4610    1.9821    4.1499 C   0  0  0  0  0  0  0  0  0  0  0  0
   -0.9526    0.6937    4.1090 C   0  0  0  0  0  0  0  0  0  0  0  0
    1.1632   -2.8535    4.3433 O   0  0  0  0  0  0  0  0  0  0  0  0
   -1.2161   -5.9941    6.5220 N   0  0  0  0  0  0  0  0  0  0  0  0
   -1.4224   -6.6619    7.7036 C   0  0  0  0  0  0  0  0  0  0  0  0
   -1.0057   -5.9664    8.9865 C   0  0  0  0  0  0  0  0  0  0  0  0
   -1.8620   -7.7960    7.7157 O   0  0  0  0  0  0  0  0  0  0  0  0
   -0.7599   -4.4417    5.2838 H   0  0  0  0  0  0  0  0  0  0  0  0
    1.3231   -4.8883    6.9235 N   0  0  0  0  0  0  0  0  0  0  0  0
    2.6641   -4.4010    7.1331 C   0  0  0  0  0  0  0  0  0  0  0  0
   -2.6996   -3.9281    7.5639 H   0  0  0  0  0  0  0  0  0  0  0  0
   -1.9531   -2.6531    6.5975 H   0  0  0  0  0  0  0  0  0  0  0  0
    0.3381   -1.5343    6.2240 H   0  0  0  0  0  0  0  0  0  0  0  0
   -0.5943    0.1544    7.4607 H   0  0  0  0  0  0  0  0  0  0  0  0
   -1.4954    2.4707    7.5280 H   0  0  0  0  0  0  0  0  0  0  0  0
    0.0195    5.3763    3.9108 H   0  0  0  0  0  0  0  0  0  0  0  0
    0.7582    4.0691    4.8795 H   0  0  0  0  0  0  0  0  0  0  0  0
    2.0081    6.4941    4.8348 H   0  0  0  0  0  0  0  0  0  0  0  0
    1.7918    5.6774    6.4075 H   0  0  0  0  0  0  0  0  0  0  0  0
   -1.8779    6.9178    6.2690 H   0  0  0  0  0  0  0  0  0  0  0  0
   -0.9112    6.2843    7.6153 H   0  0  0  0  0  0  0  0  0  0  0  0
    1.0317    7.7540    7.9348 H   0  0  0  0  0  0  0  0  0  0  0  0
    2.2796   11.5905    6.7125 H   0  0  0  0  0  0  0  0  0  0  0  0
    2.8178   11.5148    8.4195 H   0  0  0  0  0  0  0  0  0  0  0  0
    1.5168   12.5220   10.1669 H   0  0  0  0  0  0  0  0  0  0  0  0
   -0.4182   13.9147   10.8584 H   0  0  0  0  0  0  0  0  0  0  0  0
   -2.2391   14.4105    9.2335 H   0  0  0  0  0  0  0  0  0  0  0  0
   -2.1091   13.5080    6.9163 H   0  0  0  0  0  0  0  0  0  0  0  0
   -0.1650   12.1071    6.2318 H   0  0  0  0  0  0  0  0  0  0  0  0
   -1.7163    2.5049    3.2265 H   0  0  0  0  0  0  0  0  0  0  0  0
   -0.8131    0.1906    3.1528 H   0  0  0  0  0  0  0  0  0  0  0  0
   -1.7130   -6.4281    5.7484 H   0  0  0  0  0  0  0  0  0  0  0  0
   -1.3000   -4.9088    9.0189 H   0  0  0  0  0  0  0  0  0  0  0  0
    0.0894   -6.0058    9.0845 H   0  0  0  0  0  0  0  0  0  0  0  0
   -1.4610   -6.5094    9.8227 H   0  0  0  0  0  0  0  0  0  0  0  0
    1.1775   -5.7166    6.3596 H   0  0  0  0  0  0  0  0  0  0  0  0
    2.6894   -3.7934    8.0472 H   0  0  0  0  0  0  0  0  0  0  0  0
    2.9882   -3.7688    6.2893 H   0  0  0  0  0  0  0  0  0  0  0  0
    3.3542   -5.2483    7.2470 H   0  0  0  0  0  0  0  0  0  0  0  0
   -0.7048   -3.1871    2.6194 H   0  0  0  0  0  0  0  0  0  0  0  0
   -2.6204   -1.5453    4.4498 H   0  0  0  0  0  0  0  0  0  0  0  0
   -3.0594   -2.5133    2.9471 H   0  0  0  0  0  0  0  0  0  0  0  0
  2  1  2  0  0  0  0
  3 41  1  6  0  0  0
  3 37  1  0  0  0  0
  3  4  1  0  0  0  0
  3  2  1  0  0  0  0
  4 45  1  0  0  0  0
  4 44  1  0  0  0  0
  5  4  1  0  0  0  0
  6 74  1  0  0  0  0
  7  6  1  0  0  0  0
  7  8  1  0  0  0  0
  8 36  2  0  0  0  0
  8  9  1  0  0  0  0
  9 46  1  0  0  0  0
 10  9  1  0  0  0  0
 10 11  1  0  0  0  0
 11 12  2  0  0  0  0
 11 47  1  0  0  0  0
 12 48  1  0  0  0  0
 13 14  1  0  0  0  0
 13 12  1  0  0  0  0
 14 16  1  0  0  0  0
 14 15  2  0  0  0  0
 16 21  1  0  0  0  0
 17 18  1  0  0  0  0
 17 16  1  0  0  0  0
 18 19  1  0  0  0  0
 18 52  1  0  0  0  0
 19 20  1  6  0  0  0
 19 21  1  0  0  0  0
 19 22  1  0  0  0  0
 21 54  1  0  0  0  0
 22 55  1  0  0  0  0
 23 22  1  0  0  0  0
 23 24  1  0  0  0  0
 25 24  1  0  0  0  0
 25 26  1  0  0  0  0
 25 57  1  0  0  0  0
 26 27  1  0  0  0  0
 27 28  2  0  0  0  0
 27 58  1  0  0  0  0
 28 59  1  0  0  0  0
 29 60  1  0  0  0  0
 29 28  1  0  0  0  0
 30 29  2  0  0  0  0
 31 30  1  0  0  0  0
 31 26  2  0  0  0  0
 32 23  2  0  0  0  0
 33 14  2  0  0  0  0
 34 13  2  0  0  0  0
 35 34  1  0  0  0  0
 35 10  2  0  0  0  0
 37 38  1  0  0  0  0
 38 40  2  0  0  0  0
 38 39  1  0  0  0  0
 39 66  1  0  0  0  0
 39 67  1  0  0  0  0
 39 68  1  0  0  0  0
 42  2  1  0  0  0  0
 42 43  1  0  0  0  0
 43 72  1  0  0  0  0
 43 70  1  0  0  0  0
 49 17  1  0  0  0  0
 50 17  1  0  0  0  0
 51 18  1  0  0  0  0
 53 21  1  0  0  0  0
 56 25  1  0  0  0  0
 61 30  1  0  0  0  0
 62 31  1  0  0  0  0
 63 34  1  0  0  0  0
 64 35  1  0  0  0  0
 65 37  1  0  0  0  0
 69 42  1  0  0  0  0
 71 43  1  0  0  0  0
 73  7  1  0  0  0  0
 75  6  1  0  0  0  0
M  END
