75
-1 1
O         1.326702   -4.885216    0.998466
C         0.936454   -6.038669    0.823688
C        -0.522723   -6.391997    0.533213
C        -1.560909   -5.311406    0.832431
S        -3.117865   -5.636438   -0.066018
C        -1.544163   -4.913293   -3.325257
C        -0.230261   -4.980971   -3.556114
C         0.782286   -4.865665   -2.468563
N         0.685161   -3.838073   -1.550917
C         0.083122   -2.589714   -1.609102
C        -0.171959   -1.940917   -0.383581
C        -0.692873   -0.659662   -0.356936
C        -0.962307   -0.001332   -1.560407
S        -1.535376    1.669105   -1.524444
O        -2.555385    1.862455   -0.498612
N        -0.186795    2.465688   -0.946770
C         1.014715    2.516554   -1.779467
C         1.908491    3.459491   -0.987401
C         0.909403    4.497508   -0.458609
H         0.684504    5.214878   -1.260478
C        -0.350432    3.671846   -0.134386
N         1.371946    5.278594    0.658930
C         1.709904    6.587204    0.556909
O         2.164595    7.038880    1.743833
C         2.486725    8.425452    1.827177
C         1.299457    9.255270    2.250302
C         1.120793    9.605846    3.591803
C         0.011485   10.349981    3.990959
C        -0.934486   10.748490    3.047924
C        -0.765683   10.401638    1.707205
C         0.344958    9.660830    1.309157
O         1.625960    7.261439   -0.445192
O        -1.810462    2.082392   -2.901894
C        -0.723802   -0.628260   -2.781776
C        -0.200189   -1.914601   -2.807597
O         1.639858   -5.720153   -2.329275
N        -0.874976   -7.722525    1.011481
C        -0.917683   -8.130814    2.323845
C        -0.134734   -7.322999    3.344639
O        -1.503674   -9.145654    2.647442
H        -0.517337   -6.487548   -0.569278
N         1.797624   -7.076188    0.753424
C         3.217744   -6.868799    0.620057
H        -1.730966   -5.253314    1.921996
H        -1.132186   -4.345583    0.531931
H         1.126722   -4.069751   -0.652917
H         0.046191   -2.473683    0.544441
H        -0.896877   -0.167235    0.595455
H         0.794507    2.922410   -2.784088
H         1.441894    1.510118   -1.902041
H         2.705936    3.913224   -1.591439
H         2.372884    2.924659   -0.142885
H        -1.271490    4.224070   -0.371802
H        -0.390361    3.412120    0.937127
H         1.521682    4.828694    1.553438
H         2.871156    8.763308    0.854778
H         3.287763    8.490272    2.575379
H         1.859606    9.291335    4.334243
H        -0.115726   10.617373    5.042407
H        -1.805970   11.329572    3.358102
H        -1.505463   10.710040    0.965127
H         0.478141    9.374000    0.263619
H        -0.937586   -0.096550   -3.710241
H        -0.000365   -2.393361   -3.764534
H        -1.627212   -8.139207    0.465553
H        -0.228018   -6.238477    3.200429
H         0.933253   -7.577417    3.274362
H        -0.502967   -7.601601    4.338832
H         1.388546   -7.970047    0.507679
H         3.529963   -6.063130    1.297519
H         3.477275   -6.572342   -0.409976
H         3.755106   -7.789687    0.884972
H         0.172197   -5.308660   -4.519806
H        -1.977059   -4.707828   -2.332400
H        -2.254477   -5.146032   -4.123832
