75
-1 1
O         0.511862   -5.960781    1.571257
C         0.783977   -6.801744    0.729572
C        -0.234178   -7.295320   -0.309686
C        -1.619199   -6.661584   -0.136508
S        -2.529401   -6.483887   -1.701600
C        -1.747840   -4.881535   -2.343322
C        -0.275696   -4.901998   -2.483540
C         0.634396   -4.535446   -1.499588
N         0.132851   -3.694548   -0.404420
C        -0.326501   -2.424734   -0.454008
C        -0.508409   -1.700873    0.758631
C        -0.964675   -0.399792    0.757213
C        -1.262106    0.233815   -0.458236
S        -1.751367    1.911439   -0.456498
O        -2.612141    2.228790    0.683247
N        -0.302156    2.694231   -0.118657
C         0.796657    2.538571   -1.074245
C         1.785532    3.589875   -0.594862
C         0.865307    4.754769   -0.208081
H         0.581472    5.302035   -1.117754
C        -0.376578    4.065510    0.391268
N         1.452436    5.727987    0.677878
C         1.778883    6.984139    0.292427
O         2.359580    7.644061    1.318229
C         2.698846    9.010101    1.096610
C         1.573852    9.940784    1.479331
C         1.567407   10.571692    2.726746
C         0.517975   11.413195    3.093604
C        -0.540820   11.628628    2.213128
C        -0.544182   11.001676    0.966720
C         0.506836   10.164197    0.599907
O         1.589943    7.460753   -0.804526
O        -2.204010    2.276419   -1.803086
C        -1.100232   -0.457860   -1.665157
C        -0.645658   -1.763798   -1.669158
O         1.822663   -4.893110   -1.374384
N        -0.235290   -8.736268   -0.485323
C        -0.465656   -9.704388    0.455514
C        -0.410984   -9.283855    1.910531
O        -0.650525  -10.862920    0.131323
H         0.177046   -6.880009   -1.242251
N         2.025733   -7.332981    0.596949
C         3.160553   -6.609328    1.127194
H        -2.247796   -7.265829    0.534612
H        -1.508965   -5.669303    0.318782
H         0.484072   -4.015516    0.494036
H        -0.281523   -2.198422    1.704691
H        -1.099343    0.139691    1.697018
H         0.468558    2.748508   -2.109853
H         1.193430    1.513904   -1.040761
H         2.525153    3.871759   -1.356687
H         2.324299    3.227078    0.295795
H        -1.304204    4.579682    0.096226
H        -0.338530    4.065776    1.493532
H         1.693667    5.456026    1.622711
H         2.972085    9.144958    0.040751
H         3.580394    9.194983    1.724842
H         2.395036   10.401397    3.421084
H         0.526208   11.900195    4.071420
H        -1.365858   12.285354    2.498539
H        -1.372584   11.165943    0.273979
H         0.506413    9.660402   -0.369377
H        -1.337209    0.045088   -2.604768
H        -0.516183   -2.309236   -2.604633
H        -0.378437   -9.066903   -1.433619
H        -0.937148   -8.340858    2.110955
H         0.639749   -9.134182    2.201279
H        -0.840916  -10.093174    2.511562
H         2.176065   -7.847434   -0.262062
H         2.950050   -6.319888    2.164645
H         3.336165   -5.698031    0.531066
H         4.050902   -7.252886    1.109095
H         0.144003   -5.510949   -3.290829
H        -2.108713   -4.099362   -1.660826
H        -2.277593   -4.754150   -3.300911
