72
-1 1
O         8.970661   -3.841163    9.978893
C         7.829754   -3.619034    9.555589
N         6.788447   -3.732252   10.476754
C         5.490891   -3.078629   10.423677
C         5.145529   -2.839922   11.891945
C         5.811838   -4.033502   12.580195
C         7.122754   -4.200477   11.806058
N         5.984783   -3.879777   14.014632
C         6.837283   -3.017700   14.654004
C         6.673267   -3.092155   16.019702
C         7.456958   -2.314577   16.977525
C         8.807325   -2.136387   16.999669
S         6.664963   -1.391849   18.252851
C         8.193627   -0.785512   18.839646
C         9.261237   -1.261581   18.050184
C        10.571068   -0.864656   18.371841
C        10.774181   -0.019935   19.450496
C         9.692953    0.439665   20.222137
C         8.381623    0.069482   19.938309
C         7.211710    0.551152   20.750024
C         5.236837   -4.524010   14.963473
C         5.633420   -4.070119   16.235295
C         4.981582   -4.710705   17.320063
N         5.273607   -4.456361   18.617965
N         4.036067   -5.621936   17.077882
C         3.745202   -5.926721   15.808294
N         4.294405   -5.437444   14.712281
C         7.567345   -3.264313    8.175699
C         6.375934   -3.289244    7.465005
S         5.684130   -5.401968    6.535513
C         5.932885   -6.398686    8.040570
C         7.193468   -7.281651    8.029920
H         7.294930   -7.773451    9.011020
N         8.353779   -6.461107    7.784796
C         9.604683   -6.828713    8.176136
C        10.652560   -5.749977    7.995394
O         9.851160   -7.929894    8.636464
C         7.018216   -8.439713    7.041689
N         7.606930   -8.261067    5.833197
C         7.385427   -9.156038    4.733055
O         6.360390   -9.422500    7.338185
H         4.726586   -3.717768    9.942563
H         5.546198   -2.141156    9.851124
H         4.065524   -2.784528   12.087603
H         5.610098   -1.905792   12.248903
H         5.181103   -4.925317   12.457226
H         7.475209   -5.243521   11.795670
H         7.941607   -3.600266   12.242118
H         7.514609   -2.378248   14.092242
H         9.473315   -2.637624   16.296694
H        11.411644   -1.221910   17.773208
H        11.787168    0.296181   19.708874
H         9.882452    1.106348   21.067534
H         7.535882    1.203425   21.572073
H         6.655530   -0.295471   21.184572
H         6.502071    1.116646   20.124458
H         5.936197   -3.743837   18.887730
H         4.731872   -4.940222   19.319119
H         2.958878   -6.677520   15.668286
H         8.495776   -3.105179    7.618720
H         6.373042   -2.855962    6.463513
H         5.406852   -3.256221    7.956073
H         5.064876   -7.051521    8.211377
H         6.019098   -5.720580    8.906662
H         8.171525   -5.492465    7.527350
H        10.415904   -4.917582    8.679140
H        10.641419   -5.360625    6.965592
H        11.639768   -6.169243    8.223434
H         7.982195   -7.336172    5.661603
H         8.331469   -9.416088    4.231003
H         6.696005   -8.726448    3.985902
H         6.931717  -10.071158    5.135935
