-1 1
 OpenBabel05192410563D

 70 74  0  0  1  0  0  0  0  0999 V2000
   -5.1415    1.0175   -1.2196 O   0  0  0  0  0  0  0  0  0  0  0  0
   -4.2768    0.2180   -1.6009 C   0  0  0  0  0  0  0  0  0  0  0  0
   -3.0747    0.7899   -2.1178 N   0  0  0  0  0  0  0  0  0  0  0  0
   -2.3916    0.4882   -3.3731 C   0  0  0  0  0  0  0  0  0  0  0  0
   -1.8654    1.9375   -3.3779 C   0  0  1  0  0  0  0  0  0  0  0  0
   -2.9673    2.2236   -2.3310 C   0  0  0  0  0  0  0  0  0  0  0  0
   -0.5206    2.0508   -2.8448 N   0  0  0  0  0  0  0  0  0  0  0  0
   -0.0266    1.3330   -1.7857 C   0  0  0  0  0  0  0  0  0  0  0  0
    1.2524    1.7388   -1.4805 C   0  0  0  0  0  0  0  0  0  0  0  0
    2.0263    1.1703   -0.3787 C   0  0  0  0  0  0  0  0  0  0  0  0
    1.5940    0.9372    0.8926 C   0  0  0  0  0  0  0  0  0  0  0  0
    3.6738    0.5949   -0.6133 S   0  0  0  0  0  0  0  0  0  0  0  0
    3.7778    0.0581    1.0468 C   0  0  0  0  0  0  0  0  0  0  0  0
    2.5702    0.2930    1.7321 C   0  0  0  0  0  0  0  0  0  0  0  0
    2.4412   -0.0917    3.0797 C   0  0  0  0  0  0  0  0  0  0  0  0
    3.5160   -0.7082    3.7106 C   0  0  0  0  0  0  0  0  0  0  0  0
    3.4970   -1.1427    4.9906 O   0  0  0  0  0  0  0  0  0  0  0  0
    2.3933   -0.8030    5.8018 C   0  0  0  0  0  0  0  0  0  0  0  0
    4.7222   -0.9368    3.0099 C   0  0  0  0  0  0  0  0  0  0  0  0
    4.8597   -0.5588    1.6865 C   0  0  0  0  0  0  0  0  0  0  0  0
    0.4351    2.9404   -3.2498 C   0  0  0  0  0  0  0  0  0  0  0  0
    1.5687    2.7820   -2.4269 C   0  0  0  0  0  0  0  0  0  0  0  0
    2.6285    3.6803   -2.7011 C   0  0  2  0  0  3  0  0  0  0  0  0
    3.7716    3.7187   -1.9732 N   0  0  0  0  0  0  0  0  0  0  0  0
    2.5156    4.5532   -3.7075 N   0  0  0  0  0  0  0  0  0  0  0  0
    1.3822    4.5687   -4.4176 C   0  0  0  0  0  0  0  0  0  0  0  0
    0.3089    3.8173   -4.2531 N   0  0  0  0  0  2  0  0  0  0  0  0
   -4.3180   -1.1940   -1.5009 C   0  0  0  0  0  3  0  0  0  0  0  0
   -3.2901   -2.1420   -1.9340 C   0  0  0  0  0  0  0  0  0  0  0  0
   -1.5632   -2.1479   -0.9979 S   0  0  0  0  0  0  0  0  0  0  0  0
   -1.8681   -1.1367    0.4684 C   0  0  0  0  0  0  0  0  0  0  0  0
   -1.9241   -1.9190    1.7796 C   0  0  2  0  0  0  0  0  0  0  0  0
   -2.0435   -1.2056    2.6119 H   0  0  0  0  0  0  0  0  0  0  0  0
   -0.6799   -2.6047    2.0249 N   0  0  0  0  0  0  0  0  0  0  0  0
    0.0121   -2.5128    3.1803 C   0  0  0  0  0  0  0  0  0  0  0  0
    1.1679   -3.4829    3.3150 C   0  0  0  0  0  0  0  0  0  0  0  0
   -0.2668   -1.7142    4.0664 O   0  0  0  0  0  0  0  0  0  0  0  0
   -3.0863   -2.9235    1.9132 C   0  0  0  0  0  0  0  0  0  0  0  0
   -4.2310   -2.5864    1.2829 N   0  0  0  0  0  0  0  0  0  0  0  0
   -5.3698   -3.4664    1.3310 C   0  0  0  0  0  0  0  0  0  0  0  0
   -2.9723   -3.9225    2.6042 O   0  0  0  0  0  0  0  0  0  0  0  0
   -3.0787    0.2849   -4.2170 H   0  0  0  0  0  0  0  0  0  0  0  0
   -1.6230   -0.3018   -3.3295 H   0  0  0  0  0  0  0  0  0  0  0  0
   -1.8914    2.5037   -4.3158 H   0  0  0  0  0  0  0  0  0  0  0  0
   -3.8804    2.6683   -2.7652 H   0  0  0  0  0  0  0  0  0  0  0  0
   -2.6634    2.8194   -1.4545 H   0  0  0  0  0  0  0  0  0  0  0  0
   -0.6264    0.5427   -1.3367 H   0  0  0  0  0  0  0  0  0  0  0  0
    0.6030    1.2343    1.2365 H   0  0  0  0  0  0  0  0  0  0  0  0
    1.4872    0.0494    3.5876 H   0  0  0  0  0  0  0  0  0  0  0  0
    2.6044   -1.2168    6.7960 H   0  0  0  0  0  0  0  0  0  0  0  0
    1.4488   -1.2226    5.4161 H   0  0  0  0  0  0  0  0  0  0  0  0
    2.2902    0.2937    5.8848 H   0  0  0  0  0  0  0  0  0  0  0  0
    5.5388   -1.4248    3.5446 H   0  0  0  0  0  0  0  0  0  0  0  0
    5.7950   -0.7452    1.1544 H   0  0  0  0  0  0  0  0  0  0  0  0
    3.9689    3.0278   -1.2619 H   0  0  0  0  0  0  0  0  0  0  0  0
    4.5004    4.3417   -2.2888 H   0  0  0  0  0  0  0  0  0  0  0  0
    1.3447    5.3018   -5.2327 H   0  0  0  0  0  0  0  0  0  0  0  0
   -5.2757   -1.5949   -1.1585 H   0  0  0  0  0  0  0  0  0  0  0  0
   -2.9029   -2.0257   -2.9582 H   0  0  0  0  0  0  0  0  0  0  0  0
   -3.6484   -3.1741   -1.8273 H   0  0  0  0  0  0  0  0  0  0  0  0
   -2.8033   -0.5809    0.2799 H   0  0  0  0  0  0  0  0  0  0  0  0
   -1.0606   -0.3960    0.5502 H   0  0  0  0  0  0  0  0  0  0  0  0
   -0.4455   -3.3373    1.3653 H   0  0  0  0  0  0  0  0  0  0  0  0
    0.8128   -4.3666    3.8669 H   0  0  0  0  0  0  0  0  0  0  0  0
    1.9766   -3.0163    3.8908 H   0  0  0  0  0  0  0  0  0  0  0  0
    1.5586   -3.8107    2.3418 H   0  0  0  0  0  0  0  0  0  0  0  0
   -4.2285   -1.8748    0.5411 H   0  0  0  0  0  0  0  0  0  0  0  0
   -5.1797   -4.4209    0.8099 H   0  0  0  0  0  0  0  0  0  0  0  0
   -6.2238   -2.9672    0.8539 H   0  0  0  0  0  0  0  0  0  0  0  0
   -5.6289   -3.7074    2.3727 H   0  0  0  0  0  0  0  0  0  0  0  0
  2 28  1  0  0  0  0
  2  1  2  0  0  0  0
  3  2  1  0  0  0  0
  4 43  1  0  0  0  0
  4  3  1  0  0  0  0
  5 44  1  6  0  0  0
  5  4  1  0  0  0  0
  5  7  1  0  0  0  0
  5  6  1  0  0  0  0
  6  3  1  0  0  0  0
  6 46  1  0  0  0  0
  7  8  1  0  0  0  0
  8  9  2  0  0  0  0
  8 47  1  0  0  0  0
  9 10  1  0  0  0  0
 10 11  2  0  0  0  0
 11 48  1  0  0  0  0
 11 14  1  0  0  0  0
 12 10  1  0  0  0  0
 12 13  1  0  0  0  0
 13 20  2  0  0  0  0
 13 14  1  0  0  0  0
 14 15  2  0  0  0  0
 15 49  1  0  0  0  0
 15 16  1  0  0  0  0
 16 17  1  0  0  0  0
 17 18  1  0  0  0  0
 18 52  1  0  0  0  0
 18 50  1  0  0  0  0
 19 53  1  0  0  0  0
 19 16  2  0  0  0  0
 20 19  1  0  0  0  0
 21  7  1  0  0  0  0
 21 22  2  0  0  0  0
 22  9  1  0  0  0  0
 23 22  1  0  0  0  0
 23 24  1  1  0  0  0
 24 55  1  0  0  0  0
 25 23  1  0  0  0  0
 26 27  1  0  0  0  0
 26 25  2  0  0  0  0
 27 21  1  0  0  0  0
 28 58  1  0  0  0  0
 29 60  1  0  0  0  0
 29 28  1  0  0  0  0
 29 30  1  0  0  0  0
 30 31  1  0  0  0  0
 31 62  1  0  0  0  0
 31 32  1  0  0  0  0
 32 38  1  0  0  0  0
 32 34  1  0  0  0  0
 32 33  1  1  0  0  0
 34 35  1  0  0  0  0
 35 36  1  0  0  0  0
 35 37  2  0  0  0  0
 36 64  1  0  0  0  0
 36 65  1  0  0  0  0
 38 41  2  0  0  0  0
 39 40  1  0  0  0  0
 39 38  1  0  0  0  0
 40 70  1  0  0  0  0
 42  4  1  0  0  0  0
 45  6  1  0  0  0  0
 51 18  1  0  0  0  0
 54 20  1  0  0  0  0
 56 24  1  0  0  0  0
 57 26  1  0  0  0  0
 59 29  1  0  0  0  0
 61 31  1  0  0  0  0
 63 34  1  0  0  0  0
 66 36  1  0  0  0  0
 67 39  1  0  0  0  0
 68 40  1  0  0  0  0
 69 40  1  0  0  0  0
M  END
