73
-1 1
O        -2.345890   -1.425853    4.806339
C        -1.835410   -0.537740    4.122705
N        -1.460268   -0.779098    2.846228
C        -1.630290   -2.129231    2.299816
C        -0.884992   -2.082858    0.972522
C        -0.997407   -0.612137    0.557295
C        -0.947961    0.178158    1.871924
N         0.001219   -0.194310   -0.414120
C         1.327883    0.051559   -0.175645
C         1.991432    0.348358   -1.345468
C         3.410936    0.689403   -1.410626
C         4.088733    1.572768   -0.622810
S         4.482776   -0.122110   -2.548110
C         5.849682    0.778640   -1.962194
C         5.497534    1.643612   -0.910995
C         6.496598    2.440587   -0.315523
C         7.794035    2.346416   -0.782951
C         8.141543    1.478787   -1.837865
C         7.168012    0.687565   -2.438903
O         7.373771   -0.176966   -3.455973
C         8.668911   -0.323154   -3.968442
C        -0.215501   -0.079897   -1.761291
C         0.996801    0.266647   -2.387500
C         0.901394    0.486192   -3.785342
N         1.945672    0.891441   -4.547507
N        -0.265972    0.301013   -4.405637
C        -1.327163   -0.067693   -3.680531
N        -1.384511   -0.270684   -2.378093
C        -1.586297    0.798455    4.750062
C        -1.930827    1.999466    4.281105
S        -3.800684    2.362043    1.180092
C        -4.906145    1.290660    2.168125
C        -4.701832   -0.210690    1.890952
H        -3.705684   -0.485048    2.264445
N        -4.766183   -0.444441    0.470707
C        -4.524178   -1.647718   -0.084731
C        -4.484600   -1.659843   -1.599214
O        -4.314072   -2.660488    0.575710
C        -5.746717   -1.040183    2.642378
N        -5.288333   -1.582490    3.803411
C        -6.135623   -2.360474    4.664051
O        -6.901791   -1.135392    2.268142
H        -2.696083   -2.359858    2.137178
H        -1.230158   -2.871354    3.005299
H        -1.328980   -2.757381    0.228521
H         0.178310   -2.346410    1.101719
H        -1.974176   -0.423776    0.087161
H        -1.598272    1.064233    1.775740
H         0.075296    0.496368    2.137110
H         1.742381   -0.016421    0.827225
H         3.590611    2.184975    0.129305
H         6.241621    3.118904    0.500698
H         8.578299    2.957044   -0.330008
H         9.177592    1.436976   -2.174027
H         8.607049   -1.066197   -4.772592
H         9.372664   -0.685264   -3.198834
H         9.051831    0.625031   -4.384591
H         2.877033    0.991221   -4.170761
H         1.787162    0.978463   -5.540714
H        -2.259324   -0.216051   -4.237886
H        -1.196859    0.693436    5.768918
H        -2.400178    2.171803    3.297834
H        -1.780609    2.881315    4.911772
H        -5.961566    1.531328    1.961061
H        -4.747740    1.440125    3.249979
H        -4.679378    0.411214   -0.082646
H        -3.490993   -1.312991   -1.927578
H        -5.243149   -0.991394   -2.030438
H        -4.644942   -2.686944   -1.949047
H        -4.296432   -1.543315    4.026288
H        -5.871413   -3.431806    4.642384
H        -7.168107   -2.251382    4.306865
H        -6.072622   -2.010717    5.707256
