73
-1 1
O         4.438319    6.842450   -4.450727
C         4.780299    7.743347   -5.251546
N         5.360462    7.306489   -6.437090
C         5.471864    5.870608   -6.675619
C         6.403996    5.779994   -7.877657
C         6.027076    7.030144   -8.672295
C         5.750600    8.088886   -7.591746
N         7.016160    7.456872   -9.651310
C         8.331251    7.738829   -9.396215
C         8.984557    8.124937  -10.545978
C        10.395423    8.502409  -10.594335
C        11.055719    9.356922   -9.761397
S        11.482149    7.778559  -11.776579
C        12.829629    8.679909  -11.147707
C        12.461268    9.477004  -10.049482
C        13.443595   10.263359   -9.413538
C        14.741042   10.226160   -9.888969
C        15.104726    9.426613  -10.991125
C        14.147758    8.646564  -11.632110
O        14.370225    7.844138  -12.695730
C        15.667317    7.755057  -13.216098
C         6.786735    7.664626  -10.984526
C         7.990027    8.078307  -11.590454
C         7.886868    8.387744  -12.970242
N         8.921160    8.864539  -13.705591
N         6.719951    8.227667  -13.598716
C         5.665236    7.804555  -12.893838
N         5.613224    7.515337  -11.607724
C         4.544005    9.128803   -4.965720
C         4.590600   10.257653   -5.805076
S         2.817363   10.470365   -7.176650
C         1.847299    9.115758   -6.474902
C         2.068332    7.736813   -7.112986
H         3.116294    7.447152   -6.975391
N         1.809446    7.760189   -8.530089
C         2.349728    6.847381   -9.361149
C         2.153965    7.087466  -10.842260
O         3.007138    5.894747   -8.958160
C         1.184095    6.700981   -6.401451
N         1.754547    6.159227   -5.299829
C         1.047879    5.232013   -4.459625
O         0.052207    6.449051   -6.784101
H         4.486083    5.436844   -6.918924
H         5.856138    5.361986   -5.781982
H         6.264911    4.860121   -8.461889
H         7.456983    5.831489   -7.552409
H         5.106478    6.818904   -9.231664
H         4.958666    8.781062   -7.919591
H         6.665106    8.683262   -7.395078
H         8.741951    7.628557   -8.394805
H        10.547235    9.913646   -8.973948
H        13.176038   10.888625   -8.559861
H        15.512505   10.829053   -9.404766
H        16.140150    9.427840  -11.331832
H        15.620965    7.054989  -14.058946
H        16.380514    7.368380  -12.467416
H        16.028054    8.732640  -13.580985
H         9.859065    8.917263  -13.334514
H         8.762478    8.988530  -14.694980
H         4.730630    7.692641  -13.456370
H         4.056698    9.242705   -3.993854
H         5.317102   10.325418   -6.613829
H         4.453123   11.217019   -5.300323
H         0.775707    9.368900   -6.516740
H         2.126968    9.017079   -5.412119
H         1.336727    8.568623   -8.910021
H         3.139352    7.352751  -11.256283
H         1.429674    7.882423  -11.067927
H         1.832083    6.148345  -11.311896
H         2.717866    6.404812   -5.031214
H         1.550428    4.250693   -4.430433
H         0.037782    5.099781   -4.869468
H         0.971399    5.605544   -3.424858
