-1 1
 OpenBabel05232413483D

 73 76  0  0  1  0  0  0  0  0999 V2000
   -2.3459   -1.4259    4.8063 O   0  0  0  0  0  0  0  0  0  0  0  0
   -1.8354   -0.5377    4.1227 C   0  0  0  0  0  0  0  0  0  0  0  0
   -1.4603   -0.7791    2.8462 N   0  0  0  0  0  0  0  0  0  0  0  0
   -1.6303   -2.1292    2.2998 C   0  0  0  0  0  0  0  0  0  0  0  0
   -0.8850   -2.0829    0.9725 C   0  0  0  0  0  0  0  0  0  0  0  0
   -0.9974   -0.6121    0.5573 C   0  0  1  0  0  0  0  0  0  0  0  0
   -0.9480    0.1782    1.8719 C   0  0  0  0  0  0  0  0  0  0  0  0
    0.0012   -0.1943   -0.4141 N   0  0  0  0  0  0  0  0  0  0  0  0
    1.3279    0.0516   -0.1756 C   0  0  0  0  0  0  0  0  0  0  0  0
    1.9914    0.3484   -1.3455 C   0  0  0  0  0  0  0  0  0  0  0  0
    3.4109    0.6894   -1.4106 C   0  0  0  0  0  0  0  0  0  0  0  0
    4.0887    1.5728   -0.6228 C   0  0  0  0  0  0  0  0  0  0  0  0
    4.4828   -0.1221   -2.5481 S   0  0  0  0  0  0  0  0  0  0  0  0
    5.8497    0.7786   -1.9622 C   0  0  0  0  0  0  0  0  0  0  0  0
    5.4975    1.6436   -0.9110 C   0  0  0  0  0  0  0  0  0  0  0  0
    6.4966    2.4406   -0.3155 C   0  0  0  0  0  0  0  0  0  0  0  0
    7.7940    2.3464   -0.7830 C   0  0  0  0  0  0  0  0  0  0  0  0
    8.1415    1.4788   -1.8379 C   0  0  0  0  0  0  0  0  0  0  0  0
    7.1680    0.6876   -2.4389 C   0  0  0  0  0  0  0  0  0  0  0  0
    7.3738   -0.1770   -3.4560 O   0  0  0  0  0  0  0  0  0  0  0  0
    8.6689   -0.3232   -3.9684 C   0  0  0  0  0  0  0  0  0  0  0  0
   -0.2155   -0.0799   -1.7613 C   0  0  0  0  0  0  0  0  0  0  0  0
    0.9968    0.2666   -2.3875 C   0  0  0  0  0  0  0  0  0  0  0  0
    0.9014    0.4862   -3.7853 C   0  0  2  0  0  3  0  0  0  0  0  0
    1.9457    0.8914   -4.5475 N   0  0  0  0  0  0  0  0  0  0  0  0
   -0.2660    0.3010   -4.4056 N   0  0  0  0  0  0  0  0  0  0  0  0
   -1.3272   -0.0677   -3.6805 C   0  0  0  0  0  0  0  0  0  0  0  0
   -1.3845   -0.2707   -2.3781 N   0  0  0  0  0  2  0  0  0  0  0  0
   -1.5863    0.7985    4.7501 C   0  0  0  0  0  0  0  0  0  0  0  0
   -1.9308    1.9995    4.2811 C   0  0  0  0  0  0  0  0  0  0  0  0
   -3.8007    2.3620    1.1801 S   0  0  0  0  0  1  0  0  0  0  0  0
   -4.9061    1.2907    2.1681 C   0  0  0  0  0  0  0  0  0  0  0  0
   -4.7018   -0.2107    1.8910 C   0  0  2  0  0  0  0  0  0  0  0  0
   -3.7057   -0.4850    2.2644 H   0  0  0  0  0  0  0  0  0  0  0  0
   -4.7662   -0.4444    0.4707 N   0  0  0  0  0  0  0  0  0  0  0  0
   -4.5242   -1.6477   -0.0847 C   0  0  0  0  0  0  0  0  0  0  0  0
   -4.4846   -1.6598   -1.5992 C   0  0  0  0  0  0  0  0  0  0  0  0
   -4.3141   -2.6605    0.5757 O   0  0  0  0  0  0  0  0  0  0  0  0
   -5.7467   -1.0402    2.6424 C   0  0  0  0  0  0  0  0  0  0  0  0
   -5.2883   -1.5825    3.8034 N   0  0  0  0  0  0  0  0  0  0  0  0
   -6.1356   -2.3605    4.6641 C   0  0  0  0  0  0  0  0  0  0  0  0
   -6.9018   -1.1354    2.2681 O   0  0  0  0  0  0  0  0  0  0  0  0
   -2.6961   -2.3599    2.1372 H   0  0  0  0  0  0  0  0  0  0  0  0
   -1.2302   -2.8714    3.0053 H   0  0  0  0  0  0  0  0  0  0  0  0
   -1.3290   -2.7574    0.2285 H   0  0  0  0  0  0  0  0  0  0  0  0
    0.1783   -2.3464    1.1017 H   0  0  0  0  0  0  0  0  0  0  0  0
   -1.9742   -0.4238    0.0872 H   0  0  0  0  0  0  0  0  0  0  0  0
   -1.5983    1.0642    1.7757 H   0  0  0  0  0  0  0  0  0  0  0  0
    0.0753    0.4964    2.1371 H   0  0  0  0  0  0  0  0  0  0  0  0
    1.7424   -0.0164    0.8272 H   0  0  0  0  0  0  0  0  0  0  0  0
    3.5906    2.1850    0.1293 H   0  0  0  0  0  0  0  0  0  0  0  0
    6.2416    3.1189    0.5007 H   0  0  0  0  0  0  0  0  0  0  0  0
    8.5783    2.9570   -0.3300 H   0  0  0  0  0  0  0  0  0  0  0  0
    9.1776    1.4370   -2.1740 H   0  0  0  0  0  0  0  0  0  0  0  0
    8.6070   -1.0662   -4.7726 H   0  0  0  0  0  0  0  0  0  0  0  0
    9.3727   -0.6853   -3.1988 H   0  0  0  0  0  0  0  0  0  0  0  0
    9.0518    0.6250   -4.3846 H   0  0  0  0  0  0  0  0  0  0  0  0
    2.8770    0.9912   -4.1708 H   0  0  0  0  0  0  0  0  0  0  0  0
    1.7872    0.9785   -5.5407 H   0  0  0  0  0  0  0  0  0  0  0  0
   -2.2593   -0.2161   -4.2379 H   0  0  0  0  0  0  0  0  0  0  0  0
   -1.1969    0.6934    5.7689 H   0  0  0  0  0  0  0  0  0  0  0  0
   -2.4002    2.1718    3.2978 H   0  0  0  0  0  0  0  0  0  0  0  0
   -1.7806    2.8813    4.9118 H   0  0  0  0  0  0  0  0  0  0  0  0
   -5.9616    1.5313    1.9611 H   0  0  0  0  0  0  0  0  0  0  0  0
   -4.7477    1.4401    3.2500 H   0  0  0  0  0  0  0  0  0  0  0  0
   -4.6794    0.4112   -0.0826 H   0  0  0  0  0  0  0  0  0  0  0  0
   -3.4910   -1.3130   -1.9276 H   0  0  0  0  0  0  0  0  0  0  0  0
   -5.2431   -0.9914   -2.0304 H   0  0  0  0  0  0  0  0  0  0  0  0
   -4.6449   -2.6869   -1.9490 H   0  0  0  0  0  0  0  0  0  0  0  0
   -4.2964   -1.5433    4.0263 H   0  0  0  0  0  0  0  0  0  0  0  0
   -5.8714   -3.4318    4.6424 H   0  0  0  0  0  0  0  0  0  0  0  0
   -7.1681   -2.2514    4.3069 H   0  0  0  0  0  0  0  0  0  0  0  0
   -6.0726   -2.0107    5.7073 H   0  0  0  0  0  0  0  0  0  0  0  0
  2 29  1  0  0  0  0
  2  1  2  0  0  0  0
  3  2  1  0  0  0  0
  4  3  1  0  0  0  0
  4 44  1  0  0  0  0
  5 46  1  0  0  0  0
  5  4  1  0  0  0  0
  6 47  1  6  0  0  0
  6  5  1  0  0  0  0
  6  7  1  0  0  0  0
  7 49  1  0  0  0  0
  7  3  1  0  0  0  0
  8  9  1  0  0  0  0
  8  6  1  0  0  0  0
  9 50  1  0  0  0  0
 10  9  2  0  0  0  0
 11 10  1  0  0  0  0
 11 12  2  0  0  0  0
 12 51  1  0  0  0  0
 13 14  1  0  0  0  0
 13 11  1  0  0  0  0
 14 15  1  0  0  0  0
 15 12  1  0  0  0  0
 15 16  2  0  0  0  0
 16 52  1  0  0  0  0
 17 53  1  0  0  0  0
 17 16  1  0  0  0  0
 18 17  2  0  0  0  0
 19 14  2  0  0  0  0
 19 18  1  0  0  0  0
 20 19  1  0  0  0  0
 21 20  1  0  0  0  0
 21 56  1  0  0  0  0
 22  8  1  0  0  0  0
 23 22  2  0  0  0  0
 23 10  1  0  0  0  0
 24 25  1  1  0  0  0
 24 23  1  0  0  0  0
 25 58  1  0  0  0  0
 26 24  1  0  0  0  0
 26 27  2  0  0  0  0
 27 28  1  0  0  0  0
 28 22  1  0  0  0  0
 29 61  1  0  0  0  0
 30 29  2  0  0  0  0
 30 63  1  0  0  0  0
 31 32  1  0  0  0  0
 32 65  1  0  0  0  0
 33 32  1  0  0  0  0
 33 34  1  1  0  0  0
 33 39  1  0  0  0  0
 35 33  1  0  0  0  0
 36 35  1  0  0  0  0
 36 38  2  0  0  0  0
 37 36  1  0  0  0  0
 39 40  1  0  0  0  0
 40 70  1  0  0  0  0
 40 41  1  0  0  0  0
 41 73  1  0  0  0  0
 42 39  2  0  0  0  0
 43  4  1  0  0  0  0
 45  5  1  0  0  0  0
 48  7  1  0  0  0  0
 54 18  1  0  0  0  0
 55 21  1  0  0  0  0
 57 21  1  0  0  0  0
 59 25  1  0  0  0  0
 60 27  1  0  0  0  0
 62 30  1  0  0  0  0
 64 32  1  0  0  0  0
 66 35  1  0  0  0  0
 67 37  1  0  0  0  0
 68 37  1  0  0  0  0
 69 37  1  0  0  0  0
 71 41  1  0  0  0  0
 72 41  1  0  0  0  0
M  END
