-1 1
 OpenBabel05232413483D

 74 76  0  0  1  0  0  0  0  0999 V2000
   -1.3403    0.4713    1.4922 O   0  0  0  0  0  0  0  0  0  0  0  0
   -0.8818   -0.5537    0.9993 C   0  0  0  0  0  0  0  0  0  0  0  0
   -1.5973   -1.2857    0.0925 N   0  0  0  0  0  0  0  0  0  0  0  0
   -1.2413   -2.4874   -0.6508 C   0  0  0  0  0  0  0  0  0  0  0  0
   -1.5121   -2.0932   -2.1189 C   0  0  0  0  0  0  0  0  0  0  0  0
   -2.4457   -0.8596   -2.0454 C   0  0  1  0  0  0  0  0  0  0  0  0
   -2.7831   -0.7479   -0.5406 C   0  0  0  0  0  0  0  0  0  0  0  0
   -1.7966    0.3695   -2.4858 N   0  0  0  0  0  0  0  0  0  0  0  0
   -0.6325    0.8697   -1.9479 C   0  0  0  0  0  0  0  0  0  0  0  0
   -0.4847    2.2022   -2.2314 C   0  0  0  0  0  0  0  0  0  0  0  0
    0.6005    3.0332   -1.6805 C   0  0  0  0  0  0  0  0  0  0  0  0
    0.9661    2.8257   -0.3463 C   0  0  0  0  0  0  0  0  0  0  0  0
    1.9967    3.5882    0.2179 C   0  0  0  0  0  0  0  0  0  0  0  0
    2.4099    3.4437    1.4899 O   0  0  0  0  0  0  0  0  0  0  0  0
    1.8925    2.3725    2.2493 C   0  0  0  0  0  0  0  0  0  0  0  0
    2.6361    4.5733   -0.5406 C   0  0  0  0  0  0  0  0  0  0  0  0
    2.2640    4.7787   -1.8697 C   0  0  0  0  0  0  0  0  0  0  0  0
    2.9384    5.7492   -2.5338 O   0  0  0  0  0  0  0  0  0  0  0  0
    2.6115    5.9994   -3.8705 C   0  0  0  0  0  0  0  0  0  0  0  0
    1.2546    4.0026   -2.4542 C   0  0  0  0  0  0  0  0  0  0  0  0
   -2.4313    1.3944   -3.1332 C   0  0  0  0  0  0  0  0  0  0  0  0
   -1.6424    2.5576   -3.0156 C   0  0  0  0  0  0  0  0  0  0  0  0
   -2.2222    3.7206   -3.5743 C   0  0  1  0  0  3  0  0  0  0  0  0
   -1.6306    4.9479   -3.5038 N   0  0  0  0  0  0  0  0  0  0  0  0
   -3.3946    3.6426   -4.2080 N   0  0  0  0  0  0  0  0  0  0  0  0
   -4.0142    2.4579   -4.2645 C   0  0  0  0  0  0  0  0  0  0  0  0
   -3.6171    1.3099   -3.7466 N   0  0  0  0  0  2  0  0  0  0  0  0
    0.5011   -0.9810    1.3622 C   0  0  0  0  0  0  0  0  0  0  0  0
    1.4753   -1.2824    0.4969 C   0  0  0  0  0  0  0  0  0  0  0  0
    1.5886   -4.5300    0.4399 S   0  0  0  0  0  1  0  0  0  0  0  0
    0.3510   -4.3604    1.7671 C   0  0  0  0  0  0  0  0  0  0  0  0
    0.8669   -4.4754    3.2209 C   0  0  2  0  0  0  0  0  0  0  0  0
    1.4045   -5.4345    3.3102 H   0  0  0  0  0  0  0  0  0  0  0  0
   -0.2177   -4.4361    4.1774 N   0  0  0  0  0  0  0  0  0  0  0  0
   -1.0439   -5.4705    4.4410 C   0  0  0  0  0  0  0  0  0  0  0  0
   -2.0890   -5.1962    5.5139 C   0  0  0  0  0  0  0  0  0  0  0  0
   -0.9973   -6.5462    3.8687 O   0  0  0  0  0  0  0  0  0  0  0  0
    1.8116   -3.3352    3.6262 C   0  0  0  0  0  0  0  0  0  0  0  0
    2.9421   -3.2433    2.9066 N   0  0  0  0  0  0  0  0  0  0  0  0
    3.8508   -2.1495    3.1235 C   0  0  0  0  0  0  0  0  0  0  0  0
    1.5378   -2.5694    4.5494 O   0  0  0  0  0  0  0  0  0  0  0  0
   -1.9209   -3.3012   -0.3449 H   0  0  0  0  0  0  0  0  0  0  0  0
   -0.2213   -2.8507   -0.4617 H   0  0  0  0  0  0  0  0  0  0  0  0
   -1.9756   -2.9158   -2.6793 H   0  0  0  0  0  0  0  0  0  0  0  0
   -0.5807   -1.8348   -2.6426 H   0  0  0  0  0  0  0  0  0  0  0  0
   -3.3450   -0.9592   -2.6655 H   0  0  0  0  0  0  0  0  0  0  0  0
   -3.6629   -1.3710   -0.3005 H   0  0  0  0  0  0  0  0  0  0  0  0
   -2.9700    0.2789   -0.2053 H   0  0  0  0  0  0  0  0  0  0  0  0
    0.0355    0.2373   -1.3718 H   0  0  0  0  0  0  0  0  0  0  0  0
    0.4138    2.0952    0.2461 H   0  0  0  0  0  0  0  0  0  0  0  0
    2.3845    2.4211    3.2281 H   0  0  0  0  0  0  0  0  0  0  0  0
    2.1134    1.4010    1.7776 H   0  0  0  0  0  0  0  0  0  0  0  0
    0.8010    2.4423    2.3869 H   0  0  0  0  0  0  0  0  0  0  0  0
    3.4280    5.1765   -0.0967 H   0  0  0  0  0  0  0  0  0  0  0  0
    3.2441    6.8335   -4.1999 H   0  0  0  0  0  0  0  0  0  0  0  0
    1.5512    6.2859   -3.9916 H   0  0  0  0  0  0  0  0  0  0  0  0
    2.8104    5.1256   -4.5158 H   0  0  0  0  0  0  0  0  0  0  0  0
    0.9867    4.1112   -3.5045 H   0  0  0  0  0  0  0  0  0  0  0  0
   -0.9177    5.0997   -2.8015 H   0  0  0  0  0  0  0  0  0  0  0  0
   -2.2273    5.7277   -3.7459 H   0  0  0  0  0  0  0  0  0  0  0  0
   -4.9740    2.4497   -4.7950 H   0  0  0  0  0  0  0  0  0  0  0  0
    0.7180   -0.9003    2.4325 H   0  0  0  0  0  0  0  0  0  0  0  0
    2.4929   -1.4686    0.8363 H   0  0  0  0  0  0  0  0  0  0  0  0
    1.3196   -1.3513   -0.5817 H   0  0  0  0  0  0  0  0  0  0  0  0
   -0.4093   -5.1477    1.6621 H   0  0  0  0  0  0  0  0  0  0  0  0
   -0.1736   -3.3875    1.6985 H   0  0  0  0  0  0  0  0  0  0  0  0
   -0.2114   -3.6018    4.7583 H   0  0  0  0  0  0  0  0  0  0  0  0
   -2.0909   -6.0353    6.2231 H   0  0  0  0  0  0  0  0  0  0  0  0
   -3.0794   -5.1666    5.0361 H   0  0  0  0  0  0  0  0  0  0  0  0
   -1.9286   -4.2545    6.0571 H   0  0  0  0  0  0  0  0  0  0  0  0
    2.9084   -3.7302    1.9866 H   0  0  0  0  0  0  0  0  0  0  0  0
    4.7061   -2.2539    2.4423 H   0  0  0  0  0  0  0  0  0  0  0  0
    4.2212   -2.1476    4.1602 H   0  0  0  0  0  0  0  0  0  0  0  0
    3.3778   -1.1654    2.9502 H   0  0  0  0  0  0  0  0  0  0  0  0
  2 28  1  0  0  0  0
  2  1  2  0  0  0  0
  3  2  1  0  0  0  0
  4 43  1  0  0  0  0
  4 42  1  0  0  0  0
  4  3  1  0  0  0  0
  5  6  1  0  0  0  0
  5  4  1  0  0  0  0
  6 46  1  6  0  0  0
  6  7  1  0  0  0  0
  7 47  1  0  0  0  0
  7 48  1  0  0  0  0
  7  3  1  0  0  0  0
  8  6  1  0  0  0  0
  8  9  1  0  0  0  0
  9 49  1  0  0  0  0
 10  9  2  0  0  0  0
 10 11  1  0  0  0  0
 11 12  1  0  0  0  0
 12 13  2  0  0  0  0
 12 50  1  0  0  0  0
 13 14  1  0  0  0  0
 14 15  1  0  0  0  0
 15 53  1  0  0  0  0
 15 51  1  0  0  0  0
 16 54  1  0  0  0  0
 16 13  1  0  0  0  0
 17 16  2  0  0  0  0
 18 17  1  0  0  0  0
 19 18  1  0  0  0  0
 20 17  1  0  0  0  0
 20 11  2  0  0  0  0
 21 22  2  0  0  0  0
 21  8  1  0  0  0  0
 22 10  1  0  0  0  0
 23 24  1  6  0  0  0
 23 22  1  0  0  0  0
 24 59  1  0  0  0  0
 25 23  1  0  0  0  0
 26 25  2  0  0  0  0
 26 27  1  0  0  0  0
 27 21  1  0  0  0  0
 28 62  1  0  0  0  0
 29 63  1  0  0  0  0
 29 28  2  0  0  0  0
 30 31  1  0  0  0  0
 31 32  1  0  0  0  0
 32 33  1  1  0  0  0
 32 38  1  0  0  0  0
 32 34  1  0  0  0  0
 34 35  1  0  0  0  0
 34 67  1  0  0  0  0
 35 36  1  0  0  0  0
 36 70  1  0  0  0  0
 36 68  1  0  0  0  0
 37 35  2  0  0  0  0
 38 41  2  0  0  0  0
 39 40  1  0  0  0  0
 39 38  1  0  0  0  0
 40 73  1  0  0  0  0
 44  5  1  0  0  0  0
 45  5  1  0  0  0  0
 52 15  1  0  0  0  0
 55 19  1  0  0  0  0
 56 19  1  0  0  0  0
 57 19  1  0  0  0  0
 58 20  1  0  0  0  0
 60 24  1  0  0  0  0
 61 26  1  0  0  0  0
 64 29  1  0  0  0  0
 65 31  1  0  0  0  0
 66 31  1  0  0  0  0
 69 36  1  0  0  0  0
 71 39  1  0  0  0  0
 72 40  1  0  0  0  0
 74 40  1  0  0  0  0
M  END
