74
-1 1
O        -1.340264    0.471320    1.492230
C        -0.881844   -0.553727    0.999313
N        -1.597320   -1.285687    0.092541
C        -1.241312   -2.487421   -0.650805
C        -1.512142   -2.093160   -2.118859
C        -2.445676   -0.859571   -2.045374
C        -2.783149   -0.747938   -0.540571
N        -1.796634    0.369524   -2.485779
C        -0.632526    0.869679   -1.947911
C        -0.484690    2.202198   -2.231374
C         0.600458    3.033176   -1.680465
C         0.966113    2.825739   -0.346257
C         1.996683    3.588205    0.217898
O         2.409921    3.443662    1.489916
C         1.892478    2.372541    2.249279
C         2.636079    4.573336   -0.540598
C         2.264030    4.778689   -1.869650
O         2.938386    5.749168   -2.533784
C         2.611462    5.999448   -3.870494
C         1.254591    4.002630   -2.454223
C        -2.431306    1.394371   -3.133221
C        -1.642444    2.557630   -3.015555
C        -2.222182    3.720583   -3.574338
N        -1.630597    4.947860   -3.503775
N        -3.394561    3.642620   -4.208020
C        -4.014217    2.457912   -4.264531
N        -3.617080    1.309854   -3.746641
C         0.501113   -0.980984    1.362216
C         1.475263   -1.282367    0.496946
S         1.588633   -4.529976    0.439888
C         0.351018   -4.360445    1.767077
C         0.866902   -4.475374    3.220862
H         1.404504   -5.434518    3.310188
N        -0.217688   -4.436148    4.177378
C        -1.043871   -5.470472    4.441024
C        -2.088988   -5.196228    5.513873
O        -0.997297   -6.546193    3.868746
C         1.811635   -3.335221    3.626214
N         2.942108   -3.243267    2.906639
C         3.850801   -2.149529    3.123518
O         1.537756   -2.569364    4.549413
H        -1.920943   -3.301177   -0.344878
H        -0.221334   -2.850709   -0.461737
H        -1.975627   -2.915770   -2.679327
H        -0.580659   -1.834848   -2.642630
H        -3.345004   -0.959178   -2.665503
H        -3.662917   -1.370965   -0.300540
H        -2.970045    0.278879   -0.205324
H         0.035547    0.237347   -1.371847
H         0.413830    2.095232    0.246104
H         2.384506    2.421138    3.228141
H         2.113379    1.401012    1.777623
H         0.801032    2.442320    2.386934
H         3.427979    5.176499   -0.096687
H         3.244143    6.833536   -4.199923
H         1.551222    6.285916   -3.991613
H         2.810371    5.125604   -4.515821
H         0.986687    4.111198   -3.504480
H        -0.917731    5.099668   -2.801490
H        -2.227306    5.727742   -3.745851
H        -4.973955    2.449664   -4.795009
H         0.718032   -0.900336    2.432529
H         2.492899   -1.468589    0.836295
H         1.319577   -1.351320   -0.581670
H        -0.409296   -5.147732    1.662102
H        -0.173573   -3.387487    1.698466
H        -0.211425   -3.601835    4.758297
H        -2.090850   -6.035290    6.223071
H        -3.079422   -5.166629    5.036114
H        -1.928631   -4.254503    6.057132
H         2.908356   -3.730154    1.986617
H         4.706133   -2.253877    2.442258
H         4.221207   -2.147551    4.160196
H         3.377840   -1.165420    2.950168
