-1 1
 OpenBabel05192410563D

 74 77  0  0  1  0  0  0  0  0999 V2000
   -1.4089   -0.0293    1.0466 O   0  0  0  0  0  0  0  0  0  0  0  0
   -1.0260   -1.0563    0.4547 C   0  0  0  0  0  0  0  0  0  0  0  0
   -2.0140   -1.7233   -0.3221 N   0  0  0  0  0  0  0  0  0  0  0  0
   -1.8190   -2.8271   -1.2359 C   0  0  0  0  0  0  0  0  0  0  0  0
   -1.7748   -2.1719   -2.6350 C   0  0  0  0  0  0  0  0  0  0  0  0
   -2.5983   -0.8713   -2.4602 C   0  0  1  0  0  0  0  0  0  0  0  0
   -3.0260   -0.9131   -0.9626 C   0  0  0  0  0  0  0  0  0  0  0  0
   -1.8269    0.3378   -2.7292 N   0  0  0  0  0  0  0  0  0  0  0  0
   -0.6948    0.7000   -2.0341 C   0  0  0  0  0  0  0  0  0  0  0  0
   -0.4447    2.0413   -2.1567 C   0  0  0  0  0  0  0  0  0  0  0  0
    0.5898    2.7451   -1.3757 C   0  0  0  0  0  0  0  0  0  0  0  0
    0.7604    2.3719   -0.0369 C   0  0  0  0  0  0  0  0  0  0  0  0
    1.7051    3.0466    0.7490 C   0  0  0  0  0  0  0  0  0  0  0  0
    1.9205    2.7741    2.0486 O   0  0  0  0  0  0  0  0  0  0  0  0
    1.3004    1.6384    2.6191 C   0  0  0  0  0  0  0  0  0  0  0  0
    2.4647    4.0869    0.2015 C   0  0  0  0  0  0  0  0  0  0  0  0
    2.2953    4.4438   -1.1358 C   0  0  0  0  0  0  0  0  0  0  0  0
    3.0777    5.4592   -1.5880 O   0  0  0  0  0  0  0  0  0  0  0  0
    2.9410    5.8648   -2.9179 C   0  0  0  0  0  0  0  0  0  0  0  0
    1.3663    3.7705   -1.9379 C   0  0  0  0  0  0  0  0  0  0  0  0
   -2.3320    1.4620   -3.3229 C   0  0  0  0  0  0  0  0  0  0  0  0
   -1.4936    2.5532   -3.0067 C   0  0  0  0  0  0  0  0  0  0  0  0
   -1.9491    3.8015   -3.4874 C   0  0  1  0  0  3  0  0  0  0  0  0
   -1.3012    4.9764   -3.2241 N   0  0  0  0  0  0  0  0  0  0  0  0
   -3.0527    3.8695   -4.2368 N   0  0  0  0  0  0  0  0  0  0  0  0
   -3.7272    2.7401   -4.4822 C   0  0  0  0  0  0  0  0  0  0  0  0
   -3.4503    1.5214   -4.0561 N   0  0  0  0  0  2  0  0  0  0  0  0
    0.3291   -1.4911    0.5141 C   0  0  0  0  0  3  0  0  0  0  0  0
    1.0880   -2.4578   -0.2336 C   0  0  0  0  0  0  0  0  0  0  0  0
    1.1349   -4.3722    0.5144 S   0  0  0  0  0  0  0  0  0  0  0  0
    0.2387   -4.0923    2.0538 C   0  0  0  0  0  0  0  0  0  0  0  0
    1.0814   -3.8553    3.3280 C   0  0  2  0  0  0  0  0  0  0  0  0
    1.7412   -4.7270    3.4732 H   0  0  0  0  0  0  0  0  0  0  0  0
    0.2257   -3.7150    4.4807 N   0  0  0  0  0  0  0  0  0  0  0  0
   -0.3693   -4.7563    5.1028 C   0  0  0  0  0  0  0  0  0  0  0  0
   -1.2490   -4.3817    6.2836 C   0  0  0  0  0  0  0  0  0  0  0  0
   -0.2426   -5.9150    4.7425 O   0  0  0  0  0  0  0  0  0  0  0  0
    1.9436   -2.5833    3.2844 C   0  0  0  0  0  0  0  0  0  0  0  0
    2.9721   -2.6209    2.4100 N   0  0  0  0  0  0  0  0  0  0  0  0
    3.7534   -1.4449    2.1173 C   0  0  0  0  0  0  0  0  0  0  0  0
    1.7169   -1.6360    4.0241 O   0  0  0  0  0  0  0  0  0  0  0  0
   -2.7066   -3.4849   -1.1754 H   0  0  0  0  0  0  0  0  0  0  0  0
   -0.9589   -3.4520   -0.9802 H   0  0  0  0  0  0  0  0  0  0  0  0
   -2.1867   -2.8180   -3.4235 H   0  0  0  0  0  0  0  0  0  0  0  0
   -0.7407   -1.9258   -2.9193 H   0  0  0  0  0  0  0  0  0  0  0  0
   -3.4619   -0.8229   -3.1358 H   0  0  0  0  0  0  0  0  0  0  0  0
   -4.0160   -1.3980   -0.8814 H   0  0  0  0  0  0  0  0  0  0  0  0
   -3.0716    0.0758   -0.4921 H   0  0  0  0  0  0  0  0  0  0  0  0
   -0.1312   -0.0245   -1.4455 H   0  0  0  0  0  0  0  0  0  0  0  0
    0.1194    1.5893    0.3831 H   0  0  0  0  0  0  0  0  0  0  0  0
    1.5847    1.6261    3.6775 H   0  0  0  0  0  0  0  0  0  0  0  0
    1.6586    0.7113    2.1488 H   0  0  0  0  0  0  0  0  0  0  0  0
    0.2035    1.6559    2.5247 H   0  0  0  0  0  0  0  0  0  0  0  0
    3.1889    4.6171    0.8202 H   0  0  0  0  0  0  0  0  0  0  0  0
    3.6269    6.7096   -3.0644 H   0  0  0  0  0  0  0  0  0  0  0  0
    1.9123    6.1962   -3.1488 H   0  0  0  0  0  0  0  0  0  0  0  0
    3.2105    5.0617   -3.6271 H   0  0  0  0  0  0  0  0  0  0  0  0
    1.2479    4.0041   -2.9954 H   0  0  0  0  0  0  0  0  0  0  0  0
   -0.6744    5.0030   -2.4291 H   0  0  0  0  0  0  0  0  0  0  0  0
   -1.8413    5.8095   -3.4178 H   0  0  0  0  0  0  0  0  0  0  0  0
   -4.6261    2.8498   -5.1014 H   0  0  0  0  0  0  0  0  0  0  0  0
    0.8676   -0.9635    1.3030 H   0  0  0  0  0  0  0  0  0  0  0  0
    2.1601   -2.2294   -0.2366 H   0  0  0  0  0  0  0  0  0  0  0  0
    0.7773   -2.6695   -1.2620 H   0  0  0  0  0  0  0  0  0  0  0  0
   -0.3953   -4.9678    2.2454 H   0  0  0  0  0  0  0  0  0  0  0  0
   -0.4010   -3.2054    1.8883 H   0  0  0  0  0  0  0  0  0  0  0  0
    0.1662   -2.7647    4.8364 H   0  0  0  0  0  0  0  0  0  0  0  0
   -1.0923   -5.1158    7.0848 H   0  0  0  0  0  0  0  0  0  0  0  0
   -2.3017   -4.4484    5.9705 H   0  0  0  0  0  0  0  0  0  0  0  0
   -1.0599   -3.3685    6.6643 H   0  0  0  0  0  0  0  0  0  0  0  0
    2.9218   -3.3655    1.7123 H   0  0  0  0  0  0  0  0  0  0  0  0
    4.7619   -1.7362    1.7911 H   0  0  0  0  0  0  0  0  0  0  0  0
    3.8316   -0.8324    3.0245 H   0  0  0  0  0  0  0  0  0  0  0  0
    3.2911   -0.8266    1.3275 H   0  0  0  0  0  0  0  0  0  0  0  0
  2 28  1  0  0  0  0
  2  1  2  0  0  0  0
  3  2  1  0  0  0  0
  4 42  1  0  0  0  0
  4 43  1  0  0  0  0
  4  3  1  0  0  0  0
  5  6  1  0  0  0  0
  5  4  1  0  0  0  0
  6 46  1  6  0  0  0
  6  7  1  0  0  0  0
  7 47  1  0  0  0  0
  7 48  1  0  0  0  0
  7  3  1  0  0  0  0
  8  6  1  0  0  0  0
  8  9  1  0  0  0  0
  9 49  1  0  0  0  0
 10  9  2  0  0  0  0
 10 11  1  0  0  0  0
 11 12  1  0  0  0  0
 12 50  1  0  0  0  0
 12 13  2  0  0  0  0
 13 14  1  0  0  0  0
 14 15  1  0  0  0  0
 15 51  1  0  0  0  0
 16 13  1  0  0  0  0
 16 54  1  0  0  0  0
 17 16  2  0  0  0  0
 18 17  1  0  0  0  0
 19 18  1  0  0  0  0
 20 11  2  0  0  0  0
 20 17  1  0  0  0  0
 21 22  2  0  0  0  0
 21  8  1  0  0  0  0
 22 10  1  0  0  0  0
 23 24  1  6  0  0  0
 23 22  1  0  0  0  0
 24 59  1  0  0  0  0
 25 23  1  0  0  0  0
 26 25  2  0  0  0  0
 26 27  1  0  0  0  0
 27 21  1  0  0  0  0
 28 62  1  0  0  0  0
 29 28  1  0  0  0  0
 29 30  1  0  0  0  0
 30 31  1  0  0  0  0
 31 65  1  0  0  0  0
 31 32  1  0  0  0  0
 32 33  1  1  0  0  0
 32 34  1  0  0  0  0
 34 67  1  0  0  0  0
 34 35  1  0  0  0  0
 35 36  1  0  0  0  0
 36 70  1  0  0  0  0
 36 68  1  0  0  0  0
 37 35  2  0  0  0  0
 38 32  1  0  0  0  0
 38 41  2  0  0  0  0
 39 38  1  0  0  0  0
 40 39  1  0  0  0  0
 40 73  1  0  0  0  0
 44  5  1  0  0  0  0
 45  5  1  0  0  0  0
 52 15  1  0  0  0  0
 53 15  1  0  0  0  0
 55 19  1  0  0  0  0
 56 19  1  0  0  0  0
 57 19  1  0  0  0  0
 58 20  1  0  0  0  0
 60 24  1  0  0  0  0
 61 26  1  0  0  0  0
 63 29  1  0  0  0  0
 64 29  1  0  0  0  0
 66 31  1  0  0  0  0
 69 36  1  0  0  0  0
 71 39  1  0  0  0  0
 72 40  1  0  0  0  0
 74 40  1  0  0  0  0
M  END
