74
-1 1
O        -1.408921   -0.029259    1.046649
C        -1.025963   -1.056263    0.454662
N        -2.014028   -1.723286   -0.322139
C        -1.819047   -2.827124   -1.235939
C        -1.774773   -2.171866   -2.634988
C        -2.598326   -0.871311   -2.460189
C        -3.025984   -0.913113   -0.962638
N        -1.826906    0.337821   -2.729161
C        -0.694824    0.700020   -2.034128
C        -0.444688    2.041339   -2.156737
C         0.589808    2.745064   -1.375729
C         0.760406    2.371884   -0.036930
C         1.705051    3.046574    0.748967
O         1.920517    2.774065    2.048563
C         1.300388    1.638377    2.619053
C         2.464656    4.086889    0.201540
C         2.295263    4.443816   -1.135832
O         3.077724    5.459234   -1.587986
C         2.941049    5.864772   -2.917887
C         1.366338    3.770507   -1.937915
C        -2.331983    1.462034   -3.322945
C        -1.493592    2.553155   -3.006660
C        -1.949142    3.801492   -3.487387
N        -1.301223    4.976439   -3.224135
N        -3.052667    3.869498   -4.236760
C        -3.727180    2.740060   -4.482195
N        -3.450301    1.521413   -4.056111
C         0.329110   -1.491101    0.514147
C         1.088009   -2.457844   -0.233590
S         1.134949   -4.372181    0.514380
C         0.238661   -4.092327    2.053757
C         1.081381   -3.855325    3.327998
H         1.741231   -4.727040    3.473153
N         0.225738   -3.715001    4.480716
C        -0.369325   -4.756299    5.102828
C        -1.249008   -4.381732    6.283616
O        -0.242616   -5.914952    4.742500
C         1.943627   -2.583265    3.284378
N         2.972113   -2.620881    2.409999
C         3.753356   -1.444948    2.117313
O         1.716911   -1.635983    4.024097
H        -2.706603   -3.484880   -1.175429
H        -0.958937   -3.452034   -0.980177
H        -2.186735   -2.818023   -3.423543
H        -0.740653   -1.925843   -2.919290
H        -3.461933   -0.822938   -3.135756
H        -4.015965   -1.398011   -0.881365
H        -3.071641    0.075787   -0.492128
H        -0.131247   -0.024545   -1.445515
H         0.119428    1.589346    0.383067
H         1.584742    1.626101    3.677493
H         1.658627    0.711308    2.148825
H         0.203548    1.655948    2.524719
H         3.188899    4.617120    0.820193
H         3.626892    6.709567   -3.064378
H         1.912288    6.196218   -3.148772
H         3.210504    5.061677   -3.627128
H         1.247861    4.004145   -2.995355
H        -0.674425    5.003019   -2.429122
H        -1.841271    5.809476   -3.417842
H        -4.626052    2.849755   -5.101447
H         0.867579   -0.963528    1.303043
H         2.160129   -2.229357   -0.236626
H         0.777275   -2.669490   -1.261979
H        -0.395342   -4.967810    2.245362
H        -0.401026   -3.205362    1.888335
H         0.166155   -2.764717    4.836358
H        -1.092305   -5.115760    7.084843
H        -2.301655   -4.448382    5.970468
H        -1.059904   -3.368502    6.664303
H         2.921758   -3.365519    1.712282
H         4.761933   -1.736157    1.791095
H         3.831579   -0.832396    3.024543
H         3.291123   -0.826611    1.327511
