-1 1
 OpenBabel05192410563D

 73 77  0  0  1  0  0  0  0  0999 V2000
    1.0978   -4.6227    0.1917 O   0  0  0  0  0  0  0  0  0  0  0  0
   -0.0472   -4.5404   -0.2918 C   0  0  0  0  0  0  0  0  0  0  0  0
   -1.0951   -4.2303    0.6302 N   0  0  0  0  0  0  0  0  0  0  0  0
   -2.0740   -3.1567    0.4538 C   0  0  0  0  0  0  0  0  0  0  0  0
   -1.7611   -2.6398    1.8714 C   0  0  1  0  0  0  0  0  0  0  0  0
   -0.7229   -3.7807    1.9666 C   0  0  0  0  0  0  0  0  0  0  0  0
   -1.2035   -1.3023    1.9586 N   0  0  0  0  0  0  0  0  0  0  0  0
   -0.4775   -0.6471    0.9982 C   0  0  0  0  0  0  0  0  0  0  0  0
    0.0560    0.5201    1.4993 C   0  0  0  0  0  0  0  0  0  0  0  0
    0.8405    1.4283    0.6688 C   0  0  0  0  0  0  0  0  0  0  0  0
    1.6147    1.0742   -0.3959 C   0  0  0  0  0  0  0  0  0  0  0  0
    0.7458    3.1786    0.8448 S   0  0  0  0  0  0  0  0  0  0  0  0
    1.7822    3.4109   -0.5322 C   0  0  0  0  0  0  0  0  0  0  0  0
    2.1453    2.1924   -1.1247 C   0  0  0  0  0  0  0  0  0  0  0  0
    2.8886    2.1909   -2.3218 C   0  0  0  0  0  0  0  0  0  0  0  0
    3.2630    3.3965   -2.8924 C   0  0  0  0  0  0  0  0  0  0  0  0
    4.0464    3.4350   -4.1797 C   0  0  0  0  0  0  0  0  0  0  0  0
    2.9057    4.6189   -2.2704 C   0  0  0  0  0  0  0  0  0  0  0  0
    2.1648    4.6378   -1.0954 C   0  0  0  0  0  0  0  0  0  0  0  0
    1.7536    5.7502   -0.4425 O   0  0  0  0  0  0  0  0  0  0  0  0
    2.0610    7.0021   -0.9856 C   0  0  0  0  0  0  0  0  0  0  0  0
   -1.1411   -0.5727    3.1093 C   0  0  0  0  0  0  0  0  0  0  0  0
   -0.3624    0.5796    2.8800 C   0  0  0  0  0  0  0  0  0  0  0  0
   -0.1536    1.3821    4.0303 C   0  0  2  0  0  3  0  0  0  0  0  0
    0.6316    2.4805    4.0489 N   0  0  0  0  0  0  0  0  0  0  0  0
   -0.7424    1.0490    5.1866 N   0  0  0  0  0  0  0  0  0  0  0  0
   -1.4775   -0.0507    5.2187 C   0  0  0  0  0  0  0  0  0  0  0  0
   -2.2208   -0.3956    6.7774 Cl  0  0  0  0  0  0  0  0  0  0  0  0
   -1.7181   -0.9153    4.2702 N   0  0  0  0  0  2  0  0  0  0  0  0
   -0.3507   -4.6571   -1.6657 C   0  0  0  0  0  3  0  0  0  0  0  0
   -1.6821   -4.9057   -2.2740 C   0  0  0  0  0  0  0  0  0  0  0  0
   -2.0635   -3.9392   -3.8308 S   0  0  0  0  0  0  0  0  0  0  0  0
   -2.2631   -2.2421   -3.2185 C   0  0  0  0  0  0  0  0  0  0  0  0
   -1.0258   -1.3428   -3.2239 C   0  0  2  0  0  0  0  0  0  0  0  0
   -0.6914   -1.1856   -4.2645 H   0  0  0  0  0  0  0  0  0  0  0  0
    0.0746   -1.9227   -2.4750 N   0  0  0  0  0  0  0  0  0  0  0  0
    1.3515   -1.5631   -2.7105 C   0  0  0  0  0  0  0  0  0  0  0  0
    2.4054   -2.4254   -2.0531 C   0  0  0  0  0  0  0  0  0  0  0  0
    1.6642   -0.5972   -3.4166 O   0  0  0  0  0  0  0  0  0  0  0  0
   -1.4170    0.0356   -2.6444 C   0  0  0  0  0  0  0  0  0  0  0  0
   -0.6107    1.0501   -3.0260 N   0  0  0  0  0  0  0  0  0  0  0  0
   -0.8324    2.3872   -2.5356 C   0  0  0  0  0  0  0  0  0  0  0  0
   -2.3874    0.1876   -1.9179 O   0  0  0  0  0  0  0  0  0  0  0  0
   -3.1173   -3.4894    0.3153 H   0  0  0  0  0  0  0  0  0  0  0  0
   -1.8420   -2.4471   -0.3556 H   0  0  0  0  0  0  0  0  0  0  0  0
   -2.5858   -2.6928    2.5918 H   0  0  0  0  0  0  0  0  0  0  0  0
   -0.9069   -4.5132    2.7701 H   0  0  0  0  0  0  0  0  0  0  0  0
    0.3233   -3.4423    2.0232 H   0  0  0  0  0  0  0  0  0  0  0  0
   -0.3920   -1.0385   -0.0139 H   0  0  0  0  0  0  0  0  0  0  0  0
    1.8005    0.0378   -0.6699 H   0  0  0  0  0  0  0  0  0  0  0  0
    3.1022    1.2366   -2.8095 H   0  0  0  0  0  0  0  0  0  0  0  0
    4.1736    2.4267   -4.5963 H   0  0  0  0  0  0  0  0  0  0  0  0
    5.0481    3.8668   -4.0220 H   0  0  0  0  0  0  0  0  0  0  0  0
    3.5392    4.0541   -4.9366 H   0  0  0  0  0  0  0  0  0  0  0  0
    3.2118    5.5539   -2.7426 H   0  0  0  0  0  0  0  0  0  0  0  0
    1.6252    7.7530   -0.3152 H   0  0  0  0  0  0  0  0  0  0  0  0
    1.6282    7.1271   -1.9937 H   0  0  0  0  0  0  0  0  0  0  0  0
    3.1516    7.1654   -1.0455 H   0  0  0  0  0  0  0  0  0  0  0  0
    1.1348    2.7938    3.2302 H   0  0  0  0  0  0  0  0  0  0  0  0
    0.7202    2.9782    4.9227 H   0  0  0  0  0  0  0  0  0  0  0  0
    0.5050   -5.0047   -2.2550 H   0  0  0  0  0  0  0  0  0  0  0  0
   -2.5185   -4.7306   -1.5808 H   0  0  0  0  0  0  0  0  0  0  0  0
   -1.8133   -5.9349   -2.6584 H   0  0  0  0  0  0  0  0  0  0  0  0
   -2.6984   -2.2731   -2.2114 H   0  0  0  0  0  0  0  0  0  0  0  0
   -3.0252   -1.7693   -3.8537 H   0  0  0  0  0  0  0  0  0  0  0  0
   -0.0799   -2.8934   -2.0605 H   0  0  0  0  0  0  0  0  0  0  0  0
    2.8548   -3.0598   -2.8326 H   0  0  0  0  0  0  0  0  0  0  0  0
    2.0198   -3.0817   -1.2567 H   0  0  0  0  0  0  0  0  0  0  0  0
    3.2025   -1.7750   -1.6654 H   0  0  0  0  0  0  0  0  0  0  0  0
    0.2944    0.7770   -3.4172 H   0  0  0  0  0  0  0  0  0  0  0  0
   -0.8727    2.4165   -1.4347 H   0  0  0  0  0  0  0  0  0  0  0  0
   -1.7887    2.7867   -2.9089 H   0  0  0  0  0  0  0  0  0  0  0  0
   -0.0155    3.0362   -2.8770 H   0  0  0  0  0  0  0  0  0  0  0  0
  2  1  2  0  0  0  0
  2  3  1  0  0  0  0
  3  6  1  0  0  0  0
  4  3  1  0  0  0  0
  4  5  1  0  0  0  0
  5  7  1  0  0  0  0
  5  6  1  0  0  0  0
  5 46  1  1  0  0  0
  6 48  1  0  0  0  0
  6 47  1  0  0  0  0
  7 22  1  0  0  0  0
  8  9  2  0  0  0  0
  8  7  1  0  0  0  0
  9 23  1  0  0  0  0
 10 12  1  0  0  0  0
 10  9  1  0  0  0  0
 11 10  2  0  0  0  0
 13 12  1  0  0  0  0
 14 13  2  0  0  0  0
 14 11  1  0  0  0  0
 15 14  1  0  0  0  0
 16 15  2  0  0  0  0
 16 18  1  0  0  0  0
 17 53  1  0  0  0  0
 17 16  1  0  0  0  0
 18 19  2  0  0  0  0
 19 13  1  0  0  0  0
 19 20  1  0  0  0  0
 21 20  1  0  0  0  0
 21 56  1  0  0  0  0
 22 29  1  0  0  0  0
 23 22  2  0  0  0  0
 23 24  1  0  0  0  0
 24 25  1  1  0  0  0
 24 26  1  0  0  0  0
 25 60  1  0  0  0  0
 26 27  2  0  0  0  0
 27 28  1  0  0  0  0
 29 27  1  0  0  0  0
 30  2  1  0  0  0  0
 31 30  1  0  0  0  0
 31 62  1  0  0  0  0
 32 33  1  0  0  0  0
 32 31  1  0  0  0  0
 33 64  1  0  0  0  0
 34 35  1  6  0  0  0
 34 33  1  0  0  0  0
 34 40  1  0  0  0  0
 34 36  1  0  0  0  0
 36 66  1  0  0  0  0
 37 36  1  0  0  0  0
 37 38  1  0  0  0  0
 38 69  1  0  0  0  0
 38 68  1  0  0  0  0
 39 37  2  0  0  0  0
 40 43  2  0  0  0  0
 41 40  1  0  0  0  0
 41 42  1  0  0  0  0
 42 71  1  0  0  0  0
 44  4  1  0  0  0  0
 45  4  1  0  0  0  0
 49  8  1  0  0  0  0
 50 11  1  0  0  0  0
 51 15  1  0  0  0  0
 52 17  1  0  0  0  0
 54 17  1  0  0  0  0
 55 18  1  0  0  0  0
 57 21  1  0  0  0  0
 58 21  1  0  0  0  0
 59 25  1  0  0  0  0
 61 30  1  0  0  0  0
 63 31  1  0  0  0  0
 65 33  1  0  0  0  0
 67 38  1  0  0  0  0
 70 41  1  0  0  0  0
 72 42  1  0  0  0  0
 73 42  1  0  0  0  0
M  END
