79
-1 1
O        -1.337643   -2.165253    3.327176
C        -0.824414   -3.140713    2.749876
N         0.408779   -2.922712    2.040271
C         0.562627   -3.376128    0.658912
C         0.798270   -2.106337   -0.197279
C         0.594931   -0.961486    0.801759
C         0.981704   -1.602671    2.141387
N         1.281393    0.283336    0.473402
C         0.658782    1.494885    0.334945
C         1.567239    2.489028    0.037845
C         1.250360    3.888382   -0.231703
C         1.772552    4.710926   -1.192537
S         0.043383    4.705508    0.741489
C         0.232735    6.165384   -0.180527
C         1.205910    6.033072   -1.184330
C         1.484687    7.132315   -2.024288
C         0.802005    8.324751   -1.852053
C         1.073715    9.516093   -2.735033
C        -0.175282    8.439209   -0.833069
C        -0.467975    7.369885    0.003267
O        -1.380024    7.378798    0.998356
C        -2.124655    8.542036    1.227050
C         2.624021    0.471496    0.277019
C         2.850293    1.834056    0.006877
C         4.213438    2.189956   -0.130405
N         4.621935    3.475658   -0.330550
N         5.154859    1.252720   -0.074792
C         4.797991   -0.027595    0.141137
C         5.918630   -1.028797    0.168433
N         3.569553   -0.474023    0.339981
C        -1.365136   -4.450482    2.746353
C        -0.638943   -5.672569    2.384248
S        -1.047099   -6.521231    0.689827
C        -2.863466   -6.469946    0.725098
C        -3.494985   -5.848363   -0.520608
H        -4.587643   -5.978887   -0.442805
N        -3.115607   -6.548259   -1.724414
C        -4.032218   -6.969856   -2.638490
C        -3.445155   -7.322240   -3.992692
O        -5.222987   -7.057596   -2.406631
C        -3.300239   -4.331608   -0.747529
N        -3.055067   -3.580373    0.342366
C        -2.926941   -2.147012    0.230611
O        -3.455684   -3.864683   -1.866505
H        -0.330019   -3.928179    0.339318
H         1.416668   -4.068432    0.547947
H         0.109597   -2.040723   -1.052257
H         1.827389   -2.075406   -0.580184
H        -0.472581   -0.708073    0.866160
H         0.546347   -1.077579    2.998803
H         2.081818   -1.646237    2.227380
H        -0.423130    1.566290    0.433475
H         2.517155    4.373861   -1.914343
H         2.236612    7.034569   -2.810993
H         1.859137    9.298973   -3.472211
H         1.397740   10.385597   -2.141265
H         0.168012    9.816646   -3.285479
H        -0.699675    9.388887   -0.716233
H        -2.799421    8.324107    2.063544
H        -2.725907    8.820604    0.344072
H        -1.476915    9.393314    1.500652
H         3.989824    4.231092   -0.103845
H         5.614426    3.637384   -0.225093
H         6.663720   -0.741918    0.925282
H         6.433812   -1.043952   -0.804109
H         5.528532   -2.028564    0.392530
H        -2.241784   -4.550376    3.393367
H        -0.804699   -6.492053    3.098103
H         0.446579   -5.524289    2.281550
H        -3.160439   -5.900653    1.619958
H        -3.257015   -7.490684    0.834743
H        -2.169428   -6.380707   -2.045243
H        -3.297363   -6.390376   -4.559994
H        -4.152098   -7.960901   -4.535228
H        -2.473029   -7.828946   -3.903785
H        -2.632959   -3.996364    1.190778
H        -3.879091   -1.688708   -0.080941
H        -2.171191   -1.864353   -0.522283
H        -2.634057   -1.756488    1.214911
