-1 1
 OpenBabel05232414493D

 79 83  0  0  1  0  0  0  0  0999 V2000
    3.5964   10.6882    1.5120 O   0  0  0  0  0  0  0  0  0  0  0  0
    4.2782    9.9841    0.7506 C   0  0  0  0  0  0  0  0  0  0  0  0
    5.2146   10.6201   -0.0816 N   0  0  0  0  0  0  0  0  0  0  0  0
    5.6125   10.2113   -1.4180 C   0  0  0  0  0  0  0  0  0  0  0  0
    5.2277   11.3932   -2.3282 C   0  0  0  0  0  0  0  0  0  0  0  0
    5.0626   12.5939   -1.3698 C   0  0  1  0  0  0  0  0  0  0  0  0
    5.4188   12.0398    0.0293 C   0  0  0  0  0  0  0  0  0  0  0  0
    5.8376   13.7776   -1.7325 N   0  0  0  0  0  0  0  0  0  0  0  0
    5.3259   15.0362   -1.8992 C   0  0  0  0  0  0  0  0  0  0  0  0
    6.3200   15.9355   -2.2249 C   0  0  0  0  0  0  0  0  0  0  0  0
    6.1300   17.3507   -2.5286 C   0  0  0  0  0  0  0  0  0  0  0  0
    6.7177   18.0984   -3.5122 C   0  0  0  0  0  0  0  0  0  0  0  0
    5.0108   18.2990   -1.5689 S   0  0  0  0  0  0  0  0  0  0  0  0
    5.3253   19.7125   -2.5285 C   0  0  0  0  0  0  0  0  0  0  0  0
    6.2746   19.4667   -3.5338 C   0  0  0  0  0  0  0  0  0  0  0  0
    6.6467   20.5150   -4.4022 C   0  0  0  0  0  0  0  0  0  0  0  0
    6.0781   21.7691   -4.2557 C   0  0  0  0  0  0  0  0  0  0  0  0
    6.4519   22.9088   -5.1690 C   0  0  0  0  0  0  0  0  0  0  0  0
    5.1233   21.9976   -3.2346 C   0  0  0  0  0  0  0  0  0  0  0  0
    4.7397   20.9803   -2.3707 C   0  0  0  0  0  0  0  0  0  0  0  0
    3.8395   21.0973   -1.3713 O   0  0  0  0  0  0  0  0  0  0  0  0
    3.2088   22.3304   -1.1668 C   0  0  0  0  0  0  0  0  0  0  0  0
    7.1896   13.8374   -1.9408 C   0  0  0  0  0  0  0  0  0  0  0  0
    7.5381   15.1654   -2.2460 C   0  0  0  0  0  0  0  0  0  0  0  0
    8.9277   15.3861   -2.4034 C   0  0  2  0  0  3  0  0  0  0  0  0
    9.4545   16.6215   -2.6409 N   0  0  0  0  0  0  0  0  0  0  0  0
    9.7756   14.3649   -2.3306 N   0  0  0  0  0  0  0  0  0  0  0  0
    9.3025   13.1291   -2.0784 C   0  0  0  0  0  0  0  0  0  0  0  0
   10.3223   12.0267   -2.0345 C   0  0  0  0  0  0  0  0  0  0  0  0
    8.0388   12.8073   -1.8589 N   0  0  0  0  0  2  0  0  0  0  0  0
    4.1573    8.5493    0.7242 C   0  0  0  0  0  3  0  0  0  0  0  0
    5.0495    7.6189    0.1548 C   0  0  0  0  0  0  0  0  0  0  0  0
    4.5599    6.8351   -1.8595 S   0  0  0  0  0  0  0  0  0  0  0  0
    2.7586    6.8734   -1.7092 C   0  0  0  0  0  0  0  0  0  0  0  0
    2.0358    7.6815   -2.7939 C   0  0  2  0  0  0  0  0  0  0  0  0
    0.9569    7.4580   -2.7301 H   0  0  0  0  0  0  0  0  0  0  0  0
    2.4431    7.2677   -4.1091 N   0  0  0  0  0  0  0  0  0  0  0  0
    1.5737    7.1549   -5.1455 C   0  0  0  0  0  0  0  0  0  0  0  0
    2.2364    7.0493   -6.5071 C   0  0  0  0  0  0  0  0  0  0  0  0
    0.3632    7.1422   -5.0139 O   0  0  0  0  0  0  0  0  0  0  0  0
    2.0915    9.2239   -2.6988 C   0  0  0  0  0  0  0  0  0  0  0  0
    2.0162    9.7462   -1.4527 N   0  0  0  0  0  0  0  0  0  0  0  0
    1.8074   11.1554   -1.2217 C   0  0  0  0  0  0  0  0  0  0  0  0
    2.0797    9.9104   -3.7084 O   0  0  0  0  0  0  0  0  0  0  0  0
    5.1151    9.2827   -1.7222 H   0  0  0  0  0  0  0  0  0  0  0  0
    6.7048   10.0511   -1.4645 H   0  0  0  0  0  0  0  0  0  0  0  0
    4.2851   11.1876   -2.8561 H   0  0  0  0  0  0  0  0  0  0  0  0
    5.9991   11.5895   -3.0840 H   0  0  0  0  0  0  0  0  0  0  0  0
    4.0164   12.9251   -1.3699 H   0  0  0  0  0  0  0  0  0  0  0  0
    4.7832   12.4389    0.8285 H   0  0  0  0  0  0  0  0  0  0  0  0
    6.4770   12.2711    0.2465 H   0  0  0  0  0  0  0  0  0  0  0  0
    4.2553   15.2093   -1.8032 H   0  0  0  0  0  0  0  0  0  0  0  0
    7.4233   17.6771   -4.2291 H   0  0  0  0  0  0  0  0  0  0  0  0
    7.3805   20.3295   -5.1902 H   0  0  0  0  0  0  0  0  0  0  0  0
    7.2061   22.6015   -5.9067 H   0  0  0  0  0  0  0  0  0  0  0  0
    6.8621   23.7573   -4.5987 H   0  0  0  0  0  0  0  0  0  0  0  0
    5.5731   23.2805   -5.7196 H   0  0  0  0  0  0  0  0  0  0  0  0
    4.6896   22.9942   -3.1385 H   0  0  0  0  0  0  0  0  0  0  0  0
    2.5230   22.1967   -0.3216 H   0  0  0  0  0  0  0  0  0  0  0  0
    2.6296   22.6433   -2.0530 H   0  0  0  0  0  0  0  0  0  0  0  0
    3.9355   23.1234   -0.9175 H   0  0  0  0  0  0  0  0  0  0  0  0
    8.9005   17.4393   -2.4270 H   0  0  0  0  0  0  0  0  0  0  0  0
   10.4592   16.6900   -2.5498 H   0  0  0  0  0  0  0  0  0  0  0  0
   11.1073   12.2661   -1.3020 H   0  0  0  0  0  0  0  0  0  0  0  0
   10.8125   11.9291   -3.0152 H   0  0  0  0  0  0  0  0  0  0  0  0
    9.8430   11.0770   -1.7693 H   0  0  0  0  0  0  0  0  0  0  0  0
    3.3674    8.1849    1.3869 H   0  0  0  0  0  0  0  0  0  0  0  0
    5.0690    6.6289    0.6170 H   0  0  0  0  0  0  0  0  0  0  0  0
    6.0499    7.9634   -0.1245 H   0  0  0  0  0  0  0  0  0  0  0  0
    2.5192    7.2798   -0.7087 H   0  0  0  0  0  0  0  0  0  0  0  0
    2.3629    5.8474   -1.7388 H   0  0  0  0  0  0  0  0  0  0  0  0
    3.4367    7.3520   -4.2948 H   0  0  0  0  0  0  0  0  0  0  0  0
    2.4701    8.0665   -6.8571 H   0  0  0  0  0  0  0  0  0  0  0  0
    1.5364    6.5845   -7.2118 H   0  0  0  0  0  0  0  0  0  0  0  0
    3.1729    6.4738   -6.4716 H   0  0  0  0  0  0  0  0  0  0  0  0
    2.2987    9.1756   -0.6590 H   0  0  0  0  0  0  0  0  0  0  0  0
    0.7326   11.3919   -1.1329 H   0  0  0  0  0  0  0  0  0  0  0  0
    2.2007   11.7308   -2.0716 H   0  0  0  0  0  0  0  0  0  0  0  0
    2.3092   11.4446   -0.2877 H   0  0  0  0  0  0  0  0  0  0  0  0
  2  1  2  0  0  0  0
  3  7  1  0  0  0  0
  3  2  1  0  0  0  0
  4  3  1  0  0  0  0
  5  4  1  0  0  0  0
  5  6  1  0  0  0  0
  6 49  1  1  0  0  0
  6  7  1  0  0  0  0
  7 51  1  0  0  0  0
  7 50  1  0  0  0  0
  8  6  1  0  0  0  0
  9 52  1  0  0  0  0
  9  8  1  0  0  0  0
 10  9  2  0  0  0  0
 11 10  1  0  0  0  0
 11 13  1  0  0  0  0
 12 11  2  0  0  0  0
 14 20  1  0  0  0  0
 14 13  1  0  0  0  0
 15 12  1  0  0  0  0
 15 14  2  0  0  0  0
 16 17  2  0  0  0  0
 16 15  1  0  0  0  0
 17 19  1  0  0  0  0
 18 56  1  0  0  0  0
 18 17  1  0  0  0  0
 19 58  1  0  0  0  0
 19 20  2  0  0  0  0
 20 21  1  0  0  0  0
 21 22  1  0  0  0  0
 22 61  1  0  0  0  0
 22 59  1  0  0  0  0
 23 30  1  0  0  0  0
 23  8  1  0  0  0  0
 24 10  1  0  0  0  0
 24 23  2  0  0  0  0
 25 26  1  6  0  0  0
 25 27  1  0  0  0  0
 25 24  1  0  0  0  0
 26 63  1  0  0  0  0
 26 62  1  0  0  0  0
 27 28  2  0  0  0  0
 28 29  1  0  0  0  0
 28 30  1  0  0  0  0
 29 66  1  0  0  0  0
 29 64  1  0  0  0  0
 31  2  1  0  0  0  0
 31 67  1  0  0  0  0
 32 68  1  0  0  0  0
 32 31  1  0  0  0  0
 33 34  1  0  0  0  0
 33 32  1  0  0  0  0
 34 70  1  0  0  0  0
 35 36  1  1  0  0  0
 35 41  1  0  0  0  0
 35 34  1  0  0  0  0
 37 35  1  0  0  0  0
 38 40  2  0  0  0  0
 38 37  1  0  0  0  0
 39 75  1  0  0  0  0
 39 38  1  0  0  0  0
 41 42  1  0  0  0  0
 42 43  1  0  0  0  0
 42 76  1  0  0  0  0
 43 77  1  0  0  0  0
 43 79  1  0  0  0  0
 44 41  2  0  0  0  0
 45  4  1  0  0  0  0
 46  4  1  0  0  0  0
 47  5  1  0  0  0  0
 48  5  1  0  0  0  0
 53 12  1  0  0  0  0
 54 16  1  0  0  0  0
 55 18  1  0  0  0  0
 57 18  1  0  0  0  0
 60 22  1  0  0  0  0
 65 29  1  0  0  0  0
 69 32  1  0  0  0  0
 71 34  1  0  0  0  0
 72 37  1  0  0  0  0
 73 39  1  0  0  0  0
 74 39  1  0  0  0  0
 78 43  1  0  0  0  0
M  END
