-1 1
 OpenBabel05232413483D

 86 88  0  0  1  0  0  0  0  0999 V2000
   -2.8095   -5.1205    3.1171 O   0  0  0  0  0  0  0  0  0  0  0  0
   -3.1113   -3.9969    2.7446 C   0  0  0  0  0  0  0  0  0  0  0  0
   -2.0979   -2.8601    2.6865 C   0  0  2  0  0  0  0  0  0  0  0  0
   -1.2807   -2.9449    1.3751 C   0  0  0  0  0  0  0  0  0  0  0  0
    0.0800   -1.7413    1.2456 S   0  0  0  0  0  1  0  0  0  0  0  0
   -2.5066   -0.1404   -0.7598 C   0  0  0  0  0  0  0  0  0  0  0  0
   -3.6013    0.1377   -0.0498 C   0  0  0  0  0  0  0  0  0  0  0  0
   -3.6345    0.0143    1.4395 C   0  0  0  0  0  0  0  0  0  0  0  0
   -2.6648    0.6037    2.1984 N   0  0  0  0  0  0  0  0  0  0  0  0
   -1.7277    1.5719    1.8295 C   0  0  0  0  0  0  0  0  0  0  0  0
   -0.4470    1.5114    2.4003 C   0  0  0  0  0  0  0  0  0  0  0  0
    0.5098    2.4584    2.0683 C   0  0  0  0  0  0  0  0  0  0  0  0
    0.1971    3.4661    1.1508 C   0  0  0  0  0  0  0  0  0  0  0  0
    1.4697    4.5515    0.5730 S   0  0  0  0  0  0  0  0  0  0  0  0
    2.4401    4.7751    1.6392 O   0  0  0  0  0  0  0  0  0  0  0  0
    2.2755    3.6772   -0.6123 N   0  0  0  0  0  0  0  0  0  0  0  0
    1.4812    3.3177   -1.7837 C   0  0  0  0  0  0  0  0  0  0  0  0
    2.4080    2.8872   -2.9176 C   0  0  0  0  0  0  0  0  0  0  0  0
    3.3086    1.8368   -2.4757 N   0  0  0  0  0  0  0  0  0  0  0  0
    4.0812    2.2111   -1.3043 C   0  0  0  0  0  0  0  0  0  0  0  0
    3.1559    2.5995   -0.1565 C   0  0  0  0  0  0  0  0  0  0  0  0
    3.0318    0.4922   -2.6487 C   0  0  0  0  0  0  0  0  0  0  0  0
    2.2266    0.2115   -3.7667 N   0  0  0  0  0  0  0  0  0  0  0  0
    2.8784    0.4001   -5.0593 C   0  0  0  0  0  0  0  0  0  0  0  0
    3.7636   -0.7986   -5.4136 C   0  0  0  0  0  0  0  0  0  0  0  0
    2.9670   -2.1034   -5.3590 C   0  0  0  0  0  0  0  0  0  0  0  0
    2.2270   -2.2753   -4.0286 C   0  0  2  0  0  0  0  0  0  0  0  0
    1.3209   -3.5080   -4.0202 C   0  0  0  0  0  0  0  0  0  0  0  0
    0.5083   -3.6159   -2.7294 C   0  0  0  0  0  0  0  0  0  0  0  0
   -0.3168   -2.3536   -2.4837 C   0  0  0  0  0  0  0  0  0  0  0  0
    0.5820   -1.1216   -2.4494 C   0  0  0  0  0  0  0  0  0  0  0  0
    1.4099   -1.0075   -3.7258 C   0  0  1  0  0  0  0  0  0  0  0  0
    3.4725   -0.3519   -1.8935 O   0  0  0  0  0  0  0  0  0  0  0  0
    0.8390    5.6770   -0.1115 O   0  0  0  0  0  0  0  0  0  0  0  0
   -1.0815    3.5560    0.5995 C   0  0  0  0  0  0  0  0  0  0  0  0
   -2.0455    2.6227    0.9578 C   0  0  0  0  0  0  0  0  0  0  0  0
   -4.4907   -0.6944    1.9579 O   0  0  0  0  0  0  0  0  0  0  0  0
   -1.2549   -2.8877    3.8551 N   0  0  0  0  0  0  0  0  0  0  0  0
   -0.9597   -1.7788    4.5584 C   0  0  0  0  0  0  0  0  0  0  0  0
    0.2440   -1.8907    5.4664 C   0  0  0  0  0  0  0  0  0  0  0  0
   -1.5964   -0.7280    4.4914 O   0  0  0  0  0  0  0  0  0  0  0  0
   -2.6357   -1.9114    2.7219 H   0  0  0  0  0  0  0  0  0  0  0  0
   -4.3421   -3.6524    2.2876 N   0  0  0  0  0  0  0  0  0  0  0  0
   -5.4189   -4.5982    2.1854 C   0  0  0  0  0  0  0  0  0  0  0  0
   -0.8988   -3.9781    1.2926 H   0  0  0  0  0  0  0  0  0  0  0  0
   -2.0101   -2.8188    0.5525 H   0  0  0  0  0  0  0  0  0  0  0  0
   -2.4795    0.1332    3.1002 H   0  0  0  0  0  0  0  0  0  0  0  0
   -0.2205    0.6926    3.0823 H   0  0  0  0  0  0  0  0  0  0  0  0
    1.5061    2.4082    2.5102 H   0  0  0  0  0  0  0  0  0  0  0  0
    0.8900    4.1901   -2.0913 H   0  0  0  0  0  0  0  0  0  0  0  0
    0.7886    2.4839   -1.5484 H   0  0  0  0  0  0  0  0  0  0  0  0
    3.0039    3.7517   -3.2555 H   0  0  0  0  0  0  0  0  0  0  0  0
    1.8040    2.5230   -3.7550 H   0  0  0  0  0  0  0  0  0  0  0  0
    4.7287    3.0655   -1.5622 H   0  0  0  0  0  0  0  0  0  0  0  0
    4.7008    1.3578   -1.0079 H   0  0  0  0  0  0  0  0  0  0  0  0
    3.7375    2.9603    0.7007 H   0  0  0  0  0  0  0  0  0  0  0  0
    2.5731    1.7096    0.1532 H   0  0  0  0  0  0  0  0  0  0  0  0
    3.4697    1.3273   -5.0387 H   0  0  0  0  0  0  0  0  0  0  0  0
    2.0939    0.5278   -5.8272 H   0  0  0  0  0  0  0  0  0  0  0  0
    4.5977   -0.8447   -4.6933 H   0  0  0  0  0  0  0  0  0  0  0  0
    4.2071   -0.6526   -6.4127 H   0  0  0  0  0  0  0  0  0  0  0  0
    3.6303   -2.9659   -5.5393 H   0  0  0  0  0  0  0  0  0  0  0  0
    2.2240   -2.1055   -6.1797 H   0  0  0  0  0  0  0  0  0  0  0  0
    2.9660   -2.3727   -3.2160 H   0  0  0  0  0  0  0  0  0  0  0  0
    1.9305   -4.4143   -4.1770 H   0  0  0  0  0  0  0  0  0  0  0  0
    0.6280   -3.4471   -4.8823 H   0  0  0  0  0  0  0  0  0  0  0  0
    1.1875   -3.7569   -1.8718 H   0  0  0  0  0  0  0  0  0  0  0  0
   -0.1457   -4.5021   -2.7648 H   0  0  0  0  0  0  0  0  0  0  0  0
   -0.8383   -2.4302   -1.5188 H   0  0  0  0  0  0  0  0  0  0  0  0
   -1.0807   -2.2508   -3.2785 H   0  0  0  0  0  0  0  0  0  0  0  0
    1.2268   -1.1998   -1.5619 H   0  0  0  0  0  0  0  0  0  0  0  0
   -0.0156   -0.2036   -2.3271 H   0  0  0  0  0  0  0  0  0  0  0  0
    0.6944   -0.8840   -4.5654 H   0  0  0  0  0  0  0  0  0  0  0  0
   -1.3189    4.3684   -0.0890 H   0  0  0  0  0  0  0  0  0  0  0  0
   -3.0531    2.7062    0.5509 H   0  0  0  0  0  0  0  0  0  0  0  0
   -0.6244   -3.6770    3.9194 H   0  0  0  0  0  0  0  0  0  0  0  0
    0.4028   -2.9139    5.8358 H   0  0  0  0  0  0  0  0  0  0  0  0
    0.1288   -1.1989    6.3095 H   0  0  0  0  0  0  0  0  0  0  0  0
    1.1256   -1.5943    4.8772 H   0  0  0  0  0  0  0  0  0  0  0  0
   -4.5162   -2.6696    2.0770 H   0  0  0  0  0  0  0  0  0  0  0  0
   -5.8159   -4.6493    1.1581 H   0  0  0  0  0  0  0  0  0  0  0  0
   -6.2514   -4.3454    2.8637 H   0  0  0  0  0  0  0  0  0  0  0  0
   -5.0275   -5.5852    2.4651 H   0  0  0  0  0  0  0  0  0  0  0  0
   -4.5772    0.2951   -0.5199 H   0  0  0  0  0  0  0  0  0  0  0  0
   -1.5459   -0.3827   -0.2687 H   0  0  0  0  0  0  0  0  0  0  0  0
   -2.5514   -0.1833   -1.8522 H   0  0  0  0  0  0  0  0  0  0  0  0
  2  1  2  0  0  0  0
  3 42  1  6  0  0  0
  3  2  1  0  0  0  0
  3 38  1  0  0  0  0
  4  3  1  0  0  0  0
  5  4  1  0  0  0  0
  6 85  1  0  0  0  0
  6  7  2  0  0  0  0
  7  8  1  0  0  0  0
  8 37  2  0  0  0  0
  8  9  1  0  0  0  0
  9 47  1  0  0  0  0
 10  9  1  0  0  0  0
 10 11  1  0  0  0  0
 11 48  1  0  0  0  0
 12 11  2  0  0  0  0
 12 49  1  0  0  0  0
 13 12  1  0  0  0  0
 14 13  1  0  0  0  0
 14 15  2  0  0  0  0
 16 21  1  0  0  0  0
 16 14  1  0  0  0  0
 17 51  1  0  0  0  0
 17 16  1  0  0  0  0
 18 19  1  0  0  0  0
 18 17  1  0  0  0  0
 19 20  1  0  0  0  0
 20 55  1  0  0  0  0
 20 21  1  0  0  0  0
 21 57  1  0  0  0  0
 21 56  1  0  0  0  0
 22 19  1  0  0  0  0
 22 33  2  0  0  0  0
 23 32  1  0  0  0  0
 23 22  1  0  0  0  0
 24 58  1  0  0  0  0
 24 23  1  0  0  0  0
 25 26  1  0  0  0  0
 25 24  1  0  0  0  0
 25 60  1  0  0  0  0
 26 27  1  0  0  0  0
 27 28  1  0  0  0  0
 27 32  1  0  0  0  0
 27 64  1  1  0  0  0
 28 29  1  0  0  0  0
 29 30  1  0  0  0  0
 29 67  1  0  0  0  0
 30 31  1  0  0  0  0
 30 69  1  0  0  0  0
 31 72  1  0  0  0  0
 31 71  1  0  0  0  0
 32 73  1  6  0  0  0
 32 31  1  0  0  0  0
 34 14  2  0  0  0  0
 35 36  1  0  0  0  0
 35 13  2  0  0  0  0
 36 10  2  0  0  0  0
 38 76  1  0  0  0  0
 38 39  1  0  0  0  0
 39 40  1  0  0  0  0
 40 77  1  0  0  0  0
 40 78  1  0  0  0  0
 41 39  2  0  0  0  0
 43  2  1  0  0  0  0
 44 43  1  0  0  0  0
 44 83  1  0  0  0  0
 44 82  1  0  0  0  0
 45  4  1  0  0  0  0
 46  4  1  0  0  0  0
 50 17  1  0  0  0  0
 52 18  1  0  0  0  0
 53 18  1  0  0  0  0
 54 20  1  0  0  0  0
 59 24  1  0  0  0  0
 61 25  1  0  0  0  0
 62 26  1  0  0  0  0
 63 26  1  0  0  0  0
 65 28  1  0  0  0  0
 66 28  1  0  0  0  0
 68 29  1  0  0  0  0
 70 30  1  0  0  0  0
 74 35  1  0  0  0  0
 75 36  1  0  0  0  0
 79 40  1  0  0  0  0
 80 43  1  0  0  0  0
 81 44  1  0  0  0  0
 84  7  1  0  0  0  0
 86  6  1  0  0  0  0
M  END
