86
-1 1
O        -5.585553   -8.944087    1.537595
C        -5.761425   -7.850904    1.021708
C        -4.607598   -7.017747    0.467413
C        -4.362889   -7.407160   -1.008644
S        -2.897702   -6.677047   -1.778584
C        -4.278715   -4.609297   -2.767050
C        -5.513440   -4.520261   -2.188519
C        -5.740535   -4.154885   -0.801117
N        -4.743958   -3.465266   -0.087734
C        -3.860738   -2.498549   -0.508191
C        -2.641802   -2.344013    0.184232
C        -1.737456   -1.364162   -0.190632
C        -2.034298   -0.515228   -1.262479
S        -0.816758    0.616209   -1.851504
O         0.109121    0.930188   -0.768069
N         0.077799   -0.251986   -2.983480
C        -0.635133   -0.624981   -4.200519
C         0.364305   -1.071200   -5.263532
N         1.222928   -2.126185   -4.752578
C         1.908324   -1.753525   -3.528377
C         0.915052   -1.328068   -2.453280
C         0.954311   -3.470626   -4.954073
N         0.324731   -3.751650   -6.171301
C         1.079900   -3.412400   -7.374974
C         2.100840   -4.504445   -7.703116
C         1.423061   -5.869228   -7.822205
C         0.550504   -6.199079   -6.606219
C        -0.243843   -7.491445   -6.810024
C        -1.211745   -7.768052   -5.660388
C        -2.155502   -6.589256   -5.428769
C        -1.363707   -5.310373   -5.163576
C        -0.397168   -5.022773   -6.310973
O         1.265818   -4.313853   -4.133866
O        -1.481125    1.678138   -2.602034
C        -3.249631   -0.639775   -1.944194
C        -4.158639   -1.613162   -1.564012
O        -6.719817   -4.545312   -0.165636
N        -3.431540   -7.155846    1.285251
C        -2.818030   -6.105091    1.861524
C        -1.420450   -6.372546    2.374700
O        -3.320643   -4.987766    1.962577
H        -4.883942   -5.964285    0.520014
N        -6.977131   -7.287274    0.818887
C        -8.200971   -7.944488    1.186479
H        -4.314906   -8.507733   -1.069086
H        -5.269788   -7.097351   -1.559576
H        -4.533711   -3.888820    0.821455
H        -2.423622   -3.030552    1.005328
H        -0.793019   -1.251650    0.344764
H        -1.202319    0.244156   -4.557914
H        -1.345134   -1.455116   -4.005236
H         0.987502   -0.213137   -5.567503
H        -0.186464   -1.434337   -6.137612
H         2.592651   -0.916746   -3.746965
H         2.486544   -2.615211   -3.176873
H         1.446409   -0.955410   -1.568472
H         0.302794   -2.203967   -2.160401
H         1.582584   -2.445434   -7.237402
H         0.367272   -3.297286   -8.211212
H         2.855093   -4.531567   -6.898292
H         2.633334   -4.250244   -8.634626
H         2.175293   -6.661005   -7.974305
H         0.782177   -5.872449   -8.724540
H         1.195600   -6.311235   -5.717930
H         0.455256   -8.333935   -6.948166
H        -0.817833   -7.407611   -7.753201
H        -0.645810   -7.951108   -4.731374
H        -1.787506   -8.685755   -5.860399
H        -2.798709   -6.796237   -4.559253
H        -2.804086   -6.455836   -6.315325
H        -0.812091   -5.426662   -4.220023
H        -2.039530   -4.448522   -5.038026
H        -1.019793   -4.882708   -7.218326
H        -3.484972    0.046400   -2.759754
H        -5.107984   -1.709484   -2.091196
H        -2.924969   -8.027376    1.204189
H        -1.258337   -7.426306    2.641630
H        -1.224902   -5.731548    3.243066
H        -0.715883   -6.106102    1.572089
H        -7.013501   -6.343118    0.425390
H        -8.868300   -8.071162    0.317897
H        -8.748881   -7.381351    1.960523
H        -7.946274   -8.934707    1.586844
H        -6.379687   -4.989287   -2.661744
H        -3.405838   -4.093558   -2.376557
H        -4.183253   -4.998438   -3.781438
