86
-1 1
O        -3.423475   -4.918914    3.486026
C        -3.571792   -3.760504    3.109640
C        -2.362533   -2.895750    2.752488
C        -1.980603   -3.150047    1.285084
S        -0.806369   -1.959962    0.585077
C        -1.998106   -0.720037   -0.229887
C        -3.323799   -0.568224    0.414812
C        -3.544750   -0.139414    1.716208
N        -2.471173    0.559641    2.387644
C        -1.670580    1.556258    1.946358
C        -0.466754    1.838979    2.644078
C         0.382916    2.842343    2.221395
C         0.054356    3.615013    1.097556
S         1.222125    4.740910    0.434122
O         2.181049    5.114119    1.470983
N         2.110325    3.848453   -0.698677
C         1.373717    3.441418   -1.888706
C         2.349709    2.953978   -2.954512
N         3.203605    1.903159   -2.425567
C         3.906972    2.296310   -1.217226
C         2.932815    2.774030   -0.146767
C         2.955787    0.559146   -2.625470
N         2.320658    0.267488   -3.840655
C         3.066578    0.610201   -5.048903
C         4.099668   -0.470101   -5.378324
C         3.439037   -1.844053   -5.488154
C         2.579559   -2.177893   -4.264321
C         1.804479   -3.483924   -4.451458
C         0.855513   -3.767657   -3.287799
C        -0.106515   -2.602074   -3.061359
C         0.661355   -1.305335   -2.816317
C         1.616549   -1.012628   -3.971870
O         3.286595   -0.284809   -1.811825
O         0.528988    5.764480   -0.345400
C        -1.144079    3.370846    0.410966
C        -1.993830    2.362677    0.825200
O        -4.535704   -0.404371    2.445953
N        -1.275680   -3.170230    3.658542
C        -0.703648   -2.233402    4.449781
C         0.432936   -2.731528    5.320673
O        -1.030712   -1.055743    4.465807
H        -2.635048   -1.850344    2.887111
N        -4.748611   -3.141825    2.910500
C        -6.005414   -3.807712    3.122605
H        -1.544605   -4.156982    1.192608
H        -2.895166   -3.120391    0.676867
H        -2.199049    0.132300    3.274012
H        -0.212569    1.219409    3.506917
H         1.314234    3.038317    2.756332
H         0.805326    4.302086   -2.264047
H         0.661725    2.622431   -1.655908
H         2.978302    3.795226   -3.293014
H         1.781370    2.571191   -3.808726
H         4.606286    3.112246   -1.465985
H         4.470922    1.432499   -0.848077
H         3.482283    3.162564    0.720272
H         2.307591    1.920058    0.182632
H         3.557753    1.583780   -4.917697
H         2.349130    0.714027   -5.882536
H         4.858656   -0.484697   -4.577739
H         4.623612   -0.213418   -6.313871
H         4.200437   -2.626857   -5.641349
H         2.792268   -1.859673   -6.386147
H         3.232494   -2.272273   -3.379841
H         2.514249   -4.316886   -4.591559
H         1.216763   -3.416983   -5.387159
H         1.440888   -3.927883   -2.366053
H         0.296101   -4.698956   -3.472495
H        -0.748735   -2.804693   -2.191295
H        -0.764391   -2.492558   -3.943361
H         1.222835   -1.397973   -1.876121
H        -0.031919   -0.457539   -2.695122
H         0.987486   -0.887404   -4.876927
H        -1.408751    3.990466   -0.448347
H        -2.920793    2.159697    0.287275
H        -1.079132   -4.151022    3.819494
H         0.464309   -3.825833    5.415550
H         0.342885   -2.274302    6.314421
H         1.379063   -2.388256    4.876772
H        -4.749729   -2.122218    2.680273
H        -6.641555   -3.745999    2.224921
H        -6.561178   -3.360044    3.963328
H        -5.810280   -4.863518    3.353142
H        -4.164889   -1.102078   -0.036505
H        -1.371346    0.185053   -0.260986
H        -2.117625   -1.064970   -1.267378
