74
-1 1
O         1.803121    0.071504    5.181288
C         0.743005    0.678899    5.199992
N        -0.316351    0.399311    4.412158
C        -1.554349    1.194846    4.318143
C        -2.261488    0.644487    3.074535
C        -1.091257    0.087003    2.264765
C        -0.204605   -0.560841    3.327433
N        -1.404939   -0.791691    1.155516
C        -0.842339   -0.651617   -0.083616
C        -1.228971   -1.678086   -0.915546
C        -0.747885   -1.815414   -2.286783
C         0.527082   -1.614522   -2.729812
S        -1.844276   -2.189039   -3.613930
C        -0.540819   -2.114385   -4.762525
C         0.676592   -1.772423   -4.152201
C         1.834034   -1.648712   -4.948519
C         1.760688   -1.863566   -6.314926
C         2.978936   -1.731204   -7.193158
C         0.523824   -2.210820   -6.910642
C        -0.628420   -2.339774   -6.145689
O        -1.851925   -2.667522   -6.619602
C        -2.010823   -2.875190   -7.993952
C        -2.163147   -1.931675    1.160537
C        -2.092081   -2.520331   -0.119176
C        -2.778462   -3.753712   -0.241682
N        -2.764529   -4.505428   -1.370342
N        -3.466585   -4.239052    0.796742
C        -3.459208   -3.555023    1.944797
N        -2.836439   -2.422074    2.210069
C         0.536745    1.803726    6.124459
C         0.411832    2.735863    6.883864
S        -0.892125    3.896867    1.777730
C         0.709573    3.314204    2.433205
C         1.830848    3.199126    1.374124
H         1.378297    2.780711    0.460400
N         2.894481    2.325677    1.811027
C         2.824167    0.985064    1.718887
C         3.935076    0.220990    2.404671
O         1.889441    0.400075    1.178359
C         2.458205    4.559550    1.057656
N         1.578632    5.478386    0.617794
C         1.946888    6.850874    0.403063
O         3.657610    4.764889    1.221553
H        -1.315763    2.260891    4.175245
H        -2.158836    1.085459    5.231499
H        -2.781737    1.445020    2.532797
H        -2.958758   -0.165618    3.330062
H        -0.546666    0.933273    1.824206
H         0.834823   -0.663422    2.997127
H        -0.603171   -1.547399    3.621760
H        -0.170248    0.182607   -0.276308
H         1.345238   -1.373626   -2.050000
H         2.783635   -1.379219   -4.480597
H         3.870586   -1.472764   -6.605488
H         2.836636   -0.946082   -7.952797
H         3.187168   -2.670754   -7.729490
H         0.490853   -2.374039   -7.989036
H        -3.068912   -3.114195   -8.156629
H        -1.393698   -3.717172   -8.354308
H        -1.753934   -1.972385   -8.575371
H        -2.336490   -4.178068   -2.225134
H        -3.336948   -5.336741   -1.376505
H        -4.036650   -3.998113    2.765210
H         0.300387    3.572758    7.547141
H         0.605060    2.306322    2.861567
H         1.068609    3.957037    3.256723
H         3.737642    2.792806    2.127848
H         4.862870    0.803093    2.499585
H         4.127382   -0.709239    1.855420
H         3.571803   -0.035270    3.413541
H         0.578908    5.219864    0.721855
H         3.042504    6.923091    0.395315
H         1.558945    7.507181    1.200979
H         1.555937    7.216430   -0.559961
