-1 1
 OpenBabel05232414493D

 74 77  0  0  1  0  0  0  0  0999 V2000
   -2.1025   -8.6743    4.4246 O   0  0  0  0  0  0  0  0  0  0  0  0
   -3.1968   -8.1020    4.4573 C   0  0  0  0  0  0  0  0  0  0  0  0
   -4.2280   -8.5053    3.6377 N   0  0  0  0  0  0  0  0  0  0  0  0
   -5.4705   -7.7589    3.4444 C   0  0  0  0  0  0  0  0  0  0  0  0
   -6.1103   -8.4174    2.2153 C   0  0  0  0  0  0  0  0  0  0  0  0
   -4.8879   -8.9636    1.4749 C   0  0  1  0  0  0  0  0  0  0  0  0
   -4.0282   -9.5085    2.6176 C   0  0  0  0  0  0  0  0  0  0  0  0
   -5.1331   -9.9139    0.4035 N   0  0  0  0  0  0  0  0  0  0  0  0
   -4.5568   -9.8128   -0.8369 C   0  0  0  0  0  0  0  0  0  0  0  0
   -4.8956  -10.8943   -1.6199 C   0  0  0  0  0  0  0  0  0  0  0  0
   -4.4096  -11.0680   -2.9864 C   0  0  0  0  0  0  0  0  0  0  0  0
   -3.1546  -10.8013   -3.4511 C   0  0  0  0  0  0  0  0  0  0  0  0
   -5.4862  -11.5746   -4.2855 S   0  0  0  0  0  0  0  0  0  0  0  0
   -4.1986  -11.4629   -5.4488 C   0  0  0  0  0  0  0  0  0  0  0  0
   -3.0034  -11.0129   -4.8663 C   0  0  0  0  0  0  0  0  0  0  0  0
   -1.8622  -10.8467   -5.6778 C   0  0  0  0  0  0  0  0  0  0  0  0
   -1.9299  -11.1275   -7.0326 C   0  0  0  0  0  0  0  0  0  0  0  0
   -0.7295  -10.9526   -7.9276 C   0  0  0  0  0  0  0  0  0  0  0  0
   -3.1442  -11.5845   -7.6000 C   0  0  0  0  0  0  0  0  0  0  0  0
   -4.2803  -11.7563   -6.8196 C   0  0  0  0  0  0  0  0  0  0  0  0
   -5.4817  -12.1868   -7.2659 O   0  0  0  0  0  0  0  0  0  0  0  0
   -5.6341  -12.4726   -8.6274 C   0  0  0  0  0  0  0  0  0  0  0  0
   -5.8533  -11.0780    0.4531 C   0  0  0  0  0  0  0  0  0  0  0  0
   -5.7394  -11.7273   -0.7937 C   0  0  0  0  0  0  0  0  0  0  0  0
   -6.3791  -12.9912   -0.8618 C   0  0  1  0  0  3  0  0  0  0  0  0
   -6.3179  -13.8010   -1.9464 N   0  0  0  0  0  0  0  0  0  0  0  0
   -7.0702  -13.4444    0.1887 N   0  0  0  0  0  0  0  0  0  0  0  0
   -7.1121  -12.7003    1.2978 C   0  0  0  0  0  0  0  0  0  0  0  0
   -6.5333  -11.5341    1.5133 N   0  0  0  0  0  2  0  0  0  0  0  0
   -3.5258   -6.9986    5.3080 C   0  0  0  0  0  0  0  0  0  0  0  0
   -3.6827   -5.8052    5.6243 C   0  0  0  0  0  3  0  0  0  0  0  0
   -2.8125   -4.0947    4.1117 S   0  0  0  0  0  1  0  0  0  0  0  0
   -1.6773   -5.2980    3.3701 C   0  0  0  0  0  0  0  0  0  0  0  0
   -2.1236   -5.8650    2.0057 C   0  0  2  0  0  0  0  0  0  0  0  0
   -3.2196   -5.9955    2.0239 H   0  0  0  0  0  0  0  0  0  0  0  0
   -1.4840   -7.1420    1.7771 N   0  0  0  0  0  0  0  0  0  0  0  0
   -1.7185   -7.8874    0.6802 C   0  0  0  0  0  0  0  0  0  0  0  0
   -0.9556   -9.1954    0.6012 C   0  0  0  0  0  0  0  0  0  0  0  0
   -2.4905   -7.5470   -0.2101 O   0  0  0  0  0  0  0  0  0  0  0  0
   -1.7672   -4.8717    0.8893 C   0  0  0  0  0  0  0  0  0  0  0  0
   -2.6012   -3.7976    0.8592 N   0  0  0  0  0  0  0  0  0  0  0  0
   -2.3124   -2.6530    0.0370 C   0  0  0  0  0  0  0  0  0  0  0  0
   -0.8149   -5.0179    0.1471 O   0  0  0  0  0  0  0  0  0  0  0  0
   -5.2508   -6.6923    3.2712 H   0  0  0  0  0  0  0  0  0  0  0  0
   -6.1170   -7.8142    4.3347 H   0  0  0  0  0  0  0  0  0  0  0  0
   -6.6897   -7.7067    1.6097 H   0  0  0  0  0  0  0  0  0  0  0  0
   -6.7632   -9.2527    2.5041 H   0  0  0  0  0  0  0  0  0  0  0  0
   -4.3505   -8.1275    1.0061 H   0  0  0  0  0  0  0  0  0  0  0  0
   -2.9633   -9.5955    2.3733 H   0  0  0  0  0  0  0  0  0  0  0  0
   -4.3947  -10.5039    2.9290 H   0  0  0  0  0  0  0  0  0  0  0  0
   -3.9106   -8.9607   -1.0609 H   0  0  0  0  0  0  0  0  0  0  0  0
   -2.3488  -10.4684   -2.7965 H   0  0  0  0  0  0  0  0  0  0  0  0
   -0.9302  -10.4920   -5.2319 H   0  0  0  0  0  0  0  0  0  0  0  0
    0.1469  -10.6098   -7.3606 H   0  0  0  0  0  0  0  0  0  0  0  0
   -0.9298  -10.2126   -8.7187 H   0  0  0  0  0  0  0  0  0  0  0  0
   -0.4629  -11.8986   -8.4250 H   0  0  0  0  0  0  0  0  0  0  0  0
   -3.1730  -11.7985   -8.6696 H   0  0  0  0  0  0  0  0  0  0  0  0
   -6.6742  -12.7910   -8.7682 H   0  0  0  0  0  0  0  0  0  0  0  0
   -4.9628  -13.2872   -8.9514 H   0  0  0  0  0  0  0  0  0  0  0  0
   -5.4433  -11.5840   -9.2544 H   0  0  0  0  0  0  0  0  0  0  0  0
   -5.8682  -13.5157   -2.8050 H   0  0  0  0  0  0  0  0  0  0  0  0
   -6.8454  -14.6609   -1.9104 H   0  0  0  0  0  0  0  0  0  0  0  0
   -7.6927  -13.1180    2.1290 H   0  0  0  0  0  0  0  0  0  0  0  0
   -4.0306   -5.0716    6.3348 H   0  0  0  0  0  0  0  0  0  0  0  0
   -1.5952   -6.1432    4.0712 H   0  0  0  0  0  0  0  0  0  0  0  0
   -0.6698   -4.8650    3.2609 H   0  0  0  0  0  0  0  0  0  0  0  0
   -1.0534   -7.5867    2.5820 H   0  0  0  0  0  0  0  0  0  0  0  0
   -0.1303   -9.0687   -0.1153 H   0  0  0  0  0  0  0  0  0  0  0  0
   -1.6250   -9.9768    0.2152 H   0  0  0  0  0  0  0  0  0  0  0  0
   -0.5419   -9.5113    1.5689 H   0  0  0  0  0  0  0  0  0  0  0  0
   -3.1599   -3.6583    1.7054 H   0  0  0  0  0  0  0  0  0  0  0  0
   -1.6830   -2.9804   -0.8006 H   0  0  0  0  0  0  0  0  0  0  0  0
   -1.7682   -1.8666    0.5895 H   0  0  0  0  0  0  0  0  0  0  0  0
   -3.2420   -2.2174   -0.3609 H   0  0  0  0  0  0  0  0  0  0  0  0
  1  2  2  0  0  0  0
  2 30  2  0  0  0  0
  3  2  1  0  0  0  0
  4  3  1  0  0  0  0
  4 45  1  0  0  0  0
  5 47  1  0  0  0  0
  5  4  1  0  0  0  0
  6 48  1  6  0  0  0
  6  5  1  0  0  0  0
  6  7  1  0  0  0  0
  7 50  1  0  0  0  0
  7  3  1  0  0  0  0
  8 23  1  0  0  0  0
  8  6  1  0  0  0  0
  9  8  1  0  0  0  0
 10  9  2  0  0  0  0
 10 24  1  0  0  0  0
 11 10  1  0  0  0  0
 12 11  2  0  0  0  0
 12 52  1  0  0  0  0
 13 11  1  0  0  0  0
 14 15  1  0  0  0  0
 14 13  1  0  0  0  0
 15 12  1  0  0  0  0
 16 53  1  0  0  0  0
 16 15  2  0  0  0  0
 17 16  1  0  0  0  0
 18 54  1  0  0  0  0
 18 17  1  0  0  0  0
 19 17  2  0  0  0  0
 19 20  1  0  0  0  0
 20 14  2  0  0  0  0
 21 20  1  0  0  0  0
 22 21  1  0  0  0  0
 23 29  1  0  0  0  0
 24 23  2  0  0  0  0
 25 26  1  1  0  0  0
 25 24  1  0  0  0  0
 25 27  1  0  0  0  0
 26 62  1  0  0  0  0
 27 28  2  0  0  0  0
 28 29  1  0  0  0  0
 28 63  1  0  0  0  0
 30 31  2  0  0  0  0
 31 64  1  0  0  0  0
 33 65  1  0  0  0  0
 33 32  1  0  0  0  0
 34 35  1  1  0  0  0
 34 33  1  0  0  0  0
 36 34  1  0  0  0  0
 36 67  1  0  0  0  0
 37 36  1  0  0  0  0
 38 37  1  0  0  0  0
 38 70  1  0  0  0  0
 39 37  2  0  0  0  0
 40 34  1  0  0  0  0
 41 40  1  0  0  0  0
 41 71  1  0  0  0  0
 42 73  1  0  0  0  0
 42 41  1  0  0  0  0
 43 40  2  0  0  0  0
 44  4  1  0  0  0  0
 46  5  1  0  0  0  0
 49  7  1  0  0  0  0
 51  9  1  0  0  0  0
 55 18  1  0  0  0  0
 56 18  1  0  0  0  0
 57 19  1  0  0  0  0
 58 22  1  0  0  0  0
 59 22  1  0  0  0  0
 60 22  1  0  0  0  0
 61 26  1  0  0  0  0
 66 33  1  0  0  0  0
 68 38  1  0  0  0  0
 69 38  1  0  0  0  0
 72 42  1  0  0  0  0
 74 42  1  0  0  0  0
M  END
