74
-1 1
O        -2.102516   -8.674301    4.424613
C        -3.196781   -8.101969    4.457285
N        -4.227991   -8.505328    3.637668
C        -5.470543   -7.758934    3.444353
C        -6.110255   -8.417362    2.215290
C        -4.887883   -8.963640    1.474950
C        -4.028178   -9.508543    2.617648
N        -5.133139   -9.913894    0.403490
C        -4.556806   -9.812843   -0.836898
C        -4.895583  -10.894344   -1.619921
C        -4.409605  -11.068003   -2.986384
C        -3.154616  -10.801350   -3.451074
S        -5.486180  -11.574601   -4.285477
C        -4.198561  -11.462898   -5.448774
C        -3.003392  -11.012861   -4.866304
C        -1.862153  -10.846660   -5.677835
C        -1.929891  -11.127529   -7.032554
C        -0.729536  -10.952553   -7.927588
C        -3.144237  -11.584496   -7.599997
C        -4.280263  -11.756334   -6.819570
O        -5.481680  -12.186763   -7.265908
C        -5.634122  -12.472565   -8.627432
C        -5.853289  -11.078049    0.453113
C        -5.739446  -11.727319   -0.793698
C        -6.379107  -12.991249   -0.861798
N        -6.317924  -13.801004   -1.946430
N        -7.070168  -13.444381    0.188708
C        -7.112141  -12.700276    1.297823
N        -6.533281  -11.534069    1.513308
C        -3.525785   -6.998572    5.308027
C        -3.682668   -5.805227    5.624308
S        -2.812527   -4.094657    4.111685
C        -1.677275   -5.298012    3.370135
C        -2.123575   -5.865042    2.005731
H        -3.219567   -5.995459    2.023896
N        -1.484013   -7.141988    1.777076
C        -1.718531   -7.887382    0.680200
C        -0.955626   -9.195375    0.601214
O        -2.490508   -7.546991   -0.210059
C        -1.767166   -4.871704    0.889300
N        -2.601209   -3.797555    0.859165
C        -2.312415   -2.653043    0.036985
O        -0.814886   -5.017865    0.147107
H        -5.250778   -6.692338    3.271241
H        -6.116962   -7.814181    4.334708
H        -6.689705   -7.706702    1.609656
H        -6.763205   -9.252730    2.504120
H        -4.350487   -8.127513    1.006081
H        -2.963328   -9.595475    2.373311
H        -4.394707  -10.503925    2.928967
H        -3.910593   -8.960693   -1.060872
H        -2.348771  -10.468356   -2.796454
H        -0.930210  -10.492003   -5.231869
H         0.146897  -10.609825   -7.360633
H        -0.929790  -10.212558   -8.718700
H        -0.462856  -11.898632   -8.424982
H        -3.173015  -11.798522   -8.669574
H        -6.674195  -12.791018   -8.768196
H        -4.962773  -13.287200   -8.951422
H        -5.443274  -11.584047   -9.254359
H        -5.868234  -13.515744   -2.805001
H        -6.845383  -14.660916   -1.910436
H        -7.692684  -13.117973    2.128994
H        -4.030570   -5.071649    6.334787
H        -1.595193   -6.143205    4.071173
H        -0.669846   -4.865042    3.260938
H        -1.053357   -7.586727    2.582047
H        -0.130267   -9.068741   -0.115292
H        -1.625033   -9.976784    0.215162
H        -0.541924   -9.511273    1.568897
H        -3.159927   -3.658306    1.705438
H        -1.682953   -2.980353   -0.800640
H        -1.768205   -1.866631    0.589483
H        -3.242006   -2.217401   -0.360882
