87
-1 1
C         0.685003   20.629504   -3.340429
O         1.987249   20.178934   -3.588629
C         2.898160   20.231131   -2.592794
C         2.670336   20.725292   -1.315029
C         3.698342   20.736784   -0.341128
C         3.393822   21.282118    1.030844
C         4.955995   20.250076   -0.657684
C         4.177098   19.736893   -2.898835
C         5.209678   19.741157   -1.948298
C         6.428988   19.207420   -2.496758
C         6.318258   18.808577   -3.796818
C         7.345457   18.186388   -4.629109
C         8.130701   17.131785   -4.219352
N         9.017767   16.767412   -5.198354
C         9.922696   15.623223   -5.136189
C        11.332905   15.890603   -5.667475
C        12.140870   14.740105   -5.061258
N        11.425239   14.403361   -3.840701
C        10.214275   15.173803   -3.702099
C        11.595321   13.212252   -3.133556
O        10.716121   12.872839   -2.321843
C        12.778790   12.450427   -3.404708
C        12.902273   11.159970   -2.879044
S        11.957872    9.571537   -4.240805
C        11.699941   10.652378   -5.659002
C        10.230905   10.967807   -5.992428
H        10.200453   11.789818   -6.724724
N         9.515746   11.374065   -4.807344
C         8.472438   12.242513   -4.842038
C         7.803491   12.474451   -3.502204
O         8.075242   12.762604   -5.874602
C         9.594425    9.777451   -6.719948
N         8.745826    9.026281   -5.972857
C         8.180532    7.795466   -6.449916
O         9.874345    9.528827   -7.879571
C        14.278987   10.539412   -2.753737
N        15.181101   11.296722   -1.893254
C        14.646429   11.552034   -0.579193
C        16.487204   10.697815   -1.845328
C         7.772686   18.485787   -5.973302
C         8.801080   17.573790   -6.285551
N         9.456569   17.511137   -7.450293
C         9.064292   18.422675   -8.318982
N         8.136681   19.372173   -8.152478
C         7.488939   19.435141   -6.987351
N         6.593389   20.444046   -6.833761
S         4.687067   19.051499   -4.412928
H         0.119678   20.485038   -4.268957
H         0.668152   21.700563   -3.072794
H         0.201875   20.052543   -2.532773
H         1.687723   21.113139   -1.041876
H         3.057934   22.329824    0.976619
H         4.277089   21.243956    1.683184
H         2.590165   20.706370    1.516749
H         5.754523   20.255525    0.087826
H         7.367690   19.146960   -1.945616
H         8.082393   16.590654   -3.278007
H         9.458160   14.789356   -5.689436
H        11.679118   16.863514   -5.280682
H        11.376369   15.930412   -6.761281
H        13.186240   15.035176   -4.869409
H        12.169531   13.871496   -5.743721
H        10.360477   16.063298   -3.054105
H         9.427668   14.558340   -3.250632
H        13.571196   12.856177   -4.035688
H        12.207278   10.936331   -2.065902
H        12.176491   10.248525   -6.562636
H        12.193716   11.612111   -5.400417
H         9.947081   11.134400   -3.912891
H         7.191707   13.383573   -3.564943
H         8.556921   12.559269   -2.704673
H         7.139458   11.623681   -3.281087
H         8.678174    9.270193   -4.993215
H         8.620124    6.919210   -5.944213
H         8.402732    7.725266   -7.522945
H         7.087654    7.771807   -6.308776
H        14.737280   10.479707   -3.754078
H        14.174512    9.489376   -2.395586
H        13.708629   12.120305   -0.655404
H        15.360911   12.155206    0.004412
H        14.441822   10.618805   -0.000494
H        16.890769   10.584888   -2.864139
H        16.494547    9.685217   -1.372255
H        17.182152   11.335614   -1.274303
H         9.558360   18.408829   -9.297668
H         6.377187   20.982617   -7.660680
H         5.948201   20.456301   -6.055598
