-1 1
 OpenBabel05192410563D

 87 91  0  0  1  0  0  0  0  0999 V2000
   -7.4239    5.7692    1.8906 C   0  0  0  0  0  0  0  0  0  0  0  0
   -6.1643    5.3628    1.4324 O   0  0  0  0  0  0  0  0  0  0  0  0
   -5.1288    5.3428    2.2987 C   0  0  0  0  0  0  0  0  0  0  0  0
   -5.1843    5.7220    3.6335 C   0  0  0  0  0  0  0  0  0  0  0  0
   -4.0351    5.6651    4.4590 C   0  0  0  0  0  0  0  0  0  0  0  0
   -4.1549    6.0857    5.9015 C   0  0  0  0  0  0  0  0  0  0  0  0
   -2.8296    5.2261    3.9365 C   0  0  0  0  0  0  0  0  0  0  0  0
   -3.9007    4.8956    1.7834 C   0  0  0  0  0  0  0  0  0  0  0  0
   -2.7501    4.8334    2.5845 C   0  0  0  0  0  0  0  0  0  0  0  0
   -1.6141    4.3649    1.8341 C   0  0  0  0  0  0  0  0  0  0  0  0
   -1.8978    4.0768    0.5314 C   0  0  0  0  0  0  0  0  0  0  0  0
   -0.9894    3.5457   -0.4833 C   0  0  0  0  0  0  0  0  0  0  0  0
   -0.1568    2.4660   -0.2844 C   0  0  0  0  0  0  0  0  0  0  0  0
    0.5735    2.2007   -1.4132 N   0  0  0  0  0  0  0  0  0  0  0  0
    1.5983    1.1811   -1.5700 C   0  0  1  0  0  0  0  0  0  0  0  0
    2.8703    1.4379   -0.7569 C   0  0  0  0  0  0  0  0  0  0  0  0
    3.5426    0.0639   -0.7446 C   0  0  0  0  0  0  0  0  0  0  0  0
    2.4420   -0.8641   -0.8815 N   0  0  0  0  0  0  0  0  0  0  0  0
    1.1763   -0.2230   -1.1262 C   0  0  0  0  0  0  0  0  0  0  0  0
    2.4781   -2.1931   -0.4308 C   0  0  0  0  0  0  0  0  0  0  0  0
    1.3374   -2.7538   -0.3028 O   0  0  0  0  0  0  0  0  0  0  0  0
    3.7000   -2.7848   -0.1472 C   0  0  0  0  0  3  0  0  0  0  0  0
    3.7331   -4.1126    0.4928 C   0  0  1  0  0  0  0  0  0  0  0  0
    4.4446   -5.5001   -0.5697 S   0  0  0  0  0  0  0  0  0  0  0  0
    3.5333   -5.2653   -2.1176 C   0  0  0  0  0  0  0  0  0  0  0  0
    2.1479   -5.9206   -2.2350 C   0  0  2  0  0  0  0  0  0  0  0  0
    1.9003   -5.9899   -3.3082 H   0  0  0  0  0  0  0  0  0  0  0  0
    1.1084   -5.1635   -1.5736 N   0  0  0  0  0  0  0  0  0  0  0  0
   -0.1822   -5.3207   -1.9798 C   0  0  0  0  0  0  0  0  0  0  0  0
   -1.1730   -4.3893   -1.3065 C   0  0  0  0  0  0  0  0  0  0  0  0
   -0.5285   -6.1647   -2.7920 O   0  0  0  0  0  0  0  0  0  0  0  0
    2.2369   -7.3850   -1.7833 C   0  0  0  0  0  0  0  0  0  0  0  0
    1.6139   -7.6633   -0.6144 N   0  0  0  0  0  0  0  0  0  0  0  0
    1.6971   -8.9450    0.0243 C   0  0  0  0  0  0  0  0  0  0  0  0
    2.8587   -8.2047   -2.4375 O   0  0  0  0  0  0  0  0  0  0  0  0
    4.5391   -4.1868    1.7943 C   0  0  0  0  0  0  0  0  0  0  0  0
    4.1320   -3.2125    2.7909 N   0  0  0  0  0  0  0  0  0  0  0  0
    2.7191   -3.2230    3.0871 C   0  0  0  0  0  0  0  0  0  0  0  0
    4.9415   -3.3002    3.9745 C   0  0  0  0  0  0  0  0  0  0  0  0
   -0.7489    3.9792   -1.8389 C   0  0  0  0  0  0  0  0  0  0  0  0
    0.2304    3.1176   -2.3694 C   0  0  0  0  0  0  0  0  0  0  0  0
    0.7567    3.1877   -3.5966 N   0  0  0  0  0  0  0  0  0  0  0  0
    0.2656    4.1814   -4.3127 C   0  0  0  0  0  0  0  0  0  0  0  0
   -0.6442    5.0895   -3.9426 N   0  0  0  0  0  0  0  0  0  0  0  0
   -1.1562    5.0209   -2.7109 C   0  0  0  0  0  0  0  0  0  0  0  0
   -2.0362    5.9892   -2.3546 N   0  0  0  0  0  0  0  0  0  0  0  0
   -3.5969    4.3495    0.1611 S   0  0  0  0  0  0  0  0  0  0  0  0
   -8.1077    5.6971    1.0365 H   0  0  0  0  0  0  0  0  0  0  0  0
   -7.4089    6.8124    2.2517 H   0  0  0  0  0  0  0  0  0  0  0  0
   -7.7917    5.1162    2.7010 H   0  0  0  0  0  0  0  0  0  0  0  0
   -6.1226    6.0702    4.0679 H   0  0  0  0  0  0  0  0  0  0  0  0
   -4.4991    7.1288    5.9840 H   0  0  0  0  0  0  0  0  0  0  0  0
   -3.1921    6.0052    6.4246 H   0  0  0  0  0  0  0  0  0  0  0  0
   -4.8840    5.4578    6.4377 H   0  0  0  0  0  0  0  0  0  0  0  0
   -1.9385    5.1792    4.5667 H   0  0  0  0  0  0  0  0  0  0  0  0
   -0.6101    4.2701    2.2482 H   0  0  0  0  0  0  0  0  0  0  0  0
   -0.0634    1.8423    0.6018 H   0  0  0  0  0  0  0  0  0  0  0  0
    1.8414    1.1771   -2.6417 H   0  0  0  0  0  0  0  0  0  0  0  0
    2.5905    1.7359    0.2673 H   0  0  0  0  0  0  0  0  0  0  0  0
    3.4931    2.2366   -1.1846 H   0  0  0  0  0  0  0  0  0  0  0  0
    4.0977   -0.1177    0.1921 H   0  0  0  0  0  0  0  0  0  0  0  0
    4.2730   -0.0344   -1.5721 H   0  0  0  0  0  0  0  0  0  0  0  0
    0.5379   -0.1881   -0.2199 H   0  0  0  0  0  0  0  0  0  0  0  0
    0.5873   -0.7440   -1.8965 H   0  0  0  0  0  0  0  0  0  0  0  0
    4.6426   -2.2523   -0.2871 H   0  0  0  0  0  0  0  0  0  0  0  0
    2.7004   -4.4270    0.6968 H   0  0  0  0  0  0  0  0  0  0  0  0
    4.1773   -5.6964   -2.8950 H   0  0  0  0  0  0  0  0  0  0  0  0
    3.4571   -4.1780   -2.2896 H   0  0  0  0  0  0  0  0  0  0  0  0
    1.3230   -4.2869   -1.0447 H   0  0  0  0  0  0  0  0  0  0  0  0
   -1.9511   -4.1223   -2.0342 H   0  0  0  0  0  0  0  0  0  0  0  0
   -0.6803   -3.4945   -0.9018 H   0  0  0  0  0  0  0  0  0  0  0  0
   -1.6615   -4.9324   -0.4820 H   0  0  0  0  0  0  0  0  0  0  0  0
    1.1831   -6.8776   -0.1435 H   0  0  0  0  0  0  0  0  0  0  0  0
    2.3038   -8.9054    0.9448 H   0  0  0  0  0  0  0  0  0  0  0  0
    2.1811   -9.6342   -0.6803 H   0  0  0  0  0  0  0  0  0  0  0  0
    0.6977   -9.3357    0.2763 H   0  0  0  0  0  0  0  0  0  0  0  0
    5.6050   -4.0098    1.5652 H   0  0  0  0  0  0  0  0  0  0  0  0
    4.4692   -5.2258    2.2020 H   0  0  0  0  0  0  0  0  0  0  0  0
    2.1260   -3.0115    2.1855 H   0  0  0  0  0  0  0  0  0  0  0  0
    2.4943   -2.4396    3.8289 H   0  0  0  0  0  0  0  0  0  0  0  0
    2.3720   -4.1958    3.5131 H   0  0  0  0  0  0  0  0  0  0  0  0
    6.0082   -3.2063    3.7146 H   0  0  0  0  0  0  0  0  0  0  0  0
    4.8195   -4.2640    4.5283 H   0  0  0  0  0  0  0  0  0  0  0  0
    4.6910   -2.4845    4.6728 H   0  0  0  0  0  0  0  0  0  0  0  0
    0.6498    4.2844   -5.3345 H   0  0  0  0  0  0  0  0  0  0  0  0
   -2.3366    6.6199   -3.0842 H   0  0  0  0  0  0  0  0  0  0  0  0
   -2.5763    5.9213   -1.5028 H   0  0  0  0  0  0  0  0  0  0  0  0
  1 49  1  0  0  0  0
  1 50  1  0  0  0  0
  2  1  1  0  0  0  0
  2  3  1  0  0  0  0
  3  4  1  0  0  0  0
  4 51  1  0  0  0  0
  4  5  2  0  0  0  0
  5  6  1  0  0  0  0
  6 52  1  0  0  0  0
  6 53  1  0  0  0  0
  6 54  1  0  0  0  0
  7  5  1  0  0  0  0
  7 55  1  0  0  0  0
  8  3  2  0  0  0  0
  8  9  1  0  0  0  0
  9  7  2  0  0  0  0
 10 56  1  0  0  0  0
 10  9  1  0  0  0  0
 11 10  2  0  0  0  0
 12 13  2  0  0  0  0
 12 11  1  0  0  0  0
 13 57  1  0  0  0  0
 14 13  1  0  0  0  0
 15 58  1  6  0  0  0
 15 14  1  0  0  0  0
 15 19  1  0  0  0  0
 15 16  1  0  0  0  0
 16 17  1  0  0  0  0
 16 59  1  0  0  0  0
 17 61  1  0  0  0  0
 18 17  1  0  0  0  0
 18 20  1  0  0  0  0
 19 18  1  0  0  0  0
 19 63  1  0  0  0  0
 20 21  2  0  0  0  0
 20 22  1  0  0  0  0
 22 23  1  0  0  0  0
 23 66  1  1  0  0  0
 23 36  1  0  0  0  0
 24 23  1  0  0  0  0
 25 24  1  0  0  0  0
 26 27  1  6  0  0  0
 26 25  1  0  0  0  0
 26 32  1  0  0  0  0
 26 28  1  0  0  0  0
 28 69  1  0  0  0  0
 29 28  1  0  0  0  0
 29 30  1  0  0  0  0
 30 71  1  0  0  0  0
 30 72  1  0  0  0  0
 31 29  2  0  0  0  0
 32 33  1  0  0  0  0
 33 73  1  0  0  0  0
 33 34  1  0  0  0  0
 34 76  1  0  0  0  0
 34 74  1  0  0  0  0
 35 32  2  0  0  0  0
 36 78  1  0  0  0  0
 36 37  1  0  0  0  0
 37 38  1  0  0  0  0
 37 39  1  0  0  0  0
 38 81  1  0  0  0  0
 38 80  1  0  0  0  0
 39 83  1  0  0  0  0
 39 84  1  0  0  0  0
 40 12  1  0  0  0  0
 41 40  2  0  0  0  0
 41 14  1  0  0  0  0
 42 41  1  0  0  0  0
 43 44  1  0  0  0  0
 43 42  2  0  0  0  0
 44 45  2  0  0  0  0
 45 46  1  0  0  0  0
 45 40  1  0  0  0  0
 46 87  1  0  0  0  0
 47 11  1  0  0  0  0
 47  8  1  0  0  0  0
 48  1  1  0  0  0  0
 60 16  1  0  0  0  0
 62 17  1  0  0  0  0
 64 19  1  0  0  0  0
 65 22  1  0  0  0  0
 67 25  1  0  0  0  0
 68 25  1  0  0  0  0
 70 30  1  0  0  0  0
 75 34  1  0  0  0  0
 77 36  1  0  0  0  0
 79 38  1  0  0  0  0
 82 39  1  0  0  0  0
 85 43  1  0  0  0  0
 86 46  1  0  0  0  0
M  END
