87
-1 1
C         4.542265  -13.450461    3.328367
N         4.136781  -12.069548    3.309568
C         4.961832  -11.271284    2.438895
C         4.027172  -11.521495    4.671549
C         3.525340  -10.107262    4.776955
C         4.451167   -9.090066    5.074681
S         4.857096   -8.914142    7.303522
C         3.741508  -10.224897    7.847229
C         2.654581   -9.859966    8.881871
H         3.146850   -9.399244    9.755072
N         1.942113  -11.043117    9.309928
C         2.424588  -11.947826   10.186807
C         1.469641  -13.083290   10.525865
O         3.542889  -11.898438   10.672422
C         1.570026   -8.895157    8.366696
N         2.004215   -7.679471    8.006855
C         1.111091   -6.728328    7.388323
O         0.387988   -9.236676    8.348371
C         2.133328   -9.703882    4.844824
N         1.092801  -10.632105    4.771563
C         1.083740  -11.940285    4.133289
C        -0.322397  -12.038445    3.551652
C        -1.145856  -11.302709    4.611176
C        -0.248779  -10.124571    5.003370
N        -2.482339  -10.927860    4.174543
C        -2.822027   -9.912943    3.319833
C        -4.175300   -9.925332    3.058777
C        -4.848329   -8.963245    2.188506
C        -4.467688   -8.558660    0.942649
S        -6.287990   -8.110639    2.735757
C        -6.384239   -7.234420    1.237279
C        -5.329179   -7.557382    0.369985
C        -5.248983   -6.919211   -0.885067
C        -6.204760   -5.984447   -1.247728
C        -6.143713   -5.280180   -2.579114
C        -7.262624   -5.673965   -0.358970
C        -7.362947   -6.291800    0.880779
O        -8.331507   -6.066559    1.794667
C        -9.320584   -5.115929    1.513712
C        -3.617418  -11.630683    4.474861
C        -4.706978  -11.038974    3.807215
C        -5.944639  -11.707549    3.986615
N        -7.091377  -11.331748    3.366797
N        -6.007820  -12.780167    4.779818
C        -4.886036  -13.213833    5.365695
N        -3.669911  -12.713202    5.258325
O         1.797561   -8.524945    5.030773
H         3.836151  -14.043602    3.932126
H         5.559713  -13.603154    3.760930
H         4.548044  -13.865672    2.307201
H         4.918029  -11.662853    1.409178
H         6.033051  -11.254220    2.751738
H         4.596199  -10.235059    2.438921
H         5.023877  -11.563497    5.168494
H         3.397762  -12.227492    5.239109
H         4.106443   -8.063293    4.949683
H         5.501191   -9.262341    4.825961
H         4.325799  -11.042328    8.291625
H         3.234534  -10.612091    6.942381
H         0.962984  -11.035448    9.032250
H         0.457200  -12.944600   10.122053
H         1.419659  -13.184409   11.618831
H         1.887163  -14.019755   10.127718
H         3.007468   -7.630251    7.786337
H         0.951992   -6.986012    6.330361
H         1.546986   -5.721771    7.465407
H         0.146388   -6.742408    7.913956
H         1.236939  -12.756596    4.866692
H         1.879937  -12.021962    3.379718
H        -0.664825  -13.070198    3.386506
H        -0.383082  -11.491904    2.595349
H        -1.299948  -11.968036    5.472390
H        -0.391096   -9.808431    6.048998
H        -0.436250   -9.234902    4.376529
H        -2.075304   -9.207138    2.963913
H        -3.603968   -8.982077    0.429553
H        -4.429501   -7.164117   -1.564675
H        -5.283108   -5.617734   -3.172859
H        -6.055883   -4.190142   -2.446927
H        -7.055576   -5.465256   -3.168767
H        -8.002814   -4.933656   -0.666525
H        -9.985960   -5.087246    2.384948
H        -9.909265   -5.391673    0.621285
H        -8.887854   -4.112200    1.359514
H        -7.159404  -10.449615    2.877732
H        -7.935639  -11.809508    3.648272
H        -4.996856  -14.096531    6.006668
