87
-1 1
C         5.743900   -2.807027   -1.947962
N         5.465463   -1.498661   -1.410965
C         6.059819   -0.446393   -2.203280
C         5.801451   -1.410715    0.002226
C         5.392605   -0.102063    0.634830
C         6.225760    0.540657    1.462395
S         6.089438   -1.001325    4.486646
C         4.631170   -1.782359    3.712364
C         3.259040   -1.308236    4.241147
H         3.304376   -1.347493    5.345021
N         2.154647   -2.118697    3.759158
C         1.908323   -3.405914    4.103366
C         0.628005   -3.974233    3.505134
O         2.643672   -4.088086    4.794387
C         2.903878    0.131829    3.823465
N         3.857259    1.042861    4.015347
C         3.681441    2.416327    3.617738
O         1.793783    0.400712    3.349611
C         4.073571    0.576230    0.356027
N         2.930550   -0.157672    0.244198
C         2.763930   -1.607673    0.342645
C         1.271175   -1.818962    0.111454
C         0.662323   -0.509113    0.608072
C         1.664359    0.550630    0.157018
N        -0.712307   -0.301270    0.185759
C        -1.186554    0.354999   -0.918828
C        -2.560377    0.261424   -0.990384
C        -3.366361    0.865995   -2.049118
C        -3.155013    0.803900   -3.395388
S        -4.756023    1.872248   -1.656066
C        -5.063778    2.169965   -3.341101
C        -4.113306    1.551101   -4.167599
C        -4.210353    1.706603   -5.565900
C        -5.235386    2.464718   -6.107581
C        -5.364531    2.654004   -7.597459
C        -6.185612    3.079490   -5.256412
C        -6.111173    2.937982   -3.876860
O        -6.966674    3.480264   -2.984066
C        -8.021270    4.274678   -3.451407
C        -1.777868   -0.849640    0.845567
C        -2.958861   -0.520372    0.155240
C        -4.140587   -1.079276    0.706215
N        -5.366124   -0.930817    0.146091
N        -4.067164   -1.813515    1.819137
C        -2.869346   -2.028088    2.373510
N        -1.694808   -1.598886    1.950119
O         4.019077    1.798837    0.265418
H         5.213559   -3.577174   -1.365793
H         6.828680   -3.063600   -1.933026
H         5.398197   -2.872326   -2.991831
H         5.689243   -0.502959   -3.238967
H         7.172330   -0.507358   -2.234003
H         5.791327    0.539130   -1.797226
H         6.893444   -1.538292    0.170595
H         5.324790   -2.258891    0.519758
H         5.931822    1.480763    1.929692
H         7.200478    0.128020    1.726000
H         4.662859   -2.867922    3.876832
H         4.647208   -1.604402    2.622896
H         1.398045   -1.558200    3.373668
H        -0.031565   -3.212271    3.063954
H         0.091496   -4.528679    4.287511
H         0.905649   -4.699792    2.724940
H         4.795183    0.667839    4.289238
H         3.745042    2.542583    2.523079
H         4.464520    3.025199    4.091074
H         2.697146    2.784884    3.943972
H         3.055143   -1.968336    1.340830
H         3.364437   -2.113639   -0.423124
H         0.877265   -2.692649    0.648314
H         1.049574   -1.939890   -0.962410
H         0.658189   -0.492687    1.705364
H         1.669966    1.424024    0.821167
H         1.486489    0.904460   -0.875653
H        -0.518627    0.892107   -1.586935
H        -2.348684    0.215281   -3.833556
H        -3.473967    1.228221   -6.215764
H        -4.570732    2.122520   -8.140159
H        -5.303557    3.719980   -7.868227
H        -6.333765    2.279294   -7.962864
H        -6.983618    3.672048   -5.706479
H        -8.575651    4.613087   -2.567872
H        -8.702533    3.703270   -4.105775
H        -7.652346    5.156601   -4.003291
H        -5.525194   -0.278451   -0.609310
H        -6.152081   -1.286791    0.671341
H        -2.865989   -2.640844    3.282408
