72
-1 1
O         2.992880    3.078101    4.184068
C         1.777552    2.948051    3.864237
N         1.369479    3.668097    2.695809
C         0.810901    2.962866    1.562673
C        -0.434523    3.640427    0.987283
N        -0.964126    2.874717   -0.131389
C        -1.137224    1.518506   -0.141689
C        -1.513892    1.084013   -1.392467
C        -1.628946   -0.331950   -1.712256
C        -2.135853   -1.325019   -0.923554
S        -0.907814   -0.977581   -3.181807
C        -1.340741   -2.598773   -2.731398
C        -1.974771   -2.641424   -1.478639
C        -2.347884   -3.890584   -0.939704
C        -2.086467   -5.054638   -1.643428
C        -2.463658   -6.404440   -1.087712
C        -1.448474   -4.989895   -2.906104
C        -1.074600   -3.770582   -3.456985
O        -0.455790   -3.605611   -4.648488
C        -0.121641   -4.738002   -5.398519
C        -1.225129    3.353094   -1.387046
C        -1.585329    2.268643   -2.214446
C        -1.953271    2.631536   -3.531978
N        -2.422384    1.740398   -4.446405
N        -1.876509    3.909146   -3.917540
C        -1.481992    4.824050   -3.025485
N        -1.158661    4.635824   -1.759339
C         0.865580    2.180691    4.594729
C        -0.504859    1.828066    4.255028
S        -0.734872    0.094165    3.334276
C         0.848295   -0.671033    3.770978
C         2.012359   -0.432499    2.786762
H         1.973771    0.590393    2.397341
N         1.958619   -1.348294    1.671333
C         1.724680   -0.998144    0.382339
C         1.718731   -2.156345   -0.597306
O         1.488509    0.142186    0.021126
C         3.333930   -0.662720    3.532157
N         3.845171    0.400948    4.168832
C         5.028580    0.270620    4.978251
O         3.830993   -1.786051    3.565774
H         2.172106    4.228129    2.427682
H         0.540011    1.943219    1.862840
H         1.544006    2.831841    0.747613
H        -0.211114    4.646820    0.608270
H        -1.203390    3.743337    1.769761
H        -0.915640    0.918650    0.741310
H        -2.606703   -1.124720    0.039036
H        -2.833487   -3.931373    0.038007
H        -2.947688   -6.312343   -0.105631
H        -1.576180   -7.045992   -0.967316
H        -3.159052   -6.931915   -1.760166
H        -1.248974   -5.920830   -3.439174
H         0.380686   -4.379017   -6.305166
H        -1.017280   -5.314848   -5.689749
H         0.565692   -5.403840   -4.847722
H        -2.344542    0.744956   -4.286770
H        -2.517276    2.077485   -5.393811
H        -1.430126    5.855367   -3.395621
H         1.295967    1.737352    5.495968
H        -0.996137    2.526833    3.564273
H        -1.148327    1.693828    5.134421
H         0.684364   -1.754386    3.870221
H         1.134142   -0.281401    4.756070
H         2.334171   -2.267133    1.880976
H         0.679043   -2.492097   -0.732883
H         2.318439   -3.013152   -0.257811
H         2.084430   -1.802569   -1.569080
H         3.444687    1.359068    4.099885
H         4.924557   -0.548501    5.707799
H         5.180892    1.216897    5.513403
H         5.924407    0.054676    4.370903
