72
-1 1
O         2.095311    4.445265    4.792359
C         1.354810    3.715604    4.153867
N         1.214065    3.883277    2.800065
C         0.712099    2.969311    1.797952
C        -0.441718    3.588674    1.007838
N        -0.799386    2.779799   -0.139461
C        -0.973509    1.421026   -0.140661
C        -1.275291    0.977021   -1.411379
C        -1.429830   -0.445858   -1.702295
C        -1.805297   -1.416223   -0.817795
S        -0.912165   -1.134425   -3.240902
C        -1.248430   -2.744806   -2.679142
C        -1.701434   -2.747331   -1.350461
C        -1.982873   -3.976550   -0.719114
C        -1.817806   -5.162328   -1.415356
C        -2.101053   -6.493598   -0.766888
C        -1.370624   -5.138200   -2.759639
C        -1.084648   -3.938625   -3.398748
O        -0.646697   -3.813314   -4.674227
C        -0.429864   -4.970877   -5.427959
C        -0.985947    3.248066   -1.410926
C        -1.302749    2.157464   -2.247531
C        -1.613678    2.524154   -3.582103
N        -2.038448    1.643624   -4.520262
N        -1.509013    3.801623   -3.965565
C        -1.145984    4.716462   -3.062214
N        -0.888615    4.529893   -1.780942
C         0.567974    2.650845    4.843135
C        -0.706300    2.337340    4.599859
S        -1.277573   -0.483502    2.825112
C         0.230088   -0.915946    3.761605
C         1.530549   -0.468400    3.087830
H         1.620126    0.629541    3.151162
N         1.506940   -0.840844    1.678595
C         2.223410   -0.218386    0.724022
C         1.897683   -0.593305   -0.703809
O         3.110020    0.602960    0.968404
C         2.768795   -1.052998    3.805068
N         3.937339   -0.478626    3.419490
C         5.211388   -0.918563    3.917284
O         2.694165   -1.922860    4.655518
H         1.801132    4.639769    2.463774
H         0.369572    2.043285    2.281744
H         1.524455    2.683603    1.108953
H        -0.166707    4.578789    0.617744
H        -1.318152    3.721157    1.663259
H        -0.877265    0.833565    0.785874
H        -2.095556   -1.204795    0.214853
H        -2.318756   -3.977094    0.320216
H        -2.433281   -6.368420    0.272683
H        -1.202063   -7.130399   -0.759360
H        -2.886360   -7.042650   -1.311030
H        -1.246837   -6.086242   -3.285748
H        -0.070452   -4.644790   -6.411864
H        -1.359010   -5.553037   -5.561177
H         0.332630   -5.622633   -4.966104
H        -2.181275    0.664786   -4.315867
H        -2.239212    2.006501   -5.440230
H        -1.065577    5.745338   -3.433811
H         1.104271    2.190730    5.678033
H        -1.283458    2.806473    3.800446
H        -1.234153    1.585355    5.188413
H         0.287311   -2.002088    3.926878
H         0.219241   -0.457816    4.762695
H         0.618628   -1.270918    1.408617
H         1.521151    0.298718   -1.224454
H         1.149158   -1.392285   -0.786743
H         2.826107   -0.903363   -1.202902
H         3.887332    0.154019    2.616937
H         5.030657   -1.626214    4.737029
H         5.804430   -0.072491    4.301001
H         5.805004   -1.429050    3.138976
