-1 1
 OpenBabel05192410563D

 72 75  0  0  1  0  0  0  0  0999 V2000
    2.9929    3.0781    4.1841 O   0  0  0  0  0  0  0  0  0  0  0  0
    1.7776    2.9481    3.8642 C   0  0  0  0  0  0  0  0  0  0  0  0
    1.3695    3.6681    2.6958 N   0  0  0  0  0  0  0  0  0  0  0  0
    0.8109    2.9629    1.5627 C   0  0  0  0  0  0  0  0  0  0  0  0
   -0.4345    3.6404    0.9873 C   0  0  0  0  0  0  0  0  0  0  0  0
   -0.9641    2.8747   -0.1314 N   0  0  0  0  0  0  0  0  0  0  0  0
   -1.1372    1.5185   -0.1417 C   0  0  0  0  0  0  0  0  0  0  0  0
   -1.5139    1.0840   -1.3925 C   0  0  0  0  0  0  0  0  0  0  0  0
   -1.6289   -0.3320   -1.7123 C   0  0  0  0  0  0  0  0  0  0  0  0
   -2.1359   -1.3250   -0.9236 C   0  0  0  0  0  0  0  0  0  0  0  0
   -0.9078   -0.9776   -3.1818 S   0  0  0  0  0  0  0  0  0  0  0  0
   -1.3407   -2.5988   -2.7314 C   0  0  0  0  0  0  0  0  0  0  0  0
   -1.9748   -2.6414   -1.4786 C   0  0  0  0  0  0  0  0  0  0  0  0
   -2.3479   -3.8906   -0.9397 C   0  0  0  0  0  0  0  0  0  0  0  0
   -2.0865   -5.0546   -1.6434 C   0  0  0  0  0  0  0  0  0  0  0  0
   -2.4637   -6.4044   -1.0877 C   0  0  0  0  0  0  0  0  0  0  0  0
   -1.4485   -4.9899   -2.9061 C   0  0  0  0  0  0  0  0  0  0  0  0
   -1.0746   -3.7706   -3.4570 C   0  0  0  0  0  0  0  0  0  0  0  0
   -0.4558   -3.6056   -4.6485 O   0  0  0  0  0  0  0  0  0  0  0  0
   -0.1216   -4.7380   -5.3985 C   0  0  0  0  0  0  0  0  0  0  0  0
   -1.2251    3.3531   -1.3870 C   0  0  0  0  0  0  0  0  0  0  0  0
   -1.5853    2.2686   -2.2144 C   0  0  0  0  0  0  0  0  0  0  0  0
   -1.9533    2.6315   -3.5320 C   0  0  1  0  0  3  0  0  0  0  0  0
   -2.4224    1.7404   -4.4464 N   0  0  0  0  0  0  0  0  0  0  0  0
   -1.8765    3.9091   -3.9175 N   0  0  0  0  0  0  0  0  0  0  0  0
   -1.4820    4.8240   -3.0255 C   0  0  0  0  0  0  0  0  0  0  0  0
   -1.1587    4.6358   -1.7593 N   0  0  0  0  0  2  0  0  0  0  0  0
    0.8656    2.1807    4.5947 C   0  0  0  0  0  3  0  0  0  0  0  0
   -0.5049    1.8281    4.2550 C   0  0  0  0  0  0  0  0  0  0  0  0
   -0.7349    0.0942    3.3343 S   0  0  0  0  0  0  0  0  0  0  0  0
    0.8483   -0.6710    3.7710 C   0  0  0  0  0  0  0  0  0  0  0  0
    2.0124   -0.4325    2.7868 C   0  0  2  0  0  0  0  0  0  0  0  0
    1.9738    0.5904    2.3973 H   0  0  0  0  0  0  0  0  0  0  0  0
    1.9586   -1.3483    1.6713 N   0  0  0  0  0  0  0  0  0  0  0  0
    1.7247   -0.9981    0.3823 C   0  0  0  0  0  0  0  0  0  0  0  0
    1.7187   -2.1563   -0.5973 C   0  0  0  0  0  0  0  0  0  0  0  0
    1.4885    0.1422    0.0211 O   0  0  0  0  0  0  0  0  0  0  0  0
    3.3339   -0.6627    3.5322 C   0  0  0  0  0  0  0  0  0  0  0  0
    3.8452    0.4009    4.1688 N   0  0  0  0  0  0  0  0  0  0  0  0
    5.0286    0.2706    4.9783 C   0  0  0  0  0  0  0  0  0  0  0  0
    3.8310   -1.7861    3.5658 O   0  0  0  0  0  0  0  0  0  0  0  0
    2.1721    4.2281    2.4277 H   0  0  0  0  0  0  0  0  0  0  0  0
    0.5400    1.9432    1.8628 H   0  0  0  0  0  0  0  0  0  0  0  0
    1.5440    2.8318    0.7476 H   0  0  0  0  0  0  0  0  0  0  0  0
   -0.2111    4.6468    0.6083 H   0  0  0  0  0  0  0  0  0  0  0  0
   -1.2034    3.7433    1.7698 H   0  0  0  0  0  0  0  0  0  0  0  0
   -0.9156    0.9186    0.7413 H   0  0  0  0  0  0  0  0  0  0  0  0
   -2.6067   -1.1247    0.0390 H   0  0  0  0  0  0  0  0  0  0  0  0
   -2.8335   -3.9314    0.0380 H   0  0  0  0  0  0  0  0  0  0  0  0
   -2.9477   -6.3123   -0.1056 H   0  0  0  0  0  0  0  0  0  0  0  0
   -1.5762   -7.0460   -0.9673 H   0  0  0  0  0  0  0  0  0  0  0  0
   -3.1591   -6.9319   -1.7602 H   0  0  0  0  0  0  0  0  0  0  0  0
   -1.2490   -5.9208   -3.4392 H   0  0  0  0  0  0  0  0  0  0  0  0
    0.3807   -4.3790   -6.3052 H   0  0  0  0  0  0  0  0  0  0  0  0
   -1.0173   -5.3148   -5.6897 H   0  0  0  0  0  0  0  0  0  0  0  0
    0.5657   -5.4038   -4.8477 H   0  0  0  0  0  0  0  0  0  0  0  0
   -2.3445    0.7450   -4.2868 H   0  0  0  0  0  0  0  0  0  0  0  0
   -2.5173    2.0775   -5.3938 H   0  0  0  0  0  0  0  0  0  0  0  0
   -1.4301    5.8554   -3.3956 H   0  0  0  0  0  0  0  0  0  0  0  0
    1.2960    1.7374    5.4960 H   0  0  0  0  0  0  0  0  0  0  0  0
   -0.9961    2.5268    3.5643 H   0  0  0  0  0  0  0  0  0  0  0  0
   -1.1483    1.6938    5.1344 H   0  0  0  0  0  0  0  0  0  0  0  0
    0.6844   -1.7544    3.8702 H   0  0  0  0  0  0  0  0  0  0  0  0
    1.1341   -0.2814    4.7561 H   0  0  0  0  0  0  0  0  0  0  0  0
    2.3342   -2.2671    1.8810 H   0  0  0  0  0  0  0  0  0  0  0  0
    0.6790   -2.4921   -0.7329 H   0  0  0  0  0  0  0  0  0  0  0  0
    2.3184   -3.0132   -0.2578 H   0  0  0  0  0  0  0  0  0  0  0  0
    2.0844   -1.8026   -1.5691 H   0  0  0  0  0  0  0  0  0  0  0  0
    3.4447    1.3591    4.0999 H   0  0  0  0  0  0  0  0  0  0  0  0
    4.9246   -0.5485    5.7078 H   0  0  0  0  0  0  0  0  0  0  0  0
    5.1809    1.2169    5.5134 H   0  0  0  0  0  0  0  0  0  0  0  0
    5.9244    0.0547    4.3709 H   0  0  0  0  0  0  0  0  0  0  0  0
  2  1  2  0  0  0  0
  2 28  1  0  0  0  0
  3  2  1  0  0  0  0
  4 43  1  0  0  0  0
  4  3  1  0  0  0  0
  5  4  1  0  0  0  0
  5 46  1  0  0  0  0
  6  5  1  0  0  0  0
  7  6  1  0  0  0  0
  7 47  1  0  0  0  0
  8  7  2  0  0  0  0
  9  8  1  0  0  0  0
  9 10  2  0  0  0  0
 10 48  1  0  0  0  0
 11 12  1  0  0  0  0
 11  9  1  0  0  0  0
 12 13  1  0  0  0  0
 13 14  2  0  0  0  0
 13 10  1  0  0  0  0
 14 49  1  0  0  0  0
 15 16  1  0  0  0  0
 15 14  1  0  0  0  0
 16 51  1  0  0  0  0
 16 50  1  0  0  0  0
 17 15  2  0  0  0  0
 18 17  1  0  0  0  0
 18 12  2  0  0  0  0
 19 18  1  0  0  0  0
 20 56  1  0  0  0  0
 20 19  1  0  0  0  0
 21  6  1  0  0  0  0
 22  8  1  0  0  0  0
 22 21  2  0  0  0  0
 23 24  1  1  0  0  0
 23 22  1  0  0  0  0
 24 57  1  0  0  0  0
 25 23  1  0  0  0  0
 25 26  2  0  0  0  0
 26 27  1  0  0  0  0
 27 21  1  0  0  0  0
 28 60  1  0  0  0  0
 29 28  1  0  0  0  0
 29 62  1  0  0  0  0
 30 31  1  0  0  0  0
 30 29  1  0  0  0  0
 31 63  1  0  0  0  0
 31 64  1  0  0  0  0
 32 33  1  6  0  0  0
 32 38  1  0  0  0  0
 32 31  1  0  0  0  0
 34 65  1  0  0  0  0
 34 32  1  0  0  0  0
 35 34  1  0  0  0  0
 36 67  1  0  0  0  0
 36 35  1  0  0  0  0
 37 35  2  0  0  0  0
 38 41  2  0  0  0  0
 38 39  1  0  0  0  0
 39 40  1  0  0  0  0
 40 71  1  0  0  0  0
 40 70  1  0  0  0  0
 42  3  1  0  0  0  0
 44  4  1  0  0  0  0
 45  5  1  0  0  0  0
 52 16  1  0  0  0  0
 53 17  1  0  0  0  0
 54 20  1  0  0  0  0
 55 20  1  0  0  0  0
 58 24  1  0  0  0  0
 59 26  1  0  0  0  0
 61 29  1  0  0  0  0
 66 36  1  0  0  0  0
 68 36  1  0  0  0  0
 69 39  1  0  0  0  0
 72 40  1  0  0  0  0
M  END
