-1 1
 OpenBabel05192410563D

 79 83  0  0  1  0  0  0  0  0999 V2000
    0.3254    0.9005   -1.8925 O   0  0  0  0  0  0  0  0  0  0  0  0
   -0.6625    0.1436   -1.9319 C   0  0  0  0  0  0  0  0  0  0  0  0
   -0.8608   -0.6463   -3.1229 N   0  0  0  0  0  0  0  0  0  0  0  0
   -2.1210   -0.4956   -3.8465 C   0  0  0  0  0  0  0  0  0  0  0  0
   -1.8324   -1.1199   -5.2052 C   0  0  0  0  0  0  0  0  0  0  0  0
   -0.3877   -0.6870   -5.4529 C   0  0  0  0  0  0  0  0  0  0  0  0
    0.2615   -0.7576   -4.0591 C   0  0  2  0  0  0  0  0  0  0  0  0
    1.0553   -2.0675   -3.8708 C   0  0  0  0  0  0  0  0  0  0  0  0
    1.9110   -2.0534   -2.6984 N   0  0  0  0  0  0  0  0  0  0  0  0
    1.4947   -1.8381   -1.4099 C   0  0  0  0  0  0  0  0  0  0  0  0
    2.5608   -1.5813   -0.5833 C   0  0  0  0  0  0  0  0  0  0  0  0
    2.3531   -1.0079    0.7468 C   0  0  0  0  0  0  0  0  0  0  0  0
    1.4926    0.0214    0.9826 C   0  0  0  0  0  0  0  0  0  0  0  0
    3.1123   -1.5966    2.2268 S   0  0  0  0  0  0  0  0  0  0  0  0
    2.2308   -0.4262    3.1732 C   0  0  0  0  0  0  0  0  0  0  0  0
    1.3819    0.3600    2.3750 C   0  0  0  0  0  0  0  0  0  0  0  0
    0.5396    1.3142    2.9774 C   0  0  0  0  0  0  0  0  0  0  0  0
    0.5514    1.4693    4.3536 C   0  0  0  0  0  0  0  0  0  0  0  0
   -0.3673    2.4674    5.0129 C   0  0  0  0  0  0  0  0  0  0  0  0
    1.4264    0.6847    5.1446 C   0  0  0  0  0  0  0  0  0  0  0  0
    2.2672   -0.2603    4.5671 C   0  0  0  0  0  0  0  0  0  0  0  0
    3.1244   -1.0638    5.2455 O   0  0  0  0  0  0  0  0  0  0  0  0
    3.1814   -0.9615    6.6372 C   0  0  0  0  0  0  0  0  0  0  0  0
    3.2774   -1.9517   -2.7243 C   0  0  0  0  0  0  0  0  0  0  0  0
    3.7297   -1.6738   -1.4196 C   0  0  0  0  0  0  0  0  0  0  0  0
    5.1256   -1.5031   -1.2961 C   0  0  1  0  0  3  0  0  0  0  0  0
    5.7233   -1.2254   -0.1060 N   0  0  0  0  0  0  0  0  0  0  0  0
    5.9114   -1.6351   -2.3694 N   0  0  0  0  0  0  0  0  0  0  0  0
    5.3381   -1.9178   -3.5452 C   0  0  0  0  0  0  0  0  0  0  0  0
    4.0539   -2.0856   -3.8065 N   0  0  0  0  0  2  0  0  0  0  0  0
   -1.5377   -0.0802   -0.8501 C   0  0  0  0  0  3  0  0  0  0  0  0
   -2.5233   -1.1360   -0.7324 C   0  0  0  0  0  0  0  0  0  0  0  0
   -4.4377   -0.5946   -0.9251 S   0  0  0  0  0  0  0  0  0  0  0  0
   -4.2608    1.2022   -0.9285 C   0  0  0  0  0  0  0  0  0  0  0  0
   -4.4571    1.9356    0.4201 C   0  0  2  0  0  0  0  0  0  0  0  0
   -5.4662    1.6976    0.7960 H   0  0  0  0  0  0  0  0  0  0  0  0
   -4.3482    3.3626    0.2403 N   0  0  0  0  0  0  0  0  0  0  0  0
   -5.3331    4.1274   -0.2809 C   0  0  0  0  0  0  0  0  0  0  0  0
   -5.0075    5.6070   -0.3933 C   0  0  0  0  0  0  0  0  0  0  0  0
   -6.4013    3.6774   -0.6611 O   0  0  0  0  0  0  0  0  0  0  0  0
   -3.4280    1.5619    1.5001 C   0  0  0  0  0  0  0  0  0  0  0  0
   -3.5259    0.3046    1.9700 N   0  0  0  0  0  0  0  0  0  0  0  0
   -2.5055   -0.2665    2.8176 C   0  0  0  0  0  0  0  0  0  0  0  0
   -2.6073    2.3782    1.9045 O   0  0  0  0  0  0  0  0  0  0  0  0
   -2.3886    0.5749   -3.9696 H   0  0  0  0  0  0  0  0  0  0  0  0
   -2.9677   -0.9694   -3.3298 H   0  0  0  0  0  0  0  0  0  0  0  0
   -2.5330   -0.7860   -5.9851 H   0  0  0  0  0  0  0  0  0  0  0  0
   -1.9015   -2.2184   -5.1391 H   0  0  0  0  0  0  0  0  0  0  0  0
   -0.3709    0.3544   -5.8108 H   0  0  0  0  0  0  0  0  0  0  0  0
    0.1359   -1.2999   -6.2024 H   0  0  0  0  0  0  0  0  0  0  0  0
    0.9556    0.0804   -3.8903 H   0  0  0  0  0  0  0  0  0  0  0  0
    1.7285   -2.2276   -4.7248 H   0  0  0  0  0  0  0  0  0  0  0  0
    0.3570   -2.9175   -3.8065 H   0  0  0  0  0  0  0  0  0  0  0  0
    0.4370   -1.8156   -1.1549 H   0  0  0  0  0  0  0  0  0  0  0  0
    0.9760    0.5293    0.1593 H   0  0  0  0  0  0  0  0  0  0  0  0
   -0.1585    1.8881    2.3630 H   0  0  0  0  0  0  0  0  0  0  0  0
    0.1808    3.3750    5.3161 H   0  0  0  0  0  0  0  0  0  0  0  0
   -0.8309    2.0480    5.9199 H   0  0  0  0  0  0  0  0  0  0  0  0
   -1.1682    2.7685    4.3222 H   0  0  0  0  0  0  0  0  0  0  0  0
    1.4182    0.8247    6.2271 H   0  0  0  0  0  0  0  0  0  0  0  0
    3.9242   -1.6934    6.9788 H   0  0  0  0  0  0  0  0  0  0  0  0
    2.2087   -1.1940    7.1066 H   0  0  0  0  0  0  0  0  0  0  0  0
    3.4965    0.0461    6.9629 H   0  0  0  0  0  0  0  0  0  0  0  0
    5.1664   -0.9191    0.6816 H   0  0  0  0  0  0  0  0  0  0  0  0
    6.6992   -0.9677   -0.1399 H   0  0  0  0  0  0  0  0  0  0  0  0
    6.0255   -2.0160   -4.3946 H   0  0  0  0  0  0  0  0  0  0  0  0
   -1.3655    0.5686    0.0126 H   0  0  0  0  0  0  0  0  0  0  0  0
   -2.5458   -1.6105    0.2577 H   0  0  0  0  0  0  0  0  0  0  0  0
   -2.4224   -1.9162   -1.4977 H   0  0  0  0  0  0  0  0  0  0  0  0
   -5.0027    1.6121   -1.6261 H   0  0  0  0  0  0  0  0  0  0  0  0
   -3.2441    1.4117   -1.3108 H   0  0  0  0  0  0  0  0  0  0  0  0
   -3.4957    3.7639    0.6210 H   0  0  0  0  0  0  0  0  0  0  0  0
   -4.8083    5.8419   -1.4496 H   0  0  0  0  0  0  0  0  0  0  0  0
   -4.1368    5.9097    0.2045 H   0  0  0  0  0  0  0  0  0  0  0  0
   -5.8889    6.1845   -0.0850 H   0  0  0  0  0  0  0  0  0  0  0  0
   -4.1101   -0.3219    1.4136 H   0  0  0  0  0  0  0  0  0  0  0  0
   -2.2331    0.4439    3.6090 H   0  0  0  0  0  0  0  0  0  0  0  0
   -1.5879   -0.5050    2.2530 H   0  0  0  0  0  0  0  0  0  0  0  0
   -2.8909   -1.1853    3.2793 H   0  0  0  0  0  0  0  0  0  0  0  0
  2  1  2  0  0  0  0
  2 31  1  0  0  0  0
  3  2  1  0  0  0  0
  4 46  1  0  0  0  0
  4  3  1  0  0  0  0
  5 48  1  0  0  0  0
  5  4  1  0  0  0  0
  6  5  1  0  0  0  0
  6  7  1  0  0  0  0
  7 51  1  1  0  0  0
  7  8  1  0  0  0  0
  7  3  1  0  0  0  0
  8 53  1  0  0  0  0
  8  9  1  0  0  0  0
  9 10  1  0  0  0  0
 10 54  1  0  0  0  0
 10 11  2  0  0  0  0
 11 12  1  0  0  0  0
 12 13  2  0  0  0  0
 12 14  1  0  0  0  0
 13 16  1  0  0  0  0
 14 15  1  0  0  0  0
 15 21  1  0  0  0  0
 16 17  1  0  0  0  0
 16 15  2  0  0  0  0
 17 18  2  0  0  0  0
 18 19  1  0  0  0  0
 18 20  1  0  0  0  0
 19 57  1  0  0  0  0
 19 58  1  0  0  0  0
 20 60  1  0  0  0  0
 21 20  2  0  0  0  0
 21 22  1  0  0  0  0
 22 23  1  0  0  0  0
 23 63  1  0  0  0  0
 23 61  1  0  0  0  0
 23 62  1  0  0  0  0
 24  9  1  0  0  0  0
 24 25  2  0  0  0  0
 25 26  1  0  0  0  0
 25 11  1  0  0  0  0
 26 27  1  1  0  0  0
 27 64  1  0  0  0  0
 28 26  1  0  0  0  0
 29 28  2  0  0  0  0
 30 29  1  0  0  0  0
 30 24  1  0  0  0  0
 31 32  1  0  0  0  0
 31 67  1  0  0  0  0
 32 68  1  0  0  0  0
 33 32  1  0  0  0  0
 34 33  1  0  0  0  0
 34 35  1  0  0  0  0
 35 36  1  1  0  0  0
 35 41  1  0  0  0  0
 37 35  1  0  0  0  0
 37 72  1  0  0  0  0
 38 37  1  0  0  0  0
 39 38  1  0  0  0  0
 39 75  1  0  0  0  0
 39 74  1  0  0  0  0
 40 38  2  0  0  0  0
 41 44  2  0  0  0  0
 41 42  1  0  0  0  0
 42 43  1  0  0  0  0
 43 79  1  0  0  0  0
 43 77  1  0  0  0  0
 45  4  1  0  0  0  0
 47  5  1  0  0  0  0
 49  6  1  0  0  0  0
 50  6  1  0  0  0  0
 52  8  1  0  0  0  0
 55 13  1  0  0  0  0
 56 17  1  0  0  0  0
 59 19  1  0  0  0  0
 65 27  1  0  0  0  0
 66 29  1  0  0  0  0
 69 32  1  0  0  0  0
 70 34  1  0  0  0  0
 71 34  1  0  0  0  0
 73 39  1  0  0  0  0
 76 42  1  0  0  0  0
 78 43  1  0  0  0  0
M  END
