-1 1
 OpenBabel05232414493D

 79 83  0  0  1  0  0  0  0  0999 V2000
    6.4990    7.5475   -7.4571 O   0  0  0  0  0  0  0  0  0  0  0  0
    5.4995    6.8321   -7.3031 C   0  0  0  0  0  0  0  0  0  0  0  0
    5.0997    5.9732   -8.3718 N   0  0  0  0  0  0  0  0  0  0  0  0
    3.7177    6.0164   -8.8500 C   0  0  0  0  0  0  0  0  0  0  0  0
    3.7721    5.2431  -10.1602 C   0  0  0  0  0  0  0  0  0  0  0  0
    5.1287    5.6635  -10.7269 C   0  0  0  0  0  0  0  0  0  0  0  0
    6.0264    5.7617   -9.4834 C   0  0  2  0  0  0  0  0  0  0  0  0
    6.8659    4.4828   -9.2884 C   0  0  0  0  0  0  0  0  0  0  0  0
    7.7632    4.5961   -8.1569 N   0  0  0  0  0  0  0  0  0  0  0  0
    7.3682    4.5930   -6.8377 C   0  0  0  0  0  0  0  0  0  0  0  0
    8.3107    5.2018   -6.0479 C   0  0  0  0  0  0  0  0  0  0  0  0
    8.0714    5.7301   -4.6985 C   0  0  0  0  0  0  0  0  0  0  0  0
    7.6649    7.0091   -4.4726 C   0  0  0  0  0  0  0  0  0  0  0  0
    8.1745    4.7861   -3.2235 S   0  0  0  0  0  0  0  0  0  0  0  0
    7.6138    6.1440   -2.2866 C   0  0  0  0  0  0  0  0  0  0  0  0
    7.3782    7.2761   -3.0900 C   0  0  0  0  0  0  0  0  0  0  0  0
    6.8383    8.4399   -2.5163 C   0  0  0  0  0  0  0  0  0  0  0  0
    6.5402    8.4689   -1.1633 C   0  0  0  0  0  0  0  0  0  0  0  0
    5.8616    9.6805   -0.5770 C   0  0  0  0  0  0  0  0  0  0  0  0
    6.8078    7.3350   -0.3622 C   0  0  0  0  0  0  0  0  0  0  0  0
    7.3389    6.1710   -0.9109 C   0  0  0  0  0  0  0  0  0  0  0  0
    7.6005    5.0326   -0.2231 O   0  0  0  0  0  0  0  0  0  0  0  0
    7.2831    4.9801    1.1366 C   0  0  0  0  0  0  0  0  0  0  0  0
    8.9813    5.2203   -8.2334 C   0  0  0  0  0  0  0  0  0  0  0  0
    9.3633    5.6013   -6.9401 C   0  0  0  0  0  0  0  0  0  0  0  0
   10.5809    6.3073   -6.8536 C   0  0  1  0  0  3  0  0  0  0  0  0
   11.0705    6.7555   -5.6635 N   0  0  0  0  0  0  0  0  0  0  0  0
   11.2944    6.5350   -7.9590 N   0  0  0  0  0  0  0  0  0  0  0  0
   10.8119    6.0921   -9.1272 C   0  0  0  0  0  0  0  0  0  0  0  0
    9.6817    5.4442   -9.3515 N   0  0  0  0  0  2  0  0  0  0  0  0
    4.7653    6.7380   -6.0802 C   0  0  0  0  0  3  0  0  0  0  0  0
    3.9140    5.6734   -5.7041 C   0  0  0  0  0  0  0  0  0  0  0  0
    1.7682    6.1043   -5.7976 S   0  0  0  0  0  0  0  0  0  0  0  0
    1.9368    7.8872   -6.0025 C   0  0  0  0  0  0  0  0  0  0  0  0
    1.7771    8.7651   -4.7376 C   0  0  2  0  0  0  0  0  0  0  0  0
    0.7664    8.5934   -4.3303 H   0  0  0  0  0  0  0  0  0  0  0  0
    1.9190   10.1642   -5.0641 N   0  0  0  0  0  0  0  0  0  0  0  0
    0.9518   10.9006   -5.6532 C   0  0  0  0  0  0  0  0  0  0  0  0
    1.3152   12.3556   -5.9025 C   0  0  0  0  0  0  0  0  0  0  0  0
   -0.1289   10.4478   -5.9922 O   0  0  0  0  0  0  0  0  0  0  0  0
    2.7983    8.4857   -3.6200 C   0  0  0  0  0  0  0  0  0  0  0  0
    2.7120    7.2641   -3.0658 N   0  0  0  0  0  0  0  0  0  0  0  0
    3.6904    6.7897   -2.1177 C   0  0  0  0  0  0  0  0  0  0  0  0
    3.5936    9.3468   -3.2547 O   0  0  0  0  0  0  0  0  0  0  0  0
    3.3965    7.0613   -9.0388 H   0  0  0  0  0  0  0  0  0  0  0  0
    3.0015    5.5993   -8.1296 H   0  0  0  0  0  0  0  0  0  0  0  0
    2.9262    5.4731  -10.8246 H   0  0  0  0  0  0  0  0  0  0  0  0
    3.7549    4.1587   -9.9602 H   0  0  0  0  0  0  0  0  0  0  0  0
    5.0429    6.6547  -11.1989 H   0  0  0  0  0  0  0  0  0  0  0  0
    5.5267    4.9720  -11.4856 H   0  0  0  0  0  0  0  0  0  0  0  0
    6.7260    6.6092   -9.5467 H   0  0  0  0  0  0  0  0  0  0  0  0
    7.4911    4.3089  -10.1759 H   0  0  0  0  0  0  0  0  0  0  0  0
    6.2070    3.6137   -9.1379 H   0  0  0  0  0  0  0  0  0  0  0  0
    6.3744    4.2505   -6.5626 H   0  0  0  0  0  0  0  0  0  0  0  0
    7.4743    7.6900   -5.3069 H   0  0  0  0  0  0  0  0  0  0  0  0
    6.5895    9.2904   -3.1536 H   0  0  0  0  0  0  0  0  0  0  0  0
    6.4986   10.5755   -0.6574 H   0  0  0  0  0  0  0  0  0  0  0  0
    5.6114    9.5375    0.4845 H   0  0  0  0  0  0  0  0  0  0  0  0
    4.9345    9.8806   -1.1376 H   0  0  0  0  0  0  0  0  0  0  0  0
    6.5624    7.3780    0.7000 H   0  0  0  0  0  0  0  0  0  0  0  0
    7.5534    3.9757    1.4861 H   0  0  0  0  0  0  0  0  0  0  0  0
    6.2046    5.1422    1.3122 H   0  0  0  0  0  0  0  0  0  0  0  0
    7.8511    5.7262    1.7205 H   0  0  0  0  0  0  0  0  0  0  0  0
   10.4194    6.8558   -4.8940 H   0  0  0  0  0  0  0  0  0  0  0  0
   11.8265    7.4238   -5.7256 H   0  0  0  0  0  0  0  0  0  0  0  0
   11.4344    6.3040  -10.0053 H   0  0  0  0  0  0  0  0  0  0  0  0
    5.0447    7.4742   -5.3228 H   0  0  0  0  0  0  0  0  0  0  0  0
    3.9224    5.4055   -4.6444 H   0  0  0  0  0  0  0  0  0  0  0  0
    3.9157    4.7879   -6.3491 H   0  0  0  0  0  0  0  0  0  0  0  0
    1.1888    8.2385   -6.7256 H   0  0  0  0  0  0  0  0  0  0  0  0
    2.9488    8.0583   -6.4255 H   0  0  0  0  0  0  0  0  0  0  0  0
    2.7674   10.5872   -4.6982 H   0  0  0  0  0  0  0  0  0  0  0  0
    1.5156   12.4865   -6.9763 H   0  0  0  0  0  0  0  0  0  0  0  0
    2.1962   12.6900   -5.3372 H   0  0  0  0  0  0  0  0  0  0  0  0
    0.4503   12.9819   -5.6470 H   0  0  0  0  0  0  0  0  0  0  0  0
    2.1724    6.5818   -3.6108 H   0  0  0  0  0  0  0  0  0  0  0  0
    3.8482    7.5368   -1.3281 H   0  0  0  0  0  0  0  0  0  0  0  0
    4.6687    6.5931   -2.5882 H   0  0  0  0  0  0  0  0  0  0  0  0
    3.3243    5.8611   -1.6595 H   0  0  0  0  0  0  0  0  0  0  0  0
  1  2  2  0  0  0  0
  2 31  1  0  0  0  0
  3  2  1  0  0  0  0
  4  3  1  0  0  0  0
  4 46  1  0  0  0  0
  5 48  1  0  0  0  0
  5  4  1  0  0  0  0
  6  5  1  0  0  0  0
  6  7  1  0  0  0  0
  7 51  1  6  0  0  0
  7  8  1  0  0  0  0
  7  3  1  0  0  0  0
  8 53  1  0  0  0  0
  8  9  1  0  0  0  0
  9 10  1  0  0  0  0
 10 54  1  0  0  0  0
 10 11  2  0  0  0  0
 11 12  1  0  0  0  0
 12 13  2  0  0  0  0
 12 14  1  0  0  0  0
 13 16  1  0  0  0  0
 14 15  1  0  0  0  0
 15 21  1  0  0  0  0
 16 17  1  0  0  0  0
 16 15  2  0  0  0  0
 17 18  2  0  0  0  0
 18 19  1  0  0  0  0
 18 20  1  0  0  0  0
 19 58  1  0  0  0  0
 20 60  1  0  0  0  0
 21 20  2  0  0  0  0
 21 22  1  0  0  0  0
 22 23  1  0  0  0  0
 23 62  1  0  0  0  0
 23 61  1  0  0  0  0
 23 63  1  0  0  0  0
 24  9  1  0  0  0  0
 24 25  2  0  0  0  0
 25 26  1  0  0  0  0
 25 11  1  0  0  0  0
 26 27  1  1  0  0  0
 27 64  1  0  0  0  0
 28 26  1  0  0  0  0
 29 28  2  0  0  0  0
 30 29  1  0  0  0  0
 30 24  1  0  0  0  0
 31 32  1  0  0  0  0
 31 67  1  0  0  0  0
 32 68  1  0  0  0  0
 33 32  1  0  0  0  0
 34 33  1  0  0  0  0
 34 35  1  0  0  0  0
 35 36  1  1  0  0  0
 35 41  1  0  0  0  0
 37 35  1  0  0  0  0
 37 72  1  0  0  0  0
 38 37  1  0  0  0  0
 39 38  1  0  0  0  0
 39 75  1  0  0  0  0
 39 74  1  0  0  0  0
 40 38  2  0  0  0  0
 41 44  2  0  0  0  0
 41 42  1  0  0  0  0
 42 43  1  0  0  0  0
 43 79  1  0  0  0  0
 43 77  1  0  0  0  0
 45  4  1  0  0  0  0
 47  5  1  0  0  0  0
 49  6  1  0  0  0  0
 50  6  1  0  0  0  0
 52  8  1  0  0  0  0
 55 13  1  0  0  0  0
 56 17  1  0  0  0  0
 57 19  1  0  0  0  0
 59 19  1  0  0  0  0
 65 27  1  0  0  0  0
 66 29  1  0  0  0  0
 69 32  1  0  0  0  0
 70 34  1  0  0  0  0
 71 34  1  0  0  0  0
 73 39  1  0  0  0  0
 76 42  1  0  0  0  0
 78 43  1  0  0  0  0
M  END
