79
-1 1
O         6.499022    7.547502   -7.457122
C         5.499499    6.832097   -7.303116
N         5.099737    5.973247   -8.371802
C         3.717683    6.016405   -8.849968
C         3.772070    5.243089  -10.160223
C         5.128684    5.663489  -10.726860
C         6.026373    5.761653   -9.483366
C         6.865908    4.482825   -9.288362
N         7.763198    4.596067   -8.156904
C         7.368186    4.593044   -6.837685
C         8.310721    5.201799   -6.047940
C         8.071352    5.730119   -4.698522
C         7.664891    7.009073   -4.472578
S         8.174469    4.786128   -3.223522
C         7.613833    6.144047   -2.286559
C         7.378174    7.276094   -3.089998
C         6.838271    8.439909   -2.516277
C         6.540156    8.468896   -1.163267
C         5.861610    9.680497   -0.577005
C         6.807815    7.334996   -0.362221
C         7.338882    6.170967   -0.910918
O         7.600539    5.032601   -0.223143
C         7.283076    4.980091    1.136571
C         8.981281    5.220292   -8.233433
C         9.363342    5.601264   -6.940094
C        10.580855    6.307272   -6.853559
N        11.070487    6.755506   -5.663470
N        11.294420    6.534979   -7.959001
C        10.811905    6.092106   -9.127199
N         9.681690    5.444167   -9.351507
C         4.765290    6.738002   -6.080167
C         3.914026    5.673394   -5.704104
S         1.768189    6.104250   -5.797637
C         1.936786    7.887221   -6.002549
C         1.777122    8.765058   -4.737607
H         0.766381    8.593438   -4.330277
N         1.918984   10.164193   -5.064132
C         0.951832   10.900622   -5.653159
C         1.315222   12.355554   -5.902496
O        -0.128890   10.447769   -5.992175
C         2.798315    8.485714   -3.619977
N         2.712040    7.264110   -3.065792
C         3.690375    6.789740   -2.117692
O         3.593567    9.346751   -3.254655
H         3.396534    7.061316   -9.038769
H         3.001518    5.599287   -8.129600
H         2.926216    5.473148  -10.824587
H         3.754947    4.158697   -9.960181
H         5.042939    6.654704  -11.198942
H         5.526678    4.971982  -11.485551
H         6.726050    6.609229   -9.546679
H         7.491129    4.308945  -10.175866
H         6.207031    3.613659   -9.137884
H         6.374375    4.250478   -6.562565
H         7.474257    7.689967   -5.306941
H         6.589526    9.290376   -3.153583
H         6.498573   10.575482   -0.657351
H         5.611370    9.537488    0.484534
H         4.934490    9.880564   -1.137637
H         6.562353    7.377965    0.700026
H         7.553410    3.975748    1.486094
H         6.204646    5.142158    1.312183
H         7.851115    5.726238    1.720528
H        10.419366    6.855812   -4.894043
H        11.826520    7.423849   -5.725636
H        11.434405    6.303952  -10.005336
H         5.044693    7.474250   -5.322849
H         3.922401    5.405536   -4.644424
H         3.915680    4.787908   -6.349142
H         1.188837    8.238474   -6.725573
H         2.948836    8.058342   -6.425538
H         2.767355   10.587208   -4.698250
H         1.515643   12.486522   -6.976334
H         2.196222   12.689979   -5.337238
H         0.450306   12.981919   -5.647020
H         2.172388    6.581767   -3.610817
H         3.848179    7.536820   -1.328054
H         4.668706    6.593085   -2.588208
H         3.324327    5.861123   -1.659508
