76
-1 1
O         5.132218    7.119545    3.607049
C         4.685428    6.789796    2.486695
N         3.553107    7.509764    2.011738
C         2.497306    6.908966    1.210490
C         1.178564    7.511169    1.738394
C         1.550551    8.148591    3.083821
H         0.895640    8.999009    3.318779
C         3.000590    8.565135    2.832122
N         1.417770    7.204462    4.194450
C         2.405485    6.511853    4.848791
C         1.849671    5.656155    5.778095
C         2.647217    4.745465    6.592811
C         3.846725    4.995912    7.192190
S         2.165025    3.062032    6.789392
C         3.581913    2.725258    7.737868
C         4.412747    3.850892    7.854128
C         5.622343    3.740189    8.570851
C         5.977018    2.532489    9.148920
C         7.269391    2.380559    9.910390
C         5.122615    1.410262    9.023591
C         3.926330    1.496477    8.322863
O         3.045689    0.485291    8.146696
C         3.356447   -0.778392    8.659844
C         0.206121    6.805825    4.688121
C         0.420124    5.839139    5.689782
C        -0.760507    5.390040    6.332129
N        -0.759593    4.532676    7.385255
N        -1.951730    5.836953    5.921445
C        -1.995036    6.734623    4.931860
N        -0.979906    7.274225    4.282558
C         5.273759    5.773837    1.693248
C         5.069464    5.457297    0.317755
S         3.974181    3.713387   -0.155545
C         2.639073    4.303087   -1.250189
C         1.258240    3.659439   -0.992921
H         1.388789    2.564063   -1.024661
N         0.308059    4.052568   -2.007478
C         0.272758    3.523713   -3.250803
C        -0.862683    4.022381   -4.130514
O         1.086118    2.714952   -3.664154
C         0.606312    4.039670    0.352420
N         1.254377    3.612795    1.449121
C         0.838280    3.955019    2.788473
O        -0.447846    4.668190    0.373789
H         2.530643    5.814857    1.311947
H         2.600705    7.135641    0.134611
H         0.364772    6.778413    1.815018
H         0.826276    8.310319    1.068380
H         3.615378    8.686182    3.732069
H         2.982332    9.533807    2.294958
H         3.464353    6.649485    4.590552
H         4.320952    5.976703    7.160476
H         6.278112    4.609465    8.657834
H         7.825907    3.327241    9.948132
H         7.919947    1.626196    9.439748
H         7.085933    2.053249   10.946328
H         5.424496    0.468834    9.485424
H         2.527914   -1.442751    8.385409
H         3.452479   -0.761041    9.760023
H         4.291879   -1.174992    8.227840
H         0.078053    4.032011    7.650809
H        -1.659380    4.180866    7.679798
H        -2.997711    7.063001    4.632594
H         6.083432    5.258825    2.215949
H         5.971411    5.132893   -0.211337
H         4.512220    6.179641   -0.290672
H         2.891178    4.073754   -2.294417
H         2.544251    5.396106   -1.157145
H        -0.450572    4.624652   -1.643184
H        -1.426791    3.153907   -4.498416
H        -0.429131    4.526314   -5.006226
H        -1.547279    4.713114   -3.619460
H         2.225435    3.316894    1.301041
H         1.581528    4.604924    3.273747
H         0.720880    3.051934    3.407435
H        -0.123388    4.481228    2.742716
