76
-1 1
O         4.137962    3.278341   -0.766534
C         3.534128    2.821442   -1.733159
N         2.276584    3.245286   -2.027547
C         1.364556    2.752697   -3.064360
C         0.110287    3.595525   -2.860468
C         0.137304    3.887252   -1.356673
H        -0.515829    4.727195   -1.081273
C         1.614415    4.191771   -1.141302
N        -0.284019    2.719352   -0.584766
C         0.471839    1.906523    0.231257
C        -0.296363    0.897680    0.763188
C         0.191860   -0.012268    1.805872
C         0.803908    0.396789    2.957414
S         0.067014   -1.764850    1.720053
C         0.796306   -1.916319    3.290349
C         1.175115   -0.679460    3.833432
C         1.815415   -0.636590    5.090407
C         2.066225   -1.811961    5.777023
C         2.749634   -1.803882    7.121001
C         1.678973   -3.053815    5.214904
C         1.048629   -3.116484    3.979360
O         0.646005   -4.250071    3.363670
C         0.892610   -5.480901    3.979508
C        -1.564552    2.235715   -0.589553
C        -1.619812    1.090553    0.222608
C        -2.895550    0.482744    0.296094
N        -3.130140   -0.658453    0.993218
N        -3.932269    1.044147   -0.333481
C        -3.726904    2.148186   -1.058515
N        -2.590862    2.794762   -1.240771
C         4.224832    1.800447   -2.584631
C         3.776390    0.982068   -3.543097
S         0.292775    0.149296   -5.116120
C        -1.185285    0.179343   -4.031769
C        -1.450891   -1.125867   -3.252359
H        -1.360109   -1.957993   -3.974391
N        -2.757748   -1.152204   -2.630332
C        -3.926236   -1.330841   -3.292318
C        -5.132772   -1.473334   -2.374845
O        -4.021808   -1.376029   -4.505974
C        -0.450333   -1.364203   -2.110259
N         0.835047   -1.186394   -2.420114
C         1.889038   -1.340234   -1.452473
O        -0.841190   -1.697805   -0.985748
H         1.135111    1.684927   -2.928948
H         1.780745    2.861063   -4.074268
H        -0.805158    3.090034   -3.187748
H         0.182629    4.551516   -3.402354
H         1.975033    4.081317   -0.111264
H         1.820017    5.234968   -1.440015
H         1.533478    2.082225    0.387633
H         0.954676    1.450824    3.192119
H         2.112451    0.325731    5.514498
H         2.994642   -0.781197    7.440206
H         3.686906   -2.382528    7.094342
H         2.109938   -2.255659    7.896138
H         1.887173   -3.967324    5.774403
H         0.501649   -6.253864    3.306678
H         0.379315   -5.560936    4.954262
H         1.972901   -5.651668    4.132562
H        -2.350803   -1.279782    1.180416
H        -4.034168   -1.084384    0.837347
H        -4.610109    2.555719   -1.563772
H         5.275067    1.737785   -2.282221
H         4.484022    0.284910   -4.002097
H         2.748654    0.920387   -3.918442
H        -2.078173    0.353152   -4.647161
H        -1.135644    0.999550   -3.291625
H        -2.724526   -1.296393   -1.624947
H        -5.158108   -0.653969   -1.639226
H        -5.078092   -2.428377   -1.827378
H        -6.043195   -1.466378   -2.985939
H         1.019878   -0.818045   -3.382136
H         1.900431   -0.517662   -0.717402
H         2.854527   -1.346350   -1.975445
H         1.774180   -2.280848   -0.892663
