-1 1
 OpenBabel05232414493D

 76 80  0  0  1  0  0  0  0  0999 V2000
    5.1322    7.1195    3.6070 O   0  0  0  0  0  0  0  0  0  0  0  0
    4.6854    6.7898    2.4867 C   0  0  0  0  0  0  0  0  0  0  0  0
    3.5531    7.5098    2.0117 N   0  0  0  0  0  0  0  0  0  0  0  0
    2.4973    6.9090    1.2105 C   0  0  0  0  0  0  0  0  0  0  0  0
    1.1786    7.5112    1.7384 C   0  0  0  0  0  0  0  0  0  0  0  0
    1.5506    8.1486    3.0838 C   0  0  2  0  0  0  0  0  0  0  0  0
    0.8956    8.9990    3.3188 H   0  0  0  0  0  0  0  0  0  0  0  0
    3.0006    8.5651    2.8321 C   0  0  0  0  0  0  0  0  0  0  0  0
    1.4178    7.2045    4.1944 N   0  0  0  0  0  0  0  0  0  0  0  0
    2.4055    6.5119    4.8488 C   0  0  0  0  0  0  0  0  0  0  0  0
    1.8497    5.6562    5.7781 C   0  0  0  0  0  0  0  0  0  0  0  0
    2.6472    4.7455    6.5928 C   0  0  0  0  0  0  0  0  0  0  0  0
    3.8467    4.9959    7.1922 C   0  0  0  0  0  0  0  0  0  0  0  0
    2.1650    3.0620    6.7894 S   0  0  0  0  0  0  0  0  0  0  0  0
    3.5819    2.7253    7.7379 C   0  0  0  0  0  0  0  0  0  0  0  0
    4.4127    3.8509    7.8541 C   0  0  0  0  0  0  0  0  0  0  0  0
    5.6223    3.7402    8.5709 C   0  0  0  0  0  0  0  0  0  0  0  0
    5.9770    2.5325    9.1489 C   0  0  0  0  0  0  0  0  0  0  0  0
    7.2694    2.3806    9.9104 C   0  0  0  0  0  0  0  0  0  0  0  0
    5.1226    1.4103    9.0236 C   0  0  0  0  0  0  0  0  0  0  0  0
    3.9263    1.4965    8.3229 C   0  0  0  0  0  0  0  0  0  0  0  0
    3.0457    0.4853    8.1467 O   0  0  0  0  0  0  0  0  0  0  0  0
    3.3564   -0.7784    8.6598 C   0  0  0  0  0  0  0  0  0  0  0  0
    0.2061    6.8058    4.6881 C   0  0  0  0  0  0  0  0  0  0  0  0
    0.4201    5.8391    5.6898 C   0  0  0  0  0  0  0  0  0  0  0  0
   -0.7605    5.3900    6.3321 C   0  0  1  0  0  3  0  0  0  0  0  0
   -0.7596    4.5327    7.3853 N   0  0  0  0  0  0  0  0  0  0  0  0
   -1.9517    5.8370    5.9214 N   0  0  0  0  0  0  0  0  0  0  0  0
   -1.9950    6.7346    4.9319 C   0  0  0  0  0  0  0  0  0  0  0  0
   -0.9799    7.2742    4.2826 N   0  0  0  0  0  2  0  0  0  0  0  0
    5.2738    5.7738    1.6932 C   0  0  0  0  0  3  0  0  0  0  0  0
    5.0695    5.4573    0.3178 C   0  0  0  0  0  0  0  0  0  0  0  0
    3.9742    3.7134   -0.1555 S   0  0  0  0  0  0  0  0  0  0  0  0
    2.6391    4.3031   -1.2502 C   0  0  0  0  0  0  0  0  0  0  0  0
    1.2582    3.6594   -0.9929 C   0  0  2  0  0  0  0  0  0  0  0  0
    1.3888    2.5641   -1.0247 H   0  0  0  0  0  0  0  0  0  0  0  0
    0.3081    4.0526   -2.0075 N   0  0  0  0  0  0  0  0  0  0  0  0
    0.2728    3.5237   -3.2508 C   0  0  0  0  0  0  0  0  0  0  0  0
   -0.8627    4.0224   -4.1305 C   0  0  0  0  0  0  0  0  0  0  0  0
    1.0861    2.7150   -3.6642 O   0  0  0  0  0  0  0  0  0  0  0  0
    0.6063    4.0397    0.3524 C   0  0  0  0  0  0  0  0  0  0  0  0
    1.2544    3.6128    1.4491 N   0  0  0  0  0  0  0  0  0  0  0  0
    0.8383    3.9550    2.7885 C   0  0  0  0  0  0  0  0  0  0  0  0
   -0.4478    4.6682    0.3738 O   0  0  0  0  0  0  0  0  0  0  0  0
    2.5306    5.8149    1.3119 H   0  0  0  0  0  0  0  0  0  0  0  0
    2.6007    7.1356    0.1346 H   0  0  0  0  0  0  0  0  0  0  0  0
    0.3648    6.7784    1.8150 H   0  0  0  0  0  0  0  0  0  0  0  0
    0.8263    8.3103    1.0684 H   0  0  0  0  0  0  0  0  0  0  0  0
    3.6154    8.6862    3.7321 H   0  0  0  0  0  0  0  0  0  0  0  0
    2.9823    9.5338    2.2950 H   0  0  0  0  0  0  0  0  0  0  0  0
    3.4644    6.6495    4.5906 H   0  0  0  0  0  0  0  0  0  0  0  0
    4.3210    5.9767    7.1605 H   0  0  0  0  0  0  0  0  0  0  0  0
    6.2781    4.6095    8.6578 H   0  0  0  0  0  0  0  0  0  0  0  0
    7.8259    3.3272    9.9481 H   0  0  0  0  0  0  0  0  0  0  0  0
    7.9199    1.6262    9.4397 H   0  0  0  0  0  0  0  0  0  0  0  0
    7.0859    2.0532   10.9463 H   0  0  0  0  0  0  0  0  0  0  0  0
    5.4245    0.4688    9.4854 H   0  0  0  0  0  0  0  0  0  0  0  0
    2.5279   -1.4428    8.3854 H   0  0  0  0  0  0  0  0  0  0  0  0
    3.4525   -0.7610    9.7600 H   0  0  0  0  0  0  0  0  0  0  0  0
    4.2919   -1.1750    8.2278 H   0  0  0  0  0  0  0  0  0  0  0  0
    0.0781    4.0320    7.6508 H   0  0  0  0  0  0  0  0  0  0  0  0
   -1.6594    4.1809    7.6798 H   0  0  0  0  0  0  0  0  0  0  0  0
   -2.9977    7.0630    4.6326 H   0  0  0  0  0  0  0  0  0  0  0  0
    6.0834    5.2588    2.2159 H   0  0  0  0  0  0  0  0  0  0  0  0
    5.9714    5.1329   -0.2113 H   0  0  0  0  0  0  0  0  0  0  0  0
    4.5122    6.1796   -0.2907 H   0  0  0  0  0  0  0  0  0  0  0  0
    2.8912    4.0738   -2.2944 H   0  0  0  0  0  0  0  0  0  0  0  0
    2.5443    5.3961   -1.1571 H   0  0  0  0  0  0  0  0  0  0  0  0
   -0.4506    4.6247   -1.6432 H   0  0  0  0  0  0  0  0  0  0  0  0
   -1.4268    3.1539   -4.4984 H   0  0  0  0  0  0  0  0  0  0  0  0
   -0.4291    4.5263   -5.0062 H   0  0  0  0  0  0  0  0  0  0  0  0
   -1.5473    4.7131   -3.6195 H   0  0  0  0  0  0  0  0  0  0  0  0
    2.2254    3.3169    1.3010 H   0  0  0  0  0  0  0  0  0  0  0  0
    1.5815    4.6049    3.2737 H   0  0  0  0  0  0  0  0  0  0  0  0
    0.7209    3.0519    3.4074 H   0  0  0  0  0  0  0  0  0  0  0  0
   -0.1234    4.4812    2.7427 H   0  0  0  0  0  0  0  0  0  0  0  0
  2  1  2  0  0  0  0
  3  2  1  0  0  0  0
  3  8  1  0  0  0  0
  4 45  1  0  0  0  0
  4  5  1  0  0  0  0
  4  3  1  0  0  0  0
  5 47  1  0  0  0  0
  5  6  1  0  0  0  0
  6  7  1  1  0  0  0
  6  9  1  0  0  0  0
  8  6  1  0  0  0  0
  8 49  1  0  0  0  0
  9 24  1  0  0  0  0
  9 10  1  0  0  0  0
 10 11  2  0  0  0  0
 11 12  1  0  0  0  0
 12 14  1  0  0  0  0
 12 13  2  0  0  0  0
 13 16  1  0  0  0  0
 14 15  1  0  0  0  0
 15 16  2  0  0  0  0
 15 21  1  0  0  0  0
 16 17  1  0  0  0  0
 17 53  1  0  0  0  0
 17 18  2  0  0  0  0
 18 19  1  0  0  0  0
 19 54  1  0  0  0  0
 19 56  1  0  0  0  0
 20 18  1  0  0  0  0
 20 57  1  0  0  0  0
 21 20  2  0  0  0  0
 22 21  1  0  0  0  0
 22 23  1  0  0  0  0
 23 59  1  0  0  0  0
 24 25  2  0  0  0  0
 25 11  1  0  0  0  0
 25 26  1  0  0  0  0
 26 27  1  1  0  0  0
 27 61  1  0  0  0  0
 27 62  1  0  0  0  0
 28 26  1  0  0  0  0
 29 28  2  0  0  0  0
 30 24  1  0  0  0  0
 30 29  1  0  0  0  0
 31 64  1  0  0  0  0
 31  2  1  0  0  0  0
 32 31  1  0  0  0  0
 33 32  1  0  0  0  0
 34 68  1  0  0  0  0
 34 35  1  0  0  0  0
 34 33  1  0  0  0  0
 35 36  1  6  0  0  0
 35 41  1  0  0  0  0
 37 69  1  0  0  0  0
 37 35  1  0  0  0  0
 38 37  1  0  0  0  0
 39 72  1  0  0  0  0
 39 38  1  0  0  0  0
 40 38  2  0  0  0  0
 41 44  2  0  0  0  0
 41 42  1  0  0  0  0
 42 43  1  0  0  0  0
 43 74  1  0  0  0  0
 43 75  1  0  0  0  0
 46  4  1  0  0  0  0
 48  5  1  0  0  0  0
 50  8  1  0  0  0  0
 51 10  1  0  0  0  0
 52 13  1  0  0  0  0
 55 19  1  0  0  0  0
 58 23  1  0  0  0  0
 60 23  1  0  0  0  0
 63 29  1  0  0  0  0
 65 32  1  0  0  0  0
 66 32  1  0  0  0  0
 67 34  1  0  0  0  0
 70 39  1  0  0  0  0
 71 39  1  0  0  0  0
 73 42  1  0  0  0  0
 76 43  1  0  0  0  0
M  END
