74
-1 1
O         0.647572   -0.275459   -1.672415
C         1.388811   -0.816104   -0.857736
C         0.779980   -1.743264    0.221915
C         1.716405   -2.660766    1.032485
S         3.126280   -1.946461    1.948298
C         2.601600    0.214399    2.645850
C         1.317497    0.482195    3.096778
F         0.979935    0.006299    4.323833
C         0.200183    0.887104    2.304897
N         0.479813    1.470805    1.024600
C         1.314758    2.481919    0.629917
C         2.109780    3.231254    1.527807
C         2.916652    4.254155    1.064040
C         2.952386    4.558338   -0.301252
S         3.986641    5.860118   -0.873004
O         3.878392    5.918001   -2.334774
N         3.266684    7.213241   -0.174202
C         4.121750    8.349224    0.148387
C         4.229413    9.334377   -1.015105
N         2.899741    9.702423   -1.474117
C         2.050878    8.581975   -1.847854
C         1.953148    7.593781   -0.686299
C         2.400717   10.969317   -1.502749
O         3.318557   11.865318   -1.096485
C         3.025505   13.280057   -1.035320
C         1.896870   13.544802   -0.038894
C         4.334933   13.880559   -0.530789
C         2.694135   13.813903   -2.428787
O         1.272079   11.249125   -1.852387
O         5.316078    5.780929   -0.269320
C         2.175040    3.829889   -1.205627
C         1.367452    2.804343   -0.745181
O        -0.977050    0.702326    2.588488
N        -0.236232   -2.584995   -0.374143
C        -1.546093   -2.305351   -0.651922
C        -2.096855   -0.984568   -0.166713
O        -2.225277   -3.103537   -1.273813
H         0.280274   -1.070481    0.929080
N         2.721882   -0.638169   -0.831364
C         3.414922    0.236190   -1.743517
H         1.066095   -3.197926    1.737021
H         2.136814   -3.416810    0.345865
H        -0.226966    1.212603    0.343462
H         2.081752    2.992261    2.590289
H         3.524272    4.829101    1.765674
H         5.111161    7.976704    0.441705
H         3.673268    8.859082    1.018320
H         4.781247    8.861627   -1.846727
H         4.771279   10.234513   -0.709145
H         2.482965    8.071816   -2.724470
H         1.061954    8.973367   -2.112691
H         1.402289    6.691124   -0.986634
H         1.396088    8.053744    0.147342
H         0.955232   13.106917   -0.391149
H         1.762441   14.629300    0.089693
H         2.146890   13.110711    0.940996
H         5.155497   13.654260   -1.227187
H         4.593477   13.467347    0.455131
H         4.243356   14.972691   -0.439657
H         1.759569   13.377205   -2.800742
H         3.505491   13.569237   -3.130796
H         2.589476   14.908641   -2.391050
H         2.223687    4.063796   -2.270502
H         0.794640    2.194115   -1.447317
H         0.083793   -3.439158   -0.818014
H        -1.673051   -0.193395   -0.802492
H        -1.844338   -0.754573    0.879323
H        -3.185724   -1.007098   -0.288132
H         3.235254   -1.047691   -0.037757
H         4.275877   -0.280941   -2.194772
H         3.779322    1.145670   -1.238489
H         2.720179    0.536332   -2.537840
H         2.918645    0.685069    1.716647
H         3.384321    0.103039    3.397518
