-1 1
 OpenBabel05192410563D

 74 75  0  0  1  0  0  0  0  0999 V2000
   -1.4951   -4.6669   -1.6288 O   0  0  0  0  0  0  0  0  0  0  0  0
   -0.7445   -5.1585   -0.7956 C   0  0  0  0  0  0  0  0  0  0  0  0
   -1.3651   -5.8701    0.4268 C   0  0  2  0  0  0  0  0  0  0  0  0
   -0.4984   -6.4751    1.5551 C   0  0  0  0  0  0  0  0  0  0  0  0
    1.0713   -5.7334    2.1091 S   0  0  0  0  0  0  0  0  0  0  0  0
    0.6655   -3.9092    2.4432 C   0  0  0  0  0  0  0  0  0  0  0  0
   -0.7024   -3.6317    2.8783 C   0  0  2  0  0  3  0  0  0  0  0  0
   -1.0289   -4.2398    4.0660 F   0  0  0  0  0  0  0  0  0  0  0  0
   -1.7687   -3.2247    2.0880 C   0  0  0  0  0  0  0  0  0  0  0  0
   -1.4135   -2.6259    0.8024 N   0  0  0  0  0  0  0  0  0  0  0  0
   -0.6141   -1.5846    0.4690 C   0  0  0  0  0  0  0  0  0  0  0  0
    0.1323   -0.8415    1.4210 C   0  0  0  0  0  0  0  0  0  0  0  0
    0.9322    0.2101    1.0208 C   0  0  0  0  0  0  0  0  0  0  0  0
    1.0249    0.5553   -0.3348 C   0  0  0  0  0  0  0  0  0  0  0  0
    2.0544    1.8857   -0.8230 S   0  0  0  0  0  0  0  0  0  0  0  0
    1.9920    2.0028   -2.2853 O   0  0  0  0  0  0  0  0  0  0  0  0
    1.2983    3.2067   -0.0940 N   0  0  0  0  0  0  0  0  0  0  0  0
    2.1287    4.3523    0.2553 C   0  0  0  0  0  0  0  0  0  0  0  0
    2.2286    5.3603   -0.8893 C   0  0  0  0  0  0  0  0  0  0  0  0
    0.8960    5.7144   -1.3517 N   0  0  0  0  0  0  0  0  0  0  0  0
    0.0690    4.5859   -1.7512 C   0  0  0  0  0  0  0  0  0  0  0  0
   -0.0173    3.5736   -0.6093 C   0  0  0  0  0  0  0  0  0  0  0  0
    0.3765    6.9724   -1.3632 C   0  0  0  0  0  0  0  0  0  0  0  0
    1.2767    7.8775   -0.9356 O   0  0  0  0  0  0  0  0  0  0  0  0
    0.9586    9.2849   -0.8513 C   0  0  0  0  0  0  0  0  0  0  0  0
   -0.1802    9.5127    0.1429 C   0  0  0  0  0  0  0  0  0  0  0  0
    2.2543    9.8993   -0.3282 C   0  0  0  0  0  0  0  0  0  0  0  0
    0.6260    9.8384   -2.2369 C   0  0  0  0  0  0  0  0  0  0  0  0
   -0.7541    7.2407   -1.7164 O   0  0  0  0  0  0  0  0  0  0  0  0
    3.3700    1.8091   -0.1870 O   0  0  0  0  0  0  0  0  0  0  0  0
    0.3009   -0.1646   -1.2928 C   0  0  0  0  0  0  0  0  0  0  0  0
   -0.5046   -1.2161   -0.8979 C   0  0  0  0  0  0  0  0  0  0  0  0
   -2.9837   -3.3795    2.2874 O   0  0  0  0  0  0  0  0  0  0  0  0
   -2.2753   -6.9021   -0.0201 N   0  0  0  0  0  0  0  0  0  0  0  0
   -3.6146   -6.7917   -0.2992 C   0  0  0  0  0  0  0  0  0  0  0  0
   -4.2720   -5.4599   -0.0290 C   0  0  0  0  0  0  0  0  0  0  0  0
   -4.2173   -7.7435   -0.7624 O   0  0  0  0  0  0  0  0  0  0  0  0
   -1.9849   -5.0974    0.8905 H   0  0  0  0  0  0  0  0  0  0  0  0
    0.5984   -5.1081   -0.9005 N   0  0  0  0  0  0  0  0  0  0  0  0
    1.2442   -4.3515   -1.9465 C   0  0  0  0  0  0  0  0  0  0  0  0
   -1.1572   -6.5691    2.4289 H   0  0  0  0  0  0  0  0  0  0  0  0
   -0.1877   -7.4935    1.2704 H   0  0  0  0  0  0  0  0  0  0  0  0
   -2.0488   -2.9334    0.0719 H   0  0  0  0  0  0  0  0  0  0  0  0
    0.0559   -1.1185    2.4728 H   0  0  0  0  0  0  0  0  0  0  0  0
    1.4949    0.7787    1.7642 H   0  0  0  0  0  0  0  0  0  0  0  0
    3.1223    3.9930    0.5509 H   0  0  0  0  0  0  0  0  0  0  0  0
    1.6638    4.8390    1.1301 H   0  0  0  0  0  0  0  0  0  0  0  0
    2.7935    4.9114   -1.7252 H   0  0  0  0  0  0  0  0  0  0  0  0
    2.7533    6.2635   -0.5632 H   0  0  0  0  0  0  0  0  0  0  0  0
    0.5153    4.1010   -2.6349 H   0  0  0  0  0  0  0  0  0  0  0  0
   -0.9252    4.9651   -2.0139 H   0  0  0  0  0  0  0  0  0  0  0  0
   -0.5488    2.6666   -0.9307 H   0  0  0  0  0  0  0  0  0  0  0  0
   -0.5894    4.0071    0.2285 H   0  0  0  0  0  0  0  0  0  0  0  0
   -1.1121    9.0654   -0.2230 H   0  0  0  0  0  0  0  0  0  0  0  0
   -0.3337   10.5923    0.2903 H   0  0  0  0  0  0  0  0  0  0  0  0
    0.0714    9.0649    1.1162 H   0  0  0  0  0  0  0  0  0  0  0  0
    3.0827    9.6995   -1.0234 H   0  0  0  0  0  0  0  0  0  0  0  0
    2.5143    9.4730    0.6518 H   0  0  0  0  0  0  0  0  0  0  0  0
    2.1432   10.9879   -0.2183 H   0  0  0  0  0  0  0  0  0  0  0  0
   -0.2985    9.3920   -2.6222 H   0  0  0  0  0  0  0  0  0  0  0  0
    1.4455    9.6205   -2.9382 H   0  0  0  0  0  0  0  0  0  0  0  0
    0.5020   10.9303   -2.1801 H   0  0  0  0  0  0  0  0  0  0  0  0
    0.3872    0.1053   -2.3469 H   0  0  0  0  0  0  0  0  0  0  0  0
   -1.0517   -1.8017   -1.6408 H   0  0  0  0  0  0  0  0  0  0  0  0
   -1.8769   -7.7802   -0.3350 H   0  0  0  0  0  0  0  0  0  0  0  0
   -3.9117   -4.7462   -0.7848 H   0  0  0  0  0  0  0  0  0  0  0  0
   -4.0294   -5.0302    0.9560 H   0  0  0  0  0  0  0  0  0  0  0  0
   -5.3551   -5.5920   -0.1314 H   0  0  0  0  0  0  0  0  0  0  0  0
    1.1457   -5.3911   -0.0844 H   0  0  0  0  0  0  0  0  0  0  0  0
    2.2279   -4.7888   -2.1678 H   0  0  0  0  0  0  0  0  0  0  0  0
    1.3810   -3.2936   -1.6650 H   0  0  0  0  0  0  0  0  0  0  0  0
    0.6208   -4.3836   -2.8493 H   0  0  0  0  0  0  0  0  0  0  0  0
    0.9033   -3.3713    1.5195 H   0  0  0  0  0  0  0  0  0  0  0  0
    1.4309   -3.6609    3.1963 H   0  0  0  0  0  0  0  0  0  0  0  0
  1  2  2  0  0  0  0
  2  3  1  0  0  0  0
  3 38  1  1  0  0  0
  3  4  1  0  0  0  0
  4  5  1  0  0  0  0
  4 41  1  0  0  0  0
  5  6  1  0  0  0  0
  6  7  1  0  0  0  0
  6 74  1  0  0  0  0
  7  8  1  6  0  0  0
  9 33  2  0  0  0  0
  9  7  1  0  0  0  0
 10  9  1  0  0  0  0
 11 10  1  0  0  0  0
 11 12  1  0  0  0  0
 12 44  1  0  0  0  0
 13 12  2  0  0  0  0
 13 45  1  0  0  0  0
 14 13  1  0  0  0  0
 15 14  1  0  0  0  0
 15 30  2  0  0  0  0
 15 17  1  0  0  0  0
 16 15  2  0  0  0  0
 17 18  1  0  0  0  0
 18 46  1  0  0  0  0
 18 47  1  0  0  0  0
 19 49  1  0  0  0  0
 19 18  1  0  0  0  0
 20 19  1  0  0  0  0
 21 20  1  0  0  0  0
 21 22  1  0  0  0  0
 22 17  1  0  0  0  0
 22 53  1  0  0  0  0
 23 20  1  0  0  0  0
 23 24  1  0  0  0  0
 24 25  1  0  0  0  0
 25 27  1  0  0  0  0
 25 26  1  0  0  0  0
 26 55  1  0  0  0  0
 26 56  1  0  0  0  0
 27 59  1  0  0  0  0
 27 58  1  0  0  0  0
 28 62  1  0  0  0  0
 28 25  1  0  0  0  0
 29 23  2  0  0  0  0
 31 32  1  0  0  0  0
 31 14  2  0  0  0  0
 32 11  2  0  0  0  0
 34  3  1  0  0  0  0
 35 36  1  0  0  0  0
 35 34  1  0  0  0  0
 36 67  1  0  0  0  0
 37 35  2  0  0  0  0
 39  2  1  0  0  0  0
 39 69  1  0  0  0  0
 40 71  1  0  0  0  0
 40 39  1  0  0  0  0
 42  4  1  0  0  0  0
 43 10  1  0  0  0  0
 48 19  1  0  0  0  0
 50 21  1  0  0  0  0
 51 21  1  0  0  0  0
 52 22  1  0  0  0  0
 54 26  1  0  0  0  0
 57 27  1  0  0  0  0
 60 28  1  0  0  0  0
 61 28  1  0  0  0  0
 63 31  1  0  0  0  0
 64 32  1  0  0  0  0
 65 34  1  0  0  0  0
 66 36  1  0  0  0  0
 68 36  1  0  0  0  0
 70 40  1  0  0  0  0
 72 40  1  0  0  0  0
 73  6  1  0  0  0  0
M  END
