-1 1
 OpenBabel05192410563D

 40 39  0  0  1  0  0  0  0  0999 V2000
    2.1692    3.2205    2.3844 O   0  0  0  0  0  0  0  0  0  0  0  0
    1.7346    2.6366    1.3980 C   0  0  0  0  0  0  0  0  0  0  0  0
    1.3662    1.1458    1.4530 C   0  0  2  0  0  0  0  0  0  0  0  0
   -0.1322    0.8795    1.1878 C   0  0  0  0  0  0  0  0  0  0  0  0
   -0.7085    1.1343   -0.5071 S   0  0  0  0  0  0  0  0  0  0  0  0
   -0.1681   -0.6760   -1.1963 C   0  0  1  0  0  0  0  0  0  0  0  0
   -0.6193   -1.7917   -0.3959 C   0  0  0  0  0  3  0  0  0  0  0  0
   -1.8961   -2.3383   -0.6132 C   0  0  0  0  0  0  0  0  0  0  0  0
   -2.2006   -3.3763    0.2558 O   0  0  0  0  0  0  0  0  0  0  0  0
   -3.4391   -3.9850    0.0443 C   0  0  0  0  0  0  0  0  0  0  0  0
   -2.7260   -2.0182   -1.4691 O   0  0  0  0  0  0  0  0  0  0  0  0
   -0.6061   -0.7202   -2.6495 C   0  0  0  0  0  0  0  0  0  0  0  0
   -1.4896    0.2293   -2.9926 O   0  0  0  0  0  0  0  0  0  0  0  0
   -2.1350    0.0404   -4.2281 C   0  0  0  0  0  0  0  0  0  0  0  0
   -0.1734   -1.5117   -3.4474 O   0  0  0  0  0  0  0  0  0  0  0  0
    1.7688    0.6734    2.7557 N   0  0  0  0  0  0  0  0  0  0  0  0
    2.1984   -0.5937    2.9770 C   0  0  0  0  0  0  0  0  0  0  0  0
    2.6270   -0.8835    4.4065 C   0  0  0  0  0  0  0  0  0  0  0  0
    2.2157   -1.4566    2.1200 O   0  0  0  0  0  0  0  0  0  0  0  0
    1.9451    0.5999    0.6897 H   0  0  0  0  0  0  0  0  0  0  0  0
    1.5445    3.2254    0.1997 N   0  0  0  0  0  0  0  0  0  0  0  0
    1.7195    4.6405    0.0036 C   0  0  0  0  0  0  0  0  0  0  0  0
   -0.3399   -0.1818    1.4153 H   0  0  0  0  0  0  0  0  0  0  0  0
   -0.7436    1.4959    1.8644 H   0  0  0  0  0  0  0  0  0  0  0  0
   -4.2790   -3.2786    0.1638 H   0  0  0  0  0  0  0  0  0  0  0  0
   -3.5254   -4.4181   -0.9675 H   0  0  0  0  0  0  0  0  0  0  0  0
   -3.5307   -4.7878    0.7921 H   0  0  0  0  0  0  0  0  0  0  0  0
   -2.6978   -0.9050   -4.2082 H   0  0  0  0  0  0  0  0  0  0  0  0
   -1.4159    0.0122   -5.0617 H   0  0  0  0  0  0  0  0  0  0  0  0
   -2.8246    0.8851   -4.3514 H   0  0  0  0  0  0  0  0  0  0  0  0
    1.9544    1.4135    3.4256 H   0  0  0  0  0  0  0  0  0  0  0  0
    2.8226    0.0227    4.9972 H   0  0  0  0  0  0  0  0  0  0  0  0
    3.5260   -1.5131    4.3824 H   0  0  0  0  0  0  0  0  0  0  0  0
    1.8296   -1.4603    4.8985 H   0  0  0  0  0  0  0  0  0  0  0  0
    0.9872    2.6872   -0.4756 H   0  0  0  0  0  0  0  0  0  0  0  0
    2.3335    5.0339    0.8238 H   0  0  0  0  0  0  0  0  0  0  0  0
    0.7560    5.1783    0.0025 H   0  0  0  0  0  0  0  0  0  0  0  0
    2.2263    4.8382   -0.9532 H   0  0  0  0  0  0  0  0  0  0  0  0
    0.9275   -0.6025   -1.1913 H   0  0  0  0  0  0  0  0  0  0  0  0
    0.0373   -2.2058    0.3680 H   0  0  0  0  0  0  0  0  0  0  0  0
  2  3  1  0  0  0  0
  2  1  2  0  0  0  0
  3 20  1  6  0  0  0
  3 16  1  0  0  0  0
  4 23  1  0  0  0  0
  4  3  1  0  0  0  0
  4 24  1  0  0  0  0
  5  4  1  0  0  0  0
  6 39  1  1  0  0  0
  6  5  1  0  0  0  0
  6  7  1  0  0  0  0
  7 40  1  0  0  0  0
  8  7  1  0  0  0  0
  8  9  1  0  0  0  0
 10 25  1  0  0  0  0
 10  9  1  0  0  0  0
 10 27  1  0  0  0  0
 11  8  2  0  0  0  0
 12  6  1  0  0  0  0
 13 12  1  0  0  0  0
 14 28  1  0  0  0  0
 14 13  1  0  0  0  0
 15 12  2  0  0  0  0
 16 17  1  0  0  0  0
 16 31  1  0  0  0  0
 17 18  1  0  0  0  0
 18 34  1  0  0  0  0
 18 32  1  0  0  0  0
 19 17  2  0  0  0  0
 21  2  1  0  0  0  0
 22 21  1  0  0  0  0
 22 36  1  0  0  0  0
 26 10  1  0  0  0  0
 29 14  1  0  0  0  0
 30 14  1  0  0  0  0
 33 18  1  0  0  0  0
 35 21  1  0  0  0  0
 37 22  1  0  0  0  0
 38 22  1  0  0  0  0
M  END
