40
-1 1
O         2.470108    3.267357    3.007767
C         2.269309    2.974408    1.828902
C         1.529018    1.679417    1.451377
C         0.280374    1.926524    0.573947
S         0.642823    2.417574   -1.151637
C        -0.617351   -0.842283   -1.815550
C        -0.574233   -1.757346   -0.839967
C        -1.333584   -3.022773   -0.932505
O        -1.210702   -3.754690    0.189576
C        -1.897537   -4.984769    0.202864
O        -1.994858   -3.401270   -1.872226
C        -1.386483   -1.000786   -3.085477
O        -2.678714   -0.687929   -2.926052
C        -3.492293   -0.854497   -4.066424
O        -0.902567   -1.303238   -4.144207
N         1.211303    1.039484    2.710982
C         0.998010   -0.281194    2.857237
C         0.771298   -0.747384    4.287648
O         0.967689   -1.078681    1.932176
H         2.208994    1.030793    0.872471
N         2.657995    3.724566    0.786947
C         3.249553    5.022933    0.957839
H        -0.283722    0.980441    0.577564
H        -0.352852    2.677515    1.078452
H        -2.982266   -4.837632    0.083836
H        -1.553993   -5.642526   -0.610530
H        -1.686337   -5.447671    1.174529
H        -3.520141   -1.912870   -4.367697
H        -3.120646   -0.258267   -4.913288
H        -4.496932   -0.518759   -3.781921
H         1.399105    1.633886    3.515384
H         0.894906    0.047466    5.036308
H         1.470711   -1.567270    4.503059
H        -0.246611   -1.156869    4.361329
H         2.233942    3.458691   -0.128033
H         3.622541    5.112341    1.986770
H         2.519754    5.832345    0.781685
H         4.087569    5.161573    0.256709
H        -0.052385    0.106984   -1.724757
H         0.017504   -1.586063    0.065021
