-1 1
 OpenBabel05232414493D

 40 38  0  0  1  0  0  0  0  0999 V2000
    3.9541    3.1334    2.5355 O   0  0  0  0  0  0  0  0  0  0  0  0
    3.5388    2.6226    1.5000 C   0  0  0  0  0  0  0  0  0  0  0  0
    3.0898    1.1537    1.4612 C   0  0  2  0  0  0  0  0  0  0  0  0
    1.5988    0.9833    1.0908 C   0  0  0  0  0  0  0  0  0  0  0  0
    1.1500    1.3466   -0.6221 S   0  0  0  0  0  1  0  0  0  0  0  0
    1.6595   -0.7309   -1.3573 C   0  0  0  0  0  3  0  0  0  0  0  0
    1.2655   -1.7461   -0.4723 C   0  0  0  0  0  3  0  0  0  0  0  0
   -0.0075   -2.3824   -0.5755 C   0  0  0  0  0  0  0  0  0  0  0  0
   -0.2263   -3.2761    0.4485 O   0  0  0  0  0  0  0  0  0  0  0  0
   -1.4356   -3.9777    0.3846 C   0  0  0  0  0  0  0  0  0  0  0  0
   -0.8593   -2.2424   -1.4440 O   0  0  0  0  0  0  0  0  0  0  0  0
    1.0970   -0.7397   -2.7573 C   0  0  0  0  0  0  0  0  0  0  0  0
    0.0627    0.0777   -2.9673 O   0  0  0  0  0  0  0  0  0  0  0  0
   -0.6302   -0.1155   -4.1756 C   0  0  0  0  0  0  0  0  0  0  0  0
    1.5685   -1.4239   -3.6331 O   0  0  0  0  0  0  0  0  0  0  0  0
    3.3899    0.6048    2.7629 N   0  0  0  0  0  0  0  0  0  0  0  0
    3.7360   -0.6892    2.9592 C   0  0  0  0  0  0  0  0  0  0  0  0
    4.0725   -1.0521    4.3971 C   0  0  0  0  0  0  0  0  0  0  0  0
    3.7554   -1.5264    2.0752 O   0  0  0  0  0  0  0  0  0  0  0  0
    3.6841    0.6123    0.7065 H   0  0  0  0  0  0  0  0  0  0  0  0
    3.4384    3.2757    0.3258 N   0  0  0  0  0  0  0  0  0  0  0  0
    3.6839    4.6889    0.2142 C   0  0  0  0  0  0  0  0  0  0  0  0
    1.3378   -0.0782    1.2608 H   0  0  0  0  0  0  0  0  0  0  0  0
    0.9820    1.5874    1.7749 H   0  0  0  0  0  0  0  0  0  0  0  0
   -2.3072   -3.3027    0.4220 H   0  0  0  0  0  0  0  0  0  0  0  0
   -1.5215   -4.5696   -0.5423 H   0  0  0  0  0  0  0  0  0  0  0  0
   -1.4563   -4.6515    1.2533 H   0  0  0  0  0  0  0  0  0  0  0  0
   -1.0644   -1.1267   -4.1992 H   0  0  0  0  0  0  0  0  0  0  0  0
    0.0304    0.0092   -5.0477 H   0  0  0  0  0  0  0  0  0  0  0  0
   -1.4303    0.6349   -4.1964 H   0  0  0  0  0  0  0  0  0  0  0  0
    3.5786    1.3082    3.4709 H   0  0  0  0  0  0  0  0  0  0  0  0
    4.2424   -0.1787    5.0425 H   0  0  0  0  0  0  0  0  0  0  0  0
    4.9641   -1.6931    4.3974 H   0  0  0  0  0  0  0  0  0  0  0  0
    3.2403   -1.6414    4.8099 H   0  0  0  0  0  0  0  0  0  0  0  0
    2.8716    2.7998   -0.3924 H   0  0  0  0  0  0  0  0  0  0  0  0
    4.2817    5.0102    1.0770 H   0  0  0  0  0  0  0  0  0  0  0  0
    2.7459    5.2704    0.2064 H   0  0  0  0  0  0  0  0  0  0  0  0
    4.2360    4.9136   -0.7113 H   0  0  0  0  0  0  0  0  0  0  0  0
    2.7371   -0.5519   -1.3907 H   0  0  0  0  0  0  0  0  0  0  0  0
    1.9351   -2.0399    0.3363 H   0  0  0  0  0  0  0  0  0  0  0  0
  2  1  2  0  0  0  0
  3 20  1  6  0  0  0
  3  2  1  0  0  0  0
  3 16  1  0  0  0  0
  4 23  1  0  0  0  0
  4  3  1  0  0  0  0
  4 24  1  0  0  0  0
  5  4  1  0  0  0  0
  6  7  1  0  0  0  0
  7 40  1  0  0  0  0
  8  7  1  0  0  0  0
  8  9  1  0  0  0  0
 10 25  1  0  0  0  0
 10  9  1  0  0  0  0
 10 27  1  0  0  0  0
 11  8  2  0  0  0  0
 12  6  1  0  0  0  0
 13 12  1  0  0  0  0
 14 13  1  0  0  0  0
 15 12  2  0  0  0  0
 16 17  1  0  0  0  0
 16 31  1  0  0  0  0
 17 18  1  0  0  0  0
 18 33  1  0  0  0  0
 18 34  1  0  0  0  0
 18 32  1  0  0  0  0
 19 17  2  0  0  0  0
 21  2  1  0  0  0  0
 22 21  1  0  0  0  0
 22 36  1  0  0  0  0
 26 10  1  0  0  0  0
 28 14  1  0  0  0  0
 29 14  1  0  0  0  0
 30 14  1  0  0  0  0
 35 21  1  0  0  0  0
 37 22  1  0  0  0  0
 38 22  1  0  0  0  0
 39  6  1  0  0  0  0
M  END
