-1 1
 OpenBabel05232413483D

 40 38  0  0  1  0  0  0  0  0999 V2000
    2.4701    3.2674    3.0078 O   0  0  0  0  0  0  0  0  0  0  0  0
    2.2693    2.9744    1.8289 C   0  0  0  0  0  0  0  0  0  0  0  0
    1.5290    1.6794    1.4514 C   0  0  2  0  0  0  0  0  0  0  0  0
    0.2804    1.9265    0.5739 C   0  0  0  0  0  0  0  0  0  0  0  0
    0.6428    2.4176   -1.1516 S   0  0  0  0  0  1  0  0  0  0  0  0
   -0.6174   -0.8423   -1.8155 C   0  0  0  0  0  0  0  0  0  0  0  0
   -0.5742   -1.7573   -0.8400 C   0  0  0  0  0  0  0  0  0  0  0  0
   -1.3336   -3.0228   -0.9325 C   0  0  0  0  0  0  0  0  0  0  0  0
   -1.2107   -3.7547    0.1896 O   0  0  0  0  0  0  0  0  0  0  0  0
   -1.8975   -4.9848    0.2029 C   0  0  0  0  0  0  0  0  0  0  0  0
   -1.9949   -3.4013   -1.8722 O   0  0  0  0  0  0  0  0  0  0  0  0
   -1.3865   -1.0008   -3.0855 C   0  0  0  0  0  0  0  0  0  0  0  0
   -2.6787   -0.6879   -2.9261 O   0  0  0  0  0  0  0  0  0  0  0  0
   -3.4923   -0.8545   -4.0664 C   0  0  0  0  0  0  0  0  0  0  0  0
   -0.9026   -1.3032   -4.1442 O   0  0  0  0  0  0  0  0  0  0  0  0
    1.2113    1.0395    2.7110 N   0  0  0  0  0  0  0  0  0  0  0  0
    0.9980   -0.2812    2.8572 C   0  0  0  0  0  0  0  0  0  0  0  0
    0.7713   -0.7474    4.2876 C   0  0  0  0  0  0  0  0  0  0  0  0
    0.9677   -1.0787    1.9322 O   0  0  0  0  0  0  0  0  0  0  0  0
    2.2090    1.0308    0.8725 H   0  0  0  0  0  0  0  0  0  0  0  0
    2.6580    3.7246    0.7869 N   0  0  0  0  0  0  0  0  0  0  0  0
    3.2496    5.0229    0.9578 C   0  0  0  0  0  0  0  0  0  0  0  0
   -0.2837    0.9804    0.5776 H   0  0  0  0  0  0  0  0  0  0  0  0
   -0.3529    2.6775    1.0785 H   0  0  0  0  0  0  0  0  0  0  0  0
   -2.9823   -4.8376    0.0838 H   0  0  0  0  0  0  0  0  0  0  0  0
   -1.5540   -5.6425   -0.6105 H   0  0  0  0  0  0  0  0  0  0  0  0
   -1.6863   -5.4477    1.1745 H   0  0  0  0  0  0  0  0  0  0  0  0
   -3.5201   -1.9129   -4.3677 H   0  0  0  0  0  0  0  0  0  0  0  0
   -3.1206   -0.2583   -4.9133 H   0  0  0  0  0  0  0  0  0  0  0  0
   -4.4969   -0.5188   -3.7819 H   0  0  0  0  0  0  0  0  0  0  0  0
    1.3991    1.6339    3.5154 H   0  0  0  0  0  0  0  0  0  0  0  0
    0.8949    0.0475    5.0363 H   0  0  0  0  0  0  0  0  0  0  0  0
    1.4707   -1.5673    4.5031 H   0  0  0  0  0  0  0  0  0  0  0  0
   -0.2466   -1.1569    4.3613 H   0  0  0  0  0  0  0  0  0  0  0  0
    2.2339    3.4587   -0.1280 H   0  0  0  0  0  0  0  0  0  0  0  0
    3.6225    5.1123    1.9868 H   0  0  0  0  0  0  0  0  0  0  0  0
    2.5198    5.8323    0.7817 H   0  0  0  0  0  0  0  0  0  0  0  0
    4.0876    5.1616    0.2567 H   0  0  0  0  0  0  0  0  0  0  0  0
   -0.0524    0.1070   -1.7248 H   0  0  0  0  0  0  0  0  0  0  0  0
    0.0175   -1.5861    0.0650 H   0  0  0  0  0  0  0  0  0  0  0  0
  2  1  2  0  0  0  0
  3 20  1  6  0  0  0
  3  2  1  0  0  0  0
  3 16  1  0  0  0  0
  4 23  1  0  0  0  0
  4 24  1  0  0  0  0
  4  3  1  0  0  0  0
  5  4  1  0  0  0  0
  6 39  1  0  0  0  0
  6  7  2  0  0  0  0
  7 40  1  0  0  0  0
  8  7  1  0  0  0  0
  8  9  1  0  0  0  0
  9 10  1  0  0  0  0
 10 27  1  0  0  0  0
 11  8  2  0  0  0  0
 12 13  1  0  0  0  0
 12  6  1  0  0  0  0
 14 30  1  0  0  0  0
 14 13  1  0  0  0  0
 15 12  2  0  0  0  0
 16 17  1  0  0  0  0
 16 31  1  0  0  0  0
 17 18  1  0  0  0  0
 18 34  1  0  0  0  0
 18 33  1  0  0  0  0
 18 32  1  0  0  0  0
 19 17  2  0  0  0  0
 21 22  1  0  0  0  0
 21  2  1  0  0  0  0
 22 36  1  0  0  0  0
 25 10  1  0  0  0  0
 26 10  1  0  0  0  0
 28 14  1  0  0  0  0
 29 14  1  0  0  0  0
 35 21  1  0  0  0  0
 37 22  1  0  0  0  0
 38 22  1  0  0  0  0
M  END
