-1 1
 OpenBabel05232414493D

 45 45  0  0  1  0  0  0  0  0999 V2000
    6.1734   -2.5717   -0.3456 O   0  0  0  0  0  0  0  0  0  0  0  0
    5.2474   -2.9222    0.3724 C   0  0  0  0  0  0  0  0  0  0  0  0
    3.7925   -2.6375   -0.0477 C   0  0  2  0  0  0  0  0  0  0  0  0
    3.1794   -1.5419    0.8366 C   0  0  0  0  0  0  0  0  0  0  0  0
    1.5112   -1.0522    0.3685 S   0  0  0  0  0  1  0  0  0  0  0  0
    0.6700   -1.0364    2.5112 C   0  0  0  0  0  3  0  0  0  0  0  0
    1.2229    0.3276    2.8674 C   0  0  0  0  0  0  0  0  0  0  0  0
    2.2845    0.0756    3.7096 N   0  0  0  0  0  0  0  0  0  0  0  0
    3.3007    1.0343    4.0546 C   0  0  0  0  0  0  0  0  0  0  0  0
    4.4320    0.9976    3.0474 C   0  0  0  0  0  0  0  0  0  0  0  0
    5.4472    0.0410    3.1672 C   0  0  0  0  0  0  0  0  0  0  0  0
    6.4094   -0.0955    2.1698 C   0  0  0  0  0  0  0  0  0  0  0  0
    6.3690    0.7191    1.0381 C   0  0  0  0  0  0  0  0  0  0  0  0
    5.3654    1.6790    0.9160 C   0  0  0  0  0  0  0  0  0  0  0  0
    4.4009    1.8163    1.9148 C   0  0  0  0  0  0  0  0  0  0  0  0
    0.8421    1.4293    2.5318 O   0  0  0  0  0  0  0  0  0  0  0  0
    1.2849   -1.9579    3.3636 C   0  0  0  0  0  3  0  0  0  0  0  0
    2.3583   -1.3105    4.0634 C   0  0  0  0  0  0  0  0  0  0  0  0
    3.2039   -1.7175    4.8475 O   0  0  0  0  0  0  0  0  0  0  0  0
    2.9231   -3.8111   -0.1745 N   0  0  0  0  0  0  0  0  0  0  0  0
    2.3976   -4.5157    0.8646 C   0  0  0  0  0  0  0  0  0  0  0  0
    1.0866   -5.2104    0.5631 C   0  0  0  0  0  0  0  0  0  0  0  0
    2.9059   -4.5974    1.9726 O   0  0  0  0  0  0  0  0  0  0  0  0
    3.9038   -2.2501   -1.0682 H   0  0  0  0  0  0  0  0  0  0  0  0
    5.4071   -3.4890    1.5869 N   0  0  0  0  0  0  0  0  0  0  0  0
    6.6997   -3.7438    2.1572 C   0  0  0  0  0  0  0  0  0  0  0  0
    3.1240   -1.9170    1.8774 H   0  0  0  0  0  0  0  0  0  0  0  0
    3.8612   -0.6808    0.8265 H   0  0  0  0  0  0  0  0  0  0  0  0
    3.6710    0.7818    5.0586 H   0  0  0  0  0  0  0  0  0  0  0  0
    2.8317    2.0285    4.0788 H   0  0  0  0  0  0  0  0  0  0  0  0
    5.4318   -0.6347    4.0262 H   0  0  0  0  0  0  0  0  0  0  0  0
    7.1783   -0.8661    2.2542 H   0  0  0  0  0  0  0  0  0  0  0  0
    7.1012    0.5786    0.2405 H   0  0  0  0  0  0  0  0  0  0  0  0
    5.3142    2.3071    0.0232 H   0  0  0  0  0  0  0  0  0  0  0  0
    3.5822    2.5308    1.7972 H   0  0  0  0  0  0  0  0  0  0  0  0
    2.2801   -3.7082   -0.9497 H   0  0  0  0  0  0  0  0  0  0  0  0
    1.0145   -5.5492   -0.4805 H   0  0  0  0  0  0  0  0  0  0  0  0
    0.2811   -4.4828    0.7482 H   0  0  0  0  0  0  0  0  0  0  0  0
    0.9637   -6.0600    1.2450 H   0  0  0  0  0  0  0  0  0  0  0  0
    4.5611   -3.8174    2.0618 H   0  0  0  0  0  0  0  0  0  0  0  0
    7.4593   -3.3261    1.4831 H   0  0  0  0  0  0  0  0  0  0  0  0
    6.8901   -4.8245    2.2749 H   0  0  0  0  0  0  0  0  0  0  0  0
    6.7936   -3.2699    3.1479 H   0  0  0  0  0  0  0  0  0  0  0  0
   -0.3583   -1.0958    2.1551 H   0  0  0  0  0  0  0  0  0  0  0  0
    1.1083   -3.0284    3.4287 H   0  0  0  0  0  0  0  0  0  0  0  0
  1  2  2  0  0  0  0
  2 25  1  0  0  0  0
  3 24  1  6  0  0  0
  3  2  1  0  0  0  0
  3  4  1  0  0  0  0
  4 27  1  0  0  0  0
  5  4  1  0  0  0  0
  6  7  1  0  0  0  0
  6 17  1  0  0  0  0
  7  8  1  0  0  0  0
  8  9  1  0  0  0  0
  8 18  1  0  0  0  0
  9 30  1  0  0  0  0
  9 29  1  0  0  0  0
 10 11  1  0  0  0  0
 10  9  1  0  0  0  0
 11 31  1  0  0  0  0
 12 32  1  0  0  0  0
 12 11  2  0  0  0  0
 13 12  1  0  0  0  0
 14 13  2  0  0  0  0
 14 15  1  0  0  0  0
 15 10  2  0  0  0  0
 16  7  2  0  0  0  0
 17 45  1  0  0  0  0
 17 18  1  0  0  0  0
 18 19  2  0  0  0  0
 20  3  1  0  0  0  0
 20 21  1  0  0  0  0
 21 23  2  0  0  0  0
 22 38  1  0  0  0  0
 22 21  1  0  0  0  0
 22 39  1  0  0  0  0
 25 40  1  0  0  0  0
 25 26  1  0  0  0  0
 26 42  1  0  0  0  0
 26 43  1  0  0  0  0
 28  4  1  0  0  0  0
 33 13  1  0  0  0  0
 34 14  1  0  0  0  0
 35 15  1  0  0  0  0
 36 20  1  0  0  0  0
 37 22  1  0  0  0  0
 41 26  1  0  0  0  0
 44  6  1  0  0  0  0
M  END
