-1 1
 OpenBabel05232413493D

 45 45  0  0  1  0  0  0  0  0999 V2000
    2.8439   -1.2575   -1.8170 O   0  0  0  0  0  0  0  0  0  0  0  0
    1.8115   -1.5672   -1.2366 C   0  0  0  0  0  0  0  0  0  0  0  0
    0.4412   -1.2492   -1.8600 C   0  0  2  0  0  0  0  0  0  0  0  0
   -0.2520   -0.1169   -1.0850 C   0  0  0  0  0  0  0  0  0  0  0  0
   -1.8707    0.3784   -1.7128 S   0  0  0  0  0  1  0  0  0  0  0  0
   -2.7907    0.2207    1.0786 C   0  0  0  0  0  0  0  0  0  0  0  0
   -2.1883    1.5798    1.2836 C   0  0  0  0  0  0  0  0  0  0  0  0
   -0.9783    1.3462    1.9436 N   0  0  0  0  0  0  0  0  0  0  0  0
    0.0259    2.3520    2.1929 C   0  0  0  0  0  0  0  0  0  0  0  0
    1.0536    2.3979    1.0827 C   0  0  0  0  0  0  0  0  0  0  0  0
    2.1536    1.5328    1.1031 C   0  0  0  0  0  0  0  0  0  0  0  0
    3.0304    1.4801    0.0227 C   0  0  0  0  0  0  0  0  0  0  0  0
    2.8187    2.2961   -1.0885 C   0  0  0  0  0  0  0  0  0  0  0  0
    1.7299    3.1660   -1.1121 C   0  0  0  0  0  0  0  0  0  0  0  0
    0.8486    3.2141   -0.0324 C   0  0  0  0  0  0  0  0  0  0  0  0
   -2.6365    2.6752    1.0458 O   0  0  0  0  0  0  0  0  0  0  0  0
   -2.0127   -0.6920    1.6959 C   0  0  0  0  0  0  0  0  0  0  0  0
   -0.8148   -0.0112    2.2346 C   0  0  0  0  0  0  0  0  0  0  0  0
    0.1328   -0.4672    2.8417 O   0  0  0  0  0  0  0  0  0  0  0  0
   -0.4476   -2.3963   -2.0821 N   0  0  0  0  0  0  0  0  0  0  0  0
   -1.1528   -3.0323   -1.1110 C   0  0  0  0  0  0  0  0  0  0  0  0
   -2.4469   -3.6651   -1.5762 C   0  0  0  0  0  0  0  0  0  0  0  0
   -0.8086   -3.1080    0.0623 O   0  0  0  0  0  0  0  0  0  0  0  0
    0.6940   -0.8848   -2.8636 H   0  0  0  0  0  0  0  0  0  0  0  0
    1.7792   -2.1003    0.0039 N   0  0  0  0  0  0  0  0  0  0  0  0
    2.9579   -2.3158    0.7938 C   0  0  0  0  0  0  0  0  0  0  0  0
   -0.3613   -0.4585   -0.0393 H   0  0  0  0  0  0  0  0  0  0  0  0
    0.4454    0.7317   -1.0693 H   0  0  0  0  0  0  0  0  0  0  0  0
    0.5065    2.1182    3.1541 H   0  0  0  0  0  0  0  0  0  0  0  0
   -0.4973    3.3149    2.2790 H   0  0  0  0  0  0  0  0  0  0  0  0
    2.2821    0.8613    1.9555 H   0  0  0  0  0  0  0  0  0  0  0  0
    3.8575    0.7681    0.0217 H   0  0  0  0  0  0  0  0  0  0  0  0
    3.4870    2.2245   -1.9491 H   0  0  0  0  0  0  0  0  0  0  0  0
    1.5428    3.7872   -1.9909 H   0  0  0  0  0  0  0  0  0  0  0  0
   -0.0374    3.8524   -0.0727 H   0  0  0  0  0  0  0  0  0  0  0  0
   -0.9927   -2.2563   -2.9250 H   0  0  0  0  0  0  0  0  0  0  0  0
   -2.3782   -4.0600   -2.6001 H   0  0  0  0  0  0  0  0  0  0  0  0
   -3.2149   -2.8760   -1.5603 H   0  0  0  0  0  0  0  0  0  0  0  0
   -2.7302   -4.4650   -0.8819 H   0  0  0  0  0  0  0  0  0  0  0  0
    0.8649   -2.3857    0.3637 H   0  0  0  0  0  0  0  0  0  0  0  0
    3.8186   -1.9100    0.2460 H   0  0  0  0  0  0  0  0  0  0  0  0
    3.1383   -3.3889    0.9798 H   0  0  0  0  0  0  0  0  0  0  0  0
    2.8687   -1.8087    1.7678 H   0  0  0  0  0  0  0  0  0  0  0  0
   -3.7597    0.0906    0.6074 H   0  0  0  0  0  0  0  0  0  0  0  0
   -2.1260   -1.7725    1.7352 H   0  0  0  0  0  0  0  0  0  0  0  0
  1  2  2  0  0  0  0
  2 25  1  0  0  0  0
  3 24  1  6  0  0  0
  3  2  1  0  0  0  0
  3  4  1  0  0  0  0
  4 28  1  0  0  0  0
  4 27  1  0  0  0  0
  5  4  1  0  0  0  0
  6  7  1  0  0  0  0
  6 17  2  0  0  0  0
  7  8  1  0  0  0  0
  8  9  1  0  0  0  0
  8 18  1  0  0  0  0
  9 30  1  0  0  0  0
  9 29  1  0  0  0  0
 10 11  1  0  0  0  0
 10  9  1  0  0  0  0
 11 31  1  0  0  0  0
 12 11  2  0  0  0  0
 13 12  1  0  0  0  0
 14 13  2  0  0  0  0
 14 15  1  0  0  0  0
 15 10  2  0  0  0  0
 16  7  2  0  0  0  0
 17 45  1  0  0  0  0
 17 18  1  0  0  0  0
 18 19  2  0  0  0  0
 20  3  1  0  0  0  0
 20 21  1  0  0  0  0
 21 23  2  0  0  0  0
 22 38  1  0  0  0  0
 22 21  1  0  0  0  0
 22 39  1  0  0  0  0
 25 40  1  0  0  0  0
 25 26  1  0  0  0  0
 26 42  1  0  0  0  0
 26 43  1  0  0  0  0
 32 12  1  0  0  0  0
 33 13  1  0  0  0  0
 34 14  1  0  0  0  0
 35 15  1  0  0  0  0
 36 20  1  0  0  0  0
 37 22  1  0  0  0  0
 41 26  1  0  0  0  0
 44  6  1  0  0  0  0
M  END
