45
-1 1
O         2.843861   -1.257454   -1.816997
C         1.811544   -1.567163   -1.236574
C         0.441188   -1.249205   -1.859997
C        -0.251985   -0.116933   -1.085027
S        -1.870732    0.378385   -1.712753
C        -2.790677    0.220694    1.078625
C        -2.188283    1.579837    1.283555
N        -0.978293    1.346159    1.943574
C         0.025947    2.352021    2.192875
C         1.053617    2.397908    1.082702
C         2.153645    1.532809    1.103105
C         3.030373    1.480055    0.022692
C         2.818742    2.296093   -1.088506
C         1.729927    3.166015   -1.112070
C         0.848600    3.214051   -0.032448
O        -2.636483    2.675156    1.045809
C        -2.012704   -0.691962    1.695862
C        -0.814776   -0.011236    2.234628
O         0.132847   -0.467215    2.841703
N        -0.447630   -2.396297   -2.082079
C        -1.152832   -3.032340   -1.111036
C        -2.446851   -3.665052   -1.576235
O        -0.808621   -3.108016    0.062271
H         0.694024   -0.884805   -2.863571
N         1.779212   -2.100346    0.003888
C         2.957919   -2.315759    0.793786
H        -0.361259   -0.458490   -0.039315
H         0.445409    0.731710   -1.069314
H         0.506456    2.118196    3.154132
H        -0.497289    3.314902    2.279046
H         2.282068    0.861280    1.955511
H         3.857459    0.768058    0.021732
H         3.486965    2.224484   -1.949113
H         1.542839    3.787161   -1.990901
H        -0.037428    3.852442   -0.072678
H        -0.992660   -2.256311   -2.925015
H        -2.378176   -4.060030   -2.600136
H        -3.214941   -2.875997   -1.560256
H        -2.730171   -4.465010   -0.881854
H         0.864926   -2.385652    0.363668
H         3.818636   -1.909986    0.245974
H         3.138336   -3.388876    0.979781
H         2.868720   -1.808716    1.767782
H        -3.759743    0.090620    0.607446
H        -2.125954   -1.772451    1.735201
