-1 1
 OpenBabel05192410563D

 58 58  0  0  1  0  0  0  0  0999 V2000
   -2.8299    3.0452    2.6124 C   0  0  0  0  0  0  0  0  0  0  0  0
   -1.5751    2.6829    1.8367 C   0  0  2  0  0  0  0  0  0  0  0  0
   -1.1089    3.5949    1.4200 H   0  0  0  0  0  0  0  0  0  0  0  0
   -1.9573    1.7187    0.6966 C   0  0  0  0  0  0  0  0  0  0  0  0
   -1.9583    2.3054   -0.5260 N   0  0  0  0  0  0  0  0  0  0  0  0
   -2.2112    1.5602   -1.7420 C   0  0  0  0  0  0  0  0  0  0  0  0
   -1.0322    0.6756   -2.1878 C   0  0  1  0  0  0  0  0  0  0  0  0
   -1.5338   -0.0393   -3.8721 S   0  0  0  0  0  0  0  0  0  0  0  0
   -2.6482   -1.3983   -3.3922 C   0  0  0  0  0  0  0  0  0  0  0  0
   -2.2838   -2.7234   -4.0881 C   0  0  2  0  0  0  0  0  0  0  0  0
   -2.0741   -2.4980   -5.1489 H   0  0  0  0  0  0  0  0  0  0  0  0
   -3.3687   -3.6725   -4.0110 N   0  0  0  0  0  0  0  0  0  0  0  0
   -4.4981   -3.5752   -4.7474 C   0  0  0  0  0  0  0  0  0  0  0  0
   -5.4737   -4.7295   -4.5902 C   0  0  0  0  0  0  0  0  0  0  0  0
   -4.7441   -2.6314   -5.4797 O   0  0  0  0  0  0  0  0  0  0  0  0
   -1.0580   -3.4506   -3.4935 C   0  0  0  0  0  0  0  0  0  0  0  0
    0.1115   -2.7973   -3.4843 N   0  0  0  0  0  0  0  0  0  0  0  0
    1.3107   -3.4491   -3.0124 C   0  0  0  0  0  0  0  0  0  0  0  0
   -1.1764   -4.5998   -3.0755 O   0  0  0  0  0  0  0  0  0  0  0  0
    0.2508    1.4102   -2.1618 C   0  0  0  0  0  3  0  0  0  0  0  0
    1.6924    0.5278   -2.3000 S   0  0  0  0  0  0  0  0  0  0  0  0
    1.6820   -0.6440   -0.9297 C   0  0  0  0  0  0  0  0  0  0  0  0
    1.8276   -0.3635   -3.4914 O   0  0  0  0  0  0  0  0  0  0  0  0
    2.8437    1.4434   -2.0954 O   0  0  0  0  0  0  0  0  0  0  0  0
   -2.3211    0.5825    0.9197 O   0  0  0  0  0  0  0  0  0  0  0  0
   -0.6819    2.0969    2.7589 O   0  0  0  0  0  0  0  0  0  0  0  0
    0.6387    2.0813    2.5026 C   0  0  0  0  0  0  0  0  0  0  0  0
    1.5023    1.9491    3.6051 C   0  0  0  0  0  0  0  0  0  0  0  0
    0.7740    1.8103    5.3469 Br  0  0  0  0  0  0  0  0  0  0  0  0
    2.8821    1.9269    3.4432 C   0  0  0  0  0  0  0  0  0  0  0  0
    3.4151    2.0423    2.1602 C   0  0  0  0  0  0  0  0  0  0  0  0
    5.3010    2.0060    1.9426 Br  0  0  0  0  0  0  0  0  0  0  0  0
    2.5881    2.1661    1.0503 C   0  0  0  0  0  0  0  0  0  0  0  0
    1.2036    2.1838    1.2269 C   0  0  0  0  0  0  0  0  0  0  0  0
   -3.2742    2.1273    3.0215 H   0  0  0  0  0  0  0  0  0  0  0  0
   -3.5588    3.5256    1.9442 H   0  0  0  0  0  0  0  0  0  0  0  0
   -2.5847    3.7288    3.4368 H   0  0  0  0  0  0  0  0  0  0  0  0
   -1.3544    3.1105   -0.6365 H   0  0  0  0  0  0  0  0  0  0  0  0
   -2.4365    2.2847   -2.5383 H   0  0  0  0  0  0  0  0  0  0  0  0
   -3.1093    0.9448   -1.5897 H   0  0  0  0  0  0  0  0  0  0  0  0
   -0.9967   -0.2055   -1.5274 H   0  0  0  0  0  0  0  0  0  0  0  0
   -3.6770   -1.1491   -3.6828 H   0  0  0  0  0  0  0  0  0  0  0  0
   -2.6166   -1.5211   -2.2972 H   0  0  0  0  0  0  0  0  0  0  0  0
   -3.1158   -4.5239   -3.5131 H   0  0  0  0  0  0  0  0  0  0  0  0
   -5.6884   -5.1431   -5.5855 H   0  0  0  0  0  0  0  0  0  0  0  0
   -6.4181   -4.3356   -4.1883 H   0  0  0  0  0  0  0  0  0  0  0  0
   -5.1079   -5.5297   -3.9325 H   0  0  0  0  0  0  0  0  0  0  0  0
    0.1840   -1.8198   -3.7836 H   0  0  0  0  0  0  0  0  0  0  0  0
    2.1397   -2.7417   -3.1294 H   0  0  0  0  0  0  0  0  0  0  0  0
    1.5122   -4.3654   -3.5897 H   0  0  0  0  0  0  0  0  0  0  0  0
    1.2204   -3.7415   -1.9537 H   0  0  0  0  0  0  0  0  0  0  0  0
    0.3391    2.3290   -2.7553 H   0  0  0  0  0  0  0  0  0  0  0  0
    0.8491   -1.3452   -1.0659 H   0  0  0  0  0  0  0  0  0  0  0  0
    1.5920   -0.1109    0.0218 H   0  0  0  0  0  0  0  0  0  0  0  0
    2.6357   -1.1832   -0.9908 H   0  0  0  0  0  0  0  0  0  0  0  0
    3.5317    1.8249    4.3129 H   0  0  0  0  0  0  0  0  0  0  0  0
    2.9827    2.1989    0.0290 H   0  0  0  0  0  0  0  0  0  0  0  0
    0.5930    2.2067    0.3159 H   0  0  0  0  0  0  0  0  0  0  0  0
  1 35  1  0  0  0  0
  1 37  1  0  0  0  0
  2  3  1  6  0  0  0
  2  1  1  0  0  0  0
  2 26  1  0  0  0  0
  4 25  2  0  0  0  0
  4  2  1  0  0  0  0
  5  4  1  0  0  0  0
  6 40  1  0  0  0  0
  6  5  1  0  0  0  0
  7 20  1  0  0  0  0
  7  6  1  0  0  0  0
  7 41  1  1  0  0  0
  8  9  1  0  0  0  0
  8  7  1  0  0  0  0
  9 43  1  0  0  0  0
 10 11  1  6  0  0  0
 10 12  1  0  0  0  0
 10 16  1  0  0  0  0
 10  9  1  0  0  0  0
 12 44  1  0  0  0  0
 13 14  1  0  0  0  0
 13 12  1  0  0  0  0
 14 46  1  0  0  0  0
 14 47  1  0  0  0  0
 15 13  2  0  0  0  0
 16 17  1  0  0  0  0
 16 19  2  0  0  0  0
 17 18  1  0  0  0  0
 18 51  1  0  0  0  0
 21 20  1  0  0  0  0
 21 24  2  0  0  0  0
 21 22  1  0  0  0  0
 22 54  1  0  0  0  0
 23 21  2  0  0  0  0
 27 26  1  0  0  0  0
 27 28  1  0  0  0  0
 28 29  1  0  0  0  0
 30 28  2  0  0  0  0
 30 56  1  0  0  0  0
 31 30  1  0  0  0  0
 32 31  1  0  0  0  0
 33 34  1  0  0  0  0
 33 31  2  0  0  0  0
 34 27  2  0  0  0  0
 36  1  1  0  0  0  0
 38  5  1  0  0  0  0
 39  6  1  0  0  0  0
 42  9  1  0  0  0  0
 45 14  1  0  0  0  0
 48 17  1  0  0  0  0
 49 18  1  0  0  0  0
 50 18  1  0  0  0  0
 52 20  1  0  0  0  0
 53 22  1  0  0  0  0
 55 22  1  0  0  0  0
 57 33  1  0  0  0  0
 58 34  1  0  0  0  0
M  END
