-1 1
 OpenBabel05232413493D

 58 57  0  0  1  0  0  0  0  0999 V2000
   -2.8252    3.8194    2.4509 C   0  0  0  0  0  0  0  0  0  0  0  0
   -1.7274    3.0197    1.7794 C   0  0  2  0  0  0  0  0  0  0  0  0
   -0.7562    3.5357    1.9099 H   0  0  0  0  0  0  0  0  0  0  0  0
   -2.0336    2.8215    0.2805 C   0  0  0  0  0  0  0  0  0  0  0  0
   -1.1409    3.4049   -0.5657 N   0  0  0  0  0  0  0  0  0  0  0  0
   -1.0634    3.0484   -1.9749 C   0  0  0  0  0  0  0  0  0  0  0  0
    0.0704    2.0809   -2.1581 C   0  0  0  0  0  0  0  0  0  0  0  0
   -1.6623    0.0985   -3.9519 S   0  0  0  0  0  1  0  0  0  0  0  0
   -1.6730   -0.9885   -2.4795 C   0  0  0  0  0  0  0  0  0  0  0  0
   -1.8662   -2.4959   -2.7578 C   0  0  2  0  0  0  0  0  0  0  0  0
   -2.7623   -2.5920   -3.3960 H   0  0  0  0  0  0  0  0  0  0  0  0
   -2.0588   -3.2574   -1.5421 N   0  0  0  0  0  0  0  0  0  0  0  0
   -3.2335   -3.3243   -0.8725 C   0  0  0  0  0  0  0  0  0  0  0  0
   -3.2447   -4.2856    0.3077 C   0  0  0  0  0  0  0  0  0  0  0  0
   -4.2171   -2.6649   -1.1567 O   0  0  0  0  0  0  0  0  0  0  0  0
   -0.6814   -3.1657   -3.4793 C   0  0  0  0  0  0  0  0  0  0  0  0
   -0.3180   -2.5830   -4.6334 N   0  0  0  0  0  0  0  0  0  0  0  0
    0.7962   -3.0420   -5.4169 C   0  0  0  0  0  0  0  0  0  0  0  0
   -0.1390   -4.1670   -3.0137 O   0  0  0  0  0  0  0  0  0  0  0  0
    1.2610    2.4161   -2.6565 C   0  0  0  0  0  0  0  0  0  0  0  0
    2.6010    1.2643   -2.7514 S   0  0  0  0  0  0  0  0  0  0  0  0
    1.8368   -0.3025   -3.1167 C   0  0  0  0  0  0  0  0  0  0  0  0
    3.4277    1.6704   -3.8972 O   0  0  0  0  0  0  0  0  0  0  0  0
    3.2553    1.1700   -1.4326 O   0  0  0  0  0  0  0  0  0  0  0  0
   -3.0021    2.1887   -0.0727 O   0  0  0  0  0  0  0  0  0  0  0  0
   -1.6893    1.7572    2.4171 O   0  0  0  0  0  0  0  0  0  0  0  0
   -0.9755    0.7582    1.8457 C   0  0  0  0  0  0  0  0  0  0  0  0
   -1.5344   -0.5282    1.8220 C   0  0  0  0  0  0  0  0  0  0  0  0
   -3.2690   -0.8043    2.5029 Br  0  0  0  0  0  0  0  0  0  0  0  0
   -0.8368   -1.5968    1.2713 C   0  0  0  0  0  0  0  0  0  0  0  0
    0.4264   -1.3817    0.7248 C   0  0  0  0  0  0  0  0  0  0  0  0
    1.3319   -2.8381   -0.0740 Br  0  0  0  0  0  0  0  0  0  0  0  0
    1.0004   -0.1146    0.7257 C   0  0  0  0  0  0  0  0  0  0  0  0
    0.2945    0.9439    1.2946 C   0  0  0  0  0  0  0  0  0  0  0  0
   -3.7894    3.3250    2.2701 H   0  0  0  0  0  0  0  0  0  0  0  0
   -2.8602    4.8385    2.0395 H   0  0  0  0  0  0  0  0  0  0  0  0
   -2.6428    3.8736    3.5331 H   0  0  0  0  0  0  0  0  0  0  0  0
   -0.2928    3.7755   -0.1553 H   0  0  0  0  0  0  0  0  0  0  0  0
   -0.9246    3.9511   -2.5883 H   0  0  0  0  0  0  0  0  0  0  0  0
   -2.0050    2.5613   -2.2635 H   0  0  0  0  0  0  0  0  0  0  0  0
   -0.1023    1.0863   -1.7402 H   0  0  0  0  0  0  0  0  0  0  0  0
   -2.4998   -0.6926   -1.8173 H   0  0  0  0  0  0  0  0  0  0  0  0
   -0.7412   -0.8838   -1.8891 H   0  0  0  0  0  0  0  0  0  0  0  0
   -1.3348   -3.9569   -1.3928 H   0  0  0  0  0  0  0  0  0  0  0  0
   -4.1042   -4.9618    0.2010 H   0  0  0  0  0  0  0  0  0  0  0  0
   -3.4001   -3.7037    1.2287 H   0  0  0  0  0  0  0  0  0  0  0  0
   -2.3234   -4.8779    0.4043 H   0  0  0  0  0  0  0  0  0  0  0  0
   -0.7496   -1.6552   -4.8193 H   0  0  0  0  0  0  0  0  0  0  0  0
    1.5744   -2.2650   -5.4982 H   0  0  0  0  0  0  0  0  0  0  0  0
    0.4830   -3.3139   -6.4385 H   0  0  0  0  0  0  0  0  0  0  0  0
    1.2271   -3.9276   -4.9316 H   0  0  0  0  0  0  0  0  0  0  0  0
    1.5042    3.3855   -3.1001 H   0  0  0  0  0  0  0  0  0  0  0  0
    0.9803   -0.1431   -3.7986 H   0  0  0  0  0  0  0  0  0  0  0  0
    1.4891   -0.7542   -2.1802 H   0  0  0  0  0  0  0  0  0  0  0  0
    2.6264   -0.9196   -3.5626 H   0  0  0  0  0  0  0  0  0  0  0  0
   -1.2895   -2.5860    1.2433 H   0  0  0  0  0  0  0  0  0  0  0  0
    1.9779    0.0703    0.2731 H   0  0  0  0  0  0  0  0  0  0  0  0
    0.7523    1.9340    1.3001 H   0  0  0  0  0  0  0  0  0  0  0  0
  1 37  1  0  0  0  0
  2  3  1  1  0  0  0
  2 26  1  0  0  0  0
  2  1  1  0  0  0  0
  4  2  1  0  0  0  0
  5 38  1  0  0  0  0
  5  4  1  0  0  0  0
  6  5  1  0  0  0  0
  7  6  1  0  0  0  0
  7 41  1  0  0  0  0
  8  9  1  0  0  0  0
  9 43  1  0  0  0  0
  9 42  1  0  0  0  0
 10 11  1  6  0  0  0
 10  9  1  0  0  0  0
 10 12  1  0  0  0  0
 12 44  1  0  0  0  0
 12 13  1  0  0  0  0
 13 14  1  0  0  0  0
 14 47  1  0  0  0  0
 14 46  1  0  0  0  0
 15 13  2  0  0  0  0
 16 19  2  0  0  0  0
 16 10  1  0  0  0  0
 17 16  1  0  0  0  0
 18 51  1  0  0  0  0
 18 17  1  0  0  0  0
 20  7  2  0  0  0  0
 21 20  1  0  0  0  0
 21 24  2  0  0  0  0
 22 21  1  0  0  0  0
 22 54  1  0  0  0  0
 23 21  2  0  0  0  0
 25  4  2  0  0  0  0
 27 26  1  0  0  0  0
 28 27  1  0  0  0  0
 28 29  1  0  0  0  0
 30 28  2  0  0  0  0
 31 33  2  0  0  0  0
 31 30  1  0  0  0  0
 32 31  1  0  0  0  0
 33 34  1  0  0  0  0
 34 58  1  0  0  0  0
 34 27  2  0  0  0  0
 35  1  1  0  0  0  0
 36  1  1  0  0  0  0
 39  6  1  0  0  0  0
 40  6  1  0  0  0  0
 45 14  1  0  0  0  0
 48 17  1  0  0  0  0
 49 18  1  0  0  0  0
 50 18  1  0  0  0  0
 52 20  1  0  0  0  0
 53 22  1  0  0  0  0
 55 22  1  0  0  0  0
 56 30  1  0  0  0  0
 57 33  1  0  0  0  0
M  END
