58
-1 1
C        -0.220751    7.949260    9.770385
C         1.008900    7.197745    9.287410
H         1.778624    7.917419    8.947247
C         0.626720    6.252488    8.130988
N         0.727684    6.818726    6.902247
C         0.550471    6.027453    5.688724
C         1.736925    5.113133    5.441420
S         0.701670    3.998548    3.510186
C         0.050648    2.543672    4.396151
C         0.313160    1.192547    3.700125
H         0.002828    1.304654    2.645502
N        -0.440582    0.118503    4.308168
C        -1.769361   -0.061030    4.134080
C        -2.338919   -1.309829    4.790096
O        -2.485925    0.715950    3.526724
C         1.781146    0.719598    3.714150
N         2.694064    1.609110    3.293706
C         4.095268    1.279087    3.195869
O         2.068016   -0.416854    4.081358
C         2.972989    5.677767    5.248845
S         4.454844    4.788957    5.281880
C         4.065557    3.249458    6.107439
O         4.933243    4.442715    3.929432
O         5.430943    5.515708    6.127404
O         0.217804    5.131118    8.341017
O         1.500348    6.472961   10.386133
C         2.665597    5.810213   10.298269
C         3.079622    5.103914   11.441783
Br         1.975661    5.097997   12.976647
C         4.282264    4.409152   11.466526
C         5.095494    4.421479   10.334684
Br         6.738617    3.471569   10.365812
C         4.714153    5.110091    9.189898
C         3.498857    5.793606    9.173757
H        -0.980890    7.227840   10.101001
H        -0.637160    8.555257    8.953806
H         0.040856    8.604489   10.612697
H         1.304370    7.646780    6.823079
H         0.411972    6.717040    4.845858
H        -0.364879    5.434131    5.787875
H         1.668796    4.152976    5.955425
H        -1.040069    2.631486    4.490852
H         0.465568    2.498212    5.421506
H         0.149797   -0.632461    4.658336
H        -2.976185   -1.828234    4.060814
H        -2.980717   -1.001320    5.628435
H        -1.571091   -2.000113    5.166071
H         2.362212    2.564611    3.091491
H         4.675104    2.211214    3.179237
H         4.312698    0.696149    2.284551
H         4.403778    0.669033    4.058243
H         3.122317    6.681811    4.841733
H         3.350050    2.685938    5.495499
H         3.673206    3.455421    7.110865
H         5.021763    2.715061    6.168506
H         4.578291    3.865185   12.363801
H         5.330865    5.130425    8.286655
H         3.216751    6.290988    8.243548
