72
-1 1
C        -2.146542    5.594712    0.538669
C        -1.371060    4.515773   -0.172396
C        -1.925446    3.240501   -0.361174
C        -1.217523    2.214634   -0.978462
C         0.087798    2.431536   -1.450985
C         0.959142    1.332787   -2.022011
S         1.702584    0.328644   -0.577086
C         2.535698    1.548943    0.486742
C         2.058657    1.540641    1.934250
H         2.256676    0.555756    2.390855
N         0.626002    1.770188    2.031254
C        -0.105311    1.313269    3.072427
C        -1.599875    1.476176    2.973026
O         0.413837    0.799585    4.062196
C         2.841429    2.594867    2.752549
N         2.692703    2.454809    4.092169
C         3.257341    3.385623    5.031964
O         3.526773    3.454385    2.226293
C         0.467969    0.324255   -3.003419
C        -0.638096   -0.501839   -2.901091
N        -0.600477   -1.715708   -3.714102
C         0.423786   -2.686939   -3.329431
H         1.398821   -2.187727   -3.464855
C         0.430515   -3.811851   -4.370418
O        -0.018611   -3.403623   -5.556800
O         0.838254   -4.925350   -4.174913
C         0.387842   -3.168510   -1.876341
C        -0.950576   -3.753248   -1.413932
C        -0.949539   -4.054581    0.078177
N        -1.064168   -2.989211    0.934716
C        -1.416855   -1.624559    0.579453
C        -2.802301   -1.312052    1.119579
O        -2.889739   -1.537077    2.512306
C        -2.525811   -2.849216    2.869543
C        -1.133996   -3.217954    2.364853
O        -0.819301   -5.195880    0.492404
O        -1.673090   -0.406623   -2.189998
C         0.624679    3.715721   -1.300593
C        -0.085379    4.737251   -0.664803
H        -1.600328    6.549002    0.540758
H        -2.340550    5.317609    1.587581
H        -3.124832    5.764570    0.061727
H        -2.945871    3.045983   -0.014438
H        -1.659633    1.226372   -1.146749
H         1.837567    1.822288   -2.464747
H         2.391679    2.556742    0.073609
H         3.618209    1.365420    0.478412
H         0.148008    2.124254    1.206895
H        -2.057665    0.479483    3.063407
H        -1.918537    1.949512    2.035583
H        -1.940830    2.079544    3.826412
H         2.015077    1.752963    4.400942
H         2.477318    3.973444    5.544789
H         3.908647    4.075677    4.480141
H         3.856010    2.866545    5.797622
H         1.213308    0.037289   -3.749523
H        -1.524314   -2.124557   -3.570561
H        -0.326272   -2.481232   -5.388148
H         0.656303   -2.306075   -1.247065
H         1.176756   -3.923576   -1.743907
H        -1.137578   -4.711795   -1.916558
H        -1.768575   -3.059300   -1.660740
H        -1.408699   -1.437623   -0.501804
H        -0.676519   -0.934397    1.020034
H        -3.551124   -1.936191    0.590617
H        -3.052961   -0.256417    0.945251
H        -3.259180   -3.570472    2.453793
H        -2.570038   -2.904639    3.967273
H        -0.913482   -4.274475    2.561046
H        -0.381588   -2.586443    2.869641
H         1.629782    3.926099   -1.677652
H         0.378740    5.720651   -0.547711
