-1 1
 OpenBabel05192410563D

 75 77  0  0  1  0  0  0  0  0999 V2000
    0.1615    2.9783    1.5541 O   0  0  0  0  0  0  0  0  0  0  0  0
    0.1564    1.7374    1.0591 C   0  0  0  0  0  0  0  0  0  0  0  0
    0.7476    1.5870   -0.1750 N   0  0  0  0  0  0  0  0  0  0  0  0
    1.5557    2.5866   -0.8659 C   0  0  2  0  0  0  0  0  0  0  0  0
    1.9346    2.0732   -1.7601 H   0  0  0  0  0  0  0  0  0  0  0  0
    2.8171    3.0347   -0.0776 C   0  0  0  0  0  0  0  0  0  0  0  0
    2.6475    3.1644    1.1908 O   0  0  0  0  0  1  0  0  0  0  0  0
    3.8616    3.2109   -0.6880 O   0  0  0  0  0  0  0  0  0  0  0  0
    0.7650    3.8132   -1.3538 C   0  0  0  0  0  0  0  0  0  0  0  0
   -0.6061    3.4567   -1.9406 C   0  0  0  0  0  0  0  0  0  0  0  0
   -0.4638    2.3517   -2.9748 C   0  0  0  0  0  0  0  0  0  0  0  0
   -1.1522    1.1768   -2.7976 N   0  0  0  0  0  0  0  0  0  0  0  0
   -2.0755    0.8795   -1.7174 C   0  0  0  0  0  0  0  0  0  0  0  0
   -3.1896   -0.0268   -2.2247 C   0  0  0  0  0  0  0  0  0  0  0  0
   -2.6876   -1.1891   -2.8383 O   0  0  0  0  0  0  0  0  0  0  0  0
   -1.8544   -0.8735   -3.9289 C   0  0  0  0  0  0  0  0  0  0  0  0
   -0.6832   -0.0061   -3.5051 C   0  0  0  0  0  0  0  0  0  0  0  0
    0.2956    2.5008   -3.9188 O   0  0  0  0  0  0  0  0  0  0  0  0
   -0.4283    0.7223    1.7630 C   0  0  0  0  0  0  0  0  0  0  0  0
   -0.4272   -0.7047    1.3551 C   0  0  1  0  0  0  0  0  0  0  0  0
    0.7904   -1.7723    2.3268 S   0  0  0  0  0  0  0  0  0  0  0  0
    2.2286   -0.6980    2.5393 C   0  0  0  0  0  0  0  0  0  0  0  0
    3.0742   -0.3669    1.2874 C   0  0  2  0  0  0  0  0  0  0  0  0
    2.5769    0.4283    0.7230 H   0  0  0  0  0  0  0  0  0  0  0  0
    3.2845   -1.4960    0.4186 N   0  0  0  0  0  0  0  0  0  0  0  0
    2.5545   -1.7724   -0.6736 C   0  0  0  0  0  0  0  0  0  0  0  0
    2.9149   -3.0492   -1.3998 C   0  0  0  0  0  0  0  0  0  0  0  0
    1.6331   -1.0666   -1.0807 O   0  0  0  0  0  0  0  0  0  0  0  0
    4.4671    0.0966    1.7470 C   0  0  0  0  0  0  0  0  0  0  0  0
    4.5679    1.3929    2.0571 N   0  0  0  0  0  0  0  0  0  0  0  0
    5.8288    2.0067    2.3888 C   0  0  0  0  0  0  0  0  0  0  0  0
    5.3710   -0.7312    1.8380 O   0  0  0  0  0  0  0  0  0  0  0  0
   -1.7643   -1.3981    1.4974 C   0  0  0  0  0  0  0  0  0  0  0  0
   -2.4414   -1.4246    2.7502 C   0  0  0  0  0  0  0  0  0  0  0  0
   -3.6686   -2.0209    2.8800 C   0  0  0  0  0  0  0  0  0  0  0  0
   -2.3603   -1.9967    0.4111 C   0  0  0  0  0  0  0  0  0  0  0  0
   -3.6454   -2.5998    0.5040 C   0  0  0  0  0  0  0  0  0  0  0  0
   -4.3127   -2.6217    1.7616 C   0  0  0  0  0  0  0  0  0  0  0  0
   -5.5932   -3.2311    1.8492 C   0  0  0  0  0  0  0  0  0  0  0  0
   -6.1892   -3.7806    0.7386 C   0  0  0  0  0  0  0  0  0  0  0  0
   -5.5330   -3.7400   -0.5161 C   0  0  0  0  0  0  0  0  0  0  0  0
   -4.2899   -3.1642   -0.6315 C   0  0  0  0  0  0  0  0  0  0  0  0
    0.9345    0.6347   -0.4841 H   0  0  0  0  0  0  0  0  0  0  0  0
    1.1462    3.2405    1.5028 H   0  0  0  0  0  0  0  0  0  0  0  0
    1.3839    4.3113   -2.1139 H   0  0  0  0  0  0  0  0  0  0  0  0
    0.6104    4.5204   -0.5259 H   0  0  0  0  0  0  0  0  0  0  0  0
   -1.0225    4.3391   -2.4517 H   0  0  0  0  0  0  0  0  0  0  0  0
   -1.2785    3.1959   -1.1170 H   0  0  0  0  0  0  0  0  0  0  0  0
   -2.5298    1.7971   -1.3287 H   0  0  0  0  0  0  0  0  0  0  0  0
   -1.5502    0.3990   -0.8772 H   0  0  0  0  0  0  0  0  0  0  0  0
   -3.8201    0.5325   -2.9466 H   0  0  0  0  0  0  0  0  0  0  0  0
   -3.8213   -0.3512   -1.3861 H   0  0  0  0  0  0  0  0  0  0  0  0
   -2.4446   -0.3523   -4.7107 H   0  0  0  0  0  0  0  0  0  0  0  0
   -1.4937   -1.8253   -4.3442 H   0  0  0  0  0  0  0  0  0  0  0  0
   -0.1059    0.3277   -4.3758 H   0  0  0  0  0  0  0  0  0  0  0  0
   -0.0105   -0.5806   -2.8405 H   0  0  0  0  0  0  0  0  0  0  0  0
   -0.8360    0.9975    2.7370 H   0  0  0  0  0  0  0  0  0  0  0  0
   -0.1030   -0.8186    0.3139 H   0  0  0  0  0  0  0  0  0  0  0  0
    2.8545   -1.2478    3.2600 H   0  0  0  0  0  0  0  0  0  0  0  0
    1.9133    0.2467    3.0058 H   0  0  0  0  0  0  0  0  0  0  0  0
    4.1003   -2.0512    0.6600 H   0  0  0  0  0  0  0  0  0  0  0  0
    3.8751   -3.4752   -1.0793 H   0  0  0  0  0  0  0  0  0  0  0  0
    2.9382   -2.8479   -2.4786 H   0  0  0  0  0  0  0  0  0  0  0  0
    2.1182   -3.7830   -1.2088 H   0  0  0  0  0  0  0  0  0  0  0  0
    3.7923    2.0462    1.8283 H   0  0  0  0  0  0  0  0  0  0  0  0
    5.8118    2.4368    3.4037 H   0  0  0  0  0  0  0  0  0  0  0  0
    6.0388    2.8128    1.6697 H   0  0  0  0  0  0  0  0  0  0  0  0
    6.6213    1.2490    2.3381 H   0  0  0  0  0  0  0  0  0  0  0  0
   -1.9601   -0.9647    3.6160 H   0  0  0  0  0  0  0  0  0  0  0  0
   -4.1734   -2.0363    3.8499 H   0  0  0  0  0  0  0  0  0  0  0  0
   -1.8621   -1.9919   -0.5620 H   0  0  0  0  0  0  0  0  0  0  0  0
   -6.1010   -3.2520    2.8176 H   0  0  0  0  0  0  0  0  0  0  0  0
   -7.1756   -4.2441    0.8193 H   0  0  0  0  0  0  0  0  0  0  0  0
   -6.0219   -4.1653   -1.3959 H   0  0  0  0  0  0  0  0  0  0  0  0
   -3.7845   -3.0999   -1.5988 H   0  0  0  0  0  0  0  0  0  0  0  0
  2  1  1  0  0  0  0
  2 19  2  0  0  0  0
  3  2  1  0  0  0  0
  4  5  1  6  0  0  0
  4  3  1  0  0  0  0
  4  6  1  0  0  0  0
  6  7  1  0  0  0  0
  8  6  2  0  0  0  0
  9  4  1  0  0  0  0
  9 46  1  0  0  0  0
 10  9  1  0  0  0  0
 10 48  1  0  0  0  0
 11 12  1  0  0  0  0
 11 10  1  0  0  0  0
 12 13  1  0  0  0  0
 13 49  1  0  0  0  0
 13 50  1  0  0  0  0
 14 13  1  0  0  0  0
 14 52  1  0  0  0  0
 15 14  1  0  0  0  0
 16 17  1  0  0  0  0
 16 15  1  0  0  0  0
 17 56  1  0  0  0  0
 17 12  1  0  0  0  0
 18 11  2  0  0  0  0
 19 57  1  0  0  0  0
 20 58  1  6  0  0  0
 20 33  1  0  0  0  0
 20 19  1  0  0  0  0
 20 21  1  0  0  0  0
 21 22  1  0  0  0  0
 22 60  1  0  0  0  0
 22 59  1  0  0  0  0
 23 24  1  6  0  0  0
 23 29  1  0  0  0  0
 23 22  1  0  0  0  0
 25 61  1  0  0  0  0
 25 23  1  0  0  0  0
 26 25  1  0  0  0  0
 27 64  1  0  0  0  0
 27 62  1  0  0  0  0
 27 26  1  0  0  0  0
 28 26  2  0  0  0  0
 29 32  2  0  0  0  0
 29 30  1  0  0  0  0
 30 31  1  0  0  0  0
 31 66  1  0  0  0  0
 33 34  1  0  0  0  0
 34 35  2  0  0  0  0
 34 69  1  0  0  0  0
 35 70  1  0  0  0  0
 36 37  1  0  0  0  0
 36 33  2  0  0  0  0
 37 38  1  0  0  0  0
 38 39  2  0  0  0  0
 38 35  1  0  0  0  0
 39 72  1  0  0  0  0
 40 73  1  0  0  0  0
 40 39  1  0  0  0  0
 41 40  2  0  0  0  0
 42 41  1  0  0  0  0
 42 37  2  0  0  0  0
 43  3  1  0  0  0  0
 44  1  1  0  0  0  0
 45  9  1  0  0  0  0
 47 10  1  0  0  0  0
 51 14  1  0  0  0  0
 53 16  1  0  0  0  0
 54 16  1  0  0  0  0
 55 17  1  0  0  0  0
 63 27  1  0  0  0  0
 65 30  1  0  0  0  0
 67 31  1  0  0  0  0
 68 31  1  0  0  0  0
 71 36  1  0  0  0  0
 74 41  1  0  0  0  0
 75 42  1  0  0  0  0
M  END
