75
-1 1
O        -0.180824    2.507789    2.411272
C        -0.453910    1.538155    1.679996
N         0.150636    1.361203    0.487930
C         0.984571    2.378441   -0.152933
H         1.359343    1.928592   -1.085872
C         2.291749    2.744987    0.577930
O         2.339709    2.535581    1.898180
O         3.231386    3.186996   -0.020909
C         0.201882    3.662140   -0.487343
C        -0.891426    3.470206   -1.546568
C        -0.273979    3.410690   -2.939551
N        -0.126691    2.203915   -3.559529
C        -0.432644    0.898549   -2.990130
C        -0.893146   -0.064700   -4.073805
O         0.018393   -0.134848   -5.144987
C         0.223232    1.129142   -5.723370
C         0.757985    2.130462   -4.715214
O         0.115885    4.450506   -3.450587
C        -1.457177    0.563955    2.172821
C        -1.795313   -0.588720    1.578421
S         0.335223   -1.729432   -0.841334
C         1.718748   -1.702924    0.342787
C         2.905978   -0.814986   -0.098483
H         2.587810    0.232839   -0.137497
N         3.355347   -1.143934   -1.427202
C         3.094415   -0.362473   -2.499136
C         3.272255   -1.002921   -3.856401
O         2.726009    0.802095   -2.407973
C         4.055457   -0.976128    0.893939
N         4.063564   -0.072727    1.906033
C         5.049259   -0.098546    2.954286
O         4.854604   -1.893983    0.797071
C        -2.750135   -1.581651    2.093068
C        -2.674183   -2.901253    1.554919
C        -3.521567   -3.886772    1.990692
C        -3.706235   -1.302523    3.050345
C        -4.600104   -2.300869    3.515229
C        -4.506791   -3.620014    2.980976
C        -5.403898   -4.617049    3.452301
C        -6.348381   -4.323425    4.405830
C        -6.442978   -3.012406    4.935962
C        -5.590833   -2.027741    4.500042
H         0.044572    0.462148   -0.023908
H         1.405896    2.548089    2.252409
H         0.917684    4.411057   -0.856958
H        -0.241149    4.054395    0.439983
H        -1.531489    4.363368   -1.551869
H        -1.522674    2.610237   -1.288278
H        -1.222700    0.972278   -2.234402
H         0.453995    0.470646   -2.500068
H        -1.889455    0.241841   -4.457347
H        -0.967999   -1.071673   -3.641153
H        -0.728142    1.504903   -6.156191
H         0.944756    0.996873   -6.543156
H         0.835566    3.133376   -5.151656
H         1.754211    1.810379   -4.362655
H        -1.872612    0.870108    3.137329
H        -1.280859   -0.893194    0.649829
H         2.105805   -2.723469    0.502365
H         1.387805   -1.336526    1.331592
H         3.606660   -2.111675   -1.578975
H         3.689294   -2.018415   -3.815944
H         3.916686   -0.360936   -4.472978
H         2.276568   -1.034596   -4.326701
H         3.409867    0.705815    1.890312
H         4.581006   -0.205504    3.946466
H         5.656609    0.820707    2.954606
H         5.705886   -0.959828    2.776210
H        -1.913474   -3.100800    0.792549
H        -3.449117   -4.895297    1.575436
H        -3.796865   -0.291834    3.457011
H        -5.328343   -5.626880    3.040337
H        -7.030857   -5.100124    4.758870
H        -7.197494   -2.788332    5.693638
H        -5.660574   -1.015332    4.906676
