75
-1 1
O        -5.488870    2.574568   -0.575458
C        -5.871121    1.680645   -1.385507
N        -5.403418    1.703909   -2.679261
C        -4.662716    2.770748   -3.327922
H        -4.282978    2.331927   -4.262091
C        -3.353775    3.224053   -2.644456
O        -3.198632    2.912443   -1.367711
O        -2.518236    3.814570   -3.280484
C        -5.551378    3.974427   -3.675992
C        -6.667934    3.617402   -4.668085
C        -6.070911    3.298359   -6.033188
N        -5.981781    1.994479   -6.449059
C        -6.382170    0.809835   -5.706527
C        -6.924061   -0.253725   -6.651098
O        -6.017065   -0.552677   -7.683594
C        -5.704124    0.596709   -8.433019
C        -5.097859    1.686013   -7.565844
O        -5.633221    4.211654   -6.714813
C        -6.717646    0.603772   -1.019326
C        -7.303702   -0.263522   -1.968276
S        -5.834850   -1.649684   -2.948844
C        -4.433947   -1.433664   -1.837991
C        -3.204082   -0.750051   -2.472713
H        -3.444401    0.292623   -2.702112
N        -2.826053   -1.367229   -3.721497
C        -2.983137   -0.756936   -4.916896
C        -2.807254   -1.619569   -6.145196
O        -3.275401    0.427294   -5.028648
C        -2.030992   -0.816256   -1.495589
N        -1.808132    0.319954   -0.800574
C        -0.771236    0.426528    0.192791
O        -1.396359   -1.851980   -1.354692
C        -8.349860   -1.234626   -1.539999
C        -9.372205   -1.601471   -2.460061
C       -10.359252   -2.490949   -2.121065
C        -8.366998   -1.804277   -0.284386
C        -9.370438   -2.729767    0.100432
C       -10.391509   -3.082811   -0.829847
C       -11.395322   -4.009160   -0.436641
C       -11.390148   -4.564142    0.820156
C       -10.374852   -4.216434    1.746123
C        -9.392509   -3.323529    1.394143
H        -5.484791    0.833444   -3.198554
H        -4.154886    2.800253   -0.934480
H        -4.918398    4.758464   -4.116676
H        -5.993523    4.369108   -2.747645
H        -7.307266    4.498827   -4.818241
H        -7.291374    2.818101   -4.248025
H        -7.155781    1.053924   -4.970420
H        -5.514371    0.388455   -5.176672
H        -7.887568    0.085066   -7.086940
H        -7.095230   -1.181760   -6.087523
H        -6.618377    0.980289   -8.932274
H        -4.990019    0.289444   -9.210889
H        -4.935970    2.607006   -8.138196
H        -4.132822    1.337933   -7.156580
H        -6.872957    0.470117    0.050778
H        -7.541250    0.191840   -2.935278
H        -4.128525   -2.408249   -1.427393
H        -4.783050   -0.804374   -0.992008
H        -2.562849   -2.343302   -3.681393
H        -2.508001   -2.652899   -5.923184
H        -2.064050   -1.151988   -6.805824
H        -3.772454   -1.620818   -6.675864
H        -2.334130    1.165715   -1.029259
H        -1.186184    0.719853    1.170180
H        -0.015504    1.173089   -0.099117
H        -0.286308   -0.553369    0.288036
H        -9.358347   -1.160289   -3.460490
H       -11.135080   -2.756006   -2.844440
H        -7.581802   -1.557130    0.433448
H       -12.175025   -4.274992   -1.155895
H       -12.167038   -5.275841    1.109648
H       -10.376301   -4.663349    2.743217
H        -8.607742   -3.054602    2.106003
