83
-1 1
C         1.037166    1.680818    5.627061
O         1.060404    2.939148    5.020707
C         1.310815    2.869345    3.641769
C         1.336824    4.279892    3.075233
C         1.407122    4.315582    1.558897
O         0.193307    3.773261    1.059417
C         0.173890    3.159338   -0.141125
C         0.882378    3.582726   -1.236461
C        -0.647733    1.974557   -0.186130
N        -1.284591    1.633117    0.970245
C        -1.711858    0.321424    1.363894
O        -1.995094   -0.509593    0.472439
C        -1.719659    0.144226    2.748645
C        -2.068401   -1.138690    3.360303
S        -0.575165   -2.326857    3.641122
C         0.323863   -2.078031    2.083606
C         1.366678   -0.945201    2.084170
H         0.894699   -0.046072    2.504324
N         1.744339   -0.658204    0.723282
C         2.396907    0.478424    0.379708
C         2.948430    0.505005   -1.028518
O         2.552114    1.406727    1.157974
C         2.616568   -1.287950    2.915148
N         2.403539   -1.273958    4.257066
C         3.411810   -1.673130    5.202151
O         3.689915   -1.548009    2.402265
C        -2.741172   -1.042015    4.731533
N        -2.053667   -0.165223    5.671492
C        -2.687255    1.115140    5.863013
C        -1.642106   -0.787970    6.900723
C        -0.695376    1.254288   -1.368929
C         0.046511    1.673271   -2.497087
C         0.836013    2.847757   -2.448813
N         1.573748    3.268462   -3.517216
C         1.519085    2.524667   -4.586251
N         0.822667    1.379348   -4.756839
C         0.102623    0.953164   -3.739325
N        -0.614002   -0.218435   -3.829743
C        -0.751044   -1.131141   -4.870433
C        -1.557370   -2.257794   -4.628598
C        -1.748364   -3.216360   -5.615261
Cl        -2.748780   -4.607546   -5.305965
C        -1.139859   -3.072247   -6.860237
F        -1.322158   -3.992350   -7.809515
C        -0.342231   -1.965392   -7.107043
C        -0.141422   -0.995606   -6.129282
H         0.870130    1.829941    6.704400
H         1.995748    1.143082    5.487879
H         0.226014    1.035939    5.233360
H         0.531258    2.271811    3.132734
H         2.264840    2.350180    3.431776
H         2.200984    4.826345    3.486620
H         0.431427    4.812120    3.410366
H         2.246937    3.705073    1.189896
H         1.525130    5.354514    1.202622
H         1.516068    4.468798   -1.196191
H        -1.099182    2.273427    1.731274
H        -1.290938    0.916419    3.391535
H        -2.710153   -1.716239    2.678907
H        -0.425484   -1.848922    1.310645
H         0.810549   -3.034935    1.834213
H         1.763055   -1.431195    0.072223
H         2.338300   -0.081013   -1.730131
H         3.966243    0.085754   -1.006565
H         3.002144    1.543189   -1.375868
H         1.431300   -1.225242    4.559259
H         4.374717   -1.706233    4.676433
H         3.210632   -2.671722    5.626282
H         3.481478   -0.950728    6.031005
H        -2.838179   -2.051042    5.171363
H        -3.774192   -0.683786    4.563112
H        -2.934787    1.555253    4.887003
H        -2.000739    1.808252    6.376792
H        -3.625482    1.054753    6.464390
H        -1.056410   -1.695124    6.688539
H        -2.491885   -1.071757    7.566682
H        -0.994476   -0.100807    7.470426
H        -1.300643    0.347670   -1.328346
H         2.104653    2.848586   -5.455485
H        -1.124835   -0.452025   -2.988580
H        -2.042903   -2.393198   -3.659679
H         0.126676   -1.869994   -8.088115
H         0.483202   -0.125185   -6.313893
