-1 1
 OpenBabel05192410563D

 83 85  0  0  1  0  0  0  0  0999 V2000
    1.0372    1.6808    5.6271 C   0  0  0  0  0  0  0  0  0  0  0  0
    1.0604    2.9391    5.0207 O   0  0  0  0  0  0  0  0  0  0  0  0
    1.3108    2.8693    3.6418 C   0  0  0  0  0  0  0  0  0  0  0  0
    1.3368    4.2799    3.0752 C   0  0  0  0  0  0  0  0  0  0  0  0
    1.4071    4.3156    1.5589 C   0  0  0  0  0  0  0  0  0  0  0  0
    0.1933    3.7733    1.0594 O   0  0  0  0  0  0  0  0  0  0  0  0
    0.1739    3.1593   -0.1411 C   0  0  0  0  0  0  0  0  0  0  0  0
    0.8824    3.5827   -1.2365 C   0  0  0  0  0  0  0  0  0  0  0  0
   -0.6477    1.9746   -0.1861 C   0  0  0  0  0  0  0  0  0  0  0  0
   -1.2846    1.6331    0.9702 N   0  0  0  0  0  0  0  0  0  0  0  0
   -1.7119    0.3214    1.3639 C   0  0  0  0  0  0  0  0  0  0  0  0
   -1.9951   -0.5096    0.4724 O   0  0  0  0  0  0  0  0  0  0  0  0
   -1.7197    0.1442    2.7486 C   0  0  0  0  0  3  0  0  0  0  0  0
   -2.0684   -1.1387    3.3603 C   0  0  1  0  0  0  0  0  0  0  0  0
   -0.5752   -2.3269    3.6411 S   0  0  0  0  0  0  0  0  0  0  0  0
    0.3239   -2.0780    2.0836 C   0  0  0  0  0  0  0  0  0  0  0  0
    1.3667   -0.9452    2.0842 C   0  0  2  0  0  0  0  0  0  0  0  0
    0.8947   -0.0461    2.5043 H   0  0  0  0  0  0  0  0  0  0  0  0
    1.7443   -0.6582    0.7233 N   0  0  0  0  0  0  0  0  0  0  0  0
    2.3969    0.4784    0.3797 C   0  0  0  0  0  0  0  0  0  0  0  0
    2.9484    0.5050   -1.0285 C   0  0  0  0  0  0  0  0  0  0  0  0
    2.5521    1.4067    1.1580 O   0  0  0  0  0  0  0  0  0  0  0  0
    2.6166   -1.2879    2.9151 C   0  0  0  0  0  0  0  0  0  0  0  0
    2.4035   -1.2740    4.2571 N   0  0  0  0  0  0  0  0  0  0  0  0
    3.4118   -1.6731    5.2022 C   0  0  0  0  0  0  0  0  0  0  0  0
    3.6899   -1.5480    2.4023 O   0  0  0  0  0  0  0  0  0  0  0  0
   -2.7412   -1.0420    4.7315 C   0  0  0  0  0  0  0  0  0  0  0  0
   -2.0537   -0.1652    5.6715 N   0  0  0  0  0  0  0  0  0  0  0  0
   -2.6873    1.1151    5.8630 C   0  0  0  0  0  0  0  0  0  0  0  0
   -1.6421   -0.7880    6.9007 C   0  0  0  0  0  0  0  0  0  0  0  0
   -0.6954    1.2543   -1.3689 C   0  0  0  0  0  0  0  0  0  0  0  0
    0.0465    1.6733   -2.4971 C   0  0  0  0  0  0  0  0  0  0  0  0
    0.8360    2.8478   -2.4488 C   0  0  0  0  0  0  0  0  0  0  0  0
    1.5737    3.2685   -3.5172 N   0  0  0  0  0  0  0  0  0  0  0  0
    1.5191    2.5247   -4.5863 C   0  0  0  0  0  0  0  0  0  0  0  0
    0.8227    1.3793   -4.7568 N   0  0  0  0  0  0  0  0  0  0  0  0
    0.1026    0.9532   -3.7393 C   0  0  0  0  0  0  0  0  0  0  0  0
   -0.6140   -0.2184   -3.8297 N   0  0  0  0  0  0  0  0  0  0  0  0
   -0.7510   -1.1311   -4.8704 C   0  0  0  0  0  0  0  0  0  0  0  0
   -1.5574   -2.2578   -4.6286 C   0  0  0  0  0  0  0  0  0  0  0  0
   -1.7484   -3.2164   -5.6153 C   0  0  0  0  0  0  0  0  0  0  0  0
   -2.7488   -4.6075   -5.3060 Cl  0  0  0  0  0  0  0  0  0  0  0  0
   -1.1399   -3.0722   -6.8602 C   0  0  0  0  0  0  0  0  0  0  0  0
   -1.3222   -3.9924   -7.8095 F   0  0  0  0  0  0  0  0  0  0  0  0
   -0.3422   -1.9654   -7.1070 C   0  0  0  0  0  0  0  0  0  0  0  0
   -0.1414   -0.9956   -6.1293 C   0  0  0  0  0  0  0  0  0  0  0  0
    0.8701    1.8299    6.7044 H   0  0  0  0  0  0  0  0  0  0  0  0
    1.9957    1.1431    5.4879 H   0  0  0  0  0  0  0  0  0  0  0  0
    0.2260    1.0359    5.2334 H   0  0  0  0  0  0  0  0  0  0  0  0
    0.5313    2.2718    3.1327 H   0  0  0  0  0  0  0  0  0  0  0  0
    2.2648    2.3502    3.4318 H   0  0  0  0  0  0  0  0  0  0  0  0
    2.2010    4.8263    3.4866 H   0  0  0  0  0  0  0  0  0  0  0  0
    0.4314    4.8121    3.4104 H   0  0  0  0  0  0  0  0  0  0  0  0
    2.2469    3.7051    1.1899 H   0  0  0  0  0  0  0  0  0  0  0  0
    1.5251    5.3545    1.2026 H   0  0  0  0  0  0  0  0  0  0  0  0
    1.5161    4.4688   -1.1962 H   0  0  0  0  0  0  0  0  0  0  0  0
   -1.0992    2.2734    1.7313 H   0  0  0  0  0  0  0  0  0  0  0  0
   -1.2909    0.9164    3.3915 H   0  0  0  0  0  0  0  0  0  0  0  0
   -2.7102   -1.7162    2.6789 H   0  0  0  0  0  0  0  0  0  0  0  0
   -0.4255   -1.8489    1.3106 H   0  0  0  0  0  0  0  0  0  0  0  0
    0.8105   -3.0349    1.8342 H   0  0  0  0  0  0  0  0  0  0  0  0
    1.7631   -1.4312    0.0722 H   0  0  0  0  0  0  0  0  0  0  0  0
    2.3383   -0.0810   -1.7301 H   0  0  0  0  0  0  0  0  0  0  0  0
    3.9662    0.0858   -1.0066 H   0  0  0  0  0  0  0  0  0  0  0  0
    3.0021    1.5432   -1.3759 H   0  0  0  0  0  0  0  0  0  0  0  0
    1.4313   -1.2252    4.5593 H   0  0  0  0  0  0  0  0  0  0  0  0
    4.3747   -1.7062    4.6764 H   0  0  0  0  0  0  0  0  0  0  0  0
    3.2106   -2.6717    5.6263 H   0  0  0  0  0  0  0  0  0  0  0  0
    3.4815   -0.9507    6.0310 H   0  0  0  0  0  0  0  0  0  0  0  0
   -2.8382   -2.0510    5.1714 H   0  0  0  0  0  0  0  0  0  0  0  0
   -3.7742   -0.6838    4.5631 H   0  0  0  0  0  0  0  0  0  0  0  0
   -2.9348    1.5553    4.8870 H   0  0  0  0  0  0  0  0  0  0  0  0
   -2.0007    1.8083    6.3768 H   0  0  0  0  0  0  0  0  0  0  0  0
   -3.6255    1.0548    6.4644 H   0  0  0  0  0  0  0  0  0  0  0  0
   -1.0564   -1.6951    6.6885 H   0  0  0  0  0  0  0  0  0  0  0  0
   -2.4919   -1.0718    7.5667 H   0  0  0  0  0  0  0  0  0  0  0  0
   -0.9945   -0.1008    7.4704 H   0  0  0  0  0  0  0  0  0  0  0  0
   -1.3006    0.3477   -1.3283 H   0  0  0  0  0  0  0  0  0  0  0  0
    2.1047    2.8486   -5.4555 H   0  0  0  0  0  0  0  0  0  0  0  0
   -1.1248   -0.4520   -2.9886 H   0  0  0  0  0  0  0  0  0  0  0  0
   -2.0429   -2.3932   -3.6597 H   0  0  0  0  0  0  0  0  0  0  0  0
    0.1267   -1.8700   -8.0881 H   0  0  0  0  0  0  0  0  0  0  0  0
    0.4832   -0.1252   -6.3139 H   0  0  0  0  0  0  0  0  0  0  0  0
  1 47  1  0  0  0  0
  2  1  1  0  0  0  0
  3  2  1  0  0  0  0
  4 53  1  0  0  0  0
  4 52  1  0  0  0  0
  4  3  1  0  0  0  0
  5  4  1  0  0  0  0
  6  5  1  0  0  0  0
  7  6  1  0  0  0  0
  8 56  1  0  0  0  0
  8  7  2  0  0  0  0
  9  7  1  0  0  0  0
  9 10  1  0  0  0  0
 10 11  1  0  0  0  0
 10 57  1  0  0  0  0
 11 13  1  0  0  0  0
 12 11  2  0  0  0  0
 13 14  1  0  0  0  0
 13 58  1  0  0  0  0
 14 59  1  6  0  0  0
 14 15  1  0  0  0  0
 14 27  1  0  0  0  0
 16 17  1  0  0  0  0
 16 15  1  0  0  0  0
 17 18  1  1  0  0  0
 17 23  1  0  0  0  0
 19 17  1  0  0  0  0
 20 19  1  0  0  0  0
 20 22  2  0  0  0  0
 21 64  1  0  0  0  0
 21 20  1  0  0  0  0
 23 24  1  0  0  0  0
 24 66  1  0  0  0  0
 24 25  1  0  0  0  0
 25 68  1  0  0  0  0
 25 69  1  0  0  0  0
 26 23  2  0  0  0  0
 27 70  1  0  0  0  0
 27 28  1  0  0  0  0
 28 29  1  0  0  0  0
 28 30  1  0  0  0  0
 29 73  1  0  0  0  0
 29 74  1  0  0  0  0
 30 77  1  0  0  0  0
 30 76  1  0  0  0  0
 31 78  1  0  0  0  0
 31  9  2  0  0  0  0
 32 33  2  0  0  0  0
 32 31  1  0  0  0  0
 33  8  1  0  0  0  0
 34 33  1  0  0  0  0
 35 34  2  0  0  0  0
 36 35  1  0  0  0  0
 36 37  2  0  0  0  0
 37 32  1  0  0  0  0
 38 37  1  0  0  0  0
 38 80  1  0  0  0  0
 39 40  1  0  0  0  0
 39 38  1  0  0  0  0
 40 81  1  0  0  0  0
 41 42  1  0  0  0  0
 41 40  2  0  0  0  0
 43 41  1  0  0  0  0
 44 43  1  0  0  0  0
 45 43  2  0  0  0  0
 45 46  1  0  0  0  0
 46 39  2  0  0  0  0
 48  1  1  0  0  0  0
 49  1  1  0  0  0  0
 50  3  1  0  0  0  0
 51  3  1  0  0  0  0
 54  5  1  0  0  0  0
 55  5  1  0  0  0  0
 60 16  1  0  0  0  0
 61 16  1  0  0  0  0
 62 19  1  0  0  0  0
 63 21  1  0  0  0  0
 65 21  1  0  0  0  0
 67 25  1  0  0  0  0
 71 27  1  0  0  0  0
 72 29  1  0  0  0  0
 75 30  1  0  0  0  0
 79 35  1  0  0  0  0
 82 45  1  0  0  0  0
 83 46  1  0  0  0  0
M  END
