-1 1
 OpenBabel05192410563D

 83 85  0  0  1  0  0  0  0  0999 V2000
   -2.3570   -8.6121   -0.2995 C   0  0  0  0  0  0  0  0  0  0  0  0
   -1.0474   -8.1832   -0.1097 O   0  0  0  0  0  0  0  0  0  0  0  0
   -0.7898   -7.7158    1.1793 C   0  0  0  0  0  0  0  0  0  0  0  0
    0.5897   -7.0678    1.2296 C   0  0  2  0  0  0  0  0  0  0  0  0
    0.8319   -6.8770    2.2907 H   0  0  0  0  0  0  0  0  0  0  0  0
    0.6060   -5.8492    0.5148 O   0  0  0  0  0  0  0  0  0  0  0  0
    0.0785   -4.7196    1.0401 C   0  0  0  0  0  0  0  0  0  0  0  0
   -0.4548   -4.6088    2.3037 C   0  0  0  0  0  0  0  0  0  0  0  0
    0.1559   -3.5804    0.1528 C   0  0  0  0  0  0  0  0  0  0  0  0
    0.7226   -3.7567   -1.0797 N   0  0  0  0  0  0  0  0  0  0  0  0
    1.2965   -2.6402   -1.8490 C   0  0  0  0  0  0  0  0  0  0  0  0
    2.5355   -2.6331   -1.9178 O   0  0  0  0  0  0  0  0  0  0  0  0
    0.3459   -1.7763   -2.3884 C   0  0  0  0  0  3  0  0  0  0  0  0
    0.6180   -0.4129   -2.8853 C   0  0  1  0  0  0  0  0  0  0  0  0
    0.1622    0.7784   -1.4576 S   0  0  0  0  0  0  0  0  0  0  0  0
   -0.0836    2.4268   -2.1970 C   0  0  0  0  0  0  0  0  0  0  0  0
    0.9891    3.4160   -1.7745 C   0  0  2  0  0  0  0  0  0  0  0  0
    1.9703    2.9900   -2.0325 H   0  0  0  0  0  0  0  0  0  0  0  0
    0.9457    3.6000   -0.3305 N   0  0  0  0  0  0  0  0  0  0  0  0
    2.0266    3.8902    0.4255 C   0  0  0  0  0  0  0  0  0  0  0  0
    1.8405    3.6965    1.9144 C   0  0  0  0  0  0  0  0  0  0  0  0
    3.0922    4.2627   -0.0535 O   0  0  0  0  0  0  0  0  0  0  0  0
    0.8547    4.7585   -2.5161 C   0  0  0  0  0  0  0  0  0  0  0  0
    1.9179    5.5785   -2.3236 N   0  0  0  0  0  0  0  0  0  0  0  0
    1.9666    6.9147   -2.8522 C   0  0  0  0  0  0  0  0  0  0  0  0
   -0.1034    5.0348   -3.2180 O   0  0  0  0  0  0  0  0  0  0  0  0
    2.0494   -0.1498   -3.3477 C   0  0  0  0  0  0  0  0  0  0  0  0
    2.2820    1.2003   -3.8437 N   0  0  0  0  0  0  0  0  0  0  0  0
    3.6516    1.6277   -3.7007 C   0  0  0  0  0  0  0  0  0  0  0  0
    1.7851    1.4215   -5.1777 C   0  0  0  0  0  0  0  0  0  0  0  0
   -0.3393   -2.3732    0.6260 C   0  0  0  0  0  0  0  0  0  0  0  0
   -0.8764   -2.2450    1.9244 C   0  0  0  0  0  0  0  0  0  0  0  0
   -0.9375   -3.3639    2.7855 C   0  0  0  0  0  0  0  0  0  0  0  0
   -1.4221   -3.2789    4.0581 N   0  0  0  0  0  0  0  0  0  0  0  0
   -1.8057   -2.0936    4.4458 C   0  0  0  0  0  0  0  0  0  0  0  0
   -1.7963   -0.9497    3.7291 N   0  0  0  0  0  0  0  0  0  0  0  0
   -1.3595   -1.0129    2.4864 C   0  0  0  0  0  0  0  0  0  0  0  0
   -1.3685    0.1135    1.6967 N   0  0  0  0  0  0  0  0  0  0  0  0
   -1.6769    1.4277    2.0331 C   0  0  0  0  0  0  0  0  0  0  0  0
   -1.9752    2.3060    0.9758 C   0  0  0  0  0  0  0  0  0  0  0  0
   -2.2196    3.6545    1.2158 C   0  0  0  0  0  0  0  0  0  0  0  0
   -2.5434    4.7335   -0.1086 Cl  0  0  0  0  0  0  0  0  0  0  0  0
   -2.1916    4.1464    2.5190 C   0  0  0  0  0  0  0  0  0  0  0  0
   -2.4257    5.4379    2.7575 F   0  0  0  0  0  0  0  0  0  0  0  0
   -1.9255    3.2824    3.5720 C   0  0  0  0  0  0  0  0  0  0  0  0
   -1.6688    1.9338    3.3441 C   0  0  0  0  0  0  0  0  0  0  0  0
    1.6694   -7.9448    0.6212 C   0  0  0  0  0  0  0  0  0  0  0  0
   -2.6206   -9.4556    0.3711 H   0  0  0  0  0  0  0  0  0  0  0  0
   -2.4549   -8.9504   -1.3401 H   0  0  0  0  0  0  0  0  0  0  0  0
   -3.0877   -7.7984   -0.1246 H   0  0  0  0  0  0  0  0  0  0  0  0
   -0.8205   -8.5473    1.9168 H   0  0  0  0  0  0  0  0  0  0  0  0
   -1.5543   -6.9777    1.4898 H   0  0  0  0  0  0  0  0  0  0  0  0
   -0.5145   -5.4508    2.9919 H   0  0  0  0  0  0  0  0  0  0  0  0
    1.3178   -4.5772   -1.1240 H   0  0  0  0  0  0  0  0  0  0  0  0
   -0.7058   -2.0448   -2.2635 H   0  0  0  0  0  0  0  0  0  0  0  0
   -0.1022   -0.1204   -3.6677 H   0  0  0  0  0  0  0  0  0  0  0  0
   -1.0770    2.8185   -1.9285 H   0  0  0  0  0  0  0  0  0  0  0  0
   -0.0716    2.3255   -3.2873 H   0  0  0  0  0  0  0  0  0  0  0  0
    0.1147    3.2717    0.1470 H   0  0  0  0  0  0  0  0  0  0  0  0
    2.4060    4.4672    2.4526 H   0  0  0  0  0  0  0  0  0  0  0  0
    2.2543    2.7135    2.1854 H   0  0  0  0  0  0  0  0  0  0  0  0
    0.7849    3.7201    2.2213 H   0  0  0  0  0  0  0  0  0  0  0  0
    2.6233    5.2614   -1.6549 H   0  0  0  0  0  0  0  0  0  0  0  0
    1.9120    7.6740   -2.0536 H   0  0  0  0  0  0  0  0  0  0  0  0
    1.1047    7.0470   -3.5192 H   0  0  0  0  0  0  0  0  0  0  0  0
    2.8912    7.0843   -3.4270 H   0  0  0  0  0  0  0  0  0  0  0  0
    2.3027   -0.9166   -4.1114 H   0  0  0  0  0  0  0  0  0  0  0  0
    2.7237   -0.3520   -2.5072 H   0  0  0  0  0  0  0  0  0  0  0  0
    3.9675    1.5390   -2.6506 H   0  0  0  0  0  0  0  0  0  0  0  0
    3.7478    2.6873   -3.9915 H   0  0  0  0  0  0  0  0  0  0  0  0
    4.3653    1.0397   -4.3235 H   0  0  0  0  0  0  0  0  0  0  0  0
    1.8385    2.4921   -5.4351 H   0  0  0  0  0  0  0  0  0  0  0  0
    0.7302    1.1183   -5.2529 H   0  0  0  0  0  0  0  0  0  0  0  0
    2.3501    0.8517   -5.9524 H   0  0  0  0  0  0  0  0  0  0  0  0
   -0.2519   -1.5193   -0.0426 H   0  0  0  0  0  0  0  0  0  0  0  0
   -2.1847   -1.9991    5.4712 H   0  0  0  0  0  0  0  0  0  0  0  0
   -1.1130   -0.0178    0.7202 H   0  0  0  0  0  0  0  0  0  0  0  0
   -2.0160    1.9222   -0.0455 H   0  0  0  0  0  0  0  0  0  0  0  0
   -1.9171    3.6864    4.5860 H   0  0  0  0  0  0  0  0  0  0  0  0
   -1.4786    1.2546    4.1709 H   0  0  0  0  0  0  0  0  0  0  0  0
    2.6447   -7.4448    0.6952 H   0  0  0  0  0  0  0  0  0  0  0  0
    1.4406   -8.1329   -0.4358 H   0  0  0  0  0  0  0  0  0  0  0  0
    1.7212   -8.9093    1.1476 H   0  0  0  0  0  0  0  0  0  0  0  0
  1 50  1  0  0  0  0
  1  2  1  0  0  0  0
  1 48  1  0  0  0  0
  2  3  1  0  0  0  0
  3  4  1  0  0  0  0
  3 52  1  0  0  0  0
  3 51  1  0  0  0  0
  4  5  1  1  0  0  0
  6  7  1  0  0  0  0
  6  4  1  0  0  0  0
  7  8  1  0  0  0  0
  8 33  2  0  0  0  0
  8 53  1  0  0  0  0
  9 31  1  0  0  0  0
  9  7  2  0  0  0  0
 10  9  1  0  0  0  0
 11 10  1  0  0  0  0
 12 11  2  0  0  0  0
 13 55  1  0  0  0  0
 13 11  1  0  0  0  0
 14 56  1  6  0  0  0
 14 13  1  0  0  0  0
 14 15  1  0  0  0  0
 16 57  1  0  0  0  0
 16 17  1  0  0  0  0
 16 15  1  0  0  0  0
 17 18  1  6  0  0  0
 17 19  1  0  0  0  0
 19 59  1  0  0  0  0
 19 20  1  0  0  0  0
 20 21  1  0  0  0  0
 21 61  1  0  0  0  0
 21 62  1  0  0  0  0
 21 60  1  0  0  0  0
 22 20  2  0  0  0  0
 23 24  1  0  0  0  0
 23 17  1  0  0  0  0
 24 63  1  0  0  0  0
 25 24  1  0  0  0  0
 25 64  1  0  0  0  0
 26 23  2  0  0  0  0
 27 14  1  0  0  0  0
 27 68  1  0  0  0  0
 28 29  1  0  0  0  0
 28 27  1  0  0  0  0
 29 69  1  0  0  0  0
 30 28  1  0  0  0  0
 31 32  2  0  0  0  0
 32 37  1  0  0  0  0
 32 33  1  0  0  0  0
 33 34  1  0  0  0  0
 34 35  2  0  0  0  0
 35 76  1  0  0  0  0
 36 35  1  0  0  0  0
 37 36  2  0  0  0  0
 38 39  1  0  0  0  0
 38 37  1  0  0  0  0
 39 46  1  0  0  0  0
 40 41  1  0  0  0  0
 40 39  2  0  0  0  0
 41 43  2  0  0  0  0
 42 41  1  0  0  0  0
 43 44  1  0  0  0  0
 43 45  1  0  0  0  0
 45 79  1  0  0  0  0
 46 45  2  0  0  0  0
 46 80  1  0  0  0  0
 47 81  1  0  0  0  0
 47 83  1  0  0  0  0
 47  4  1  0  0  0  0
 49  1  1  0  0  0  0
 54 10  1  0  0  0  0
 58 16  1  0  0  0  0
 65 25  1  0  0  0  0
 66 25  1  0  0  0  0
 67 27  1  0  0  0  0
 70 29  1  0  0  0  0
 71 29  1  0  0  0  0
 72 30  1  0  0  0  0
 73 30  1  0  0  0  0
 74 30  1  0  0  0  0
 75 31  1  0  0  0  0
 77 38  1  0  0  0  0
 78 40  1  0  0  0  0
 82 47  1  0  0  0  0
M  END
