83
-1 1
C        -2.356985   -8.612136   -0.299518
O        -1.047365   -8.183240   -0.109688
C        -0.789752   -7.715845    1.179281
C         0.589747   -7.067848    1.229592
H         0.831927   -6.876989    2.290681
O         0.605973   -5.849232    0.514751
C         0.078450   -4.719650    1.040126
C        -0.454770   -4.608787    2.303659
C         0.155905   -3.580450    0.152814
N         0.722633   -3.756726   -1.079667
C         1.296492   -2.640216   -1.849023
O         2.535465   -2.633101   -1.917827
C         0.345878   -1.776330   -2.388368
C         0.618033   -0.412949   -2.885349
S         0.162199    0.778450   -1.457556
C        -0.083632    2.426753   -2.196970
C         0.989055    3.415973   -1.774549
H         1.970332    2.989977   -2.032451
N         0.945735    3.600007   -0.330465
C         2.026565    3.890239    0.425534
C         1.840464    3.696522    1.914413
O         3.092250    4.262712   -0.053465
C         0.854739    4.758508   -2.516063
N         1.917902    5.578483   -2.323611
C         1.966560    6.914710   -2.852173
O        -0.103359    5.034788   -3.217952
C         2.049449   -0.149789   -3.347697
N         2.282022    1.200343   -3.843653
C         3.651635    1.627718   -3.700737
C         1.785082    1.421520   -5.177729
C        -0.339305   -2.373218    0.625952
C        -0.876439   -2.245040    1.924431
C        -0.937542   -3.363904    2.785524
N        -1.422064   -3.278948    4.058109
C        -1.805712   -2.093606    4.445790
N        -1.796271   -0.949670    3.729065
C        -1.359479   -1.012930    2.486424
N        -1.368453    0.113499    1.696661
C        -1.676909    1.427706    2.033092
C        -1.975188    2.305982    0.975773
C        -2.219612    3.654506    1.215759
Cl        -2.543368    4.733472   -0.108556
C        -2.191612    4.146413    2.519020
F        -2.425715    5.437893    2.757482
C        -1.925532    3.282425    3.571975
C        -1.668783    1.933766    3.344102
C         1.669397   -7.944763    0.621236
H        -2.620584   -9.455620    0.371110
H        -2.454948   -8.950395   -1.340098
H        -3.087670   -7.798352   -0.124623
H        -0.820538   -8.547285    1.916823
H        -1.554275   -6.977692    1.489806
H        -0.514498   -5.450850    2.991904
H         1.317755   -4.577234   -1.123952
H        -0.705790   -2.044754   -2.263490
H        -0.102177   -0.120386   -3.667658
H        -1.077043    2.818523   -1.928513
H        -0.071596    2.325512   -3.287287
H         0.114677    3.271713    0.147046
H         2.406038    4.467191    2.452606
H         2.254251    2.713500    2.185409
H         0.784906    3.720105    2.221324
H         2.623301    5.261383   -1.654909
H         1.911999    7.673996   -2.053645
H         1.104740    7.046964   -3.519204
H         2.891213    7.084347   -3.426982
H         2.302660   -0.916556   -4.111446
H         2.723707   -0.352022   -2.507178
H         3.967536    1.539032   -2.650647
H         3.747821    2.687336   -3.991473
H         4.365287    1.039695   -4.323546
H         1.838501    2.492136   -5.435050
H         0.730223    1.118264   -5.252884
H         2.350139    0.851688   -5.952395
H        -0.251918   -1.519289   -0.042580
H        -2.184712   -1.999067    5.471235
H        -1.113024   -0.017770    0.720240
H        -2.015954    1.922209   -0.045546
H        -1.917108    3.686401    4.585976
H        -1.478570    1.254640    4.170935
H         2.644654   -7.444788    0.695179
H         1.440618   -8.132860   -0.435814
H         1.721246   -8.909265    1.147633
