-1 1
 OpenBabel05232414493D

 83 85  0  0  1  0  0  0  0  0999 V2000
   -0.8678    3.1641    7.6190 C   0  0  0  0  0  0  0  0  0  0  0  0
    0.4280    3.5249    7.9755 O   0  0  0  0  0  0  0  0  0  0  0  0
    0.5477    3.9615    9.2947 C   0  0  0  0  0  0  0  0  0  0  0  0
    1.9409    4.5368    9.5243 C   0  0  2  0  0  0  0  0  0  0  0  0
    2.0598    4.7062   10.6095 H   0  0  0  0  0  0  0  0  0  0  0  0
    2.1056    5.7601    8.8343 O   0  0  0  0  0  0  0  0  0  0  0  0
    1.5655    6.9081    9.3044 C   0  0  0  0  0  0  0  0  0  0  0  0
    0.8990    7.0382   10.5002 C   0  0  0  0  0  0  0  0  0  0  0  0
    1.7811    8.0445    8.4431 C   0  0  0  0  0  0  0  0  0  0  0  0
    2.4778    7.8173    7.2762 N   0  0  0  0  0  0  0  0  0  0  0  0
    3.0000    8.8351    6.4029 C   0  0  0  0  0  0  0  0  0  0  0  0
    4.2081    8.7883    6.1663 O   0  0  0  0  0  0  0  0  0  0  0  0
    2.0339    9.7376    5.8852 C   0  0  0  0  0  3  0  0  0  0  0  0
    2.3307   11.0187    5.3812 C   0  0  1  0  0  0  0  0  0  0  0  0
    2.0083   12.4997    7.0476 S   0  0  0  0  0  0  0  0  0  0  0  0
    1.6086   14.0573    6.1981 C   0  0  0  0  0  0  0  0  0  0  0  0
    2.5762   15.1769    6.5516 C   0  0  2  0  0  0  0  0  0  0  0  0
    3.5985   14.8561    6.2915 H   0  0  0  0  0  0  0  0  0  0  0  0
    2.5319   15.4183    7.9885 N   0  0  0  0  0  0  0  0  0  0  0  0
    3.5616   15.8990    8.7145 C   0  0  0  0  0  0  0  0  0  0  0  0
    3.4264   15.7260   10.2121 C   0  0  0  0  0  0  0  0  0  0  0  0
    4.5511   16.4238    8.2120 O   0  0  0  0  0  0  0  0  0  0  0  0
    2.2734   16.4634    5.7572 C   0  0  0  0  0  0  0  0  0  0  0  0
    3.2225   17.4211    5.9066 N   0  0  0  0  0  0  0  0  0  0  0  0
    3.0937   18.7292    5.3246 C   0  0  0  0  0  0  0  0  0  0  0  0
    1.2886   16.5861    5.0485 O   0  0  0  0  0  0  0  0  0  0  0  0
    3.7282   11.3627    4.9086 C   0  0  0  0  0  0  0  0  0  0  0  0
    3.8595   12.7122    4.3823 N   0  0  0  0  0  0  0  0  0  0  0  0
    5.1778   13.2665    4.5509 C   0  0  0  0  0  0  0  0  0  0  0  0
    3.3727   12.8534    3.0347 C   0  0  0  0  0  0  0  0  0  0  0  0
    1.3063    9.2756    8.8671 C   0  0  0  0  0  0  0  0  0  0  0  0
    0.6263    9.4233   10.0994 C   0  0  0  0  0  0  0  0  0  0  0  0
    0.4156    8.3000   10.9307 C   0  0  0  0  0  0  0  0  0  0  0  0
   -0.2164    8.3863   12.1376 N   0  0  0  0  0  0  0  0  0  0  0  0
   -0.5966    9.5831   12.4926 C   0  0  0  0  0  0  0  0  0  0  0  0
   -0.4475   10.7322   11.8066 N   0  0  0  0  0  0  0  0  0  0  0  0
    0.1383   10.6748   10.6232 C   0  0  0  0  0  0  0  0  0  0  0  0
    0.2724   11.8200    9.8866 N   0  0  0  0  0  0  0  0  0  0  0  0
   -0.0576   13.1254   10.2586 C   0  0  0  0  0  0  0  0  0  0  0  0
   -0.3689   14.0239    9.2253 C   0  0  0  0  0  0  0  0  0  0  0  0
   -0.6204   15.3651    9.4968 C   0  0  0  0  0  0  0  0  0  0  0  0
   -0.9557   16.4707    8.1993 Cl  0  0  0  0  0  0  0  0  0  0  0  0
   -0.5916   15.8240   10.8118 C   0  0  0  0  0  0  0  0  0  0  0  0
   -0.8348   17.1071   11.0836 F   0  0  0  0  0  0  0  0  0  0  0  0
   -0.3110   14.9390   11.8439 C   0  0  0  0  0  0  0  0  0  0  0  0
   -0.0412   13.5995   11.5801 C   0  0  0  0  0  0  0  0  0  0  0  0
    3.0420    3.6115    9.0390 C   0  0  0  0  0  0  0  0  0  0  0  0
   -1.2513    2.3259    8.2361 H   0  0  0  0  0  0  0  0  0  0  0  0
   -0.8531    2.8452    6.5679 H   0  0  0  0  0  0  0  0  0  0  0  0
   -1.5745    4.0109    7.7192 H   0  0  0  0  0  0  0  0  0  0  0  0
    0.3862    3.1237   10.0076 H   0  0  0  0  0  0  0  0  0  0  0  0
   -0.2120    4.7336    9.5242 H   0  0  0  0  0  0  0  0  0  0  0  0
    0.7233    6.1988   11.1713 H   0  0  0  0  0  0  0  0  0  0  0  0
    3.0807    7.0028    7.3176 H   0  0  0  0  0  0  0  0  0  0  0  0
    0.9836    9.5026    6.0711 H   0  0  0  0  0  0  0  0  0  0  0  0
    1.5333   11.4849    4.7913 H   0  0  0  0  0  0  0  0  0  0  0  0
    0.5802   14.3911    6.4090 H   0  0  0  0  0  0  0  0  0  0  0  0
    1.6690   13.8859    5.1165 H   0  0  0  0  0  0  0  0  0  0  0  0
    1.8122   14.9102    8.4906 H   0  0  0  0  0  0  0  0  0  0  0  0
    3.8614   16.5981   10.7161 H   0  0  0  0  0  0  0  0  0  0  0  0
    4.0009   14.8352   10.5077 H   0  0  0  0  0  0  0  0  0  0  0  0
    2.3846   15.5859   10.5340 H   0  0  0  0  0  0  0  0  0  0  0  0
    3.9562   17.2321    6.5943 H   0  0  0  0  0  0  0  0  0  0  0  0
    2.9319   19.5058    6.0917 H   0  0  0  0  0  0  0  0  0  0  0  0
    2.2266   18.7184    4.6515 H   0  0  0  0  0  0  0  0  0  0  0  0
    3.9912   18.9997    4.7449 H   0  0  0  0  0  0  0  0  0  0  0  0
    4.0306   10.6000    4.1572 H   0  0  0  0  0  0  0  0  0  0  0  0
    4.4239   11.2226    5.7448 H   0  0  0  0  0  0  0  0  0  0  0  0
    5.4658   13.2349    5.6123 H   0  0  0  0  0  0  0  0  0  0  0  0
    5.1865   14.3221    4.2321 H   0  0  0  0  0  0  0  0  0  0  0  0
    5.9633   12.7324    3.9653 H   0  0  0  0  0  0  0  0  0  0  0  0
    3.3413   13.9171    2.7479 H   0  0  0  0  0  0  0  0  0  0  0  0
    2.3477   12.4619    2.9523 H   0  0  0  0  0  0  0  0  0  0  0  0
    3.9978   12.3121    2.2848 H   0  0  0  0  0  0  0  0  0  0  0  0
    1.4983   10.1384    8.2314 H   0  0  0  0  0  0  0  0  0  0  0  0
   -1.0992    9.6805   13.4635 H   0  0  0  0  0  0  0  0  0  0  0  0
    0.6624   11.7556    8.9398 H   0  0  0  0  0  0  0  0  0  0  0  0
   -0.4022   13.6639    8.1965 H   0  0  0  0  0  0  0  0  0  0  0  0
   -0.2984   15.3202   12.8666 H   0  0  0  0  0  0  0  0  0  0  0  0
    0.1671   12.9086   12.3924 H   0  0  0  0  0  0  0  0  0  0  0  0
    4.0250    4.0590    9.2397 H   0  0  0  0  0  0  0  0  0  0  0  0
    2.9354    3.4448    7.9592 H   0  0  0  0  0  0  0  0  0  0  0  0
    2.9804    2.6410    9.5529 H   0  0  0  0  0  0  0  0  0  0  0  0
  1 50  1  0  0  0  0
  1  2  1  0  0  0  0
  1 48  1  0  0  0  0
  2  3  1  0  0  0  0
  3 52  1  0  0  0  0
  3  4  1  0  0  0  0
  3 51  1  0  0  0  0
  4  5  1  1  0  0  0
  6  7  1  0  0  0  0
  6  4  1  0  0  0  0
  7  8  1  0  0  0  0
  8 33  2  0  0  0  0
  8 53  1  0  0  0  0
  9 31  1  0  0  0  0
  9  7  2  0  0  0  0
 10 54  1  0  0  0  0
 10  9  1  0  0  0  0
 11 10  1  0  0  0  0
 12 11  2  0  0  0  0
 13 55  1  0  0  0  0
 13 11  1  0  0  0  0
 14 56  1  6  0  0  0
 14 13  1  0  0  0  0
 14 15  1  0  0  0  0
 16 57  1  0  0  0  0
 16 17  1  0  0  0  0
 16 15  1  0  0  0  0
 17 18  1  6  0  0  0
 17 19  1  0  0  0  0
 19 59  1  0  0  0  0
 19 20  1  0  0  0  0
 20 21  1  0  0  0  0
 21 61  1  0  0  0  0
 21 62  1  0  0  0  0
 21 60  1  0  0  0  0
 22 20  2  0  0  0  0
 23 24  1  0  0  0  0
 23 17  1  0  0  0  0
 24 63  1  0  0  0  0
 25 24  1  0  0  0  0
 25 64  1  0  0  0  0
 26 23  2  0  0  0  0
 27 14  1  0  0  0  0
 27 68  1  0  0  0  0
 28 29  1  0  0  0  0
 28 27  1  0  0  0  0
 29 69  1  0  0  0  0
 30 28  1  0  0  0  0
 31 32  2  0  0  0  0
 32 37  1  0  0  0  0
 32 33  1  0  0  0  0
 33 34  1  0  0  0  0
 34 35  2  0  0  0  0
 35 76  1  0  0  0  0
 36 35  1  0  0  0  0
 37 36  2  0  0  0  0
 38 39  1  0  0  0  0
 38 37  1  0  0  0  0
 39 46  1  0  0  0  0
 40 41  1  0  0  0  0
 40 39  2  0  0  0  0
 41 43  2  0  0  0  0
 42 41  1  0  0  0  0
 43 44  1  0  0  0  0
 43 45  1  0  0  0  0
 45 79  1  0  0  0  0
 46 45  2  0  0  0  0
 46 80  1  0  0  0  0
 47 81  1  0  0  0  0
 47  4  1  0  0  0  0
 47 83  1  0  0  0  0
 49  1  1  0  0  0  0
 58 16  1  0  0  0  0
 65 25  1  0  0  0  0
 66 25  1  0  0  0  0
 67 27  1  0  0  0  0
 70 29  1  0  0  0  0
 71 29  1  0  0  0  0
 72 30  1  0  0  0  0
 73 30  1  0  0  0  0
 74 30  1  0  0  0  0
 75 31  1  0  0  0  0
 77 38  1  0  0  0  0
 78 40  1  0  0  0  0
 82 47  1  0  0  0  0
M  END
