83
-1 1
C        -0.867831    3.164105    7.618959
O         0.427981    3.524886    7.975463
C         0.547675    3.961465    9.294687
C         1.940894    4.536779    9.524275
H         2.059811    4.706249   10.609529
O         2.105624    5.760085    8.834341
C         1.565486    6.908071    9.304401
C         0.898973    7.038211   10.500152
C         1.781142    8.044501    8.443121
N         2.477828    7.817342    7.276175
C         3.000017    8.835089    6.402865
O         4.208107    8.788344    6.166341
C         2.033891    9.737623    5.885229
C         2.330730   11.018696    5.381171
S         2.008273   12.499710    7.047571
C         1.608606   14.057258    6.198117
C         2.576250   15.176936    6.551623
H         3.598532   14.856075    6.291464
N         2.531946   15.418323    7.988524
C         3.561584   15.898997    8.714545
C         3.426366   15.725996   10.212130
O         4.551096   16.423781    8.212033
C         2.273357   16.463376    5.757176
N         3.222509   17.421100    5.906598
C         3.093693   18.729186    5.324621
O         1.288597   16.586097    5.048536
C         3.728185   11.362657    4.908581
N         3.859537   12.712166    4.382269
C         5.177836   13.266478    4.550884
C         3.372736   12.853378    3.034674
C         1.306305    9.275556    8.867098
C         0.626321    9.423284   10.099412
C         0.415628    8.300044   10.930676
N        -0.216381    8.386323   12.137611
C        -0.596597    9.583096   12.492552
N        -0.447478   10.732183   11.806614
C         0.138275   10.674847   10.623180
N         0.272407   11.819978    9.886606
C        -0.057619   13.125418   10.258650
C        -0.368916   14.023882    9.225309
C        -0.620438   15.365101    9.496816
Cl        -0.955651   16.470707    8.199347
C        -0.591592   15.824018   10.811751
F        -0.834793   17.107149   11.083610
C        -0.311011   14.939043   11.843863
C        -0.041247   13.599530   11.580082
C         3.042048    3.611523    9.038955
H        -1.251282    2.325944    8.236075
H        -0.853104    2.845218    6.567897
H        -1.574467    4.010936    7.719235
H         0.386211    3.123745   10.007575
H        -0.211978    4.733590    9.524158
H         0.723288    6.198828   11.171298
H         3.080670    7.002793    7.317561
H         0.983631    9.502573    6.071114
H         1.533338   11.484901    4.791345
H         0.580204   14.391083    6.408996
H         1.668999   13.885880    5.116522
H         1.812188   14.910167    8.490631
H         3.861363   16.598083   10.716055
H         4.000948   14.835222   10.507656
H         2.384561   15.585867   10.534022
H         3.956225   17.232095    6.594325
H         2.931913   19.505757    6.091663
H         2.226560   18.718422    4.651492
H         3.991161   18.999669    4.744946
H         4.030582   10.600033    4.157225
H         4.423928   11.222617    5.744756
H         5.465774   13.234949    5.612309
H         5.186537   14.322130    4.232119
H         5.963256   12.732424    3.965324
H         3.341332   13.917096    2.747864
H         2.347739   12.461852    2.952304
H         3.997777   12.312148    2.284839
H         1.498340   10.138352    8.231371
H        -1.099217    9.680450   13.463529
H         0.662351   11.755577    8.939794
H        -0.402219   13.663944    8.196513
H        -0.298441   15.320188   12.866566
H         0.167142   12.908642   12.392428
H         4.025009    4.058961    9.239705
H         2.935444    3.444803    7.959175
H         2.980445    2.640993    9.552867
