-1 1
 OpenBabel05232413493D

 83 84  0  0  1  0  0  0  0  0999 V2000
   -2.2101   -5.2289   -1.3586 C   0  0  0  0  0  0  0  0  0  0  0  0
   -1.4138   -4.6854   -2.5330 C   0  0  0  0  0  0  0  0  0  0  0  0
   -0.1469   -5.3018   -2.6598 O   0  0  0  0  0  0  0  0  0  0  0  0
    0.8574   -4.7524   -1.8532 C   0  0  0  0  0  0  0  0  0  0  0  0
    1.5499   -3.5993   -2.5673 C   0  0  0  0  0  0  0  0  0  0  0  0
    2.4508   -2.9767   -1.6626 O   0  0  0  0  0  0  0  0  0  0  0  0
    2.6253   -1.6369   -1.7923 C   0  0  0  0  0  0  0  0  0  0  0  0
    3.8462   -1.1526   -2.2011 C   0  0  0  0  0  0  0  0  0  0  0  0
    1.5544   -0.7379   -1.4834 C   0  0  0  0  0  0  0  0  0  0  0  0
    0.2821   -1.2457   -1.1769 N   0  0  0  0  0  0  0  0  0  0  0  0
   -0.0936   -1.9753   -0.0830 C   0  0  0  0  0  0  0  0  0  0  0  0
   -1.2434   -2.3946    0.0014 O   0  0  0  0  0  0  0  0  0  0  0  0
    0.8919   -2.2010    0.9998 C   0  0  0  0  0  0  0  0  0  0  0  0
    0.5145   -2.6228    2.2153 C   0  0  0  0  0  0  0  0  0  0  0  0
   -4.4509    1.4641    2.4324 S   0  0  0  0  0  1  0  0  0  0  0  0
   -3.3445    2.3269    1.2477 C   0  0  0  0  0  0  0  0  0  0  0  0
   -2.4013    1.3850    0.4645 C   0  0  2  0  0  0  0  0  0  0  0  0
   -1.9694    1.8997   -0.4065 H   0  0  0  0  0  0  0  0  0  0  0  0
   -3.1722    0.2648   -0.0226 N   0  0  0  0  0  0  0  0  0  0  0  0
   -2.9889   -0.3496   -1.1959 C   0  0  0  0  0  0  0  0  0  0  0  0
   -3.9338   -1.4930   -1.4842 C   0  0  0  0  0  0  0  0  0  0  0  0
   -2.0966   -0.0471   -1.9958 O   0  0  0  0  0  0  0  0  0  0  0  0
   -1.1761    0.9514    1.2911 C   0  0  0  0  0  0  0  0  0  0  0  0
   -1.4317    0.5515    2.5509 N   0  0  0  0  0  0  0  0  0  0  0  0
   -0.3854    0.3454    3.5218 C   0  0  0  0  0  0  0  0  0  0  0  0
   -0.0462    1.0099    0.8110 O   0  0  0  0  0  0  0  0  0  0  0  0
   -0.8813   -2.9463    2.6705 C   0  0  0  0  0  0  0  0  0  0  0  0
   -0.9801   -3.0651    4.1158 N   0  0  0  0  0  0  0  0  0  0  0  0
   -0.4172   -4.2938    4.6182 C   0  0  0  0  0  0  0  0  0  0  0  0
   -2.3341   -2.8594    4.5804 C   0  0  0  0  0  0  0  0  0  0  0  0
    1.7583    0.6205   -1.5919 C   0  0  0  0  0  0  0  0  0  0  0  0
    3.0021    1.1320   -2.0337 C   0  0  0  0  0  0  0  0  0  0  0  0
    4.0539    0.2367   -2.3664 C   0  0  0  0  0  0  0  0  0  0  0  0
    5.2347    0.6713   -2.8961 N   0  0  0  0  0  0  0  0  0  0  0  0
    5.3251    1.9535   -3.1189 C   0  0  0  0  0  0  0  0  0  0  0  0
    4.4190    2.9071   -2.8230 N   0  0  0  0  0  0  0  0  0  0  0  0
    3.2905    2.5224   -2.2557 C   0  0  0  0  0  0  0  0  0  0  0  0
    2.3945    3.5244   -1.9574 N   0  0  0  0  0  0  0  0  0  0  0  0
    1.6698    3.6261   -0.7385 C   0  0  0  0  0  0  0  0  0  0  0  0
    2.2648    3.2739    0.4754 C   0  0  0  0  0  0  0  0  0  0  0  0
    1.5643    3.4335    1.6624 C   0  0  0  0  0  0  0  0  0  0  0  0
    2.2894    2.9884    3.1759 Cl  0  0  0  0  0  0  0  0  0  0  0  0
    0.2728    3.9561    1.6440 C   0  0  0  0  0  0  0  0  0  0  0  0
   -0.4004    4.0943    2.7799 F   0  0  0  0  0  0  0  0  0  0  0  0
   -0.3223    4.3144    0.4434 C   0  0  0  0  0  0  0  0  0  0  0  0
    0.3726    4.1402   -0.7489 C   0  0  0  0  0  0  0  0  0  0  0  0
   -3.2229   -4.7984   -1.3574 H   0  0  0  0  0  0  0  0  0  0  0  0
   -1.7434   -4.9495   -0.4031 H   0  0  0  0  0  0  0  0  0  0  0  0
   -2.2917   -6.3247   -1.4211 H   0  0  0  0  0  0  0  0  0  0  0  0
   -1.3172   -3.5882   -2.4337 H   0  0  0  0  0  0  0  0  0  0  0  0
   -1.9422   -4.8850   -3.4785 H   0  0  0  0  0  0  0  0  0  0  0  0
    1.5869   -5.5469   -1.6302 H   0  0  0  0  0  0  0  0  0  0  0  0
    0.4655   -4.3907   -0.8869 H   0  0  0  0  0  0  0  0  0  0  0  0
    0.7932   -2.8824   -2.9188 H   0  0  0  0  0  0  0  0  0  0  0  0
    2.1083   -3.9669   -3.4461 H   0  0  0  0  0  0  0  0  0  0  0  0
    4.6505   -1.8427   -2.4553 H   0  0  0  0  0  0  0  0  0  0  0  0
   -0.5273   -0.7980   -1.6402 H   0  0  0  0  0  0  0  0  0  0  0  0
    1.9340   -1.9309    0.8253 H   0  0  0  0  0  0  0  0  0  0  0  0
    1.2905   -2.6840    2.9866 H   0  0  0  0  0  0  0  0  0  0  0  0
   -2.7246    3.0697    1.7752 H   0  0  0  0  0  0  0  0  0  0  0  0
   -3.9503    2.8743    0.5068 H   0  0  0  0  0  0  0  0  0  0  0  0
   -3.9431    0.0212    0.6116 H   0  0  0  0  0  0  0  0  0  0  0  0
   -3.4186   -2.4089   -1.1598 H   0  0  0  0  0  0  0  0  0  0  0  0
   -4.1114   -1.5471   -2.5658 H   0  0  0  0  0  0  0  0  0  0  0  0
   -4.8874   -1.4066   -0.9454 H   0  0  0  0  0  0  0  0  0  0  0  0
   -2.4152    0.6530    2.8627 H   0  0  0  0  0  0  0  0  0  0  0  0
   -0.3445    1.1814    4.2402 H   0  0  0  0  0  0  0  0  0  0  0  0
    0.5746    0.2934    2.9930 H   0  0  0  0  0  0  0  0  0  0  0  0
   -0.5310   -0.5946    4.0754 H   0  0  0  0  0  0  0  0  0  0  0  0
   -1.2507   -3.8585    2.1498 H   0  0  0  0  0  0  0  0  0  0  0  0
   -1.5505   -2.1429    2.3275 H   0  0  0  0  0  0  0  0  0  0  0  0
   -0.4172   -4.2929    5.7195 H   0  0  0  0  0  0  0  0  0  0  0  0
    0.6257   -4.4089    4.2855 H   0  0  0  0  0  0  0  0  0  0  0  0
   -0.9766   -5.1962    4.2765 H   0  0  0  0  0  0  0  0  0  0  0  0
   -3.0402   -3.6401    4.2164 H   0  0  0  0  0  0  0  0  0  0  0  0
   -2.7094   -1.8830    4.2395 H   0  0  0  0  0  0  0  0  0  0  0  0
   -2.3602   -2.8698    5.6813 H   0  0  0  0  0  0  0  0  0  0  0  0
    0.9306    1.2683   -1.3038 H   0  0  0  0  0  0  0  0  0  0  0  0
    6.2498    2.3154   -3.5859 H   0  0  0  0  0  0  0  0  0  0  0  0
    2.7279    4.4133   -2.3196 H   0  0  0  0  0  0  0  0  0  0  0  0
    3.2771    2.8688    0.4992 H   0  0  0  0  0  0  0  0  0  0  0  0
   -1.3438    4.6965    0.4581 H   0  0  0  0  0  0  0  0  0  0  0  0
   -0.0953    4.3885   -1.7026 H   0  0  0  0  0  0  0  0  0  0  0  0
  1 47  1  0  0  0  0
  1 48  1  0  0  0  0
  2 50  1  0  0  0  0
  2  1  1  0  0  0  0
  3  2  1  0  0  0  0
  3  4  1  0  0  0  0
  4 52  1  0  0  0  0
  4 53  1  0  0  0  0
  5  4  1  0  0  0  0
  5  6  1  0  0  0  0
  7  6  1  0  0  0  0
  7  9  1  0  0  0  0
  8  7  2  0  0  0  0
  9 10  1  0  0  0  0
 10 11  1  0  0  0  0
 11 12  2  0  0  0  0
 11 13  1  0  0  0  0
 13 14  2  0  0  0  0
 14 27  1  0  0  0  0
 14 59  1  0  0  0  0
 16 60  1  0  0  0  0
 16 15  1  0  0  0  0
 17 18  1  6  0  0  0
 17 16  1  0  0  0  0
 17 23  1  0  0  0  0
 19 17  1  0  0  0  0
 19 62  1  0  0  0  0
 20 19  1  0  0  0  0
 21 20  1  0  0  0  0
 21 63  1  0  0  0  0
 21 65  1  0  0  0  0
 22 20  2  0  0  0  0
 23 24  1  0  0  0  0
 24 66  1  0  0  0  0
 24 25  1  0  0  0  0
 25 69  1  0  0  0  0
 25 67  1  0  0  0  0
 26 23  2  0  0  0  0
 27 28  1  0  0  0  0
 28 30  1  0  0  0  0
 28 29  1  0  0  0  0
 29 72  1  0  0  0  0
 30 77  1  0  0  0  0
 31  9  2  0  0  0  0
 31 78  1  0  0  0  0
 32 31  1  0  0  0  0
 33  8  1  0  0  0  0
 33 32  2  0  0  0  0
 34 33  1  0  0  0  0
 35 34  2  0  0  0  0
 35 36  1  0  0  0  0
 36 37  2  0  0  0  0
 37 32  1  0  0  0  0
 37 38  1  0  0  0  0
 38 39  1  0  0  0  0
 39 40  1  0  0  0  0
 40 81  1  0  0  0  0
 40 41  2  0  0  0  0
 41 42  1  0  0  0  0
 43 41  1  0  0  0  0
 43 44  1  0  0  0  0
 45 82  1  0  0  0  0
 45 43  2  0  0  0  0
 46 39  2  0  0  0  0
 46 45  1  0  0  0  0
 49  1  1  0  0  0  0
 51  2  1  0  0  0  0
 54  5  1  0  0  0  0
 55  5  1  0  0  0  0
 56  8  1  0  0  0  0
 57 10  1  0  0  0  0
 58 13  1  0  0  0  0
 61 16  1  0  0  0  0
 64 21  1  0  0  0  0
 68 25  1  0  0  0  0
 70 27  1  0  0  0  0
 71 27  1  0  0  0  0
 73 29  1  0  0  0  0
 74 29  1  0  0  0  0
 75 30  1  0  0  0  0
 76 30  1  0  0  0  0
 79 35  1  0  0  0  0
 80 38  1  0  0  0  0
 83 46  1  0  0  0  0
M  END
