83
-1 1
C        -0.829410   -6.943866   -0.115359
C        -0.805782   -6.212912   -1.449911
O         0.425608   -6.369117   -2.130504
C         1.455754   -5.513473   -1.720851
C         1.249920   -4.107182   -2.264318
O         2.255614   -3.288890   -1.688770
C         2.461096   -2.010036   -2.053628
C         3.774836   -1.577876   -1.982955
C         1.426311   -1.096750   -2.469947
N         0.064192   -1.446636   -2.584262
C        -0.754331   -1.680082   -1.412127
O        -1.530592   -2.663024   -1.518409
C        -0.555959   -0.827820   -0.331945
C        -1.315240   -0.905087    0.941461
S        -2.899451    0.104180    0.677754
C        -3.740444    0.229726    2.292916
C        -3.181937    1.265604    3.279039
H        -3.862407    1.329403    4.145449
N        -3.166806    2.571348    2.685757
C        -3.425790    3.690282    3.416089
C        -3.030788    4.988201    2.742532
O        -3.926658    3.659676    4.525936
C        -1.792865    0.942314    3.878187
N        -1.622856   -0.334134    4.304105
C        -0.350963   -0.834509    4.776625
O        -0.939879    1.802240    4.007343
C        -1.687868   -2.300455    1.458770
N        -0.606409   -2.970643    2.184239
C         0.488796   -3.387373    1.330291
C        -1.112424   -4.081417    2.952176
C         1.782806    0.208770   -2.729875
C         3.109657    0.679471   -2.602187
C         4.133670   -0.244957   -2.267630
N         5.450955    0.121282   -2.257203
C         5.705905    1.359655   -2.578080
N         4.822148    2.346307   -2.840530
C         3.541734    2.027576   -2.816992
N         2.652240    3.058018   -3.044265
C         1.428194    3.219091   -2.343695
C         1.337703    2.913774   -0.981748
C         0.133009    3.064828   -0.304914
Cl         0.007209    2.699732    1.378628
C        -0.984748    3.535534   -0.995367
F        -2.142869    3.693878   -0.356306
C        -0.902971    3.858246   -2.341479
C         0.302686    3.694676   -3.018726
H        -1.822134   -6.847683    0.350716
H        -0.096764   -6.523112    0.590264
H        -0.604541   -8.012924   -0.251516
H        -1.064047   -5.146126   -1.314606
H        -1.569772   -6.637821   -2.119095
H         2.400782   -5.939047   -2.092530
H         1.537569   -5.450162   -0.619294
H         0.241283   -3.764042   -1.993362
H         1.346371   -4.111003   -3.365351
H         4.555268   -2.286806   -1.706762
H        -0.140424   -2.172466   -3.260157
H         0.103776    0.032776   -0.455698
H        -0.764237   -0.376172    1.732288
H        -3.824076   -0.764855    2.759735
H        -4.771386    0.528120    2.051805
H        -2.652093    2.654327    1.813619
H        -3.076196    4.926589    1.647298
H        -1.991373    5.213621    3.026434
H        -3.676466    5.795116    3.110255
H        -2.311127   -1.019086    4.026255
H        -0.456427   -1.303257    5.768314
H         0.334230    0.017753    4.859153
H         0.046550   -1.568526    4.056973
H        -2.049781   -2.901580    0.603314
H        -2.521981   -2.212110    2.173221
H         1.298703   -3.818526    1.940927
H         0.879806   -2.531123    0.767644
H         0.166959   -4.146781    0.586635
H        -1.583098   -4.872033    2.323161
H        -1.871381   -3.739063    3.676106
H        -0.295248   -4.552456    3.522322
H         0.971869    0.868440   -3.033751
H         6.761659    1.656824   -2.619060
H         3.141455    3.919285   -3.268689
H         2.207898    2.540666   -0.440131
H        -1.799339    4.215670   -2.849973
H         0.372781    3.911833   -4.085667
