83
-1 1
C        16.482159   -9.895016   -1.182172
C        16.558953   -9.061435   -2.452280
O        17.864525   -9.020788   -2.992972
C        18.721085   -8.068614   -2.426179
C        18.453107   -6.686308   -3.003008
O        19.281989   -5.773213   -2.301776
C        19.495294   -4.519064   -2.749874
C        20.798563   -4.062592   -2.715642
C        18.444354   -3.653957   -3.210952
N        17.100300   -4.084411   -3.297254
C        16.307314   -4.377312   -2.157679
O        15.525039   -5.327012   -2.265886
C        16.525453   -3.535031   -1.019199
C        15.865200   -3.641535    0.197300
S        13.834949   -2.273165    0.020023
C        13.059340   -2.125779    1.660494
C        13.763661   -1.143338    2.613111
H        13.171626   -1.029903    3.537732
N        13.846632    0.152577    2.006237
C        13.833755    1.297696    2.731673
C        14.230765    2.541535    1.960306
O        13.536413    1.340199    3.914051
C        15.167573   -1.603227    3.065009
N        15.223554   -2.866735    3.562284
C        16.462816   -3.508862    3.936289
O        16.141599   -0.872472    3.022958
C        15.202163   -4.902543    0.703610
N        16.149579   -5.783531    1.398666
C        17.104141   -6.423244    0.520486
C        15.455632   -6.752468    2.209832
C        18.757363   -2.356804   -3.548193
C        20.077269   -1.857282   -3.460548
C        21.124357   -2.740768   -3.089423
N        22.433657   -2.353248   -3.123157
C        22.659867   -1.131139   -3.521342
N        21.753662   -0.175566   -3.813629
C        20.478410   -0.509183   -3.742602
N        19.571291    0.496704   -3.983216
C        18.352916    0.674360   -3.274015
C        18.266732    0.379226   -1.909503
C        17.071587    0.559963   -1.220729
Cl        16.947292    0.181355    0.456506
C        15.961522    1.064052   -1.903728
F        14.819956    1.267674   -1.257368
C        16.040726    1.373377   -3.253976
C        17.233499    1.170440   -3.943752
H        15.444627   -9.937868   -0.817305
H        17.093984   -9.459523   -0.377643
H        16.834618  -10.920595   -1.369420
H        16.166899   -8.043700   -2.269867
H        15.923827   -9.508764   -3.232320
H        19.754017   -8.380770   -2.643491
H        18.619544   -8.012928   -1.326438
H        17.388446   -6.449136   -2.869246
H        18.695536   -6.672348   -4.080732
H        21.596931   -4.735502   -2.403540
H        16.888668   -4.731719   -4.048311
H        17.167095   -2.663391   -1.163460
H        16.241503   -2.989948    0.988178
H        12.973649   -3.119784    2.137877
H        12.022980   -1.773415    1.535875
H        14.183876    0.146659    1.045421
H        14.044514    2.451333    0.882120
H        15.310160    2.700211    2.106645
H        13.694338    3.405575    2.372532
H        14.402047   -3.444929    3.457200
H        16.391143   -3.942120    4.947189
H        17.246118   -2.741010    3.936674
H        16.728038   -4.298143    3.212143
H        14.692537   -5.419826   -0.128422
H        14.439237   -4.620555    1.440796
H        17.821004   -7.014101    1.114493
H        17.668497   -5.674069   -0.049966
H        16.613342   -7.100745   -0.211208
H        14.811585   -7.441522    1.615068
H        14.808501   -6.245712    2.944440
H        16.178073   -7.369597    2.768348
H        17.932371   -1.724561   -3.873385
H        23.708979   -0.820855   -3.605916
H        20.042118    1.353939   -4.257370
H        19.132713   -0.007390   -1.370390
H        15.150164    1.755279   -3.754929
H        17.298438    1.382171   -5.012278
