-1 1
 OpenBabel05192410563D

 83 85  0  0  1  0  0  0  0  0999 V2000
   -0.8294   -6.9439   -0.1154 C   0  0  0  0  0  0  0  0  0  0  0  0
   -0.8058   -6.2129   -1.4499 C   0  0  0  0  0  0  0  0  0  0  0  0
    0.4256   -6.3691   -2.1305 O   0  0  0  0  0  0  0  0  0  0  0  0
    1.4558   -5.5135   -1.7209 C   0  0  0  0  0  0  0  0  0  0  0  0
    1.2499   -4.1072   -2.2643 C   0  0  0  0  0  0  0  0  0  0  0  0
    2.2556   -3.2889   -1.6888 O   0  0  0  0  0  0  0  0  0  0  0  0
    2.4611   -2.0100   -2.0536 C   0  0  0  0  0  0  0  0  0  0  0  0
    3.7748   -1.5779   -1.9830 C   0  0  0  0  0  0  0  0  0  0  0  0
    1.4263   -1.0967   -2.4699 C   0  0  0  0  0  0  0  0  0  0  0  0
    0.0642   -1.4466   -2.5843 N   0  0  0  0  0  0  0  0  0  0  0  0
   -0.7543   -1.6801   -1.4121 C   0  0  0  0  0  0  0  0  0  0  0  0
   -1.5306   -2.6630   -1.5184 O   0  0  0  0  0  0  0  0  0  0  0  0
   -0.5560   -0.8278   -0.3319 C   0  0  0  0  0  3  0  0  0  0  0  0
   -1.3152   -0.9051    0.9415 C   0  0  1  0  0  0  0  0  0  0  0  0
   -2.8995    0.1042    0.6778 S   0  0  0  0  0  0  0  0  0  0  0  0
   -3.7404    0.2297    2.2929 C   0  0  0  0  0  0  0  0  0  0  0  0
   -3.1819    1.2656    3.2790 C   0  0  2  0  0  0  0  0  0  0  0  0
   -3.8624    1.3294    4.1454 H   0  0  0  0  0  0  0  0  0  0  0  0
   -3.1668    2.5713    2.6858 N   0  0  0  0  0  0  0  0  0  0  0  0
   -3.4258    3.6903    3.4161 C   0  0  0  0  0  0  0  0  0  0  0  0
   -3.0308    4.9882    2.7425 C   0  0  0  0  0  0  0  0  0  0  0  0
   -3.9267    3.6597    4.5259 O   0  0  0  0  0  0  0  0  0  0  0  0
   -1.7929    0.9423    3.8782 C   0  0  0  0  0  0  0  0  0  0  0  0
   -1.6229   -0.3341    4.3041 N   0  0  0  0  0  0  0  0  0  0  0  0
   -0.3510   -0.8345    4.7766 C   0  0  0  0  0  0  0  0  0  0  0  0
   -0.9399    1.8022    4.0073 O   0  0  0  0  0  0  0  0  0  0  0  0
   -1.6879   -2.3005    1.4588 C   0  0  0  0  0  0  0  0  0  0  0  0
   -0.6064   -2.9706    2.1842 N   0  0  0  0  0  0  0  0  0  0  0  0
    0.4888   -3.3874    1.3303 C   0  0  0  0  0  0  0  0  0  0  0  0
   -1.1124   -4.0814    2.9522 C   0  0  0  0  0  0  0  0  0  0  0  0
    1.7828    0.2088   -2.7299 C   0  0  0  0  0  0  0  0  0  0  0  0
    3.1097    0.6795   -2.6022 C   0  0  0  0  0  0  0  0  0  0  0  0
    4.1337   -0.2450   -2.2676 C   0  0  0  0  0  0  0  0  0  0  0  0
    5.4510    0.1213   -2.2572 N   0  0  0  0  0  0  0  0  0  0  0  0
    5.7059    1.3597   -2.5781 C   0  0  0  0  0  0  0  0  0  0  0  0
    4.8221    2.3463   -2.8405 N   0  0  0  0  0  0  0  0  0  0  0  0
    3.5417    2.0276   -2.8170 C   0  0  0  0  0  0  0  0  0  0  0  0
    2.6522    3.0580   -3.0443 N   0  0  0  0  0  0  0  0  0  0  0  0
    1.4282    3.2191   -2.3437 C   0  0  0  0  0  0  0  0  0  0  0  0
    1.3377    2.9138   -0.9817 C   0  0  0  0  0  0  0  0  0  0  0  0
    0.1330    3.0648   -0.3049 C   0  0  0  0  0  0  0  0  0  0  0  0
    0.0072    2.6997    1.3786 Cl  0  0  0  0  0  0  0  0  0  0  0  0
   -0.9847    3.5355   -0.9954 C   0  0  0  0  0  0  0  0  0  0  0  0
   -2.1429    3.6939   -0.3563 F   0  0  0  0  0  0  0  0  0  0  0  0
   -0.9030    3.8582   -2.3415 C   0  0  0  0  0  0  0  0  0  0  0  0
    0.3027    3.6947   -3.0187 C   0  0  0  0  0  0  0  0  0  0  0  0
   -1.8221   -6.8477    0.3507 H   0  0  0  0  0  0  0  0  0  0  0  0
   -0.0968   -6.5231    0.5903 H   0  0  0  0  0  0  0  0  0  0  0  0
   -0.6045   -8.0129   -0.2515 H   0  0  0  0  0  0  0  0  0  0  0  0
   -1.0640   -5.1461   -1.3146 H   0  0  0  0  0  0  0  0  0  0  0  0
   -1.5698   -6.6378   -2.1191 H   0  0  0  0  0  0  0  0  0  0  0  0
    2.4008   -5.9390   -2.0925 H   0  0  0  0  0  0  0  0  0  0  0  0
    1.5376   -5.4502   -0.6193 H   0  0  0  0  0  0  0  0  0  0  0  0
    0.2413   -3.7640   -1.9934 H   0  0  0  0  0  0  0  0  0  0  0  0
    1.3464   -4.1110   -3.3654 H   0  0  0  0  0  0  0  0  0  0  0  0
    4.5553   -2.2868   -1.7068 H   0  0  0  0  0  0  0  0  0  0  0  0
   -0.1404   -2.1725   -3.2602 H   0  0  0  0  0  0  0  0  0  0  0  0
    0.1038    0.0328   -0.4557 H   0  0  0  0  0  0  0  0  0  0  0  0
   -0.7642   -0.3762    1.7323 H   0  0  0  0  0  0  0  0  0  0  0  0
   -3.8241   -0.7649    2.7597 H   0  0  0  0  0  0  0  0  0  0  0  0
   -4.7714    0.5281    2.0518 H   0  0  0  0  0  0  0  0  0  0  0  0
   -2.6521    2.6543    1.8136 H   0  0  0  0  0  0  0  0  0  0  0  0
   -3.0762    4.9266    1.6473 H   0  0  0  0  0  0  0  0  0  0  0  0
   -1.9914    5.2136    3.0264 H   0  0  0  0  0  0  0  0  0  0  0  0
   -3.6765    5.7951    3.1103 H   0  0  0  0  0  0  0  0  0  0  0  0
   -2.3111   -1.0191    4.0263 H   0  0  0  0  0  0  0  0  0  0  0  0
   -0.4564   -1.3033    5.7683 H   0  0  0  0  0  0  0  0  0  0  0  0
    0.3342    0.0178    4.8592 H   0  0  0  0  0  0  0  0  0  0  0  0
    0.0466   -1.5685    4.0570 H   0  0  0  0  0  0  0  0  0  0  0  0
   -2.0498   -2.9016    0.6033 H   0  0  0  0  0  0  0  0  0  0  0  0
   -2.5220   -2.2121    2.1732 H   0  0  0  0  0  0  0  0  0  0  0  0
    1.2987   -3.8185    1.9409 H   0  0  0  0  0  0  0  0  0  0  0  0
    0.8798   -2.5311    0.7676 H   0  0  0  0  0  0  0  0  0  0  0  0
    0.1670   -4.1468    0.5866 H   0  0  0  0  0  0  0  0  0  0  0  0
   -1.5831   -4.8720    2.3232 H   0  0  0  0  0  0  0  0  0  0  0  0
   -1.8714   -3.7391    3.6761 H   0  0  0  0  0  0  0  0  0  0  0  0
   -0.2952   -4.5525    3.5223 H   0  0  0  0  0  0  0  0  0  0  0  0
    0.9719    0.8684   -3.0338 H   0  0  0  0  0  0  0  0  0  0  0  0
    6.7617    1.6568   -2.6191 H   0  0  0  0  0  0  0  0  0  0  0  0
    3.1415    3.9193   -3.2687 H   0  0  0  0  0  0  0  0  0  0  0  0
    2.2079    2.5407   -0.4401 H   0  0  0  0  0  0  0  0  0  0  0  0
   -1.7993    4.2157   -2.8500 H   0  0  0  0  0  0  0  0  0  0  0  0
    0.3728    3.9118   -4.0857 H   0  0  0  0  0  0  0  0  0  0  0  0
  1 47  1  0  0  0  0
  1 48  1  0  0  0  0
  2 50  1  0  0  0  0
  2  1  1  0  0  0  0
  3  4  1  0  0  0  0
  3  2  1  0  0  0  0
  4 53  1  0  0  0  0
  5 54  1  0  0  0  0
  5  4  1  0  0  0  0
  5  6  1  0  0  0  0
  7  8  1  0  0  0  0
  7  6  1  0  0  0  0
  8 56  1  0  0  0  0
  9  7  2  0  0  0  0
 10  9  1  0  0  0  0
 10 11  1  0  0  0  0
 11 13  1  0  0  0  0
 12 11  2  0  0  0  0
 13 14  1  0  0  0  0
 14 27  1  0  0  0  0
 14 59  1  1  0  0  0
 15 14  1  0  0  0  0
 15 16  1  0  0  0  0
 16 60  1  0  0  0  0
 16 17  1  0  0  0  0
 17 23  1  0  0  0  0
 17 18  1  1  0  0  0
 19 17  1  0  0  0  0
 19 20  1  0  0  0  0
 20 22  2  0  0  0  0
 21 64  1  0  0  0  0
 21 65  1  0  0  0  0
 21 20  1  0  0  0  0
 23 26  2  0  0  0  0
 23 24  1  0  0  0  0
 24 25  1  0  0  0  0
 25 68  1  0  0  0  0
 25 67  1  0  0  0  0
 27 71  1  0  0  0  0
 27 28  1  0  0  0  0
 28 30  1  0  0  0  0
 29 72  1  0  0  0  0
 29 28  1  0  0  0  0
 30 77  1  0  0  0  0
 30 76  1  0  0  0  0
 31 32  2  0  0  0  0
 31  9  1  0  0  0  0
 32 33  1  0  0  0  0
 33 34  1  0  0  0  0
 33  8  2  0  0  0  0
 35 34  2  0  0  0  0
 36 37  2  0  0  0  0
 36 35  1  0  0  0  0
 37 32  1  0  0  0  0
 38 37  1  0  0  0  0
 38 39  1  0  0  0  0
 39 40  1  0  0  0  0
 40 81  1  0  0  0  0
 40 41  2  0  0  0  0
 41 42  1  0  0  0  0
 43 44  1  0  0  0  0
 43 41  1  0  0  0  0
 45 43  2  0  0  0  0
 46 39  2  0  0  0  0
 46 45  1  0  0  0  0
 49  1  1  0  0  0  0
 51  2  1  0  0  0  0
 52  4  1  0  0  0  0
 55  5  1  0  0  0  0
 57 10  1  0  0  0  0
 58 13  1  0  0  0  0
 61 16  1  0  0  0  0
 62 19  1  0  0  0  0
 63 21  1  0  0  0  0
 66 24  1  0  0  0  0
 69 25  1  0  0  0  0
 70 27  1  0  0  0  0
 73 29  1  0  0  0  0
 74 29  1  0  0  0  0
 75 30  1  0  0  0  0
 78 31  1  0  0  0  0
 79 35  1  0  0  0  0
 80 38  1  0  0  0  0
 82 45  1  0  0  0  0
 83 46  1  0  0  0  0
M  END
