83
-1 1
C        -2.210118   -5.228883   -1.358619
C        -1.413808   -4.685361   -2.533007
O        -0.146919   -5.301755   -2.659814
C         0.857401   -4.752450   -1.853200
C         1.549949   -3.599313   -2.567273
O         2.450796   -2.976698   -1.662634
C         2.625306   -1.636934   -1.792294
C         3.846244   -1.152613   -2.201069
C         1.554369   -0.737918   -1.483391
N         0.282055   -1.245687   -1.176859
C        -0.093579   -1.975268   -0.082961
O        -1.243443   -2.394551    0.001446
C         0.891855   -2.201006    0.999839
C         0.514523   -2.622809    2.215313
S        -4.450859    1.464100    2.432385
C        -3.344547    2.326947    1.247671
C        -2.401266    1.384993    0.464481
H        -1.969396    1.899692   -0.406546
N        -3.172160    0.264765   -0.022551
C        -2.988861   -0.349565   -1.195850
C        -3.933844   -1.492979   -1.484221
O        -2.096576   -0.047146   -1.995845
C        -1.176068    0.951433    1.291133
N        -1.431683    0.551500    2.550911
C        -0.385350    0.345435    3.521842
O        -0.046166    1.009869    0.811016
C        -0.881280   -2.946332    2.670547
N        -0.980108   -3.065099    4.115838
C        -0.417164   -4.293774    4.618202
C        -2.334085   -2.859437    4.580382
C         1.758290    0.620491   -1.591923
C         3.002088    1.131990   -2.033669
C         4.053873    0.236676   -2.366368
N         5.234706    0.671279   -2.896073
C         5.325096    1.953527   -3.118943
N         4.419043    2.907120   -2.822993
C         3.290466    2.522390   -2.255734
N         2.394547    3.524394   -1.957427
C         1.669786    3.626074   -0.738536
C         2.264767    3.273918    0.475409
C         1.564290    3.433510    1.662377
Cl         2.289409    2.988416    3.175880
C         0.272842    3.956054    1.644007
F        -0.400442    4.094348    2.779902
C        -0.322270    4.314381    0.443402
C         0.372630    4.140186   -0.748899
H        -3.222885   -4.798371   -1.357417
H        -1.743428   -4.949487   -0.403148
H        -2.291717   -6.324665   -1.421106
H        -1.317225   -3.588234   -2.433698
H        -1.942199   -4.884952   -3.478507
H         1.586915   -5.546898   -1.630238
H         0.465519   -4.390681   -0.886870
H         0.793234   -2.882378   -2.918815
H         2.108316   -3.966923   -3.446053
H         4.650544   -1.842716   -2.455305
H        -0.527286   -0.798021   -1.640153
H         1.933950   -1.930876    0.825305
H         1.290501   -2.684037    2.986622
H        -2.724649    3.069659    1.775200
H        -3.950327    2.874305    0.506795
H        -3.943148    0.021193    0.611573
H        -3.418629   -2.408894   -1.159812
H        -4.111365   -1.547089   -2.565845
H        -4.887408   -1.406556   -0.945435
H        -2.415232    0.653048    2.862699
H        -0.344527    1.181378    4.240185
H         0.574568    0.293420    2.992990
H        -0.530997   -0.594628    4.075407
H        -1.250683   -3.858506    2.149819
H        -1.550485   -2.142890    2.327528
H        -0.417216   -4.292883    5.719548
H         0.625683   -4.408869    4.285453
H        -0.976601   -5.196224    4.276462
H        -3.040187   -3.640096    4.216423
H        -2.709426   -1.882953    4.239541
H        -2.360228   -2.869793    5.681262
H         0.930631    1.268329   -1.303771
H         6.249782    2.315398   -3.585947
H         2.727893    4.413283   -2.319577
H         3.277076    2.868761    0.499179
H        -1.343845    4.696548    0.458091
H        -0.095265    4.388540   -1.702612
