-1 1
 OpenBabel05232414493D

 83 84  0  0  1  0  0  0  0  0999 V2000
   16.4822   -9.8950   -1.1822 C   0  0  0  0  0  0  0  0  0  0  0  0
   16.5590   -9.0614   -2.4523 C   0  0  0  0  0  0  0  0  0  0  0  0
   17.8645   -9.0208   -2.9930 O   0  0  0  0  0  0  0  0  0  0  0  0
   18.7211   -8.0686   -2.4262 C   0  0  0  0  0  0  0  0  0  0  0  0
   18.4531   -6.6863   -3.0030 C   0  0  0  0  0  0  0  0  0  0  0  0
   19.2820   -5.7732   -2.3018 O   0  0  0  0  0  0  0  0  0  0  0  0
   19.4953   -4.5191   -2.7499 C   0  0  0  0  0  0  0  0  0  0  0  0
   20.7986   -4.0626   -2.7156 C   0  0  0  0  0  0  0  0  0  0  0  0
   18.4444   -3.6540   -3.2110 C   0  0  0  0  0  0  0  0  0  0  0  0
   17.1003   -4.0844   -3.2973 N   0  0  0  0  0  0  0  0  0  0  0  0
   16.3073   -4.3773   -2.1577 C   0  0  0  0  0  0  0  0  0  0  0  0
   15.5250   -5.3270   -2.2659 O   0  0  0  0  0  0  0  0  0  0  0  0
   16.5255   -3.5350   -1.0192 C   0  0  0  0  0  3  0  0  0  0  0  0
   15.8652   -3.6415    0.1973 C   0  0  0  0  0  3  0  0  0  0  0  0
   13.8349   -2.2732    0.0200 S   0  0  0  0  0  1  0  0  0  0  0  0
   13.0593   -2.1258    1.6605 C   0  0  0  0  0  0  0  0  0  0  0  0
   13.7637   -1.1433    2.6131 C   0  0  2  0  0  0  0  0  0  0  0  0
   13.1716   -1.0299    3.5377 H   0  0  0  0  0  0  0  0  0  0  0  0
   13.8466    0.1526    2.0062 N   0  0  0  0  0  0  0  0  0  0  0  0
   13.8338    1.2977    2.7317 C   0  0  0  0  0  0  0  0  0  0  0  0
   14.2308    2.5415    1.9603 C   0  0  0  0  0  0  0  0  0  0  0  0
   13.5364    1.3402    3.9141 O   0  0  0  0  0  0  0  0  0  0  0  0
   15.1676   -1.6032    3.0650 C   0  0  0  0  0  0  0  0  0  0  0  0
   15.2236   -2.8667    3.5623 N   0  0  0  0  0  0  0  0  0  0  0  0
   16.4628   -3.5089    3.9363 C   0  0  0  0  0  0  0  0  0  0  0  0
   16.1416   -0.8725    3.0230 O   0  0  0  0  0  0  0  0  0  0  0  0
   15.2022   -4.9025    0.7036 C   0  0  0  0  0  0  0  0  0  0  0  0
   16.1496   -5.7835    1.3987 N   0  0  0  0  0  0  0  0  0  0  0  0
   17.1041   -6.4232    0.5205 C   0  0  0  0  0  0  0  0  0  0  0  0
   15.4556   -6.7525    2.2098 C   0  0  0  0  0  0  0  0  0  0  0  0
   18.7574   -2.3568   -3.5482 C   0  0  0  0  0  0  0  0  0  0  0  0
   20.0773   -1.8573   -3.4605 C   0  0  0  0  0  0  0  0  0  0  0  0
   21.1244   -2.7408   -3.0894 C   0  0  0  0  0  0  0  0  0  0  0  0
   22.4337   -2.3532   -3.1232 N   0  0  0  0  0  0  0  0  0  0  0  0
   22.6599   -1.1311   -3.5213 C   0  0  0  0  0  0  0  0  0  0  0  0
   21.7537   -0.1756   -3.8136 N   0  0  0  0  0  0  0  0  0  0  0  0
   20.4784   -0.5092   -3.7426 C   0  0  0  0  0  0  0  0  0  0  0  0
   19.5713    0.4967   -3.9832 N   0  0  0  0  0  0  0  0  0  0  0  0
   18.3529    0.6744   -3.2740 C   0  0  0  0  0  0  0  0  0  0  0  0
   18.2667    0.3792   -1.9095 C   0  0  0  0  0  0  0  0  0  0  0  0
   17.0716    0.5600   -1.2207 C   0  0  0  0  0  0  0  0  0  0  0  0
   16.9473    0.1814    0.4565 Cl  0  0  0  0  0  0  0  0  0  0  0  0
   15.9615    1.0641   -1.9037 C   0  0  0  0  0  0  0  0  0  0  0  0
   14.8200    1.2677   -1.2574 F   0  0  0  0  0  0  0  0  0  0  0  0
   16.0407    1.3734   -3.2540 C   0  0  0  0  0  0  0  0  0  0  0  0
   17.2335    1.1704   -3.9438 C   0  0  0  0  0  0  0  0  0  0  0  0
   15.4446   -9.9379   -0.8173 H   0  0  0  0  0  0  0  0  0  0  0  0
   17.0940   -9.4595   -0.3776 H   0  0  0  0  0  0  0  0  0  0  0  0
   16.8346  -10.9206   -1.3694 H   0  0  0  0  0  0  0  0  0  0  0  0
   16.1669   -8.0437   -2.2699 H   0  0  0  0  0  0  0  0  0  0  0  0
   15.9238   -9.5088   -3.2323 H   0  0  0  0  0  0  0  0  0  0  0  0
   19.7540   -8.3808   -2.6435 H   0  0  0  0  0  0  0  0  0  0  0  0
   18.6195   -8.0129   -1.3264 H   0  0  0  0  0  0  0  0  0  0  0  0
   17.3884   -6.4491   -2.8692 H   0  0  0  0  0  0  0  0  0  0  0  0
   18.6955   -6.6723   -4.0807 H   0  0  0  0  0  0  0  0  0  0  0  0
   21.5969   -4.7355   -2.4035 H   0  0  0  0  0  0  0  0  0  0  0  0
   16.8887   -4.7317   -4.0483 H   0  0  0  0  0  0  0  0  0  0  0  0
   17.1671   -2.6634   -1.1635 H   0  0  0  0  0  0  0  0  0  0  0  0
   16.2415   -2.9899    0.9882 H   0  0  0  0  0  0  0  0  0  0  0  0
   12.9736   -3.1198    2.1379 H   0  0  0  0  0  0  0  0  0  0  0  0
   12.0230   -1.7734    1.5359 H   0  0  0  0  0  0  0  0  0  0  0  0
   14.1839    0.1467    1.0454 H   0  0  0  0  0  0  0  0  0  0  0  0
   14.0445    2.4513    0.8821 H   0  0  0  0  0  0  0  0  0  0  0  0
   15.3102    2.7002    2.1066 H   0  0  0  0  0  0  0  0  0  0  0  0
   13.6943    3.4056    2.3725 H   0  0  0  0  0  0  0  0  0  0  0  0
   14.4020   -3.4449    3.4572 H   0  0  0  0  0  0  0  0  0  0  0  0
   16.3911   -3.9421    4.9472 H   0  0  0  0  0  0  0  0  0  0  0  0
   17.2461   -2.7410    3.9367 H   0  0  0  0  0  0  0  0  0  0  0  0
   16.7280   -4.2981    3.2121 H   0  0  0  0  0  0  0  0  0  0  0  0
   14.6925   -5.4198   -0.1284 H   0  0  0  0  0  0  0  0  0  0  0  0
   14.4392   -4.6206    1.4408 H   0  0  0  0  0  0  0  0  0  0  0  0
   17.8210   -7.0141    1.1145 H   0  0  0  0  0  0  0  0  0  0  0  0
   17.6685   -5.6741   -0.0500 H   0  0  0  0  0  0  0  0  0  0  0  0
   16.6133   -7.1007   -0.2112 H   0  0  0  0  0  0  0  0  0  0  0  0
   14.8116   -7.4415    1.6151 H   0  0  0  0  0  0  0  0  0  0  0  0
   14.8085   -6.2457    2.9444 H   0  0  0  0  0  0  0  0  0  0  0  0
   16.1781   -7.3696    2.7683 H   0  0  0  0  0  0  0  0  0  0  0  0
   17.9324   -1.7246   -3.8734 H   0  0  0  0  0  0  0  0  0  0  0  0
   23.7090   -0.8209   -3.6059 H   0  0  0  0  0  0  0  0  0  0  0  0
   20.0421    1.3539   -4.2574 H   0  0  0  0  0  0  0  0  0  0  0  0
   19.1327   -0.0074   -1.3704 H   0  0  0  0  0  0  0  0  0  0  0  0
   15.1502    1.7553   -3.7549 H   0  0  0  0  0  0  0  0  0  0  0  0
   17.2984    1.3822   -5.0123 H   0  0  0  0  0  0  0  0  0  0  0  0
  1 47  1  0  0  0  0
  1 48  1  0  0  0  0
  2 50  1  0  0  0  0
  2  1  1  0  0  0  0
  3  2  1  0  0  0  0
  3  4  1  0  0  0  0
  4 53  1  0  0  0  0
  5 54  1  0  0  0  0
  5  4  1  0  0  0  0
  5  6  1  0  0  0  0
  7  8  1  0  0  0  0
  7  6  1  0  0  0  0
  8 56  1  0  0  0  0
  9  7  2  0  0  0  0
 10  9  1  0  0  0  0
 10 11  1  0  0  0  0
 11 13  1  0  0  0  0
 12 11  2  0  0  0  0
 13 14  1  0  0  0  0
 14 27  1  0  0  0  0
 14 59  1  0  0  0  0
 15 16  1  0  0  0  0
 16 60  1  0  0  0  0
 16 17  1  0  0  0  0
 17 23  1  0  0  0  0
 17 18  1  1  0  0  0
 19 17  1  0  0  0  0
 19 20  1  0  0  0  0
 20 22  2  0  0  0  0
 21 64  1  0  0  0  0
 21 65  1  0  0  0  0
 21 20  1  0  0  0  0
 23 24  1  0  0  0  0
 24 25  1  0  0  0  0
 25 68  1  0  0  0  0
 25 67  1  0  0  0  0
 26 23  2  0  0  0  0
 27 28  1  0  0  0  0
 27 71  1  0  0  0  0
 28 30  1  0  0  0  0
 29 72  1  0  0  0  0
 29 28  1  0  0  0  0
 30 77  1  0  0  0  0
 30 76  1  0  0  0  0
 31 32  2  0  0  0  0
 31  9  1  0  0  0  0
 32 33  1  0  0  0  0
 33  8  2  0  0  0  0
 34 33  1  0  0  0  0
 35 34  2  0  0  0  0
 36 37  2  0  0  0  0
 36 35  1  0  0  0  0
 37 32  1  0  0  0  0
 38 37  1  0  0  0  0
 38 39  1  0  0  0  0
 39 40  1  0  0  0  0
 40 81  1  0  0  0  0
 40 41  2  0  0  0  0
 41 42  1  0  0  0  0
 43 44  1  0  0  0  0
 43 41  1  0  0  0  0
 45 43  2  0  0  0  0
 46 39  2  0  0  0  0
 46 45  1  0  0  0  0
 49  1  1  0  0  0  0
 51  2  1  0  0  0  0
 52  4  1  0  0  0  0
 55  5  1  0  0  0  0
 57 10  1  0  0  0  0
 58 13  1  0  0  0  0
 61 16  1  0  0  0  0
 62 19  1  0  0  0  0
 63 21  1  0  0  0  0
 66 24  1  0  0  0  0
 69 25  1  0  0  0  0
 70 27  1  0  0  0  0
 73 29  1  0  0  0  0
 74 29  1  0  0  0  0
 75 30  1  0  0  0  0
 78 31  1  0  0  0  0
 79 35  1  0  0  0  0
 80 38  1  0  0  0  0
 82 45  1  0  0  0  0
 83 46  1  0  0  0  0
M  END
