86
-1 1
C         5.071151    4.509732   -3.187449
C         4.782624    4.248776   -1.714555
C         3.332874    4.471764   -1.325025
O         2.500564    3.670685   -2.127142
C         1.130181    3.842629   -1.887736
C         0.589352    3.088842   -0.681668
O         0.334823    1.723875   -0.975629
C        -0.924803    1.266204   -0.913133
C        -1.949585    1.839680   -1.630181
C        -1.170722    0.089010   -0.109061
N        -0.161000   -0.438324    0.651252
C         0.726234    0.370143    1.461377
O         0.343898    1.517232    1.738991
C         1.919826   -0.273514    1.815172
C         3.046400    0.455663    2.389091
S         3.922810    1.684130    1.104732
C         3.576278    0.843633   -0.468209
C         4.629446   -0.182193   -0.923004
H         4.205200   -0.789804   -1.731979
N         4.970337   -1.101984    0.147201
C         4.383217   -2.326425    0.275382
C         4.587937   -2.979526    1.630309
O         3.729844   -2.855494   -0.602043
C         5.905506    0.439167   -1.508014
N         6.569235    1.277185   -0.661360
C         7.748411    1.996645   -1.063042
O         6.294137    0.183833   -2.632839
C         2.732991    1.350040    3.584431
N         3.844270    2.168247    4.039259
C         3.416471    3.254453    4.881930
C         4.923632    1.415383    4.622088
C        -2.423741   -0.497575   -0.184698
C        -3.464414    0.048315   -0.975533
C        -3.239372    1.257488   -1.678136
N        -4.217024    1.856610   -2.418298
C        -5.373764    1.258798   -2.440538
N        -5.713206    0.104394   -1.826370
C        -4.785251   -0.499933   -1.114582
N        -5.066956   -1.691800   -0.482547
C        -6.241614   -2.435995   -0.409187
C        -6.193194   -3.632430    0.327187
C        -7.319878   -4.434750    0.454829
Cl        -7.244503   -5.913385    1.370576
C        -8.517815   -4.059705   -0.148530
F        -9.601228   -4.827645   -0.027663
C        -8.575713   -2.881020   -0.876821
C        -7.455200   -2.067518   -1.014214
H         4.842256    5.552933   -3.462407
H         4.457185    3.852743   -3.819038
H         6.128508    4.318783   -3.425271
H         5.401393    4.901087   -1.075148
H         5.061023    3.216390   -1.455398
H         3.061254    5.541052   -1.468189
H         3.201495    4.231682   -0.253572
H         0.602041    3.506227   -2.793431
H         0.908533    4.921585   -1.752407
H        -0.340062    3.564749   -0.330818
H         1.298349    3.100225    0.160644
H        -1.775634    2.730779   -2.234537
H        -0.194298   -1.427283    0.855980
H         2.126211   -1.232917    1.334488
H         3.853840   -0.245400    2.645491
H         3.416225    1.609797   -1.239753
H         2.612541    0.328459   -0.334179
H         5.338650   -0.668799    0.986520
H         5.534921   -2.686901    2.106529
H         4.550667   -4.069079    1.510342
H         3.758079   -2.673213    2.287595
H         6.085653    1.546537    0.198058
H         8.539168    1.919974   -0.300217
H         7.537806    3.065970   -1.238840
H         8.110550    1.557913   -2.001697
H         2.358947    0.687388    4.399762
H         1.899201    2.001344    3.289995
H         4.267982    3.913341    5.118428
H         2.976165    2.913567    5.849304
H         2.655869    3.854679    4.361616
H         5.315971    0.681320    3.903019
H         4.622571    0.862909    5.544549
H         5.754951    2.087469    4.888162
H        -2.591775   -1.371793    0.450236
H        -6.174266    1.730428   -3.023454
H        -4.279656   -2.104895   -0.004859
H        -5.267367   -3.949194    0.811852
H        -9.522666   -2.603635   -1.343370
H        -7.492111   -1.144262   -1.586703
