-1 1
 OpenBabel05192410563D

 86 88  0  0  1  0  0  0  0  0999 V2000
    5.0712    4.5097   -3.1874 C   0  0  0  0  0  0  0  0  0  0  0  0
    4.7826    4.2488   -1.7146 C   0  0  0  0  0  0  0  0  0  0  0  0
    3.3329    4.4718   -1.3250 C   0  0  0  0  0  0  0  0  0  0  0  0
    2.5006    3.6707   -2.1271 O   0  0  0  0  0  0  0  0  0  0  0  0
    1.1302    3.8426   -1.8877 C   0  0  0  0  0  0  0  0  0  0  0  0
    0.5894    3.0888   -0.6817 C   0  0  0  0  0  0  0  0  0  0  0  0
    0.3348    1.7239   -0.9756 O   0  0  0  0  0  0  0  0  0  0  0  0
   -0.9248    1.2662   -0.9131 C   0  0  0  0  0  0  0  0  0  0  0  0
   -1.9496    1.8397   -1.6302 C   0  0  0  0  0  0  0  0  0  0  0  0
   -1.1707    0.0890   -0.1091 C   0  0  0  0  0  0  0  0  0  0  0  0
   -0.1610   -0.4383    0.6513 N   0  0  0  0  0  0  0  0  0  0  0  0
    0.7262    0.3701    1.4614 C   0  0  0  0  0  0  0  0  0  0  0  0
    0.3439    1.5172    1.7390 O   0  0  0  0  0  0  0  0  0  0  0  0
    1.9198   -0.2735    1.8152 C   0  0  0  0  0  3  0  0  0  0  0  0
    3.0464    0.4557    2.3891 C   0  0  1  0  0  0  0  0  0  0  0  0
    3.9228    1.6841    1.1047 S   0  0  0  0  0  0  0  0  0  0  0  0
    3.5763    0.8436   -0.4682 C   0  0  0  0  0  0  0  0  0  0  0  0
    4.6294   -0.1822   -0.9230 C   0  0  2  0  0  0  0  0  0  0  0  0
    4.2052   -0.7898   -1.7320 H   0  0  0  0  0  0  0  0  0  0  0  0
    4.9703   -1.1020    0.1472 N   0  0  0  0  0  0  0  0  0  0  0  0
    4.3832   -2.3264    0.2754 C   0  0  0  0  0  0  0  0  0  0  0  0
    4.5879   -2.9795    1.6303 C   0  0  0  0  0  0  0  0  0  0  0  0
    3.7298   -2.8555   -0.6020 O   0  0  0  0  0  0  0  0  0  0  0  0
    5.9055    0.4392   -1.5080 C   0  0  0  0  0  0  0  0  0  0  0  0
    6.5692    1.2772   -0.6614 N   0  0  0  0  0  0  0  0  0  0  0  0
    7.7484    1.9966   -1.0630 C   0  0  0  0  0  0  0  0  0  0  0  0
    6.2941    0.1838   -2.6328 O   0  0  0  0  0  0  0  0  0  0  0  0
    2.7330    1.3500    3.5844 C   0  0  0  0  0  0  0  0  0  0  0  0
    3.8443    2.1682    4.0393 N   0  0  0  0  0  0  0  0  0  0  0  0
    3.4165    3.2545    4.8819 C   0  0  0  0  0  0  0  0  0  0  0  0
    4.9236    1.4154    4.6221 C   0  0  0  0  0  0  0  0  0  0  0  0
   -2.4237   -0.4976   -0.1847 C   0  0  0  0  0  0  0  0  0  0  0  0
   -3.4644    0.0483   -0.9755 C   0  0  0  0  0  0  0  0  0  0  0  0
   -3.2394    1.2575   -1.6781 C   0  0  0  0  0  0  0  0  0  0  0  0
   -4.2170    1.8566   -2.4183 N   0  0  0  0  0  0  0  0  0  0  0  0
   -5.3738    1.2588   -2.4405 C   0  0  0  0  0  0  0  0  0  0  0  0
   -5.7132    0.1044   -1.8264 N   0  0  0  0  0  0  0  0  0  0  0  0
   -4.7853   -0.4999   -1.1146 C   0  0  0  0  0  0  0  0  0  0  0  0
   -5.0670   -1.6918   -0.4825 N   0  0  0  0  0  0  0  0  0  0  0  0
   -6.2416   -2.4360   -0.4092 C   0  0  0  0  0  0  0  0  0  0  0  0
   -6.1932   -3.6324    0.3272 C   0  0  0  0  0  0  0  0  0  0  0  0
   -7.3199   -4.4348    0.4548 C   0  0  0  0  0  0  0  0  0  0  0  0
   -7.2445   -5.9134    1.3706 Cl  0  0  0  0  0  0  0  0  0  0  0  0
   -8.5178   -4.0597   -0.1485 C   0  0  0  0  0  0  0  0  0  0  0  0
   -9.6012   -4.8276   -0.0277 F   0  0  0  0  0  0  0  0  0  0  0  0
   -8.5757   -2.8810   -0.8768 C   0  0  0  0  0  0  0  0  0  0  0  0
   -7.4552   -2.0675   -1.0142 C   0  0  0  0  0  0  0  0  0  0  0  0
    4.8423    5.5529   -3.4624 H   0  0  0  0  0  0  0  0  0  0  0  0
    4.4572    3.8527   -3.8190 H   0  0  0  0  0  0  0  0  0  0  0  0
    6.1285    4.3188   -3.4253 H   0  0  0  0  0  0  0  0  0  0  0  0
    5.4014    4.9011   -1.0751 H   0  0  0  0  0  0  0  0  0  0  0  0
    5.0610    3.2164   -1.4554 H   0  0  0  0  0  0  0  0  0  0  0  0
    3.0613    5.5411   -1.4682 H   0  0  0  0  0  0  0  0  0  0  0  0
    3.2015    4.2317   -0.2536 H   0  0  0  0  0  0  0  0  0  0  0  0
    0.6020    3.5062   -2.7934 H   0  0  0  0  0  0  0  0  0  0  0  0
    0.9085    4.9216   -1.7524 H   0  0  0  0  0  0  0  0  0  0  0  0
   -0.3401    3.5647   -0.3308 H   0  0  0  0  0  0  0  0  0  0  0  0
    1.2983    3.1002    0.1606 H   0  0  0  0  0  0  0  0  0  0  0  0
   -1.7756    2.7308   -2.2345 H   0  0  0  0  0  0  0  0  0  0  0  0
   -0.1943   -1.4273    0.8560 H   0  0  0  0  0  0  0  0  0  0  0  0
    2.1262   -1.2329    1.3345 H   0  0  0  0  0  0  0  0  0  0  0  0
    3.8538   -0.2454    2.6455 H   0  0  0  0  0  0  0  0  0  0  0  0
    3.4162    1.6098   -1.2398 H   0  0  0  0  0  0  0  0  0  0  0  0
    2.6125    0.3285   -0.3342 H   0  0  0  0  0  0  0  0  0  0  0  0
    5.3387   -0.6688    0.9865 H   0  0  0  0  0  0  0  0  0  0  0  0
    5.5349   -2.6869    2.1065 H   0  0  0  0  0  0  0  0  0  0  0  0
    4.5507   -4.0691    1.5103 H   0  0  0  0  0  0  0  0  0  0  0  0
    3.7581   -2.6732    2.2876 H   0  0  0  0  0  0  0  0  0  0  0  0
    6.0857    1.5465    0.1981 H   0  0  0  0  0  0  0  0  0  0  0  0
    8.5392    1.9200   -0.3002 H   0  0  0  0  0  0  0  0  0  0  0  0
    7.5378    3.0660   -1.2388 H   0  0  0  0  0  0  0  0  0  0  0  0
    8.1105    1.5579   -2.0017 H   0  0  0  0  0  0  0  0  0  0  0  0
    2.3589    0.6874    4.3998 H   0  0  0  0  0  0  0  0  0  0  0  0
    1.8992    2.0013    3.2900 H   0  0  0  0  0  0  0  0  0  0  0  0
    4.2680    3.9133    5.1184 H   0  0  0  0  0  0  0  0  0  0  0  0
    2.9762    2.9136    5.8493 H   0  0  0  0  0  0  0  0  0  0  0  0
    2.6559    3.8547    4.3616 H   0  0  0  0  0  0  0  0  0  0  0  0
    5.3160    0.6813    3.9030 H   0  0  0  0  0  0  0  0  0  0  0  0
    4.6226    0.8629    5.5445 H   0  0  0  0  0  0  0  0  0  0  0  0
    5.7550    2.0875    4.8882 H   0  0  0  0  0  0  0  0  0  0  0  0
   -2.5918   -1.3718    0.4502 H   0  0  0  0  0  0  0  0  0  0  0  0
   -6.1743    1.7304   -3.0235 H   0  0  0  0  0  0  0  0  0  0  0  0
   -4.2797   -2.1049   -0.0049 H   0  0  0  0  0  0  0  0  0  0  0  0
   -5.2674   -3.9492    0.8119 H   0  0  0  0  0  0  0  0  0  0  0  0
   -9.5227   -2.6036   -1.3434 H   0  0  0  0  0  0  0  0  0  0  0  0
   -7.4921   -1.1443   -1.5867 H   0  0  0  0  0  0  0  0  0  0  0  0
  1  2  1  0  0  0  0
  2 52  1  0  0  0  0
  2  3  1  0  0  0  0
  2 51  1  0  0  0  0
  3 54  1  0  0  0  0
  4  5  1  0  0  0  0
  4  3  1  0  0  0  0
  5 56  1  0  0  0  0
  5  6  1  0  0  0  0
  6 57  1  0  0  0  0
  6 58  1  0  0  0  0
  7  8  1  0  0  0  0
  7  6  1  0  0  0  0
  8 10  1  0  0  0  0
  9  8  2  0  0  0  0
 10 11  1  0  0  0  0
 11 60  1  0  0  0  0
 11 12  1  0  0  0  0
 12 13  2  0  0  0  0
 12 14  1  0  0  0  0
 14 15  1  0  0  0  0
 15 62  1  1  0  0  0
 15 28  1  0  0  0  0
 16 15  1  0  0  0  0
 17 64  1  0  0  0  0
 17 16  1  0  0  0  0
 18 19  1  6  0  0  0
 18 17  1  0  0  0  0
 18 20  1  0  0  0  0
 20 21  1  0  0  0  0
 20 65  1  0  0  0  0
 21 22  1  0  0  0  0
 22 66  1  0  0  0  0
 22 68  1  0  0  0  0
 23 21  2  0  0  0  0
 24 18  1  0  0  0  0
 24 25  1  0  0  0  0
 25 69  1  0  0  0  0
 26 25  1  0  0  0  0
 26 70  1  0  0  0  0
 27 24  2  0  0  0  0
 28 29  1  0  0  0  0
 28 73  1  0  0  0  0
 29 31  1  0  0  0  0
 29 30  1  0  0  0  0
 30 75  1  0  0  0  0
 30 76  1  0  0  0  0
 31 80  1  0  0  0  0
 31 79  1  0  0  0  0
 32 10  2  0  0  0  0
 32 81  1  0  0  0  0
 33 32  1  0  0  0  0
 34  9  1  0  0  0  0
 34 33  2  0  0  0  0
 35 34  1  0  0  0  0
 36 35  2  0  0  0  0
 36 37  1  0  0  0  0
 37 38  2  0  0  0  0
 38 33  1  0  0  0  0
 38 39  1  0  0  0  0
 39 40  1  0  0  0  0
 39 83  1  0  0  0  0
 40 41  1  0  0  0  0
 41 42  2  0  0  0  0
 41 84  1  0  0  0  0
 42 43  1  0  0  0  0
 44 45  1  0  0  0  0
 44 42  1  0  0  0  0
 46 44  2  0  0  0  0
 47 46  1  0  0  0  0
 47 40  2  0  0  0  0
 48  1  1  0  0  0  0
 49  1  1  0  0  0  0
 50  1  1  0  0  0  0
 53  3  1  0  0  0  0
 55  5  1  0  0  0  0
 59  9  1  0  0  0  0
 61 14  1  0  0  0  0
 63 17  1  0  0  0  0
 67 22  1  0  0  0  0
 71 26  1  0  0  0  0
 72 26  1  0  0  0  0
 74 28  1  0  0  0  0
 77 30  1  0  0  0  0
 78 31  1  0  0  0  0
 82 36  1  0  0  0  0
 85 46  1  0  0  0  0
 86 47  1  0  0  0  0
M  END
