-1 1
 OpenBabel05232413493D

 86 87  0  0  1  0  0  0  0  0999 V2000
    2.8359    6.2998   -4.4548 C   0  0  0  0  0  0  0  0  0  0  0  0
    1.8806    6.4647   -3.2783 C   0  0  0  0  0  0  0  0  0  0  0  0
    1.3488    5.1420   -2.7548 C   0  0  0  0  0  0  0  0  0  0  0  0
    2.4251    4.3574   -2.3222 O   0  0  0  0  0  0  0  0  0  0  0  0
    2.0806    3.0808   -1.8523 C   0  0  0  0  0  0  0  0  0  0  0  0
    1.7219    3.1387   -0.3661 C   0  0  0  0  0  0  0  0  0  0  0  0
    1.2799    1.8880    0.1175 O   0  0  0  0  0  0  0  0  0  0  0  0
    0.0389    1.4656   -0.1153 C   0  0  0  0  0  0  0  0  0  0  0  0
   -0.9256    2.1660   -0.8158 C   0  0  0  0  0  0  0  0  0  0  0  0
   -0.2699    0.1676    0.4151 C   0  0  0  0  0  0  0  0  0  0  0  0
    0.6889   -0.5327    1.1711 N   0  0  0  0  0  0  0  0  0  0  0  0
    1.1224   -0.0485    2.3808 C   0  0  0  0  0  0  0  0  0  0  0  0
    0.6453    0.9432    2.9016 O   0  0  0  0  0  0  0  0  0  0  0  0
    2.1783   -0.9035    3.0046 C   0  0  0  0  0  0  0  0  0  0  0  0
    3.2124   -0.4578    3.7254 C   0  0  0  0  0  0  0  0  0  0  0  0
    6.2459    0.8491    1.2716 S   0  0  0  0  0  1  0  0  0  0  0  0
    4.5582    1.1173    0.6066 C   0  0  0  0  0  0  0  0  0  0  0  0
    4.0344   -0.0408   -0.2796 C   0  0  2  0  0  0  0  0  0  0  0  0
    2.9415    0.0043   -0.3533 H   0  0  0  0  0  0  0  0  0  0  0  0
    4.4236   -1.3013    0.3149 N   0  0  0  0  0  0  0  0  0  0  0  0
    3.6418   -2.3663    0.5079 C   0  0  0  0  0  0  0  0  0  0  0  0
    4.2914   -3.5058    1.2684 C   0  0  0  0  0  0  0  0  0  0  0  0
    2.4643   -2.4545    0.1482 O   0  0  0  0  0  0  0  0  0  0  0  0
    4.5522    0.0971   -1.7179 C   0  0  0  0  0  0  0  0  0  0  0  0
    5.9000    0.0564   -1.8323 N   0  0  0  0  0  0  0  0  0  0  0  0
    6.5654    0.3082   -3.0818 C   0  0  0  0  0  0  0  0  0  0  0  0
    3.7894    0.2608   -2.6617 O   0  0  0  0  0  0  0  0  0  0  0  0
    3.5936    0.9626    4.0151 C   0  0  0  0  0  0  0  0  0  0  0  0
    3.6849    1.1997    5.4481 N   0  0  0  0  0  0  0  0  0  0  0  0
    4.4956    2.3505    5.7620 C   0  0  0  0  0  0  0  0  0  0  0  0
    2.3840    1.2623    6.0740 C   0  0  0  0  0  0  0  0  0  0  0  0
   -1.5010   -0.3844    0.1700 C   0  0  0  0  0  0  0  0  0  0  0  0
   -2.4881    0.2982   -0.5845 C   0  0  0  0  0  0  0  0  0  0  0  0
   -2.1964    1.5998   -1.0609 C   0  0  0  0  0  0  0  0  0  0  0  0
   -3.1154    2.3252   -1.7661 N   0  0  0  0  0  0  0  0  0  0  0  0
   -4.2667    1.7526   -1.9713 C   0  0  0  0  0  0  0  0  0  0  0  0
   -4.6611    0.5216   -1.5809 N   0  0  0  0  0  0  0  0  0  0  0  0
   -3.7948   -0.2052   -0.9044 C   0  0  0  0  0  0  0  0  0  0  0  0
   -4.1308   -1.4710   -0.4923 N   0  0  0  0  0  0  0  0  0  0  0  0
   -5.3112   -2.2022   -0.6381 C   0  0  0  0  0  0  0  0  0  0  0  0
   -5.3241   -3.4975   -0.0946 C   0  0  0  0  0  0  0  0  0  0  0  0
   -6.4564   -4.2964   -0.1902 C   0  0  0  0  0  0  0  0  0  0  0  0
   -6.4596   -5.8984    0.4876 Cl  0  0  0  0  0  0  0  0  0  0  0  0
   -7.5972   -3.8169   -0.8300 C   0  0  0  0  0  0  0  0  0  0  0  0
   -8.6852   -4.5800   -0.9237 F   0  0  0  0  0  0  0  0  0  0  0  0
   -7.5932   -2.5395   -1.3694 C   0  0  0  0  0  0  0  0  0  0  0  0
   -6.4658   -1.7284   -1.2814 C   0  0  0  0  0  0  0  0  0  0  0  0
    2.3328    5.8168   -5.3080 H   0  0  0  0  0  0  0  0  0  0  0  0
    3.6874    5.6671   -4.1681 H   0  0  0  0  0  0  0  0  0  0  0  0
    3.2234    7.2715   -4.7963 H   0  0  0  0  0  0  0  0  0  0  0  0
    1.0196    7.0920   -3.5638 H   0  0  0  0  0  0  0  0  0  0  0  0
    2.3907    6.9841   -2.4503 H   0  0  0  0  0  0  0  0  0  0  0  0
    0.7887    4.6136   -3.5551 H   0  0  0  0  0  0  0  0  0  0  0  0
    0.6273    5.3299   -1.9334 H   0  0  0  0  0  0  0  0  0  0  0  0
    2.9353    2.4082   -2.0075 H   0  0  0  0  0  0  0  0  0  0  0  0
    1.2437    2.6561   -2.4368 H   0  0  0  0  0  0  0  0  0  0  0  0
    0.9659    3.9161   -0.1622 H   0  0  0  0  0  0  0  0  0  0  0  0
    2.6159    3.3803    0.2224 H   0  0  0  0  0  0  0  0  0  0  0  0
   -0.7450    3.1560   -1.2302 H   0  0  0  0  0  0  0  0  0  0  0  0
    1.2405   -1.2756    0.7097 H   0  0  0  0  0  0  0  0  0  0  0  0
    2.0888   -1.9749    2.8025 H   0  0  0  0  0  0  0  0  0  0  0  0
    3.9107   -1.1974    4.1340 H   0  0  0  0  0  0  0  0  0  0  0  0
    4.5249    2.0410    0.0057 H   0  0  0  0  0  0  0  0  0  0  0  0
    3.8390    1.2491    1.4289 H   0  0  0  0  0  0  0  0  0  0  0  0
    5.3287   -1.2183    0.8016 H   0  0  0  0  0  0  0  0  0  0  0  0
    5.3887   -3.4688    1.2396 H   0  0  0  0  0  0  0  0  0  0  0  0
    3.9345   -4.4569    0.8527 H   0  0  0  0  0  0  0  0  0  0  0  0
    3.9695   -3.4524    2.3200 H   0  0  0  0  0  0  0  0  0  0  0  0
    6.4241    0.1585   -0.9493 H   0  0  0  0  0  0  0  0  0  0  0  0
    7.3746   -0.4200   -3.2512 H   0  0  0  0  0  0  0  0  0  0  0  0
    7.0011    1.3216   -3.1180 H   0  0  0  0  0  0  0  0  0  0  0  0
    5.8271    0.2209   -3.8896 H   0  0  0  0  0  0  0  0  0  0  0  0
    2.8961    1.6668    3.5212 H   0  0  0  0  0  0  0  0  0  0  0  0
    4.5943    1.1062    3.5668 H   0  0  0  0  0  0  0  0  0  0  0  0
    4.6139    2.4426    6.8542 H   0  0  0  0  0  0  0  0  0  0  0  0
    4.0604    3.3073    5.3901 H   0  0  0  0  0  0  0  0  0  0  0  0
    5.4956    2.2434    5.3162 H   0  0  0  0  0  0  0  0  0  0  0  0
    1.7892    0.3789    5.8002 H   0  0  0  0  0  0  0  0  0  0  0  0
    1.7967    2.1552    5.7629 H   0  0  0  0  0  0  0  0  0  0  0  0
    2.4904    1.2842    7.1713 H   0  0  0  0  0  0  0  0  0  0  0  0
   -1.6786   -1.3691    0.6081 H   0  0  0  0  0  0  0  0  0  0  0  0
   -5.0173    2.3247   -2.5303 H   0  0  0  0  0  0  0  0  0  0  0  0
   -3.3939   -1.9655   -0.0109 H   0  0  0  0  0  0  0  0  0  0  0  0
   -4.4431   -3.8971    0.4120 H   0  0  0  0  0  0  0  0  0  0  0  0
   -8.4961   -2.1819   -1.8674 H   0  0  0  0  0  0  0  0  0  0  0  0
   -6.4557   -0.7275   -1.7045 H   0  0  0  0  0  0  0  0  0  0  0  0
  1 49  1  0  0  0  0
  1  2  1  0  0  0  0
  2  3  1  0  0  0  0
  2 52  1  0  0  0  0
  3  4  1  0  0  0  0
  3 54  1  0  0  0  0
  4  5  1  0  0  0  0
  5  6  1  0  0  0  0
  6 57  1  0  0  0  0
  6  7  1  0  0  0  0
  6 58  1  0  0  0  0
  8  7  1  0  0  0  0
  8 10  1  0  0  0  0
  9  8  2  0  0  0  0
 10 11  1  0  0  0  0
 11 12  1  0  0  0  0
 12 13  2  0  0  0  0
 12 14  1  0  0  0  0
 14 15  2  0  0  0  0
 15 28  1  0  0  0  0
 15 62  1  0  0  0  0
 17 16  1  0  0  0  0
 17 64  1  0  0  0  0
 18 19  1  6  0  0  0
 18 20  1  0  0  0  0
 18 17  1  0  0  0  0
 20 21  1  0  0  0  0
 20 65  1  0  0  0  0
 21 22  1  0  0  0  0
 22 68  1  0  0  0  0
 23 21  2  0  0  0  0
 24 18  1  0  0  0  0
 25 24  1  0  0  0  0
 25 69  1  0  0  0  0
 26 25  1  0  0  0  0
 27 24  2  0  0  0  0
 28 29  1  0  0  0  0
 29 30  1  0  0  0  0
 29 31  1  0  0  0  0
 30 75  1  0  0  0  0
 31 80  1  0  0  0  0
 32 10  2  0  0  0  0
 32 81  1  0  0  0  0
 33 32  1  0  0  0  0
 34  9  1  0  0  0  0
 34 33  2  0  0  0  0
 35 34  1  0  0  0  0
 36 35  2  0  0  0  0
 36 37  1  0  0  0  0
 37 38  2  0  0  0  0
 38 33  1  0  0  0  0
 38 39  1  0  0  0  0
 39 83  1  0  0  0  0
 40 39  1  0  0  0  0
 40 41  1  0  0  0  0
 41 84  1  0  0  0  0
 42 41  2  0  0  0  0
 42 43  1  0  0  0  0
 44 42  1  0  0  0  0
 45 44  1  0  0  0  0
 46 47  1  0  0  0  0
 46 44  2  0  0  0  0
 47 40  2  0  0  0  0
 48  1  1  0  0  0  0
 50  1  1  0  0  0  0
 51  2  1  0  0  0  0
 53  3  1  0  0  0  0
 55  5  1  0  0  0  0
 56  5  1  0  0  0  0
 59  9  1  0  0  0  0
 60 11  1  0  0  0  0
 61 14  1  0  0  0  0
 63 17  1  0  0  0  0
 66 22  1  0  0  0  0
 67 22  1  0  0  0  0
 70 26  1  0  0  0  0
 71 26  1  0  0  0  0
 72 26  1  0  0  0  0
 73 28  1  0  0  0  0
 74 28  1  0  0  0  0
 76 30  1  0  0  0  0
 77 30  1  0  0  0  0
 78 31  1  0  0  0  0
 79 31  1  0  0  0  0
 82 36  1  0  0  0  0
 85 46  1  0  0  0  0
 86 47  1  0  0  0  0
M  END
