86
-1 1
C        14.779631    9.587055   -2.789196
C        14.430423    9.247144   -1.345102
C        13.614757    7.972603   -1.212265
O        14.363214    6.901883   -1.719219
C        13.653326    5.714734   -1.925321
C        13.169528    5.072268   -0.629227
O        12.713636    3.754209   -0.889661
C        11.406277    3.469505   -0.844851
C        10.457875    4.160763   -1.568177
C        11.022481    2.350269   -0.029752
N        11.970978    1.726405    0.796869
C        12.752914    2.550203    1.650396
O        12.318666    3.674429    1.916099
C        13.964594    1.953000    2.110018
C        14.977708    2.656855    2.784452
S        16.352913    3.755351    1.344161
C        15.862039    2.887494   -0.169408
C        16.725648    1.671887   -0.558216
H        16.194947    1.075212   -1.310647
N        16.942389    0.800026    0.581486
C        16.194078   -0.312780    0.806172
C        16.364965   -0.914297    2.190283
O        15.428881   -0.794972   -0.009915
C        18.073533    2.030266   -1.202045
N        18.842014    2.878709   -0.469450
C        20.114185    3.360692   -0.934433
O        18.418872    1.564450   -2.274630
C        14.653072    3.824706    3.693384
N        15.818663    4.443856    4.298627
C        15.600660    5.819841    4.659174
C        16.386391    3.677360    5.375308
C         9.715019    1.927733   -0.058236
C         8.736153    2.586655   -0.844150
C         9.109418    3.737108   -1.583888
N         8.201757    4.434127   -2.331673
C         6.980107    3.985362   -2.321821
N         6.500090    2.906820   -1.664534
C         7.351607    2.211716   -0.939266
N         6.926365    1.099576   -0.253551
C         5.664547    0.514568   -0.144244
C         5.565133   -0.631791    0.662009
C         4.347966   -1.280322    0.827252
Cl         4.238534   -2.698733    1.828964
C         3.206706   -0.796708    0.191559
F         2.037361   -1.416445    0.347728
C         3.295332    0.334538   -0.605406
C         4.508102    0.994217   -0.780462
H        13.869796    9.753825   -3.388824
H        15.337161    8.759175   -3.249421
H        15.395853   10.496747   -2.851317
H        13.861517   10.069585   -0.880010
H        15.352480    9.126032   -0.753421
H        12.660539    8.071401   -1.774685
H        13.349512    7.809547   -0.150285
H        14.340905    5.014711   -2.421946
H        12.799332    5.887058   -2.614168
H        12.365409    5.645855   -0.143164
H        14.005406    4.992813    0.084183
H        10.728450    5.020767   -2.181147
H        12.433896    0.907006    0.417801
H        14.182793    0.948831    1.742158
H        15.777251    2.017004    3.172743
H        15.826245    3.596087   -1.011185
H        14.830853    2.526076   -0.006509
H        17.355107    1.262463    1.386612
H        17.348222   -0.697448    2.631360
H        16.214578   -1.999100    2.126403
H        15.585989   -0.497593    2.848582
H        18.401436    3.314684    0.346569
H        20.899005    3.216317   -0.174062
H        20.077193    4.432870   -1.191811
H        20.382236    2.794870   -1.836242
H        13.943404    3.460917    4.472947
H        14.095999    4.567343    3.110932
H        16.538824    6.269625    5.023385
H        14.832851    5.951792    5.458950
H        15.274157    6.390109    3.777323
H        16.604598    2.650731    5.046548
H        15.714247    3.608892    6.265017
H        17.337408    4.125375    5.705573
H         9.470015    1.091961    0.601502
H         6.238829    4.535593   -2.914336
H         7.652326    0.623397    0.261712
H         6.444228   -1.030445    1.172641
H         2.390379    0.698448   -1.095128
H         4.584758    1.880976   -1.404231
