-1 1
 OpenBabel05192410563D

 86 88  0  0  1  0  0  0  0  0999 V2000
    2.3559   -5.4099   -0.1376 C   0  0  0  0  0  0  0  0  0  0  0  0
    1.1983   -4.4749    0.1998 C   0  0  0  0  0  0  0  0  0  0  0  0
    1.5594   -3.5620    1.2274 O   0  0  0  0  0  0  0  0  0  0  0  0
    1.6364   -4.0517    2.5281 C   0  0  0  0  0  0  0  0  0  0  0  0
    0.2773   -4.1753    3.2052 C   0  0  0  0  0  0  0  0  0  0  0  0
   -0.3869   -2.9286    3.2375 O   0  0  0  0  0  0  0  0  0  0  0  0
   -1.0576   -2.5263    2.1234 C   0  0  0  0  0  0  0  0  0  0  0  0
   -2.0175   -3.2976    1.5315 C   0  0  0  0  0  0  0  0  0  0  0  0
   -0.6803   -1.2311    1.5948 C   0  0  0  0  0  0  0  0  0  0  0  0
    0.3331   -0.6015    2.2463 N   0  0  0  0  0  0  0  0  0  0  0  0
    1.1942    0.4682    1.8363 C   0  0  0  0  0  0  0  0  0  0  0  0
    2.4089    0.2855    2.1356 O   0  0  0  0  0  0  0  0  0  0  0  0
    0.6788    1.5706    1.1826 C   0  0  0  0  0  3  0  0  0  0  0  0
    1.5967    2.6632    0.8183 C   0  0  1  0  0  0  0  0  0  0  0  0
    2.6463    2.4063   -0.7855 S   0  0  0  0  0  0  0  0  0  0  0  0
    1.9968    0.8802   -1.5150 C   0  0  0  0  0  0  0  0  0  0  0  0
    2.9946   -0.2817   -1.5877 C   0  0  2  0  0  0  0  0  0  0  0  0
    2.4905   -1.1218   -2.0930 H   0  0  0  0  0  0  0  0  0  0  0  0
    3.4303   -0.6945   -0.2763 N   0  0  0  0  0  0  0  0  0  0  0  0
    3.9706   -1.9224   -0.0830 C   0  0  0  0  0  0  0  0  0  0  0  0
    4.3662   -2.2147    1.3484 C   0  0  0  0  0  0  0  0  0  0  0  0
    4.1738   -2.7106   -0.9989 O   0  0  0  0  0  0  0  0  0  0  0  0
    4.1448    0.0850   -2.5368 C   0  0  0  0  0  0  0  0  0  0  0  0
    5.3049    0.4254   -1.9260 N   0  0  0  0  0  0  0  0  0  0  0  0
    6.4498    0.9097   -2.6434 C   0  0  0  0  0  0  0  0  0  0  0  0
    3.9788    0.1033   -3.7443 O   0  0  0  0  0  0  0  0  0  0  0  0
    0.9422    4.0455    0.7769 C   0  0  0  0  0  0  0  0  0  0  0  0
   -0.3666    4.1325    0.1570 N   0  0  0  0  0  0  0  0  0  0  0  0
   -0.4094    3.7265   -1.2288 C   0  0  0  0  0  0  0  0  0  0  0  0
   -0.9460    5.4362    0.3578 C   0  0  0  0  0  0  0  0  0  0  0  0
   -1.3521   -0.7806    0.4654 C   0  0  0  0  0  0  0  0  0  0  0  0
   -2.3657   -1.5630   -0.1444 C   0  0  0  0  0  0  0  0  0  0  0  0
   -2.6821   -2.8549    0.3583 C   0  0  0  0  0  0  0  0  0  0  0  0
   -3.5525   -3.6897   -0.2627 N   0  0  0  0  0  0  0  0  0  0  0  0
   -4.0756   -3.2538   -1.3797 C   0  0  0  0  0  0  0  0  0  0  0  0
   -3.8999   -2.0392   -1.9289 N   0  0  0  0  0  0  0  0  0  0  0  0
   -3.1015   -1.1915   -1.3088 C   0  0  0  0  0  0  0  0  0  0  0  0
   -2.9827    0.0548   -1.9389 N   0  0  0  0  0  0  0  0  0  0  0  0
   -3.3334    1.3062   -1.4180 C   0  0  0  0  0  0  0  0  0  0  0  0
   -3.3743    1.6083   -0.0505 C   0  0  0  0  0  0  0  0  0  0  0  0
   -3.7386    2.8838    0.3724 C   0  0  0  0  0  0  0  0  0  0  0  0
   -3.7567    3.2601    2.0661 Cl  0  0  0  0  0  0  0  0  0  0  0  0
   -4.0965    3.8628   -0.5483 C   0  0  0  0  0  0  0  0  0  0  0  0
   -4.4578    5.0819   -0.1386 F   0  0  0  0  0  0  0  0  0  0  0  0
   -4.0718    3.5732   -1.9047 C   0  0  0  0  0  0  0  0  0  0  0  0
   -3.6881    2.3110   -2.3353 C   0  0  0  0  0  0  0  0  0  0  0  0
    0.7828   -3.6384   -0.9967 C   0  0  0  0  0  0  0  0  0  0  0  0
    2.6619   -6.0209    0.7262 H   0  0  0  0  0  0  0  0  0  0  0  0
    3.2151   -4.8134   -0.4822 H   0  0  0  0  0  0  0  0  0  0  0  0
    2.0584   -6.1026   -0.9397 H   0  0  0  0  0  0  0  0  0  0  0  0
    0.3241   -5.0694    0.5370 H   0  0  0  0  0  0  0  0  0  0  0  0
    2.2492   -3.3317    3.0931 H   0  0  0  0  0  0  0  0  0  0  0  0
    2.1496   -5.0326    2.5842 H   0  0  0  0  0  0  0  0  0  0  0  0
    0.4169   -4.4857    4.2515 H   0  0  0  0  0  0  0  0  0  0  0  0
   -0.3469   -4.9390    2.7125 H   0  0  0  0  0  0  0  0  0  0  0  0
   -2.2787   -4.2813    1.9224 H   0  0  0  0  0  0  0  0  0  0  0  0
    0.8027   -1.1933    2.9213 H   0  0  0  0  0  0  0  0  0  0  0  0
   -0.3914    1.7256    1.0533 H   0  0  0  0  0  0  0  0  0  0  0  0
    2.4146    2.7077    1.5510 H   0  0  0  0  0  0  0  0  0  0  0  0
    1.6380    1.0890   -2.5322 H   0  0  0  0  0  0  0  0  0  0  0  0
    1.1383    0.5808   -0.8885 H   0  0  0  0  0  0  0  0  0  0  0  0
    3.1309   -0.1639    0.5624 H   0  0  0  0  0  0  0  0  0  0  0  0
    5.4101   -1.8956    1.4982 H   0  0  0  0  0  0  0  0  0  0  0  0
    4.3071   -3.2964    1.5191 H   0  0  0  0  0  0  0  0  0  0  0  0
    3.7259   -1.6613    2.0505 H   0  0  0  0  0  0  0  0  0  0  0  0
    5.2826    0.4543   -0.9140 H   0  0  0  0  0  0  0  0  0  0  0  0
    6.6369    1.9779   -2.4418 H   0  0  0  0  0  0  0  0  0  0  0  0
    6.2448    0.7880   -3.7151 H   0  0  0  0  0  0  0  0  0  0  0  0
    7.3570    0.3390   -2.3869 H   0  0  0  0  0  0  0  0  0  0  0  0
    1.6529    4.7706    0.3129 H   0  0  0  0  0  0  0  0  0  0  0  0
    0.8149    4.3598    1.8273 H   0  0  0  0  0  0  0  0  0  0  0  0
   -0.1460    2.6653   -1.3304 H   0  0  0  0  0  0  0  0  0  0  0  0
    0.2838    4.3066   -1.8772 H   0  0  0  0  0  0  0  0  0  0  0  0
   -1.4323    3.8564   -1.6093 H   0  0  0  0  0  0  0  0  0  0  0  0
   -1.9750    5.4651   -0.0291 H   0  0  0  0  0  0  0  0  0  0  0  0
   -0.3721    6.2527   -0.1433 H   0  0  0  0  0  0  0  0  0  0  0  0
   -0.9899    5.6708    1.4327 H   0  0  0  0  0  0  0  0  0  0  0  0
   -1.0508    0.1599    0.0108 H   0  0  0  0  0  0  0  0  0  0  0  0
   -4.7426   -3.9326   -1.9243 H   0  0  0  0  0  0  0  0  0  0  0  0
   -3.3069   -0.0507   -2.8948 H   0  0  0  0  0  0  0  0  0  0  0  0
   -3.1192    0.8649    0.7018 H   0  0  0  0  0  0  0  0  0  0  0  0
   -4.3482    4.3533   -2.6155 H   0  0  0  0  0  0  0  0  0  0  0  0
   -3.6628    2.0943   -3.4055 H   0  0  0  0  0  0  0  0  0  0  0  0
    0.0034   -2.9194   -0.7116 H   0  0  0  0  0  0  0  0  0  0  0  0
    0.3924   -4.2838   -1.7973 H   0  0  0  0  0  0  0  0  0  0  0  0
    1.6547   -3.0901   -1.3817 H   0  0  0  0  0  0  0  0  0  0  0  0
  1  2  1  0  0  0  0
  1 48  1  0  0  0  0
  2 51  1  0  0  0  0
  2  3  1  0  0  0  0
  3  4  1  0  0  0  0
  4 53  1  0  0  0  0
  4 52  1  0  0  0  0
  4  5  1  0  0  0  0
  5  6  1  0  0  0  0
  5 54  1  0  0  0  0
  7  6  1  0  0  0  0
  8 56  1  0  0  0  0
  8  7  2  0  0  0  0
  9  7  1  0  0  0  0
  9 10  1  0  0  0  0
 10 57  1  0  0  0  0
 11 12  2  0  0  0  0
 11 10  1  0  0  0  0
 13 11  1  0  0  0  0
 14 13  1  0  0  0  0
 14 59  1  1  0  0  0
 15 14  1  0  0  0  0
 16 61  1  0  0  0  0
 16 15  1  0  0  0  0
 17 18  1  6  0  0  0
 17 16  1  0  0  0  0
 17 19  1  0  0  0  0
 19 20  1  0  0  0  0
 19 62  1  0  0  0  0
 20 21  1  0  0  0  0
 21 63  1  0  0  0  0
 21 64  1  0  0  0  0
 21 65  1  0  0  0  0
 22 20  2  0  0  0  0
 23 24  1  0  0  0  0
 23 17  1  0  0  0  0
 24 66  1  0  0  0  0
 25 67  1  0  0  0  0
 25 69  1  0  0  0  0
 25 24  1  0  0  0  0
 26 23  2  0  0  0  0
 27 14  1  0  0  0  0
 27 71  1  0  0  0  0
 28 30  1  0  0  0  0
 28 27  1  0  0  0  0
 29 28  1  0  0  0  0
 30 77  1  0  0  0  0
 31  9  2  0  0  0  0
 32 33  2  0  0  0  0
 32 31  1  0  0  0  0
 33  8  1  0  0  0  0
 34 33  1  0  0  0  0
 35 34  2  0  0  0  0
 36 35  1  0  0  0  0
 36 37  2  0  0  0  0
 37 32  1  0  0  0  0
 38 39  1  0  0  0  0
 38 37  1  0  0  0  0
 39 40  1  0  0  0  0
 40 41  2  0  0  0  0
 40 81  1  0  0  0  0
 41 42  1  0  0  0  0
 43 44  1  0  0  0  0
 43 41  1  0  0  0  0
 45 43  2  0  0  0  0
 46 45  1  0  0  0  0
 46 39  2  0  0  0  0
 47 84  1  0  0  0  0
 47  2  1  0  0  0  0
 49  1  1  0  0  0  0
 50  1  1  0  0  0  0
 55  5  1  0  0  0  0
 58 13  1  0  0  0  0
 60 16  1  0  0  0  0
 68 25  1  0  0  0  0
 70 27  1  0  0  0  0
 72 29  1  0  0  0  0
 73 29  1  0  0  0  0
 74 29  1  0  0  0  0
 75 30  1  0  0  0  0
 76 30  1  0  0  0  0
 78 31  1  0  0  0  0
 79 35  1  0  0  0  0
 80 38  1  0  0  0  0
 82 45  1  0  0  0  0
 83 46  1  0  0  0  0
 85 47  1  0  0  0  0
 86 47  1  0  0  0  0
M  END
