-1 1
 OpenBabel05232413493D

 97 99  0  0  1  0  0  0  0  0999 V2000
    0.3423    2.3635   -5.8858 C   0  0  0  0  0  0  0  0  0  0  0  0
    1.6598    1.7406   -6.2920 C   0  0  0  0  0  0  0  0  0  0  0  0
    1.7599    0.4718   -5.6918 O   0  0  0  0  0  0  0  0  0  0  0  0
    2.8528   -0.3090   -6.0646 C   0  0  0  0  0  0  0  0  0  0  0  0
    4.1951    0.2439   -5.5961 C   0  0  0  0  0  0  0  0  0  0  0  0
    4.1729    0.5761   -4.2251 O   0  0  0  0  0  0  0  0  0  0  0  0
    4.0332   -0.4335   -3.3191 C   0  0  0  0  0  0  0  0  0  0  0  0
    4.8819   -1.5085   -3.2798 C   0  0  0  0  0  0  0  0  0  0  0  0
    2.9470   -0.3056   -2.3888 C   0  0  0  0  0  0  0  0  0  0  0  0
    2.1425    0.8062   -2.5715 N   0  0  0  0  0  0  0  0  0  0  0  0
    0.9781    1.2573   -1.9777 C   0  0  0  0  0  0  0  0  0  0  0  0
    0.4157    2.2178   -2.4761 O   0  0  0  0  0  0  0  0  0  0  0  0
    0.5227    0.7202   -0.6578 C   0  0  0  0  0  0  0  0  0  0  0  0
   -0.2360   -0.3565   -0.4423 C   0  0  0  0  0  0  0  0  0  0  0  0
   -3.3722   -1.2135    0.8557 S   0  0  0  0  0  1  0  0  0  0  0  0
   -4.5072   -1.0141    2.2769 C   0  0  0  0  0  0  0  0  0  0  0  0
   -4.9478    0.4380    2.5738 C   0  0  2  0  0  0  0  0  0  0  0  0
   -4.0399    1.0601    2.6389 H   0  0  0  0  0  0  0  0  0  0  0  0
   -5.6744    0.5474    3.8201 N   0  0  0  0  0  0  0  0  0  0  0  0
   -5.0864    0.6265    5.0304 C   0  0  0  0  0  0  0  0  0  0  0  0
   -6.0365    0.8315    6.1997 C   0  0  0  0  0  0  0  0  0  0  0  0
   -3.8825    0.5304    5.2145 O   0  0  0  0  0  0  0  0  0  0  0  0
   -5.8691    1.0434    1.5009 C   0  0  0  0  0  0  0  0  0  0  0  0
   -5.3570    1.0642    0.2594 N   0  0  0  0  0  0  0  0  0  0  0  0
   -6.1421    1.5008   -0.8639 C   0  0  0  0  0  0  0  0  0  0  0  0
   -6.9801    1.4809    1.7927 O   0  0  0  0  0  0  0  0  0  0  0  0
   -0.6364   -1.3618   -1.4804 C   0  0  0  0  0  0  0  0  0  0  0  0
   -0.4506   -0.8651   -2.8294 N   0  0  0  0  0  0  0  0  0  0  0  0
   -1.5716   -0.0787   -3.2910 C   0  0  0  0  0  0  0  0  0  0  0  0
   -0.0022   -1.8335   -3.7968 C   0  0  0  0  0  0  0  0  0  0  0  0
    2.8011   -1.2828   -1.4236 C   0  0  0  0  0  0  0  0  0  0  0  0
    3.6879   -2.3847   -1.3461 C   0  0  0  0  0  0  0  0  0  0  0  0
    4.7236   -2.5255   -2.3062 C   0  0  0  0  0  0  0  0  0  0  0  0
    5.5534   -3.6040   -2.3505 N   0  0  0  0  0  0  0  0  0  0  0  0
    5.3184   -4.5327   -1.4616 C   0  0  0  0  0  0  0  0  0  0  0  0
    4.3922   -4.5179   -0.4905 N   0  0  0  0  0  0  0  0  0  0  0  0
    3.5972   -3.4612   -0.3906 C   0  0  0  0  0  0  0  0  0  0  0  0
    2.6824   -3.5536    0.6246 N   0  0  0  0  0  0  0  0  0  0  0  0
    2.0255   -2.5850    1.4153 C   0  0  0  0  0  0  0  0  0  0  0  0
    0.8247   -2.9625    2.0257 C   0  0  0  0  0  0  0  0  0  0  0  0
    0.1663   -2.0918    2.8861 C   0  0  0  0  0  0  0  0  0  0  0  0
   -1.2438   -2.6346    3.7354 Cl  0  0  0  0  0  0  0  0  0  0  0  0
    0.6447   -0.7869    3.0927 C   0  0  0  0  0  0  0  0  0  0  0  0
   -0.0080    0.0886    3.8887 O   0  0  0  0  0  0  0  0  0  0  0  0
   -1.1965    0.6606    3.3281 C   0  0  0  0  0  0  0  0  0  0  0  0
   -0.8891    1.8803    2.4911 C   0  0  0  0  0  0  0  0  0  0  0  0
    0.1892    2.7130    2.8097 C   0  0  0  0  0  0  0  0  0  0  0  0
    0.4529    3.8173    2.0117 C   0  0  0  0  0  0  0  0  0  0  0  0
    1.4969    4.6039    2.3189 F   0  0  0  0  0  0  0  0  0  0  0  0
   -0.3248    4.1330    0.9045 C   0  0  0  0  0  0  0  0  0  0  0  0
   -1.4026    3.3040    0.5999 C   0  0  0  0  0  0  0  0  0  0  0  0
   -1.6846    2.1854    1.3811 C   0  0  0  0  0  0  0  0  0  0  0  0
    1.8527   -0.4309    2.4888 C   0  0  0  0  0  0  0  0  0  0  0  0
    2.5588   -1.3221    1.6876 C   0  0  0  0  0  0  0  0  0  0  0  0
   -0.4974    1.7441   -6.2338 H   0  0  0  0  0  0  0  0  0  0  0  0
    0.2437    3.3658   -6.3285 H   0  0  0  0  0  0  0  0  0  0  0  0
    0.2835    2.4514   -4.7897 H   0  0  0  0  0  0  0  0  0  0  0  0
    2.4959    2.3922   -5.9698 H   0  0  0  0  0  0  0  0  0  0  0  0
    1.7341    1.6398   -7.3952 H   0  0  0  0  0  0  0  0  0  0  0  0
    2.8995   -0.4506   -7.1649 H   0  0  0  0  0  0  0  0  0  0  0  0
    2.6857   -1.2967   -5.6074 H   0  0  0  0  0  0  0  0  0  0  0  0
    4.4488    1.1784   -6.1162 H   0  0  0  0  0  0  0  0  0  0  0  0
    4.9897   -0.4866   -5.8295 H   0  0  0  0  0  0  0  0  0  0  0  0
    5.7001   -1.6141   -3.9929 H   0  0  0  0  0  0  0  0  0  0  0  0
    2.3282    1.2906   -3.4443 H   0  0  0  0  0  0  0  0  0  0  0  0
    0.7438    1.3905    0.1793 H   0  0  0  0  0  0  0  0  0  0  0  0
   -0.6053   -0.5559    0.5675 H   0  0  0  0  0  0  0  0  0  0  0  0
   -4.0048   -1.3676    3.1906 H   0  0  0  0  0  0  0  0  0  0  0  0
   -5.4157   -1.6271    2.1475 H   0  0  0  0  0  0  0  0  0  0  0  0
   -6.6470    0.8174    3.6925 H   0  0  0  0  0  0  0  0  0  0  0  0
   -5.9542   -0.0359    6.8703 H   0  0  0  0  0  0  0  0  0  0  0  0
   -7.0860    0.9559    5.8991 H   0  0  0  0  0  0  0  0  0  0  0  0
   -5.7094    1.7153    6.7651 H   0  0  0  0  0  0  0  0  0  0  0  0
   -4.5464    0.4251    0.1107 H   0  0  0  0  0  0  0  0  0  0  0  0
   -6.8343    0.7190   -1.2241 H   0  0  0  0  0  0  0  0  0  0  0  0
   -5.4737    1.7783   -1.6915 H   0  0  0  0  0  0  0  0  0  0  0  0
   -6.7452    2.3743   -0.5793 H   0  0  0  0  0  0  0  0  0  0  0  0
   -1.6764   -1.6894   -1.2760 H   0  0  0  0  0  0  0  0  0  0  0  0
   -0.0100   -2.2613   -1.3340 H   0  0  0  0  0  0  0  0  0  0  0  0
   -1.8180    0.6917   -2.5466 H   0  0  0  0  0  0  0  0  0  0  0  0
   -2.4801   -0.6950   -3.4685 H   0  0  0  0  0  0  0  0  0  0  0  0
   -1.3037    0.4379   -4.2248 H   0  0  0  0  0  0  0  0  0  0  0  0
   -0.7624   -2.6132   -4.0311 H   0  0  0  0  0  0  0  0  0  0  0  0
    0.9042   -2.3413   -3.4306 H   0  0  0  0  0  0  0  0  0  0  0  0
    0.2590   -1.3132   -4.7316 H   0  0  0  0  0  0  0  0  0  0  0  0
    1.9810   -1.1942   -0.7223 H   0  0  0  0  0  0  0  0  0  0  0  0
    5.9506   -5.4288   -1.4952 H   0  0  0  0  0  0  0  0  0  0  0  0
    2.7141   -4.4825    1.0326 H   0  0  0  0  0  0  0  0  0  0  0  0
    0.4015   -3.9511    1.8421 H   0  0  0  0  0  0  0  0  0  0  0  0
   -1.8557    0.9043    4.1737 H   0  0  0  0  0  0  0  0  0  0  0  0
   -1.7358   -0.0773    2.7066 H   0  0  0  0  0  0  0  0  0  0  0  0
    0.8271    2.4957    3.6680 H   0  0  0  0  0  0  0  0  0  0  0  0
   -0.0679    4.9971    0.2904 H   0  0  0  0  0  0  0  0  0  0  0  0
   -2.0057    3.5093   -0.2862 H   0  0  0  0  0  0  0  0  0  0  0  0
   -2.4853    1.4985    1.0931 H   0  0  0  0  0  0  0  0  0  0  0  0
    2.2371    0.5735    2.6701 H   0  0  0  0  0  0  0  0  0  0  0  0
    3.5143   -1.0237    1.2544 H   0  0  0  0  0  0  0  0  0  0  0  0
  1 57  1  0  0  0  0
  2 58  1  0  0  0  0
  2  1  1  0  0  0  0
  2  3  1  0  0  0  0
  4  3  1  0  0  0  0
  4 61  1  0  0  0  0
  4  5  1  0  0  0  0
  5  6  1  0  0  0  0
  6  7  1  0  0  0  0
  7  8  2  0  0  0  0
  7  9  1  0  0  0  0
  8 33  1  0  0  0  0
  9 31  2  0  0  0  0
 10  9  1  0  0  0  0
 10 11  1  0  0  0  0
 11 13  1  0  0  0  0
 12 11  2  0  0  0  0
 13 14  2  0  0  0  0
 13 66  1  0  0  0  0
 14 67  1  0  0  0  0
 15 16  1  0  0  0  0
 16 17  1  0  0  0  0
 16 68  1  0  0  0  0
 17 18  1  1  0  0  0
 17 19  1  0  0  0  0
 19 20  1  0  0  0  0
 20 22  2  0  0  0  0
 20 21  1  0  0  0  0
 21 73  1  0  0  0  0
 21 71  1  0  0  0  0
 23 26  2  0  0  0  0
 23 17  1  0  0  0  0
 24 23  1  0  0  0  0
 25 77  1  0  0  0  0
 25 24  1  0  0  0  0
 27 79  1  0  0  0  0
 27 78  1  0  0  0  0
 27 14  1  0  0  0  0
 28 27  1  0  0  0  0
 29 28  1  0  0  0  0
 29 80  1  0  0  0  0
 30 84  1  0  0  0  0
 30 28  1  0  0  0  0
 31 32  1  0  0  0  0
 31 86  1  0  0  0  0
 32 37  1  0  0  0  0
 33 32  2  0  0  0  0
 34 33  1  0  0  0  0
 34 35  2  0  0  0  0
 35 36  1  0  0  0  0
 36 37  2  0  0  0  0
 37 38  1  0  0  0  0
 38 88  1  0  0  0  0
 38 39  1  0  0  0  0
 39 54  2  0  0  0  0
 39 40  1  0  0  0  0
 40 41  2  0  0  0  0
 41 43  1  0  0  0  0
 41 42  1  0  0  0  0
 43 44  1  0  0  0  0
 45 44  1  0  0  0  0
 45 90  1  0  0  0  0
 46 47  1  0  0  0  0
 46 45  1  0  0  0  0
 47 92  1  0  0  0  0
 48 49  1  0  0  0  0
 48 47  2  0  0  0  0
 50 48  1  0  0  0  0
 51 50  2  0  0  0  0
 51 52  1  0  0  0  0
 52 46  2  0  0  0  0
 53 96  1  0  0  0  0
 53 43  2  0  0  0  0
 54 53  1  0  0  0  0
 55  1  1  0  0  0  0
 56  1  1  0  0  0  0
 59  2  1  0  0  0  0
 60  4  1  0  0  0  0
 62  5  1  0  0  0  0
 63  5  1  0  0  0  0
 64  8  1  0  0  0  0
 65 10  1  0  0  0  0
 69 16  1  0  0  0  0
 70 19  1  0  0  0  0
 72 21  1  0  0  0  0
 74 24  1  0  0  0  0
 75 25  1  0  0  0  0
 76 25  1  0  0  0  0
 81 29  1  0  0  0  0
 82 29  1  0  0  0  0
 83 30  1  0  0  0  0
 85 30  1  0  0  0  0
 87 35  1  0  0  0  0
 89 40  1  0  0  0  0
 91 45  1  0  0  0  0
 93 50  1  0  0  0  0
 94 51  1  0  0  0  0
 95 52  1  0  0  0  0
 97 54  1  0  0  0  0
M  END
