97
-1 1
C         0.342332    2.363535   -5.885758
C         1.659796    1.740627   -6.291992
O         1.759941    0.471768   -5.691812
C         2.852784   -0.309026   -6.064634
C         4.195088    0.243877   -5.596095
O         4.172931    0.576100   -4.225059
C         4.033238   -0.433502   -3.319123
C         4.881947   -1.508511   -3.279813
C         2.946981   -0.305611   -2.388762
N         2.142490    0.806157   -2.571485
C         0.978139    1.257344   -1.977664
O         0.415730    2.217839   -2.476064
C         0.522748    0.720181   -0.657760
C        -0.236028   -0.356509   -0.442293
S        -3.372161   -1.213504    0.855703
C        -4.507195   -1.014101    2.276859
C        -4.947757    0.438041    2.573781
H        -4.039914    1.060136    2.638931
N        -5.674443    0.547409    3.820137
C        -5.086372    0.626494    5.030358
C        -6.036525    0.831497    6.199685
O        -3.882496    0.530417    5.214537
C        -5.869118    1.043389    1.500915
N        -5.357039    1.064208    0.259352
C        -6.142078    1.500849   -0.863949
O        -6.980099    1.480931    1.792710
C        -0.636366   -1.361816   -1.480434
N        -0.450587   -0.865054   -2.829374
C        -1.571607   -0.078709   -3.290997
C        -0.002239   -1.833489   -3.796770
C         2.801067   -1.282767   -1.423595
C         3.687892   -2.384687   -1.346075
C         4.723561   -2.525483   -2.306150
N         5.553421   -3.603971   -2.350489
C         5.318365   -4.532685   -1.461623
N         4.392225   -4.517904   -0.490461
C         3.597247   -3.461157   -0.390611
N         2.682440   -3.553558    0.624630
C         2.025528   -2.584951    1.415337
C         0.824692   -2.962526    2.025744
C         0.166335   -2.091806    2.886050
Cl        -1.243824   -2.634567    3.735418
C         0.644678   -0.786860    3.092717
O        -0.008016    0.088597    3.888711
C        -1.196527    0.660643    3.328064
C        -0.889082    1.880344    2.491113
C         0.189190    2.712971    2.809734
C         0.452910    3.817334    2.011665
F         1.496900    4.603873    2.318892
C        -0.324765    4.132957    0.904519
C        -1.402645    3.304044    0.599928
C        -1.684594    2.185396    1.381110
C         1.852717   -0.430890    2.488831
C         2.558830   -1.322143    1.687569
H        -0.497354    1.744085   -6.233769
H         0.243692    3.365795   -6.328537
H         0.283479    2.451407   -4.789689
H         2.495885    2.392222   -5.969812
H         1.734066    1.639777   -7.395175
H         2.899529   -0.450570   -7.164913
H         2.685659   -1.296684   -5.607417
H         4.448767    1.178368   -6.116150
H         4.989744   -0.486612   -5.829483
H         5.700135   -1.614088   -3.992879
H         2.328151    1.290646   -3.444301
H         0.743836    1.390454    0.179307
H        -0.605339   -0.555946    0.567550
H        -4.004793   -1.367637    3.190639
H        -5.415708   -1.627138    2.147468
H        -6.646994    0.817407    3.692547
H        -5.954248   -0.035901    6.870338
H        -7.086025    0.955888    5.899143
H        -5.709379    1.715274    6.765093
H        -4.546425    0.425127    0.110712
H        -6.834287    0.718977   -1.224146
H        -5.473717    1.778262   -1.691467
H        -6.745222    2.374316   -0.579293
H        -1.676443   -1.689450   -1.275985
H        -0.010048   -2.261288   -1.334020
H        -1.818037    0.691689   -2.546566
H        -2.480123   -0.695011   -3.468516
H        -1.303656    0.437913   -4.224758
H        -0.762421   -2.613238   -4.031068
H         0.904212   -2.341250   -3.430572
H         0.258973   -1.313193   -4.731584
H         1.980992   -1.194203   -0.722299
H         5.950594   -5.428770   -1.495247
H         2.714149   -4.482480    1.032602
H         0.401485   -3.951112    1.842086
H        -1.855672    0.904296    4.173675
H        -1.735848   -0.077280    2.706596
H         0.827085    2.495721    3.668034
H        -0.067917    4.997127    0.290356
H        -2.005662    3.509306   -0.286248
H        -2.485317    1.498490    1.093133
H         2.237130    0.573521    2.670067
H         3.514286   -1.023740    1.254436
