97
-1 1
C        -0.365497   -0.933394   -5.605459
C         0.851883   -0.120962   -5.984523
O         2.007966   -0.826839   -5.597077
C         3.215061   -0.397448   -6.127916
C         3.636165    1.020026   -5.726305
O         3.406221    1.327063   -4.370101
C         3.712484    0.402826   -3.416398
C         4.939319   -0.198896   -3.329868
C         2.631274    0.077681   -2.517925
N         1.474727    0.774982   -2.690871
C         0.122181    0.559995   -2.245027
O        -0.736406    1.020564   -3.031895
C        -0.079688   -0.068714   -1.024098
C        -1.418896   -0.459779   -0.527176
S        -2.587101    1.009457   -0.385744
C        -3.674280    0.398082    0.941928
C        -4.868243    1.342275    1.150191
H        -4.509188    2.380662    1.020316
N        -5.449446    1.208533    2.464383
C        -4.841335    1.654357    3.585631
C        -5.634764    1.490814    4.868127
O        -3.719497    2.136567    3.591693
C        -6.015853    1.098524    0.149829
N        -5.654011    1.026843   -1.143695
C        -6.598029    0.769424   -2.201507
O        -7.169857    0.986199    0.546894
C        -2.061860   -1.703164   -1.170549
N        -2.139795   -1.789881   -2.611145
C        -3.096865   -0.890856   -3.208725
C        -2.317973   -3.148351   -3.050626
C         2.865612   -0.926330   -1.589013
C         4.138032   -1.531219   -1.458000
C         5.192308   -1.190158   -2.344817
N         6.408298   -1.803105   -2.310400
C         6.552635   -2.738132   -1.409053
N         5.659715   -3.118014   -0.475699
C         4.482553   -2.515575   -0.468621
N         3.615341   -2.943301    0.516813
C         2.635872   -2.185787    1.197422
C         1.439244   -2.802334    1.571205
C         0.445440   -2.074633    2.214030
Cl        -1.052990   -2.861339    2.637886
C         0.592187   -0.702175    2.466566
O        -0.451115   -0.047960    3.016773
C        -0.588169    1.342115    2.780047
C         0.247961    2.199134    3.700362
C         0.644661    1.723036    4.951565
C         1.381166    2.550548    5.787676
F         1.762971    2.088137    6.984200
C         1.736167    3.843694    5.424569
C         1.334482    4.311221    4.173944
C         0.599494    3.497177    3.314905
C         1.805834   -0.102342    2.113010
C         2.819018   -0.835971    1.506952
H        -0.337482   -1.918810   -6.096482
H        -1.276408   -0.401836   -5.916927
H        -0.425481   -1.062345   -4.514815
H         0.796903    0.860647   -5.479484
H         0.880227    0.062287   -7.080871
H         3.214090   -0.427556   -7.240442
H         3.966970   -1.120843   -5.780833
H         3.055455    1.770782   -6.282727
H         4.699756    1.160338   -6.000067
H         5.740335    0.046716   -4.028906
H         1.489752    1.399286   -3.487570
H         0.734827   -0.115771   -0.306765
H        -1.311060   -0.738617    0.531671
H        -3.101843    0.342934    1.877620
H        -4.033027   -0.616128    0.705512
H        -6.435676    0.960019    2.450346
H        -5.128204    0.743195    5.495637
H        -6.674311    1.175670    4.704479
H        -5.618261    2.443802    5.413807
H        -4.650303    1.035832   -1.357444
H        -6.442057   -0.228357   -2.642527
H        -6.499084    1.518862   -3.001419
H        -7.611200    0.818082   -1.783640
H        -3.067931   -1.884431   -0.713560
H        -1.424685   -2.536949   -0.832869
H        -2.774824    0.145114   -3.044623
H        -4.129254   -1.047580   -2.808142
H        -3.129332   -1.061556   -4.295924
H        -3.289547   -3.597614   -2.726692
H        -1.509390   -3.786463   -2.661536
H        -2.280372   -3.195041   -4.150720
H         2.028773   -1.261106   -0.988435
H         7.512396   -3.270007   -1.386988
H         3.997003   -3.737092    1.020228
H         1.265504   -3.849734    1.322324
H        -1.650799    1.570150    2.960804
H        -0.375159    1.565519    1.719911
H         0.389276    0.711177    5.269846
H         2.319185    4.457129    6.113124
H         1.606915    5.322573    3.864099
H         0.297043    3.866484    2.332203
H         1.959215    0.959164    2.303631
H         3.749243   -0.339669    1.227435
