83
-1 1
C         4.191724   -6.854356    3.960220
O         4.003396   -5.479655    3.895181
C         2.665766   -5.086169    4.065965
C         2.537814   -3.586347    3.922336
C         2.990347   -3.086240    2.563521
O         2.738385   -1.701207    2.523098
C         2.598495   -1.088899    1.341786
C         3.122494   -1.568422    0.154783
C         1.850898    0.134232    1.365645
N         1.403971    0.660253    2.589038
C         0.147909    0.308033    3.172360
O        -0.344383    1.168702    3.925935
C        -0.461192   -0.912299    2.815070
C        -1.707424   -1.273060    3.504003
S        -3.363216   -0.744800    2.640137
C        -2.884092    0.826506    1.867540
C        -2.624404    0.706280    0.355485
H        -3.549619    0.363333   -0.141757
N        -1.590455   -0.246391    0.095012
C        -1.403463   -0.715378   -1.152061
C        -0.430879   -1.864640   -1.284549
O        -2.019356   -0.265273   -2.115113
C        -2.271615    2.072427   -0.244904
N        -3.335690    2.804727   -0.646829
C        -3.213933    4.112951   -1.242985
O        -1.122942    2.488361   -0.335415
C        -1.903709   -2.767504    3.740836
N        -0.847721   -3.386776    4.527773
C        -1.071933   -4.798848    4.690037
C        -0.579016   -2.721216    5.781079
C         1.583342    0.764786    0.172296
C         2.063308    0.259821   -1.057928
C         2.885979   -0.890812   -1.065322
N         3.430538   -1.374981   -2.221894
C         3.118366   -0.725424   -3.311606
N         2.263644    0.306348   -3.449337
C         1.696581    0.771519   -2.349585
N         0.712364    1.713337   -2.440371
C         0.167369    2.219317   -3.629520
C        -1.227099    2.291837   -3.740366
C        -1.803484    2.862492   -4.868501
Cl        -3.539635    2.964294   -5.013306
C        -1.003668    3.335924   -5.905333
F        -1.559392    3.880040   -6.990611
C         0.378083    3.235724   -5.814957
C         0.966313    2.685679   -4.681118
H         3.883142   -7.271666    4.940832
H         5.261437   -7.061791    3.815889
H         3.621558   -7.391258    3.174852
H         2.299060   -5.401442    5.065260
H         2.021077   -5.596800    3.318245
H         3.120423   -3.082204    4.709113
H         1.477468   -3.310503    4.051667
H         2.417783   -3.594072    1.764183
H         4.060513   -3.297641    2.392889
H         3.734923   -2.469027    0.118251
H         1.496662    1.667730    2.656489
H         0.104897   -1.695614    2.305007
H        -1.790508   -0.709458    4.442569
H        -1.999445    1.213188    2.396524
H        -3.704393    1.540485    2.031143
H        -1.051119   -0.574745    0.918574
H        -1.012563   -2.795315   -1.369944
H         0.243934   -1.947425   -0.421874
H         0.152400   -1.745007   -2.206654
H        -4.242332    2.357466   -0.633537
H        -2.162119    4.414694   -1.169338
H        -3.835775    4.849808   -0.711410
H        -3.500970    4.099017   -2.306380
H        -1.940132   -3.278390    2.763244
H        -2.896844   -2.934945    4.223631
H        -1.981401   -5.036908    5.291909
H        -0.209519   -5.267746    5.191871
H        -1.193285   -5.278938    3.706052
H         0.233673   -3.246813    6.308282
H        -1.463669   -2.696101    6.458943
H        -0.247081   -1.689430    5.599680
H         0.933863    1.640729    0.206145
H         3.583512   -1.070697   -4.244292
H         0.136590    1.875508   -1.610445
H        -1.853995    1.838925   -2.969989
H         0.984039    3.605244   -6.643913
H         2.048983    2.602054   -4.609052
