-1 1
 OpenBabel05232413493D

 83 84  0  0  1  0  0  0  0  0999 V2000
   -1.6983    1.8390   -3.8390 C   0  0  0  0  0  0  0  0  0  0  0  0
   -0.4404    1.2301   -3.7336 O   0  0  0  0  0  0  0  0  0  0  0  0
    0.3706    1.3925   -4.8517 C   0  0  0  0  0  0  0  0  0  0  0  0
    1.5383    0.4218   -4.7982 C   0  0  2  0  0  0  0  0  0  0  0  0
    1.1233   -0.5759   -4.5860 H   0  0  0  0  0  0  0  0  0  0  0  0
    2.5059    0.7749   -3.8069 O   0  0  0  0  0  0  0  0  0  0  0  0
    2.1633    1.0060   -2.5132 C   0  0  0  0  0  0  0  0  0  0  0  0
    2.4488    2.2378   -1.9759 C   0  0  0  0  0  0  0  0  0  0  0  0
    1.5867   -0.0192   -1.6993 C   0  0  0  0  0  0  0  0  0  0  0  0
    1.3530   -1.2829   -2.2727 N   0  0  0  0  0  0  0  0  0  0  0  0
    0.1662   -1.9593   -2.5022 C   0  0  0  0  0  0  0  0  0  0  0  0
    0.2035   -3.0027   -3.1304 O   0  0  0  0  0  0  0  0  0  0  0  0
   -1.0837   -1.3445   -1.9968 C   0  0  0  0  0  0  0  0  0  0  0  0
   -2.2299   -2.0327   -2.0525 C   0  0  0  0  0  0  0  0  0  0  0  0
   -3.1286   -1.7710    2.1842 S   0  0  0  0  0  1  0  0  0  0  0  0
   -2.2167   -0.3829    1.4306 C   0  0  0  0  0  0  0  0  0  0  0  0
   -2.5590    1.0313    1.9597 C   0  0  2  0  0  0  0  0  0  0  0  0
   -3.6515    1.1581    1.8663 H   0  0  0  0  0  0  0  0  0  0  0  0
   -1.8724    2.0664    1.2117 N   0  0  0  0  0  0  0  0  0  0  0  0
   -2.0826    2.3401   -0.0896 C   0  0  0  0  0  0  0  0  0  0  0  0
   -1.1859    3.4022   -0.6919 C   0  0  0  0  0  0  0  0  0  0  0  0
   -2.9186    1.7627   -0.7772 O   0  0  0  0  0  0  0  0  0  0  0  0
   -2.1610    1.2321    3.4269 C   0  0  0  0  0  0  0  0  0  0  0  0
   -2.7138    0.3774    4.2927 N   0  0  0  0  0  0  0  0  0  0  0  0
   -2.3056    0.3590    5.6730 C   0  0  0  0  0  0  0  0  0  0  0  0
   -1.3561    2.1093    3.7647 O   0  0  0  0  0  0  0  0  0  0  0  0
   -3.5554   -1.5467   -1.5651 C   0  0  0  0  0  0  0  0  0  0  0  0
   -4.6438   -1.9783   -2.4290 N   0  0  0  0  0  0  0  0  0  0  0  0
   -5.9291   -1.8317   -1.7884 C   0  0  0  0  0  0  0  0  0  0  0  0
   -4.6036   -1.3302   -3.7174 C   0  0  0  0  0  0  0  0  0  0  0  0
    1.3313    0.2371   -0.3711 C   0  0  0  0  0  0  0  0  0  0  0  0
    1.6308    1.4972    0.2023 C   0  0  0  0  0  0  0  0  0  0  0  0
    2.1629    2.5245   -0.6207 C   0  0  0  0  0  0  0  0  0  0  0  0
    2.3439    3.7971   -0.1672 N   0  0  0  0  0  0  0  0  0  0  0  0
    1.9428    4.0233    1.0564 C   0  0  0  0  0  0  0  0  0  0  0  0
    1.4798    3.1322    1.9499 N   0  0  0  0  0  0  0  0  0  0  0  0
    1.3871    1.8671    1.5728 C   0  0  0  0  0  0  0  0  0  0  0  0
    0.9881    0.9827    2.5378 N   0  0  0  0  0  0  0  0  0  0  0  0
    1.3816   -0.3517    2.7028 C   0  0  0  0  0  0  0  0  0  0  0  0
    2.6604   -0.7762    2.3191 C   0  0  0  0  0  0  0  0  0  0  0  0
    3.0262   -2.1087    2.4701 C   0  0  0  0  0  0  0  0  0  0  0  0
    4.6066   -2.6450    1.9691 Cl  0  0  0  0  0  0  0  0  0  0  0  0
    2.1375   -3.0229    3.0324 C   0  0  0  0  0  0  0  0  0  0  0  0
    2.4945   -4.2984    3.1734 F   0  0  0  0  0  0  0  0  0  0  0  0
    0.8800   -2.6031    3.4421 C   0  0  0  0  0  0  0  0  0  0  0  0
    0.5009   -1.2759    3.2809 C   0  0  0  0  0  0  0  0  0  0  0  0
    2.3018    0.3866   -6.1087 C   0  0  0  0  0  0  0  0  0  0  0  0
   -2.2869    1.3924   -4.6640 H   0  0  0  0  0  0  0  0  0  0  0  0
   -1.6041    2.9264   -4.0294 H   0  0  0  0  0  0  0  0  0  0  0  0
   -2.2319    1.6934   -2.8890 H   0  0  0  0  0  0  0  0  0  0  0  0
    0.7505    2.4341   -4.9294 H   0  0  0  0  0  0  0  0  0  0  0  0
   -0.1990    1.1805   -5.7804 H   0  0  0  0  0  0  0  0  0  0  0  0
    2.8629    3.0249   -2.6054 H   0  0  0  0  0  0  0  0  0  0  0  0
    2.1338   -1.7019   -2.7676 H   0  0  0  0  0  0  0  0  0  0  0  0
   -1.0607   -0.3238   -1.6089 H   0  0  0  0  0  0  0  0  0  0  0  0
   -2.2029   -3.0493   -2.4619 H   0  0  0  0  0  0  0  0  0  0  0  0
   -2.4340   -0.3443    0.3591 H   0  0  0  0  0  0  0  0  0  0  0  0
   -1.1266   -0.5174    1.5185 H   0  0  0  0  0  0  0  0  0  0  0  0
   -1.2380    2.6353    1.7685 H   0  0  0  0  0  0  0  0  0  0  0  0
   -0.4860    2.9082   -1.3832 H   0  0  0  0  0  0  0  0  0  0  0  0
   -0.6063    3.9622    0.0532 H   0  0  0  0  0  0  0  0  0  0  0  0
   -1.8021    4.0956   -1.2800 H   0  0  0  0  0  0  0  0  0  0  0  0
   -3.1343   -0.4780    3.8522 H   0  0  0  0  0  0  0  0  0  0  0  0
   -1.2850   -0.0450    5.8030 H   0  0  0  0  0  0  0  0  0  0  0  0
   -3.0018   -0.2681    6.2458 H   0  0  0  0  0  0  0  0  0  0  0  0
   -2.3108    1.3774    6.0868 H   0  0  0  0  0  0  0  0  0  0  0  0
   -3.5393   -0.4447   -1.4275 H   0  0  0  0  0  0  0  0  0  0  0  0
   -3.7093   -1.9791   -0.5566 H   0  0  0  0  0  0  0  0  0  0  0  0
   -6.7206   -2.2581   -2.4267 H   0  0  0  0  0  0  0  0  0  0  0  0
   -6.1945   -0.7698   -1.5808 H   0  0  0  0  0  0  0  0  0  0  0  0
   -5.9338   -2.3665   -0.8275 H   0  0  0  0  0  0  0  0  0  0  0  0
   -3.6240   -1.4904   -4.1942 H   0  0  0  0  0  0  0  0  0  0  0  0
   -4.7687   -0.2287   -3.6556 H   0  0  0  0  0  0  0  0  0  0  0  0
   -5.3760   -1.7516   -4.3815 H   0  0  0  0  0  0  0  0  0  0  0  0
    0.8908   -0.5587    0.2289 H   0  0  0  0  0  0  0  0  0  0  0  0
    2.0074    5.0574    1.4180 H   0  0  0  0  0  0  0  0  0  0  0  0
    0.4221    1.4171    3.2736 H   0  0  0  0  0  0  0  0  0  0  0  0
    3.3735   -0.0730    1.8883 H   0  0  0  0  0  0  0  0  0  0  0  0
    0.1777   -3.3301    3.8516 H   0  0  0  0  0  0  0  0  0  0  0  0
   -0.5129   -0.9860    3.5631 H   0  0  0  0  0  0  0  0  0  0  0  0
    3.1681   -0.2824   -6.0160 H   0  0  0  0  0  0  0  0  0  0  0  0
    2.6702    1.3901   -6.3713 H   0  0  0  0  0  0  0  0  0  0  0  0
    1.6610    0.0164   -6.9215 H   0  0  0  0  0  0  0  0  0  0  0  0
  1  2  1  0  0  0  0
  1 50  1  0  0  0  0
  3  4  1  0  0  0  0
  3  2  1  0  0  0  0
  4  5  1  1  0  0  0
  4  6  1  0  0  0  0
  6  7  1  0  0  0  0
  7  8  2  0  0  0  0
  7  9  1  0  0  0  0
  8 33  1  0  0  0  0
  9 31  2  0  0  0  0
 10  9  1  0  0  0  0
 11 10  1  0  0  0  0
 11 13  1  0  0  0  0
 12 11  2  0  0  0  0
 13 55  1  0  0  0  0
 14 13  2  0  0  0  0
 14 27  1  0  0  0  0
 16 58  1  0  0  0  0
 16 17  1  0  0  0  0
 16 15  1  0  0  0  0
 17 18  1  6  0  0  0
 17 23  1  0  0  0  0
 19 59  1  0  0  0  0
 19 17  1  0  0  0  0
 20 19  1  0  0  0  0
 21 20  1  0  0  0  0
 21 61  1  0  0  0  0
 22 20  2  0  0  0  0
 23 26  2  0  0  0  0
 23 24  1  0  0  0  0
 24 25  1  0  0  0  0
 25 64  1  0  0  0  0
 25 66  1  0  0  0  0
 25 65  1  0  0  0  0
 27 67  1  0  0  0  0
 27 68  1  0  0  0  0
 28 29  1  0  0  0  0
 28 27  1  0  0  0  0
 29 70  1  0  0  0  0
 29 71  1  0  0  0  0
 30 73  1  0  0  0  0
 30 28  1  0  0  0  0
 31 32  1  0  0  0  0
 31 75  1  0  0  0  0
 32 37  1  0  0  0  0
 33 34  1  0  0  0  0
 33 32  2  0  0  0  0
 34 35  2  0  0  0  0
 35 76  1  0  0  0  0
 35 36  1  0  0  0  0
 37 36  2  0  0  0  0
 37 38  1  0  0  0  0
 38 39  1  0  0  0  0
 38 77  1  0  0  0  0
 39 46  1  0  0  0  0
 40 41  1  0  0  0  0
 40 39  2  0  0  0  0
 41 43  2  0  0  0  0
 42 41  1  0  0  0  0
 43 44  1  0  0  0  0
 43 45  1  0  0  0  0
 45 79  1  0  0  0  0
 46 45  2  0  0  0  0
 46 80  1  0  0  0  0
 47 81  1  0  0  0  0
 47  4  1  0  0  0  0
 48  1  1  0  0  0  0
 49  1  1  0  0  0  0
 51  3  1  0  0  0  0
 52  3  1  0  0  0  0
 53  8  1  0  0  0  0
 54 10  1  0  0  0  0
 56 14  1  0  0  0  0
 57 16  1  0  0  0  0
 60 21  1  0  0  0  0
 62 21  1  0  0  0  0
 63 24  1  0  0  0  0
 69 29  1  0  0  0  0
 72 30  1  0  0  0  0
 74 30  1  0  0  0  0
 78 40  1  0  0  0  0
 82 47  1  0  0  0  0
 83 47  1  0  0  0  0
M  END
