-1 1
 OpenBabel05232414493D

 83 85  0  0  1  0  0  0  0  0999 V2000
   -6.4836    6.5550   -3.0709 C   0  0  0  0  0  0  0  0  0  0  0  0
   -5.3827    5.7103   -2.9203 O   0  0  0  0  0  0  0  0  0  0  0  0
   -4.7684    5.3333   -4.1107 C   0  0  0  0  0  0  0  0  0  0  0  0
   -3.7595    4.2345   -3.8265 C   0  0  2  0  0  0  0  0  0  0  0  0
   -4.2737    3.4372   -3.2738 H   0  0  0  0  0  0  0  0  0  0  0  0
   -2.6806    4.7496   -3.0397 O   0  0  0  0  0  0  0  0  0  0  0  0
   -2.8319    4.9087   -1.7074 C   0  0  0  0  0  0  0  0  0  0  0  0
   -2.5466    6.1512   -1.1775 C   0  0  0  0  0  0  0  0  0  0  0  0
   -3.2133    3.8279   -0.8481 C   0  0  0  0  0  0  0  0  0  0  0  0
   -3.4622    2.5409   -1.3782 N   0  0  0  0  0  0  0  0  0  0  0  0
   -4.6924    1.8356   -1.1419 C   0  0  0  0  0  0  0  0  0  0  0  0
   -4.6101    0.6158   -0.9963 O   0  0  0  0  0  0  0  0  0  0  0  0
   -5.8729    2.6299   -1.1537 C   0  0  0  0  0  3  0  0  0  0  0  0
   -7.1313    2.0753   -0.7996 C   0  0  1  0  0  0  0  0  0  0  0  0
   -7.4165    2.0154    1.3482 S   0  0  0  0  0  0  0  0  0  0  0  0
   -6.4196    3.4682    1.6987 C   0  0  0  0  0  0  0  0  0  0  0  0
   -7.1855    4.6591    2.3157 C   0  0  2  0  0  0  0  0  0  0  0  0
   -8.2063    4.6480    1.9042 H   0  0  0  0  0  0  0  0  0  0  0  0
   -6.5896    5.9366    2.0113 N   0  0  0  0  0  0  0  0  0  0  0  0
   -6.8356    6.5673    0.8405 C   0  0  0  0  0  0  0  0  0  0  0  0
   -6.0640    7.8450    0.6038 C   0  0  0  0  0  0  0  0  0  0  0  0
   -7.6129    6.1255    0.0055 O   0  0  0  0  0  0  0  0  0  0  0  0
   -7.2152    4.4774    3.8258 C   0  0  0  0  0  0  0  0  0  0  0  0
   -8.0154    3.4741    4.2399 N   0  0  0  0  0  0  0  0  0  0  0  0
   -8.0061    2.9819    5.5932 C   0  0  0  0  0  0  0  0  0  0  0  0
   -6.5104    5.1447    4.5819 O   0  0  0  0  0  0  0  0  0  0  0  0
   -8.3401    2.8567   -1.2848 C   0  0  0  0  0  0  0  0  0  0  0  0
   -9.6308    2.2560   -1.0084 N   0  0  0  0  0  0  0  0  0  0  0  0
  -10.6992    3.2173   -0.9819 C   0  0  0  0  0  0  0  0  0  0  0  0
   -9.9235    1.1281   -1.8514 C   0  0  0  0  0  0  0  0  0  0  0  0
   -3.3365    4.0747    0.5029 C   0  0  0  0  0  0  0  0  0  0  0  0
   -3.0974    5.3520    1.0622 C   0  0  0  0  0  0  0  0  0  0  0  0
   -2.7016    6.4112    0.1987 C   0  0  0  0  0  0  0  0  0  0  0  0
   -2.5542    7.6919    0.6533 N   0  0  0  0  0  0  0  0  0  0  0  0
   -2.8905    7.8996    1.8958 C   0  0  0  0  0  0  0  0  0  0  0  0
   -3.2942    6.9901    2.8067 N   0  0  0  0  0  0  0  0  0  0  0  0
   -3.3366    5.7249    2.4279 C   0  0  0  0  0  0  0  0  0  0  0  0
   -3.7269    4.8326    3.4051 N   0  0  0  0  0  0  0  0  0  0  0  0
   -3.2693    3.5422    3.6608 C   0  0  0  0  0  0  0  0  0  0  0  0
   -2.0424    3.0716    3.1757 C   0  0  0  0  0  0  0  0  0  0  0  0
   -1.6371    1.7709    3.4547 C   0  0  0  0  0  0  0  0  0  0  0  0
   -0.1243    1.1782    2.8316 Cl  0  0  0  0  0  0  0  0  0  0  0  0
   -2.4268    0.9370    4.2419 C   0  0  0  0  0  0  0  0  0  0  0  0
   -2.0304   -0.3059    4.5114 F   0  0  0  0  0  0  0  0  0  0  0  0
   -3.6277    1.4083    4.7546 C   0  0  0  0  0  0  0  0  0  0  0  0
   -4.0501    2.6993    4.4667 C   0  0  0  0  0  0  0  0  0  0  0  0
   -3.1397    3.6688   -5.0874 C   0  0  0  0  0  0  0  0  0  0  0  0
   -7.2305    6.1211   -3.7653 H   0  0  0  0  0  0  0  0  0  0  0  0
   -6.1866    7.5483   -3.4654 H   0  0  0  0  0  0  0  0  0  0  0  0
   -6.9543    6.6664   -2.0847 H   0  0  0  0  0  0  0  0  0  0  0  0
   -4.2636    6.1978   -4.5950 H   0  0  0  0  0  0  0  0  0  0  0  0
   -5.5172    4.9399   -4.8304 H   0  0  0  0  0  0  0  0  0  0  0  0
   -2.2724    6.9704   -1.8415 H   0  0  0  0  0  0  0  0  0  0  0  0
   -2.6777    1.8988   -1.3240 H   0  0  0  0  0  0  0  0  0  0  0  0
   -5.8031    3.6957   -1.3886 H   0  0  0  0  0  0  0  0  0  0  0  0
   -7.1841    0.9879   -0.9213 H   0  0  0  0  0  0  0  0  0  0  0  0
   -5.9961    3.7809    0.7269 H   0  0  0  0  0  0  0  0  0  0  0  0
   -5.5676    3.2105    2.3425 H   0  0  0  0  0  0  0  0  0  0  0  0
   -6.0012    6.3605    2.7198 H   0  0  0  0  0  0  0  0  0  0  0  0
   -5.2342    7.6239   -0.0846 H   0  0  0  0  0  0  0  0  0  0  0  0
   -5.6455    8.2739    1.5240 H   0  0  0  0  0  0  0  0  0  0  0  0
   -6.7236    8.5743    0.1161 H   0  0  0  0  0  0  0  0  0  0  0  0
   -8.3945    2.8784    3.4986 H   0  0  0  0  0  0  0  0  0  0  0  0
   -7.4315    2.0442    5.6811 H   0  0  0  0  0  0  0  0  0  0  0  0
   -9.0311    2.7938    5.9463 H   0  0  0  0  0  0  0  0  0  0  0  0
   -7.5409    3.7413    6.2344 H   0  0  0  0  0  0  0  0  0  0  0  0
   -8.2146    3.0180   -2.3824 H   0  0  0  0  0  0  0  0  0  0  0  0
   -8.3015    3.8571   -0.8264 H   0  0  0  0  0  0  0  0  0  0  0  0
  -11.6407    2.7330   -0.6734 H   0  0  0  0  0  0  0  0  0  0  0  0
  -10.8829    3.7038   -1.9713 H   0  0  0  0  0  0  0  0  0  0  0  0
  -10.4709    4.0127   -0.2569 H   0  0  0  0  0  0  0  0  0  0  0  0
   -9.1087    0.3917   -1.8019 H   0  0  0  0  0  0  0  0  0  0  0  0
  -10.0589    1.4083   -2.9252 H   0  0  0  0  0  0  0  0  0  0  0  0
  -10.8466    0.6272   -1.5165 H   0  0  0  0  0  0  0  0  0  0  0  0
   -3.6544    3.2420    1.1272 H   0  0  0  0  0  0  0  0  0  0  0  0
   -2.8378    8.9331    2.2613 H   0  0  0  0  0  0  0  0  0  0  0  0
   -4.3390    5.2371    4.1118 H   0  0  0  0  0  0  0  0  0  0  0  0
   -1.4009    3.7087    2.5673 H   0  0  0  0  0  0  0  0  0  0  0  0
   -4.2358    0.7396    5.3653 H   0  0  0  0  0  0  0  0  0  0  0  0
   -4.9980    3.0710    4.8589 H   0  0  0  0  0  0  0  0  0  0  0  0
   -2.4331    2.8718   -4.8194 H   0  0  0  0  0  0  0  0  0  0  0  0
   -2.5928    4.4479   -5.6417 H   0  0  0  0  0  0  0  0  0  0  0  0
   -3.9131    3.2418   -5.7421 H   0  0  0  0  0  0  0  0  0  0  0  0
  1  2  1  0  0  0  0
  1 50  1  0  0  0  0
  3  4  1  0  0  0  0
  3  2  1  0  0  0  0
  4  5  1  1  0  0  0
  4  6  1  0  0  0  0
  6  7  1  0  0  0  0
  7  8  2  0  0  0  0
  7  9  1  0  0  0  0
  8 33  1  0  0  0  0
  9 31  2  0  0  0  0
 10 54  1  0  0  0  0
 10 11  1  0  0  0  0
 10  9  1  0  0  0  0
 11 12  2  0  0  0  0
 13 11  1  0  0  0  0
 13 14  1  0  0  0  0
 14 56  1  6  0  0  0
 14 15  1  0  0  0  0
 15 16  1  0  0  0  0
 16 17  1  0  0  0  0
 16 58  1  0  0  0  0
 17 18  1  6  0  0  0
 17 23  1  0  0  0  0
 19 17  1  0  0  0  0
 19 59  1  0  0  0  0
 20 19  1  0  0  0  0
 21 20  1  0  0  0  0
 21 61  1  0  0  0  0
 22 20  2  0  0  0  0
 23 24  1  0  0  0  0
 23 26  2  0  0  0  0
 24 25  1  0  0  0  0
 25 64  1  0  0  0  0
 25 65  1  0  0  0  0
 25 66  1  0  0  0  0
 27 28  1  0  0  0  0
 27 68  1  0  0  0  0
 27 14  1  0  0  0  0
 28 29  1  0  0  0  0
 29 69  1  0  0  0  0
 29 71  1  0  0  0  0
 30 72  1  0  0  0  0
 30 74  1  0  0  0  0
 30 28  1  0  0  0  0
 31 32  1  0  0  0  0
 31 75  1  0  0  0  0
 32 37  1  0  0  0  0
 33 34  1  0  0  0  0
 33 32  2  0  0  0  0
 34 35  2  0  0  0  0
 35 76  1  0  0  0  0
 35 36  1  0  0  0  0
 37 36  2  0  0  0  0
 37 38  1  0  0  0  0
 38 39  1  0  0  0  0
 38 77  1  0  0  0  0
 39 46  1  0  0  0  0
 40 41  1  0  0  0  0
 40 39  2  0  0  0  0
 41 43  2  0  0  0  0
 42 41  1  0  0  0  0
 43 44  1  0  0  0  0
 43 45  1  0  0  0  0
 45 79  1  0  0  0  0
 46 45  2  0  0  0  0
 46 80  1  0  0  0  0
 47 81  1  0  0  0  0
 47  4  1  0  0  0  0
 48  1  1  0  0  0  0
 49  1  1  0  0  0  0
 51  3  1  0  0  0  0
 52  3  1  0  0  0  0
 53  8  1  0  0  0  0
 55 13  1  0  0  0  0
 57 16  1  0  0  0  0
 60 21  1  0  0  0  0
 62 21  1  0  0  0  0
 63 24  1  0  0  0  0
 67 27  1  0  0  0  0
 70 29  1  0  0  0  0
 73 30  1  0  0  0  0
 78 40  1  0  0  0  0
 82 47  1  0  0  0  0
 83 47  1  0  0  0  0
M  END
