83
-1 1
C        -0.365470    3.086959   -3.488404
O        -0.033364    1.823025   -3.983757
C         0.785989    1.823494   -5.108519
C         1.545084    0.506318   -5.179138
H         0.845978   -0.288511   -4.869642
O         2.675460    0.507719   -4.296683
C         2.460431    0.858004   -2.996774
C         2.931103    2.062162   -2.543446
C         1.727997   -0.033587   -2.139207
N         1.273672   -1.213234   -2.674593
C         0.289852   -2.078197   -2.033259
O         0.651381   -3.227988   -1.742154
C        -0.949090   -1.464261   -1.854011
C        -1.937954   -2.050470   -0.941133
S        -1.526822   -1.684230    0.890265
C        -1.550136    0.115985    0.821481
C        -2.841802    0.869155    1.205572
H        -3.598969    0.749282    0.418584
N        -2.534283    2.272601    1.363676
C        -2.227434    3.071979    0.314327
C        -1.575165    4.390204    0.678453
O        -2.431689    2.741210   -0.843238
C        -3.379806    0.360951    2.537327
N        -4.219327   -0.685135    2.429061
C        -4.570686   -1.482008    3.575428
O        -3.025951    0.874720    3.594564
C        -3.356037   -1.593356   -1.280802
N        -4.418040   -1.901634   -0.322419
C        -5.676254   -1.325238   -0.742369
C        -4.539020   -3.318080   -0.049045
C         1.516181    0.360573   -0.824542
C         1.997776    1.599697   -0.337557
C         2.677797    2.490613   -1.217806
N         3.024964    3.757799   -0.859068
C         2.693614    4.122195    0.350224
N         2.152089    3.349020    1.309214
C         1.865946    2.092000    1.006691
N         1.389701    1.360755    2.077768
C         1.521312    0.001399    2.403507
C         2.483328   -0.829425    1.821043
C         2.524304   -2.180098    2.150894
Cl         3.681355   -3.225773    1.388026
C         1.644493   -2.700213    3.096046
F         1.683276   -3.994497    3.409685
C         0.720389   -1.870713    3.714222
C         0.651445   -0.528824    3.366638
C         2.102196    0.225719   -6.560216
H        -0.883177    3.702514   -4.252021
H         0.538725    3.635039   -3.155709
H        -1.037785    2.949552   -2.630922
H         1.520414    2.655460   -5.074956
H         0.186600    1.954376   -6.034677
H         3.448277    2.737956   -3.224982
H         1.943788   -1.704883   -3.256653
H        -1.100817   -0.451212   -2.236108
H        -1.851366   -3.147451   -0.945651
H        -1.260430    0.410431   -0.199581
H        -0.767924    0.485409    1.492522
H        -2.302741    2.539197    2.315785
H        -0.487572    4.232648    0.763388
H        -1.938360    4.786488    1.637767
H        -1.761079    5.117549   -0.120819
H        -4.242410   -1.136712    1.499640
H        -3.877622   -2.331977    3.702009
H        -5.593072   -1.875204    3.470905
H        -4.517593   -0.855339    4.475148
H        -3.601119   -2.024641   -2.276705
H        -3.341389   -0.498898   -1.419217
H        -6.445981   -1.488798    0.029041
H        -6.051393   -1.753076   -1.698736
H        -5.562553   -0.239353   -0.883519
H        -3.605406   -3.699736    0.385683
H        -4.768755   -3.910252   -0.962263
H        -5.346851   -3.489724    0.680487
H         0.957756   -0.317657   -0.181744
H         2.898797    5.160566    0.639469
H         1.194652    1.971637    2.863452
H         3.187361   -0.443440    1.085586
H         0.026876   -2.299833    4.438167
H        -0.125287    0.102224    3.805713
H         2.697737   -0.697417   -6.542397
H         2.755938    1.048040   -6.891305
H         1.288281    0.102554   -7.289287
