-1 1
 OpenBabel05192410563D

 83 85  0  0  1  0  0  0  0  0999 V2000
    4.6715   -0.5729   -4.2561 C   0  0  0  0  0  0  0  0  0  0  0  0
    3.5971   -0.4639   -3.3850 O   0  0  0  0  0  0  0  0  0  0  0  0
    2.4768   -1.1959   -3.7722 C   0  0  0  0  0  0  0  0  0  0  0  0
    1.3571   -1.0096   -2.7684 C   0  0  1  0  0  0  0  0  0  0  0  0
    1.8008   -1.1003   -1.7680 H   0  0  0  0  0  0  0  0  0  0  0  0
    0.8485    0.3092   -2.9535 O   0  0  0  0  0  0  0  0  0  0  0  0
   -0.2008    0.7801   -2.2676 C   0  0  0  0  0  0  0  0  0  0  0  0
   -1.0942    1.5384   -3.0021 C   0  0  0  0  0  0  0  0  0  0  0  0
   -0.4614    0.5536   -0.8622 C   0  0  0  0  0  0  0  0  0  0  0  0
    0.4228   -0.1465   -0.0490 N   0  0  0  0  0  0  0  0  0  0  0  0
    1.7813    0.3647    0.1332 C   0  0  0  0  0  0  0  0  0  0  0  0
    2.1029    1.3253   -0.5685 O   0  0  0  0  0  0  0  0  0  0  0  0
    2.5725   -0.3406    1.0576 C   0  0  0  0  0  3  0  0  0  0  0  0
    3.8965    0.2531    1.4262 C   0  0  1  0  0  0  0  0  0  0  0  0
    5.1257    0.2789    0.0215 S   0  0  0  0  0  0  0  0  0  0  0  0
    5.7605   -1.4175    0.0130 C   0  0  0  0  0  0  0  0  0  0  0  0
    5.0314   -2.4379   -0.8661 C   0  0  2  0  0  0  0  0  0  0  0  0
    4.9210   -2.0294   -1.8864 H   0  0  0  0  0  0  0  0  0  0  0  0
    3.7076   -2.7107   -0.3160 N   0  0  0  0  0  0  0  0  0  0  0  0
    2.7496   -3.4439   -0.9135 C   0  0  0  0  0  0  0  0  0  0  0  0
    1.4349   -3.4820   -0.1610 C   0  0  0  0  0  0  0  0  0  0  0  0
    2.8815   -4.0575   -1.9782 O   0  0  0  0  0  0  0  0  0  0  0  0
    5.9167   -3.7109   -0.9418 C   0  0  0  0  0  0  0  0  0  0  0  0
    5.5441   -4.6057   -1.8883 N   0  0  0  0  0  0  0  0  0  0  0  0
    6.2035   -5.8765   -2.0274 C   0  0  0  0  0  0  0  0  0  0  0  0
    6.9006   -3.8551   -0.2341 O   0  0  0  0  0  0  0  0  0  0  0  0
    3.8431    1.7153    1.9196 C   0  0  0  0  0  0  0  0  0  0  0  0
    2.9012    1.9216    3.0028 N   0  0  0  0  0  0  0  0  0  0  0  0
    2.4934    3.2950    3.1322 C   0  0  0  0  0  0  0  0  0  0  0  0
    3.3208    1.3448    4.2505 C   0  0  0  0  0  0  0  0  0  0  0  0
   -1.6484    1.0368   -0.3379 C   0  0  0  0  0  0  0  0  0  0  0  0
   -2.5916    1.7600   -1.1026 C   0  0  0  0  0  0  0  0  0  0  0  0
   -2.2903    2.0450   -2.4573 C   0  0  0  0  0  0  0  0  0  0  0  0
   -3.1440    2.7654   -3.2467 N   0  0  0  0  0  0  0  0  0  0  0  0
   -4.2407    3.1787   -2.6826 C   0  0  0  0  0  0  0  0  0  0  0  0
   -4.6423    2.9739   -1.4069 N   0  0  0  0  0  0  0  0  0  0  0  0
   -3.8439    2.2774   -0.6265 C   0  0  0  0  0  0  0  0  0  0  0  0
   -4.2029    2.0253    0.6796 N   0  0  0  0  0  0  0  0  0  0  0  0
   -5.3293    2.3970    1.4097 C   0  0  0  0  0  0  0  0  0  0  0  0
   -5.3945    1.9633    2.7450 C   0  0  0  0  0  0  0  0  0  0  0  0
   -6.4829    2.2867    3.5453 C   0  0  0  0  0  0  0  0  0  0  0  0
   -6.5501    1.7402    5.1967 Cl  0  0  0  0  0  0  0  0  0  0  0  0
   -7.5272    3.0508    3.0302 C   0  0  0  0  0  0  0  0  0  0  0  0
   -8.5733    3.3630    3.7957 F   0  0  0  0  0  0  0  0  0  0  0  0
   -7.4712    3.4847    1.7142 C   0  0  0  0  0  0  0  0  0  0  0  0
   -6.3881    3.1677    0.9002 C   0  0  0  0  0  0  0  0  0  0  0  0
    0.2594   -2.0424   -2.9791 C   0  0  0  0  0  0  0  0  0  0  0  0
    4.4292   -0.1877   -5.2682 H   0  0  0  0  0  0  0  0  0  0  0  0
    5.0131   -1.6239   -4.3676 H   0  0  0  0  0  0  0  0  0  0  0  0
    5.4974    0.0211   -3.8414 H   0  0  0  0  0  0  0  0  0  0  0  0
    2.7180   -2.2770   -3.8137 H   0  0  0  0  0  0  0  0  0  0  0  0
    2.1198   -0.8793   -4.7754 H   0  0  0  0  0  0  0  0  0  0  0  0
   -0.8836    1.7140   -4.0568 H   0  0  0  0  0  0  0  0  0  0  0  0
    0.0095   -0.4697    0.8180 H   0  0  0  0  0  0  0  0  0  0  0  0
    2.0762   -0.9706    1.8052 H   0  0  0  0  0  0  0  0  0  0  0  0
    4.3803   -0.3691    2.1979 H   0  0  0  0  0  0  0  0  0  0  0  0
    5.8261   -1.8060    1.0404 H   0  0  0  0  0  0  0  0  0  0  0  0
    6.7951   -1.3477   -0.3461 H   0  0  0  0  0  0  0  0  0  0  0  0
    3.3170   -1.9409    0.2891 H   0  0  0  0  0  0  0  0  0  0  0  0
    0.9475   -2.4960   -0.2070 H   0  0  0  0  0  0  0  0  0  0  0  0
    1.6039   -3.7181    0.8989 H   0  0  0  0  0  0  0  0  0  0  0  0
    0.7859   -4.2394   -0.6160 H   0  0  0  0  0  0  0  0  0  0  0  0
    4.5974   -4.4826   -2.2629 H   0  0  0  0  0  0  0  0  0  0  0  0
    5.6420   -6.6928   -1.5393 H   0  0  0  0  0  0  0  0  0  0  0  0
    7.1919   -5.8110   -1.5546 H   0  0  0  0  0  0  0  0  0  0  0  0
    6.3286   -6.1347   -3.0904 H   0  0  0  0  0  0  0  0  0  0  0  0
    3.5150    2.3273    1.0672 H   0  0  0  0  0  0  0  0  0  0  0  0
    4.8679    2.0483    2.2057 H   0  0  0  0  0  0  0  0  0  0  0  0
    1.7022    3.3882    3.8951 H   0  0  0  0  0  0  0  0  0  0  0  0
    2.0853    3.6549    2.1761 H   0  0  0  0  0  0  0  0  0  0  0  0
    3.3234    3.9812    3.4293 H   0  0  0  0  0  0  0  0  0  0  0  0
    2.5317    1.4625    5.0112 H   0  0  0  0  0  0  0  0  0  0  0  0
    4.2539    1.8053    4.6579 H   0  0  0  0  0  0  0  0  0  0  0  0
    3.5071    0.2667    4.1340 H   0  0  0  0  0  0  0  0  0  0  0  0
   -1.7983    0.8761    0.7337 H   0  0  0  0  0  0  0  0  0  0  0  0
   -4.9353    3.7622   -3.2995 H   0  0  0  0  0  0  0  0  0  0  0  0
   -3.5371    1.4688    1.1948 H   0  0  0  0  0  0  0  0  0  0  0  0
   -4.5884    1.3651    3.1749 H   0  0  0  0  0  0  0  0  0  0  0  0
   -8.2984    4.0830    1.3280 H   0  0  0  0  0  0  0  0  0  0  0  0
   -6.3378    3.5027   -0.1326 H   0  0  0  0  0  0  0  0  0  0  0  0
   -0.5396   -1.9203   -2.2337 H   0  0  0  0  0  0  0  0  0  0  0  0
    0.6747   -3.0549   -2.8813 H   0  0  0  0  0  0  0  0  0  0  0  0
   -0.1848   -1.9303   -3.9810 H   0  0  0  0  0  0  0  0  0  0  0  0
  1 50  1  0  0  0  0
  1  2  1  0  0  0  0
  3  2  1  0  0  0  0
  3  4  1  0  0  0  0
  4  5  1  1  0  0  0
  6  4  1  0  0  0  0
  6  7  1  0  0  0  0
  7  9  1  0  0  0  0
  8 33  1  0  0  0  0
  8  7  2  0  0  0  0
  9 31  2  0  0  0  0
  9 10  1  0  0  0  0
 10 11  1  0  0  0  0
 10 54  1  0  0  0  0
 11 13  1  0  0  0  0
 12 11  2  0  0  0  0
 13 14  1  0  0  0  0
 13 55  1  0  0  0  0
 14 27  1  0  0  0  0
 14 56  1  1  0  0  0
 15 14  1  0  0  0  0
 16 15  1  0  0  0  0
 16 57  1  0  0  0  0
 17 18  1  6  0  0  0
 17 19  1  0  0  0  0
 17 16  1  0  0  0  0
 19 59  1  0  0  0  0
 20 19  1  0  0  0  0
 20 21  1  0  0  0  0
 21 61  1  0  0  0  0
 22 20  2  0  0  0  0
 23 17  1  0  0  0  0
 23 26  2  0  0  0  0
 24 23  1  0  0  0  0
 25 24  1  0  0  0  0
 25 65  1  0  0  0  0
 25 64  1  0  0  0  0
 27 68  1  0  0  0  0
 27 28  1  0  0  0  0
 28 29  1  0  0  0  0
 28 30  1  0  0  0  0
 29 71  1  0  0  0  0
 29 69  1  0  0  0  0
 30 73  1  0  0  0  0
 30 72  1  0  0  0  0
 31 75  1  0  0  0  0
 32 37  1  0  0  0  0
 32 31  1  0  0  0  0
 33 32  2  0  0  0  0
 34 35  2  0  0  0  0
 34 33  1  0  0  0  0
 35 36  1  0  0  0  0
 36 37  2  0  0  0  0
 37 38  1  0  0  0  0
 38 77  1  0  0  0  0
 38 39  1  0  0  0  0
 39 40  1  0  0  0  0
 40 78  1  0  0  0  0
 40 41  2  0  0  0  0
 41 42  1  0  0  0  0
 43 41  1  0  0  0  0
 43 44  1  0  0  0  0
 45 43  2  0  0  0  0
 46 39  2  0  0  0  0
 46 45  1  0  0  0  0
 47 82  1  0  0  0  0
 47  4  1  0  0  0  0
 47 81  1  0  0  0  0
 48  1  1  0  0  0  0
 49  1  1  0  0  0  0
 51  3  1  0  0  0  0
 52  3  1  0  0  0  0
 53  8  1  0  0  0  0
 58 16  1  0  0  0  0
 60 21  1  0  0  0  0
 62 21  1  0  0  0  0
 63 24  1  0  0  0  0
 66 25  1  0  0  0  0
 67 27  1  0  0  0  0
 70 29  1  0  0  0  0
 74 30  1  0  0  0  0
 76 35  1  0  0  0  0
 79 45  1  0  0  0  0
 80 46  1  0  0  0  0
 83 47  1  0  0  0  0
M  END
