-1 1
 OpenBabel05232414493D

 83 84  0  0  1  0  0  0  0  0999 V2000
   15.7655   -5.3784   -1.5787 C   0  0  0  0  0  0  0  0  0  0  0  0
   14.4923   -5.6489   -1.0848 O   0  0  0  0  0  0  0  0  0  0  0  0
   13.7884   -6.5811   -1.8397 C   0  0  0  0  0  0  0  0  0  0  0  0
   12.5120   -6.9830   -1.1308 C   0  0  1  0  0  0  0  0  0  0  0  0
   12.8010   -7.3466   -0.1363 H   0  0  0  0  0  0  0  0  0  0  0  0
   11.7066   -5.8072   -1.0416 O   0  0  0  0  0  0  0  0  0  0  0  0
   10.5285   -5.7536   -0.4096 C   0  0  0  0  0  0  0  0  0  0  0  0
    9.5237   -5.0834   -1.0840 C   0  0  0  0  0  0  0  0  0  0  0  0
   10.2418   -6.3028    0.8988 C   0  0  0  0  0  0  0  0  0  0  0  0
   11.2005   -6.9690    1.6505 N   0  0  0  0  0  0  0  0  0  0  0  0
   12.5007   -6.4143    1.9137 C   0  0  0  0  0  0  0  0  0  0  0  0
   12.7103   -5.2742    1.5318 O   0  0  0  0  0  0  0  0  0  0  0  0
   13.3969   -7.3387    2.5450 C   0  0  0  0  0  3  0  0  0  0  0  0
   14.7874   -7.1934    2.5333 C   0  0  0  0  0  3  0  0  0  0  0  0
   15.8171   -8.2156    0.6541 S   0  0  0  0  0  1  0  0  0  0  0  0
   16.1531   -9.8334    1.4013 C   0  0  0  0  0  0  0  0  0  0  0  0
   15.1907  -10.9431    0.9731 C   0  0  2  0  0  0  0  0  0  0  0  0
   15.3448  -11.1799   -0.0947 H   0  0  0  0  0  0  0  0  0  0  0  0
   13.8132  -10.4969    1.1403 N   0  0  0  0  0  0  0  0  0  0  0  0
   12.7672  -11.0431    0.4862 C   0  0  0  0  0  0  0  0  0  0  0  0
   11.4401  -10.3457    0.6894 C   0  0  0  0  0  0  0  0  0  0  0  0
   12.8470  -12.0695   -0.1860 O   0  0  0  0  0  0  0  0  0  0  0  0
   15.4647  -12.2331    1.7837 C   0  0  0  0  0  0  0  0  0  0  0  0
   14.8483  -13.3348    1.2863 N   0  0  0  0  0  0  0  0  0  0  0  0
   14.9088  -14.6107    1.9464 C   0  0  0  0  0  0  0  0  0  0  0  0
   16.1901  -12.2509    2.7632 O   0  0  0  0  0  0  0  0  0  0  0  0
   15.4307   -5.8301    2.3422 C   0  0  0  0  0  0  0  0  0  0  0  0
   15.1150   -4.9172    3.4288 N   0  0  0  0  0  0  0  0  0  0  0  0
   15.0586   -3.5403    3.0171 C   0  0  0  0  0  0  0  0  0  0  0  0
   15.9106   -5.1374    4.6032 C   0  0  0  0  0  0  0  0  0  0  0  0
    8.9482   -6.1979    1.3822 C   0  0  0  0  0  0  0  0  0  0  0  0
    7.9088   -5.5641    0.6656 C   0  0  0  0  0  0  0  0  0  0  0  0
    8.2127   -4.9665   -0.5819 C   0  0  0  0  0  0  0  0  0  0  0  0
    7.2634   -4.3095   -1.3151 N   0  0  0  0  0  0  0  0  0  0  0  0
    6.0706   -4.2587   -0.7991 C   0  0  0  0  0  0  0  0  0  0  0  0
    5.6544   -4.7876    0.3747 N   0  0  0  0  0  0  0  0  0  0  0  0
    6.5438   -5.4329    1.0980 C   0  0  0  0  0  0  0  0  0  0  0  0
    6.1768   -6.0045    2.2949 N   0  0  0  0  0  0  0  0  0  0  0  0
    4.9531   -6.0301    2.9629 C   0  0  0  0  0  0  0  0  0  0  0  0
    4.9114   -6.7214    4.1855 C   0  0  0  0  0  0  0  0  0  0  0  0
    3.7342   -6.7984    4.9189 C   0  0  0  0  0  0  0  0  0  0  0  0
    3.6979   -7.6594    6.4305 Cl  0  0  0  0  0  0  0  0  0  0  0  0
    2.5758   -6.1856    4.4469 C   0  0  0  0  0  0  0  0  0  0  0  0
    1.4446   -6.2572    5.1478 F   0  0  0  0  0  0  0  0  0  0  0  0
    2.6077   -5.5003    3.2417 C   0  0  0  0  0  0  0  0  0  0  0  0
    3.7794   -5.4158    2.4959 C   0  0  0  0  0  0  0  0  0  0  0  0
   11.7710   -8.0727   -1.8896 C   0  0  0  0  0  0  0  0  0  0  0  0
   15.7280   -4.9444   -2.5999 H   0  0  0  0  0  0  0  0  0  0  0  0
   16.3955   -6.2882   -1.6003 H   0  0  0  0  0  0  0  0  0  0  0  0
   16.2353   -4.6491   -0.9043 H   0  0  0  0  0  0  0  0  0  0  0  0
   14.3893   -7.5010   -1.9830 H   0  0  0  0  0  0  0  0  0  0  0  0
   13.5369   -6.1677   -2.8413 H   0  0  0  0  0  0  0  0  0  0  0  0
    9.7490   -4.6608   -2.0628 H   0  0  0  0  0  0  0  0  0  0  0  0
   10.8536   -7.6350    2.3287 H   0  0  0  0  0  0  0  0  0  0  0  0
   12.9755   -8.2876    2.8953 H   0  0  0  0  0  0  0  0  0  0  0  0
   15.3435   -7.8939    3.1667 H   0  0  0  0  0  0  0  0  0  0  0  0
   16.1143   -9.7591    2.5013 H   0  0  0  0  0  0  0  0  0  0  0  0
   17.1743  -10.1632    1.1641 H   0  0  0  0  0  0  0  0  0  0  0  0
   13.7199   -9.5265    1.4451 H   0  0  0  0  0  0  0  0  0  0  0  0
   11.5476   -9.2602    0.8189 H   0  0  0  0  0  0  0  0  0  0  0  0
   10.9629  -10.7591    1.5920 H   0  0  0  0  0  0  0  0  0  0  0  0
   10.7926  -10.5609   -0.1687 H   0  0  0  0  0  0  0  0  0  0  0  0
   14.1630  -13.1704    0.5447 H   0  0  0  0  0  0  0  0  0  0  0  0
   13.9375  -14.8919    2.3886 H   0  0  0  0  0  0  0  0  0  0  0  0
   15.6516  -14.5431    2.7519 H   0  0  0  0  0  0  0  0  0  0  0  0
   15.2111  -15.4080    1.2482 H   0  0  0  0  0  0  0  0  0  0  0  0
   15.0382   -5.4093    1.4083 H   0  0  0  0  0  0  0  0  0  0  0  0
   16.5261   -5.9602    2.2229 H   0  0  0  0  0  0  0  0  0  0  0  0
   14.7191   -2.9094    3.8558 H   0  0  0  0  0  0  0  0  0  0  0  0
   14.3310   -3.4414    2.1994 H   0  0  0  0  0  0  0  0  0  0  0  0
   16.0428   -3.1357    2.6754 H   0  0  0  0  0  0  0  0  0  0  0  0
   15.5459   -4.5167    5.4385 H   0  0  0  0  0  0  0  0  0  0  0  0
   16.9943   -4.9036    4.4570 H   0  0  0  0  0  0  0  0  0  0  0  0
   15.8421   -6.1896    4.9205 H   0  0  0  0  0  0  0  0  0  0  0  0
    8.7779   -6.5978    2.3859 H   0  0  0  0  0  0  0  0  0  0  0  0
    5.2969   -3.7311   -1.3702 H   0  0  0  0  0  0  0  0  0  0  0  0
    6.9183   -6.4998    2.7672 H   0  0  0  0  0  0  0  0  0  0  0  0
    5.8056   -7.2090    4.5795 H   0  0  0  0  0  0  0  0  0  0  0  0
    1.6901   -5.0267    2.8881 H   0  0  0  0  0  0  0  0  0  0  0  0
    3.8111   -4.8824    1.5494 H   0  0  0  0  0  0  0  0  0  0  0  0
   10.8130   -8.3003   -1.4001 H   0  0  0  0  0  0  0  0  0  0  0  0
   12.3673   -8.9967   -1.9142 H   0  0  0  0  0  0  0  0  0  0  0  0
   11.5587   -7.7569   -2.9233 H   0  0  0  0  0  0  0  0  0  0  0  0
  1  2  1  0  0  0  0
  1 50  1  0  0  0  0
  3  4  1  0  0  0  0
  3  2  1  0  0  0  0
  4  6  1  0  0  0  0
  4  5  1  1  0  0  0
  6  7  1  0  0  0  0
  7  9  1  0  0  0  0
  8 33  1  0  0  0  0
  8  7  2  0  0  0  0
  9 31  2  0  0  0  0
  9 10  1  0  0  0  0
 10 11  1  0  0  0  0
 10 54  1  0  0  0  0
 11 13  1  0  0  0  0
 12 11  2  0  0  0  0
 13 55  1  0  0  0  0
 14 13  1  0  0  0  0
 14 56  1  0  0  0  0
 15 16  1  0  0  0  0
 16 57  1  0  0  0  0
 17 18  1  6  0  0  0
 17 19  1  0  0  0  0
 17 16  1  0  0  0  0
 17 23  1  0  0  0  0
 19 59  1  0  0  0  0
 20 21  1  0  0  0  0
 20 19  1  0  0  0  0
 21 60  1  0  0  0  0
 21 61  1  0  0  0  0
 22 20  2  0  0  0  0
 23 26  2  0  0  0  0
 24 23  1  0  0  0  0
 24 25  1  0  0  0  0
 25 64  1  0  0  0  0
 25 65  1  0  0  0  0
 27 14  1  0  0  0  0
 27 28  1  0  0  0  0
 28 30  1  0  0  0  0
 29 28  1  0  0  0  0
 29 69  1  0  0  0  0
 30 74  1  0  0  0  0
 30 72  1  0  0  0  0
 31 75  1  0  0  0  0
 32 37  1  0  0  0  0
 32 31  1  0  0  0  0
 33 32  2  0  0  0  0
 34 35  2  0  0  0  0
 34 33  1  0  0  0  0
 35 36  1  0  0  0  0
 36 37  2  0  0  0  0
 37 38  1  0  0  0  0
 38 77  1  0  0  0  0
 38 39  1  0  0  0  0
 39 40  1  0  0  0  0
 40 78  1  0  0  0  0
 40 41  2  0  0  0  0
 41 42  1  0  0  0  0
 43 41  1  0  0  0  0
 43 44  1  0  0  0  0
 45 43  2  0  0  0  0
 46 39  2  0  0  0  0
 46 45  1  0  0  0  0
 47 81  1  0  0  0  0
 47  4  1  0  0  0  0
 48  1  1  0  0  0  0
 49  1  1  0  0  0  0
 51  3  1  0  0  0  0
 52  3  1  0  0  0  0
 53  8  1  0  0  0  0
 58 16  1  0  0  0  0
 62 21  1  0  0  0  0
 63 24  1  0  0  0  0
 66 25  1  0  0  0  0
 67 27  1  0  0  0  0
 68 27  1  0  0  0  0
 70 29  1  0  0  0  0
 71 29  1  0  0  0  0
 73 30  1  0  0  0  0
 76 35  1  0  0  0  0
 79 45  1  0  0  0  0
 80 46  1  0  0  0  0
 82 47  1  0  0  0  0
 83 47  1  0  0  0  0
M  END
