86
-1 1
C         7.713340    5.512338   -4.545822
C         8.383670    4.701180   -3.443730
C         7.851762    3.282930   -3.355420
O         8.512861    2.605852   -2.325251
C         8.105134    1.281195   -2.158238
C         8.928907    0.690832   -1.023258
O         8.565827   -0.641105   -0.757220
C         9.032726   -1.652503   -1.527773
C         9.918491   -1.508006   -2.567019
C         8.516585   -2.947692   -1.158443
N         7.626865   -2.983835   -0.116435
C         6.940940   -4.104854    0.409962
O         7.146382   -5.226729   -0.050297
C         6.022333   -3.771309    1.457910
C         5.351290   -4.774867    2.141146
S         6.759199   -5.729486    3.879266
C         6.353238   -7.498167    3.724933
C         4.942037   -7.901571    4.202674
H         4.210396   -7.737342    3.389514
N         4.541284   -7.070334    5.330521
C         3.252411   -6.772080    5.606997
C         3.035342   -5.514155    6.418933
O         2.299571   -7.431837    5.197255
C         4.886336   -9.408957    4.549387
N         3.629091   -9.863716    4.778121
C         3.363983  -11.216139    5.185746
O         5.877568  -10.116234    4.586267
C         4.067334   -4.527420    2.911533
N         3.867197   -3.272303    3.614557
C         3.351711   -2.168280    2.846941
C         4.885764   -2.893747    4.565371
C         8.946100   -4.052369   -1.874469
C         9.855147   -3.913672   -2.949847
C        10.350199   -2.637452   -3.308013
N        11.221024   -2.456958   -4.340577
C        11.572860   -3.532069   -4.989165
N        11.170549   -4.798100   -4.754441
C        10.337200   -5.001620   -3.756676
N         9.889506   -6.272325   -3.453176
C        10.135487   -7.518767   -3.999868
C         9.346287   -8.579721   -3.593005
C         9.693890   -9.802450   -4.299312
Cl         8.689470  -10.261214   -5.684989
C        11.046559   -9.873536   -4.463140
F        11.764819   -9.870990   -3.321417
C        11.593993   -8.911148   -5.454264
C        11.187458   -7.683409   -5.062609
H         6.626554    5.590583   -4.383068
H         7.868440    5.051824   -5.534469
H         8.116967    6.534326   -4.588744
H         8.238700    5.186625   -2.465172
H         9.471953    4.652041   -3.609006
H         8.001650    2.757992   -4.322485
H         6.756647    3.296606   -3.170161
H         8.252185    0.695989   -3.087368
H         7.029209    1.215157   -1.899542
H         8.731420    1.252905   -0.100538
H        10.004735    0.781096   -1.245820
H        10.316519   -0.540510   -2.869945
H         7.434801   -2.089449    0.313504
H         5.953865   -2.732217    1.787252
H         5.383035   -5.757391    1.659316
H         7.087754   -8.077341    4.301052
H         6.460314   -7.821623    2.678472
H         5.242459   -6.333844    5.492085
H         2.127200   -5.624208    7.024357
H         2.887895   -4.680660    5.710645
H         3.894022   -5.272941    7.060317
H         2.891116   -9.155371    4.824382
H         3.015297  -11.270608    6.231630
H         4.296886  -11.788413    5.099893
H         2.599127  -11.684483    4.544956
H         3.931389   -5.352053    3.620922
H         3.243594   -4.619669    2.180432
H         2.532338   -2.509863    2.195830
H         4.099764   -1.662620    2.199138
H         2.938775   -1.403275    3.527933
H         5.202735   -3.770164    5.146308
H         4.483394   -2.131977    5.255865
H         5.803794   -2.478631    4.098478
H         8.529456   -5.004703   -1.546704
H        12.271732   -3.410414   -5.825305
H         9.219619   -6.292681   -2.693316
H         8.450959   -8.425388   -2.983554
H        12.292451   -9.095144   -6.271370
H        11.568689   -6.762919   -5.505256
