-1 1
 OpenBabel05232413493D

 86 87  0  0  1  0  0  0  0  0999 V2000
    1.3616    9.0850    0.9156 C   0  0  0  0  0  0  0  0  0  0  0  0
    2.0373    7.7523    1.2148 C   0  0  0  0  0  0  0  0  0  0  0  0
    1.2563    6.5659    0.6798 C   0  0  0  0  0  0  0  0  0  0  0  0
    1.9381    5.3882    0.9952 O   0  0  0  0  0  0  0  0  0  0  0  0
    1.2856    4.2257    0.5631 C   0  0  0  0  0  0  0  0  0  0  0  0
    1.9967    3.0453    1.2023 C   0  0  0  0  0  0  0  0  0  0  0  0
    1.4234    1.8255    0.7834 O   0  0  0  0  0  0  0  0  0  0  0  0
    1.6468    1.3214   -0.4317 C   0  0  0  0  0  0  0  0  0  0  0  0
    2.6791    1.6836   -1.2681 C   0  0  0  0  0  0  0  0  0  0  0  0
    0.7055    0.3008   -0.8253 C   0  0  0  0  0  0  0  0  0  0  0  0
   -0.3556    0.0685    0.0388 N   0  0  0  0  0  0  0  0  0  0  0  0
   -1.2635   -0.9596   -0.0476 C   0  0  0  0  0  0  0  0  0  0  0  0
   -1.2470   -1.8187   -0.9178 O   0  0  0  0  0  0  0  0  0  0  0  0
   -2.2704   -0.9266    1.0453 C   0  0  0  0  0  0  0  0  0  0  0  0
   -3.3286   -1.7405    1.0735 C   0  0  0  0  0  0  0  0  0  0  0  0
   -1.6360    2.4432    2.0987 S   0  0  0  0  0  1  0  0  0  0  0  0
   -0.6138    1.9536    3.5337 C   0  0  0  0  0  0  0  0  0  0  0  0
   -1.2947    0.9497    4.4789 C   0  0  2  0  0  0  0  0  0  0  0  0
   -1.2810   -0.0605    4.0279 H   0  0  0  0  0  0  0  0  0  0  0  0
   -2.6879    1.3376    4.6680 N   0  0  0  0  0  0  0  0  0  0  0  0
   -3.6633    0.4904    5.0478 C   0  0  0  0  0  0  0  0  0  0  0  0
   -5.0839    0.9763    4.8624 C   0  0  0  0  0  0  0  0  0  0  0  0
   -3.4497   -0.6291    5.5177 O   0  0  0  0  0  0  0  0  0  0  0  0
   -0.5225    0.8511    5.8174 C   0  0  0  0  0  0  0  0  0  0  0  0
   -0.9528   -0.1479    6.6270 N   0  0  0  0  0  0  0  0  0  0  0  0
   -0.4018   -0.3676    7.9359 C   0  0  0  0  0  0  0  0  0  0  0  0
    0.4109    1.5859    6.0918 O   0  0  0  0  0  0  0  0  0  0  0  0
   -4.3834   -1.6119    2.1471 C   0  0  0  0  0  0  0  0  0  0  0  0
   -5.5114   -0.7522    1.7972 N   0  0  0  0  0  0  0  0  0  0  0  0
   -6.4538   -1.3532    0.8851 C   0  0  0  0  0  0  0  0  0  0  0  0
   -5.1338    0.5892    1.3969 C   0  0  0  0  0  0  0  0  0  0  0  0
    0.9124   -0.3707   -2.0127 C   0  0  0  0  0  0  0  0  0  0  0  0
    1.9932   -0.0290   -2.8648 C   0  0  0  0  0  0  0  0  0  0  0  0
    2.8751    1.0184   -2.5018 C   0  0  0  0  0  0  0  0  0  0  0  0
    3.9147    1.3932   -3.3006 N   0  0  0  0  0  0  0  0  0  0  0  0
    4.0516    0.7349   -4.4171 C   0  0  0  0  0  0  0  0  0  0  0  0
    3.2823   -0.2748   -4.8744 N   0  0  0  0  0  0  0  0  0  0  0  0
    2.2765   -0.6625   -4.1195 C   0  0  0  0  0  0  0  0  0  0  0  0
    1.4513   -1.6986   -4.5205 N   0  0  0  0  0  0  0  0  0  0  0  0
    1.4458   -2.5330   -5.6209 C   0  0  0  0  0  0  0  0  0  0  0  0
    0.3392   -3.3392   -5.8278 C   0  0  0  0  0  0  0  0  0  0  0  0
    0.4680   -4.1218   -7.0450 C   0  0  1  0  0  3  0  0  0  0  0  0
   -0.3587   -3.5296   -8.4961 Cl  0  0  0  0  0  0  0  0  0  0  0  0
    1.7603   -4.5367   -7.1905 C   0  0  2  0  0  3  0  0  0  0  0  0
    2.2334   -5.3047   -6.1863 F   0  0  0  0  0  0  0  0  0  0  0  0
    2.7151   -3.4558   -7.5478 C   0  0  0  0  0  0  0  0  0  0  0  0
    2.5893   -2.5030   -6.5979 C   0  0  0  0  0  0  0  0  0  0  0  0
    0.3565    9.1334    1.3640 H   0  0  0  0  0  0  0  0  0  0  0  0
    1.2477    9.2430   -0.1690 H   0  0  0  0  0  0  0  0  0  0  0  0
    1.9450    9.9278    1.3149 H   0  0  0  0  0  0  0  0  0  0  0  0
    2.1621    7.6196    2.3016 H   0  0  0  0  0  0  0  0  0  0  0  0
    3.0496    7.7271    0.7794 H   0  0  0  0  0  0  0  0  0  0  0  0
    1.1301    6.6608   -0.4207 H   0  0  0  0  0  0  0  0  0  0  0  0
    0.2357    6.5517    1.1142 H   0  0  0  0  0  0  0  0  0  0  0  0
    1.3180    4.1433   -0.5431 H   0  0  0  0  0  0  0  0  0  0  0  0
    0.2263    4.1944    0.8812 H   0  0  0  0  0  0  0  0  0  0  0  0
    1.8530    3.0772    2.2895 H   0  0  0  0  0  0  0  0  0  0  0  0
    3.0799    3.0754    0.9962 H   0  0  0  0  0  0  0  0  0  0  0  0
    3.3847    2.4705   -1.0062 H   0  0  0  0  0  0  0  0  0  0  0  0
   -0.5653    0.8167    0.7321 H   0  0  0  0  0  0  0  0  0  0  0  0
   -2.1447   -0.1463    1.8053 H   0  0  0  0  0  0  0  0  0  0  0  0
   -3.4577   -2.4648    0.2607 H   0  0  0  0  0  0  0  0  0  0  0  0
   -0.3370    2.8368    4.1273 H   0  0  0  0  0  0  0  0  0  0  0  0
    0.3304    1.4938    3.2035 H   0  0  0  0  0  0  0  0  0  0  0  0
   -2.9404    2.0970    4.0225 H   0  0  0  0  0  0  0  0  0  0  0  0
   -5.6171    0.8688    5.8172 H   0  0  0  0  0  0  0  0  0  0  0  0
   -5.5776    0.3230    4.1249 H   0  0  0  0  0  0  0  0  0  0  0  0
   -5.1434    2.0177    4.5193 H   0  0  0  0  0  0  0  0  0  0  0  0
   -1.8100   -0.6284    6.3376 H   0  0  0  0  0  0  0  0  0  0  0  0
   -1.1266   -0.1279    8.7331 H   0  0  0  0  0  0  0  0  0  0  0  0
    0.4734    0.2847    8.0530 H   0  0  0  0  0  0  0  0  0  0  0  0
   -0.0846   -1.4153    8.0662 H   0  0  0  0  0  0  0  0  0  0  0  0
   -3.9150   -1.2158    3.0609 H   0  0  0  0  0  0  0  0  0  0  0  0
   -4.7870   -2.6025    2.4110 H   0  0  0  0  0  0  0  0  0  0  0  0
   -6.7824   -2.3331    1.2662 H   0  0  0  0  0  0  0  0  0  0  0  0
   -6.0541   -1.5023   -0.1429 H   0  0  0  0  0  0  0  0  0  0  0  0
   -7.3456   -0.7117    0.7969 H   0  0  0  0  0  0  0  0  0  0  0  0
   -4.3551    0.9951    2.0600 H   0  0  0  0  0  0  0  0  0  0  0  0
   -6.0139    1.2510    1.4482 H   0  0  0  0  0  0  0  0  0  0  0  0
   -4.7230    0.6442    0.3673 H   0  0  0  0  0  0  0  0  0  0  0  0
    0.1971   -1.1571   -2.2461 H   0  0  0  0  0  0  0  0  0  0  0  0
    4.8813    1.0240   -5.0731 H   0  0  0  0  0  0  0  0  0  0  0  0
    0.6784   -1.8653   -3.8881 H   0  0  0  0  0  0  0  0  0  0  0  0
   -0.5791   -3.2053   -5.2481 H   0  0  0  0  0  0  0  0  0  0  0  0
    3.4714   -3.4445   -8.3333 H   0  0  0  0  0  0  0  0  0  0  0  0
    3.2740   -1.6594   -6.5061 H   0  0  0  0  0  0  0  0  0  0  0  0
  1  2  1  0  0  0  0
  1 50  1  0  0  0  0
  1 48  1  0  0  0  0
  2 51  1  0  0  0  0
  3  4  1  0  0  0  0
  3 54  1  0  0  0  0
  3  2  1  0  0  0  0
  5 56  1  0  0  0  0
  5  4  1  0  0  0  0
  5  6  1  0  0  0  0
  6 57  1  0  0  0  0
  7  6  1  0  0  0  0
  8  7  1  0  0  0  0
  9 59  1  0  0  0  0
  9  8  2  0  0  0  0
 10  8  1  0  0  0  0
 10 11  1  0  0  0  0
 11 60  1  0  0  0  0
 12 11  1  0  0  0  0
 12 14  1  0  0  0  0
 13 12  2  0  0  0  0
 14 15  2  0  0  0  0
 14 61  1  0  0  0  0
 15 28  1  0  0  0  0
 16 17  1  0  0  0  0
 17 63  1  0  0  0  0
 17 18  1  0  0  0  0
 18 19  1  6  0  0  0
 18 20  1  0  0  0  0
 18 24  1  0  0  0  0
 20 21  1  0  0  0  0
 21 23  2  0  0  0  0
 22 21  1  0  0  0  0
 22 66  1  0  0  0  0
 24 27  2  0  0  0  0
 24 25  1  0  0  0  0
 25 26  1  0  0  0  0
 26 71  1  0  0  0  0
 26 72  1  0  0  0  0
 26 70  1  0  0  0  0
 28 74  1  0  0  0  0
 28 73  1  0  0  0  0
 29 28  1  0  0  0  0
 30 75  1  0  0  0  0
 30 29  1  0  0  0  0
 31 79  1  0  0  0  0
 31 29  1  0  0  0  0
 31 78  1  0  0  0  0
 32 10  2  0  0  0  0
 33 34  2  0  0  0  0
 33 32  1  0  0  0  0
 34  9  1  0  0  0  0
 35 34  1  0  0  0  0
 36 35  2  0  0  0  0
 37 36  1  0  0  0  0
 37 38  2  0  0  0  0
 38 33  1  0  0  0  0
 39 38  1  0  0  0  0
 39 83  1  0  0  0  0
 40 39  1  0  0  0  0
 41 40  2  0  0  0  0
 41 84  1  0  0  0  0
 42 43  1  6  0  0  0
 42 41  1  0  0  0  0
 44 42  1  0  0  0  0
 44 45  1  1  0  0  0
 46 44  1  0  0  0  0
 46 47  2  0  0  0  0
 47 86  1  0  0  0  0
 47 40  1  0  0  0  0
 49  1  1  0  0  0  0
 52  2  1  0  0  0  0
 53  3  1  0  0  0  0
 55  5  1  0  0  0  0
 58  6  1  0  0  0  0
 62 15  1  0  0  0  0
 64 17  1  0  0  0  0
 65 20  1  0  0  0  0
 67 22  1  0  0  0  0
 68 22  1  0  0  0  0
 69 25  1  0  0  0  0
 76 30  1  0  0  0  0
 77 30  1  0  0  0  0
 80 31  1  0  0  0  0
 81 32  1  0  0  0  0
 82 36  1  0  0  0  0
 85 46  1  0  0  0  0
M  END
