-1 1
 OpenBabel05232414493D

 86 87  0  0  1  0  0  0  0  0999 V2000
    7.7133    5.5123   -4.5458 C   0  0  0  0  0  0  0  0  0  0  0  0
    8.3837    4.7012   -3.4437 C   0  0  0  0  0  0  0  0  0  0  0  0
    7.8518    3.2829   -3.3554 C   0  0  0  0  0  0  0  0  0  0  0  0
    8.5129    2.6059   -2.3253 O   0  0  0  0  0  0  0  0  0  0  0  0
    8.1051    1.2812   -2.1582 C   0  0  0  0  0  0  0  0  0  0  0  0
    8.9289    0.6908   -1.0233 C   0  0  0  0  0  0  0  0  0  0  0  0
    8.5658   -0.6411   -0.7572 O   0  0  0  0  0  0  0  0  0  0  0  0
    9.0327   -1.6525   -1.5278 C   0  0  0  0  0  0  0  0  0  0  0  0
    9.9185   -1.5080   -2.5670 C   0  0  0  0  0  0  0  0  0  0  0  0
    8.5166   -2.9477   -1.1584 C   0  0  0  0  0  0  0  0  0  0  0  0
    7.6269   -2.9838   -0.1164 N   0  0  0  0  0  0  0  0  0  0  0  0
    6.9409   -4.1049    0.4100 C   0  0  0  0  0  0  0  0  0  0  0  0
    7.1464   -5.2267   -0.0503 O   0  0  0  0  0  0  0  0  0  0  0  0
    6.0223   -3.7713    1.4579 C   0  0  0  0  0  3  0  0  0  0  0  0
    5.3513   -4.7749    2.1411 C   0  0  0  0  0  3  0  0  0  0  0  0
    6.7592   -5.7295    3.8793 S   0  0  0  0  0  1  0  0  0  0  0  0
    6.3532   -7.4982    3.7249 C   0  0  0  0  0  0  0  0  0  0  0  0
    4.9420   -7.9016    4.2027 C   0  0  2  0  0  0  0  0  0  0  0  0
    4.2104   -7.7373    3.3895 H   0  0  0  0  0  0  0  0  0  0  0  0
    4.5413   -7.0703    5.3305 N   0  0  0  0  0  0  0  0  0  0  0  0
    3.2524   -6.7721    5.6070 C   0  0  0  0  0  0  0  0  0  0  0  0
    3.0353   -5.5142    6.4189 C   0  0  0  0  0  0  0  0  0  0  0  0
    2.2996   -7.4318    5.1973 O   0  0  0  0  0  0  0  0  0  0  0  0
    4.8863   -9.4090    4.5494 C   0  0  0  0  0  0  0  0  0  0  0  0
    3.6291   -9.8637    4.7781 N   0  0  0  0  0  0  0  0  0  0  0  0
    3.3640  -11.2161    5.1857 C   0  0  0  0  0  0  0  0  0  0  0  0
    5.8776  -10.1162    4.5863 O   0  0  0  0  0  0  0  0  0  0  0  0
    4.0673   -4.5274    2.9115 C   0  0  0  0  0  0  0  0  0  0  0  0
    3.8672   -3.2723    3.6146 N   0  0  0  0  0  0  0  0  0  0  0  0
    3.3517   -2.1683    2.8469 C   0  0  0  0  0  0  0  0  0  0  0  0
    4.8858   -2.8937    4.5654 C   0  0  0  0  0  0  0  0  0  0  0  0
    8.9461   -4.0524   -1.8745 C   0  0  0  0  0  0  0  0  0  0  0  0
    9.8551   -3.9137   -2.9498 C   0  0  0  0  0  0  0  0  0  0  0  0
   10.3502   -2.6375   -3.3080 C   0  0  0  0  0  0  0  0  0  0  0  0
   11.2210   -2.4570   -4.3406 N   0  0  0  0  0  0  0  0  0  0  0  0
   11.5729   -3.5321   -4.9892 C   0  0  0  0  0  0  0  0  0  0  0  0
   11.1705   -4.7981   -4.7544 N   0  0  0  0  0  0  0  0  0  0  0  0
   10.3372   -5.0016   -3.7567 C   0  0  0  0  0  0  0  0  0  0  0  0
    9.8895   -6.2723   -3.4532 N   0  0  0  0  0  0  0  0  0  0  0  0
   10.1355   -7.5188   -3.9999 C   0  0  0  0  0  0  0  0  0  0  0  0
    9.3463   -8.5797   -3.5930 C   0  0  0  0  0  0  0  0  0  0  0  0
    9.6939   -9.8025   -4.2993 C   0  0  1  0  0  3  0  0  0  0  0  0
    8.6895  -10.2612   -5.6850 Cl  0  0  0  0  0  0  0  0  0  0  0  0
   11.0466   -9.8735   -4.4631 C   0  0  2  0  0  3  0  0  0  0  0  0
   11.7648   -9.8710   -3.3214 F   0  0  0  0  0  0  0  0  0  0  0  0
   11.5940   -8.9111   -5.4543 C   0  0  0  0  0  0  0  0  0  0  0  0
   11.1875   -7.6834   -5.0626 C   0  0  0  0  0  0  0  0  0  0  0  0
    6.6266    5.5906   -4.3831 H   0  0  0  0  0  0  0  0  0  0  0  0
    7.8684    5.0518   -5.5345 H   0  0  0  0  0  0  0  0  0  0  0  0
    8.1170    6.5343   -4.5887 H   0  0  0  0  0  0  0  0  0  0  0  0
    8.2387    5.1866   -2.4652 H   0  0  0  0  0  0  0  0  0  0  0  0
    9.4720    4.6520   -3.6090 H   0  0  0  0  0  0  0  0  0  0  0  0
    8.0016    2.7580   -4.3225 H   0  0  0  0  0  0  0  0  0  0  0  0
    6.7566    3.2966   -3.1702 H   0  0  0  0  0  0  0  0  0  0  0  0
    8.2522    0.6960   -3.0874 H   0  0  0  0  0  0  0  0  0  0  0  0
    7.0292    1.2152   -1.8995 H   0  0  0  0  0  0  0  0  0  0  0  0
    8.7314    1.2529   -0.1005 H   0  0  0  0  0  0  0  0  0  0  0  0
   10.0047    0.7811   -1.2458 H   0  0  0  0  0  0  0  0  0  0  0  0
   10.3165   -0.5405   -2.8699 H   0  0  0  0  0  0  0  0  0  0  0  0
    7.4348   -2.0894    0.3135 H   0  0  0  0  0  0  0  0  0  0  0  0
    5.9539   -2.7322    1.7873 H   0  0  0  0  0  0  0  0  0  0  0  0
    5.3830   -5.7574    1.6593 H   0  0  0  0  0  0  0  0  0  0  0  0
    7.0878   -8.0773    4.3011 H   0  0  0  0  0  0  0  0  0  0  0  0
    6.4603   -7.8216    2.6785 H   0  0  0  0  0  0  0  0  0  0  0  0
    5.2425   -6.3338    5.4921 H   0  0  0  0  0  0  0  0  0  0  0  0
    2.1272   -5.6242    7.0244 H   0  0  0  0  0  0  0  0  0  0  0  0
    2.8879   -4.6807    5.7106 H   0  0  0  0  0  0  0  0  0  0  0  0
    3.8940   -5.2729    7.0603 H   0  0  0  0  0  0  0  0  0  0  0  0
    2.8911   -9.1554    4.8244 H   0  0  0  0  0  0  0  0  0  0  0  0
    3.0153  -11.2706    6.2316 H   0  0  0  0  0  0  0  0  0  0  0  0
    4.2969  -11.7884    5.0999 H   0  0  0  0  0  0  0  0  0  0  0  0
    2.5991  -11.6845    4.5450 H   0  0  0  0  0  0  0  0  0  0  0  0
    3.9314   -5.3521    3.6209 H   0  0  0  0  0  0  0  0  0  0  0  0
    3.2436   -4.6197    2.1804 H   0  0  0  0  0  0  0  0  0  0  0  0
    2.5323   -2.5099    2.1958 H   0  0  0  0  0  0  0  0  0  0  0  0
    4.0998   -1.6626    2.1991 H   0  0  0  0  0  0  0  0  0  0  0  0
    2.9388   -1.4033    3.5279 H   0  0  0  0  0  0  0  0  0  0  0  0
    5.2027   -3.7702    5.1463 H   0  0  0  0  0  0  0  0  0  0  0  0
    4.4834   -2.1320    5.2559 H   0  0  0  0  0  0  0  0  0  0  0  0
    5.8038   -2.4786    4.0985 H   0  0  0  0  0  0  0  0  0  0  0  0
    8.5295   -5.0047   -1.5467 H   0  0  0  0  0  0  0  0  0  0  0  0
   12.2717   -3.4104   -5.8253 H   0  0  0  0  0  0  0  0  0  0  0  0
    9.2196   -6.2927   -2.6933 H   0  0  0  0  0  0  0  0  0  0  0  0
    8.4510   -8.4254   -2.9836 H   0  0  0  0  0  0  0  0  0  0  0  0
   12.2925   -9.0951   -6.2714 H   0  0  0  0  0  0  0  0  0  0  0  0
   11.5687   -6.7629   -5.5053 H   0  0  0  0  0  0  0  0  0  0  0  0
  1 48  1  0  0  0  0
  1  2  1  0  0  0  0
  2  3  1  0  0  0  0
  2 51  1  0  0  0  0
  3 54  1  0  0  0  0
  3  4  1  0  0  0  0
  4  5  1  0  0  0  0
  5 56  1  0  0  0  0
  5  6  1  0  0  0  0
  6  7  1  0  0  0  0
  6 57  1  0  0  0  0
  8 10  1  0  0  0  0
  8  7  1  0  0  0  0
  9  8  2  0  0  0  0
 10 11  1  0  0  0  0
 11 60  1  0  0  0  0
 11 12  1  0  0  0  0
 12 14  1  0  0  0  0
 13 12  2  0  0  0  0
 14 61  1  0  0  0  0
 14 15  1  0  0  0  0
 15 28  1  0  0  0  0
 17 16  1  0  0  0  0
 17 18  1  0  0  0  0
 17 63  1  0  0  0  0
 18 19  1  6  0  0  0
 18 24  1  0  0  0  0
 18 20  1  0  0  0  0
 20 65  1  0  0  0  0
 20 21  1  0  0  0  0
 21 22  1  0  0  0  0
 22 66  1  0  0  0  0
 22 68  1  0  0  0  0
 23 21  2  0  0  0  0
 24 27  2  0  0  0  0
 24 25  1  0  0  0  0
 25 69  1  0  0  0  0
 25 26  1  0  0  0  0
 26 70  1  0  0  0  0
 28 29  1  0  0  0  0
 28 73  1  0  0  0  0
 29 31  1  0  0  0  0
 30 77  1  0  0  0  0
 30 29  1  0  0  0  0
 31 78  1  0  0  0  0
 31 79  1  0  0  0  0
 32 81  1  0  0  0  0
 32 10  2  0  0  0  0
 33 32  1  0  0  0  0
 34 33  2  0  0  0  0
 34  9  1  0  0  0  0
 35 34  1  0  0  0  0
 36 37  1  0  0  0  0
 36 35  2  0  0  0  0
 37 38  2  0  0  0  0
 38 39  1  0  0  0  0
 38 33  1  0  0  0  0
 39 83  1  0  0  0  0
 40 41  2  0  0  0  0
 40 39  1  0  0  0  0
 41 84  1  0  0  0  0
 42 43  1  6  0  0  0
 42 41  1  0  0  0  0
 44 42  1  0  0  0  0
 44 45  1  1  0  0  0
 46 47  2  0  0  0  0
 46 44  1  0  0  0  0
 47 40  1  0  0  0  0
 49  1  1  0  0  0  0
 50  1  1  0  0  0  0
 52  2  1  0  0  0  0
 53  3  1  0  0  0  0
 55  5  1  0  0  0  0
 58  6  1  0  0  0  0
 59  9  1  0  0  0  0
 62 15  1  0  0  0  0
 64 17  1  0  0  0  0
 67 22  1  0  0  0  0
 71 26  1  0  0  0  0
 72 26  1  0  0  0  0
 74 28  1  0  0  0  0
 75 30  1  0  0  0  0
 76 30  1  0  0  0  0
 80 31  1  0  0  0  0
 82 36  1  0  0  0  0
 85 46  1  0  0  0  0
 86 47  1  0  0  0  0
M  END
