-1 1
 OpenBabel05232413493D

 97 99  0  0  1  0  0  0  0  0999 V2000
   -1.1495    1.0546    1.8850 C   0  0  0  0  0  0  0  0  0  0  0  0
   -2.4927    0.6305    2.4535 C   0  0  0  0  0  0  0  0  0  0  0  0
   -2.4718    0.4217    3.8610 O   0  0  0  0  0  0  0  0  0  0  0  0
   -1.8555   -0.7541    4.2746 C   0  0  0  0  0  0  0  0  0  0  0  0
   -2.8250   -1.9367    4.2193 C   0  0  0  0  0  0  0  0  0  0  0  0
   -2.1894   -3.1939    4.4888 O   0  0  0  0  0  0  0  0  0  0  0  0
   -0.9838   -3.4283    3.9180 C   0  0  0  0  0  0  0  0  0  0  0  0
    0.0990   -3.6792    4.7232 C   0  0  0  0  0  0  0  0  0  0  0  0
   -0.8591   -3.4661    2.4831 C   0  0  0  0  0  0  0  0  0  0  0  0
   -2.0463   -3.4552    1.7577 N   0  0  0  0  0  0  0  0  0  0  0  0
   -2.4305   -2.8745    0.5446 C   0  0  0  0  0  0  0  0  0  0  0  0
   -3.5261   -3.1595    0.1086 O   0  0  0  0  0  0  0  0  0  0  0  0
   -1.5082   -1.9119   -0.0879 C   0  0  0  0  0  0  0  0  0  0  0  0
   -1.9008   -1.2242   -1.1703 C   0  0  0  0  0  0  0  0  0  0  0  0
   -4.0499    1.4290   -0.5413 S   0  0  0  0  0  1  0  0  0  0  0  0
   -4.0725    1.7547   -2.3416 C   0  0  0  0  0  0  0  0  0  0  0  0
   -3.6860    3.1940   -2.7584 C   0  0  2  0  0  0  0  0  0  0  0  0
   -4.3116    3.8815   -2.1629 H   0  0  0  0  0  0  0  0  0  0  0  0
   -3.9025    3.4365   -4.1688 N   0  0  0  0  0  0  0  0  0  0  0  0
   -5.1104    3.6625   -4.7285 C   0  0  0  0  0  0  0  0  0  0  0  0
   -5.0769    3.9533   -6.2234 C   0  0  0  0  0  0  0  0  0  0  0  0
   -6.1662    3.6245   -4.1209 O   0  0  0  0  0  0  0  0  0  0  0  0
   -2.2069    3.5274   -2.5098 C   0  0  0  0  0  0  0  0  0  0  0  0
   -1.7820    3.3434   -1.2505 N   0  0  0  0  0  0  0  0  0  0  0  0
   -0.3927    3.4758   -0.9078 C   0  0  0  0  0  0  0  0  0  0  0  0
   -1.4772    3.9206   -3.4225 O   0  0  0  0  0  0  0  0  0  0  0  0
   -1.0535   -0.2124   -1.8700 C   0  0  0  0  0  0  0  0  0  0  0  0
   -0.9568   -0.4732   -3.2930 N   0  0  0  0  0  0  0  0  0  0  0  0
   -0.3628    0.6319   -4.0139 C   0  0  0  0  0  0  0  0  0  0  0  0
   -0.3015   -1.7256   -3.5823 C   0  0  0  0  0  0  0  0  0  0  0  0
    0.3979   -3.5785    1.9286 C   0  0  0  0  0  0  0  0  0  0  0  0
    1.5386   -3.7165    2.7588 C   0  0  0  0  0  0  0  0  0  0  0  0
    1.3848   -3.8702    4.1612 C   0  0  0  0  0  0  0  0  0  0  0  0
    2.4331   -4.1944    4.9663 N   0  0  0  0  0  0  0  0  0  0  0  0
    3.5837   -4.3731    4.3738 C   0  0  0  0  0  0  0  0  0  0  0  0
    3.8725   -4.1635    3.0734 N   0  0  0  0  0  0  0  0  0  0  0  0
    2.8854   -3.7876    2.2861 C   0  0  0  0  0  0  0  0  0  0  0  0
    3.2241   -3.5075    0.9710 N   0  0  0  0  0  0  0  0  0  0  0  0
    2.9309   -2.3073    0.2899 C   0  0  0  0  0  0  0  0  0  0  0  0
    3.3450   -2.2032   -1.0427 C   0  0  0  0  0  0  0  0  0  0  0  0
    3.1792   -1.0102   -1.7377 C   0  0  0  0  0  0  0  0  0  0  0  0
    3.7285   -0.9033   -3.3881 Cl  0  0  0  0  0  0  0  0  0  0  0  0
    2.5671    0.0975   -1.1417 C   0  0  0  0  0  0  0  0  0  0  0  0
    2.3602    1.2504   -1.8282 O   0  0  0  0  0  0  0  0  0  0  0  0
    3.4272    2.1939   -1.8271 C   0  0  0  0  0  0  0  0  0  0  0  0
    3.7210    2.7123   -0.4411 C   0  0  0  0  0  0  0  0  0  0  0  0
    2.9158    3.7131    0.1097 C   0  0  0  0  0  0  0  0  0  0  0  0
    3.1217    4.1038    1.4251 C   0  0  0  0  0  0  0  0  0  0  0  0
    2.3468    5.0550    1.9469 F   0  0  0  0  0  0  0  0  0  0  0  0
    4.1119    3.5302    2.2156 C   0  0  0  0  0  0  0  0  0  0  0  0
    4.9175    2.5396    1.6588 C   0  0  0  0  0  0  0  0  0  0  0  0
    4.7253    2.1321    0.3394 C   0  0  0  0  0  0  0  0  0  0  0  0
    2.1240   -0.0306    0.1749 C   0  0  0  0  0  0  0  0  0  0  0  0
    2.3088   -1.2056    0.8928 C   0  0  0  0  0  0  0  0  0  0  0  0
   -0.3792    0.2761    2.0125 H   0  0  0  0  0  0  0  0  0  0  0  0
   -0.7925    1.9807    2.3614 H   0  0  0  0  0  0  0  0  0  0  0  0
   -1.2798    1.2269    0.8068 H   0  0  0  0  0  0  0  0  0  0  0  0
   -2.8529   -0.2661    1.9184 H   0  0  0  0  0  0  0  0  0  0  0  0
   -3.2403    1.4127    2.2688 H   0  0  0  0  0  0  0  0  0  0  0  0
   -1.5003   -0.6128    5.3088 H   0  0  0  0  0  0  0  0  0  0  0  0
   -0.9622   -0.9810    3.6636 H   0  0  0  0  0  0  0  0  0  0  0  0
   -3.3288   -1.9532    3.2412 H   0  0  0  0  0  0  0  0  0  0  0  0
   -3.5964   -1.8330    4.9929 H   0  0  0  0  0  0  0  0  0  0  0  0
   -0.0211   -3.7040    5.8061 H   0  0  0  0  0  0  0  0  0  0  0  0
   -2.8270   -3.9284    2.2023 H   0  0  0  0  0  0  0  0  0  0  0  0
   -0.5302   -1.7184    0.3583 H   0  0  0  0  0  0  0  0  0  0  0  0
   -2.8977   -1.4062   -1.5831 H   0  0  0  0  0  0  0  0  0  0  0  0
   -5.0916    1.6008   -2.7227 H   0  0  0  0  0  0  0  0  0  0  0  0
   -3.4137    1.0526   -2.8872 H   0  0  0  0  0  0  0  0  0  0  0  0
   -3.0450    3.6324   -4.6783 H   0  0  0  0  0  0  0  0  0  0  0  0
   -5.5695    3.1226   -6.7499 H   0  0  0  0  0  0  0  0  0  0  0  0
   -4.0630    4.0802   -6.6282 H   0  0  0  0  0  0  0  0  0  0  0  0
   -5.6664    4.8603   -6.4168 H   0  0  0  0  0  0  0  0  0  0  0  0
   -2.4392    2.7988   -0.6418 H   0  0  0  0  0  0  0  0  0  0  0  0
    0.0497    4.2942   -1.4961 H   0  0  0  0  0  0  0  0  0  0  0  0
    0.1888    2.5610   -1.1273 H   0  0  0  0  0  0  0  0  0  0  0  0
   -0.2915    3.7044    0.1635 H   0  0  0  0  0  0  0  0  0  0  0  0
   -0.0543   -0.1605   -1.3855 H   0  0  0  0  0  0  0  0  0  0  0  0
   -1.5420    0.7638   -1.7200 H   0  0  0  0  0  0  0  0  0  0  0  0
   -0.9226    1.5603   -3.8351 H   0  0  0  0  0  0  0  0  0  0  0  0
   -0.3909    0.4259   -5.0957 H   0  0  0  0  0  0  0  0  0  0  0  0
    0.6947    0.8160   -3.7243 H   0  0  0  0  0  0  0  0  0  0  0  0
    0.7598   -1.7517   -3.2399 H   0  0  0  0  0  0  0  0  0  0  0  0
   -0.3069   -1.9112   -4.6676 H   0  0  0  0  0  0  0  0  0  0  0  0
   -0.8275   -2.5597   -3.0941 H   0  0  0  0  0  0  0  0  0  0  0  0
    0.5128   -3.6141    0.8451 H   0  0  0  0  0  0  0  0  0  0  0  0
    4.4245   -4.6984    4.9979 H   0  0  0  0  0  0  0  0  0  0  0  0
    4.1559   -3.8585    0.7719 H   0  0  0  0  0  0  0  0  0  0  0  0
    3.8090   -3.0558   -1.5407 H   0  0  0  0  0  0  0  0  0  0  0  0
    3.0864    3.0007   -2.4886 H   0  0  0  0  0  0  0  0  0  0  0  0
    4.3307    1.7388   -2.2680 H   0  0  0  0  0  0  0  0  0  0  0  0
    2.1208    4.1843   -0.4698 H   0  0  0  0  0  0  0  0  0  0  0  0
    4.2355    3.8635    3.2470 H   0  0  0  0  0  0  0  0  0  0  0  0
    5.6974    2.0752    2.2657 H   0  0  0  0  0  0  0  0  0  0  0  0
    5.3475    1.3404   -0.0849 H   0  0  0  0  0  0  0  0  0  0  0  0
    1.6346    0.8280    0.6377 H   0  0  0  0  0  0  0  0  0  0  0  0
    1.9792   -1.2518    1.9304 H   0  0  0  0  0  0  0  0  0  0  0  0
  1 55  1  0  0  0  0
  1 56  1  0  0  0  0
  1  2  1  0  0  0  0
  2  3  1  0  0  0  0
  3  4  1  0  0  0  0
  4 60  1  0  0  0  0
  5  4  1  0  0  0  0
  5  6  1  0  0  0  0
  5 63  1  0  0  0  0
  7  6  1  0  0  0  0
  7  8  1  0  0  0  0
  8 64  1  0  0  0  0
  9  7  2  0  0  0  0
 10 65  1  0  0  0  0
 10  9  1  0  0  0  0
 11 10  1  0  0  0  0
 12 11  2  0  0  0  0
 13 66  1  0  0  0  0
 13 11  1  0  0  0  0
 14 13  2  0  0  0  0
 16 15  1  0  0  0  0
 17 23  1  0  0  0  0
 17 16  1  0  0  0  0
 17 18  1  1  0  0  0
 19 17  1  0  0  0  0
 20 19  1  0  0  0  0
 20 22  2  0  0  0  0
 21 20  1  0  0  0  0
 23 24  1  0  0  0  0
 24 25  1  0  0  0  0
 24 74  1  0  0  0  0
 25 77  1  0  0  0  0
 26 23  2  0  0  0  0
 27 79  1  0  0  0  0
 27 78  1  0  0  0  0
 27 14  1  0  0  0  0
 28 27  1  0  0  0  0
 29 80  1  0  0  0  0
 29 82  1  0  0  0  0
 29 28  1  0  0  0  0
 30 28  1  0  0  0  0
 30 83  1  0  0  0  0
 30 85  1  0  0  0  0
 31  9  1  0  0  0  0
 31 32  2  0  0  0  0
 32 33  1  0  0  0  0
 33  8  2  0  0  0  0
 33 34  1  0  0  0  0
 35 34  2  0  0  0  0
 35 87  1  0  0  0  0
 36 35  1  0  0  0  0
 37 32  1  0  0  0  0
 37 36  2  0  0  0  0
 38 37  1  0  0  0  0
 39 54  1  0  0  0  0
 39 38  1  0  0  0  0
 40 39  2  0  0  0  0
 41 43  2  0  0  0  0
 41 40  1  0  0  0  0
 42 41  1  0  0  0  0
 43 53  1  0  0  0  0
 44 45  1  0  0  0  0
 44 43  1  0  0  0  0
 45 46  1  0  0  0  0
 46 47  2  0  0  0  0
 46 52  1  0  0  0  0
 47 48  1  0  0  0  0
 48 49  1  0  0  0  0
 48 50  2  0  0  0  0
 50 93  1  0  0  0  0
 51 50  1  0  0  0  0
 51 94  1  0  0  0  0
 52 51  2  0  0  0  0
 53 96  1  0  0  0  0
 53 54  2  0  0  0  0
 54 97  1  0  0  0  0
 57  1  1  0  0  0  0
 58  2  1  0  0  0  0
 59  2  1  0  0  0  0
 61  4  1  0  0  0  0
 62  5  1  0  0  0  0
 67 14  1  0  0  0  0
 68 16  1  0  0  0  0
 69 16  1  0  0  0  0
 70 19  1  0  0  0  0
 71 21  1  0  0  0  0
 72 21  1  0  0  0  0
 73 21  1  0  0  0  0
 75 25  1  0  0  0  0
 76 25  1  0  0  0  0
 81 29  1  0  0  0  0
 84 30  1  0  0  0  0
 86 31  1  0  0  0  0
 88 38  1  0  0  0  0
 89 40  1  0  0  0  0
 90 45  1  0  0  0  0
 91 45  1  0  0  0  0
 92 47  1  0  0  0  0
 95 52  1  0  0  0  0
M  END
