97
-1 1
C        -1.149528    1.054574    1.884955
C        -2.492741    0.630516    2.453481
O        -2.471806    0.421722    3.860981
C        -1.855523   -0.754130    4.274638
C        -2.825036   -1.936668    4.219270
O        -2.189380   -3.193859    4.488780
C        -0.983767   -3.428273    3.918033
C         0.099010   -3.679228    4.723225
C        -0.859101   -3.466062    2.483099
N        -2.046251   -3.455161    1.757725
C        -2.430499   -2.874523    0.544551
O        -3.526067   -3.159471    0.108553
C        -1.508173   -1.911899   -0.087886
C        -1.900850   -1.224218   -1.170326
S        -4.049905    1.428995   -0.541285
C        -4.072459    1.754687   -2.341649
C        -3.686011    3.194041   -2.758380
H        -4.311637    3.881541   -2.162899
N        -3.902505    3.436526   -4.168813
C        -5.110405    3.662463   -4.728471
C        -5.076933    3.953324   -6.223432
O        -6.166209    3.624515   -4.120894
C        -2.206947    3.527419   -2.509824
N        -1.781982    3.343447   -1.250540
C        -0.392666    3.475824   -0.907793
O        -1.477166    3.920572   -3.422458
C        -1.053520   -0.212395   -1.869977
N        -0.956796   -0.473173   -3.292960
C        -0.362771    0.631948   -4.013900
C        -0.301511   -1.725607   -3.582279
C         0.397901   -3.578543    1.928627
C         1.538584   -3.716508    2.758839
C         1.384827   -3.870233    4.161248
N         2.433097   -4.194438    4.966294
C         3.583747   -4.373125    4.373810
N         3.872537   -4.163545    3.073441
C         2.885355   -3.787553    2.286122
N         3.224075   -3.507474    0.971026
C         2.930877   -2.307319    0.289878
C         3.345013   -2.203193   -1.042685
C         3.179161   -1.010248   -1.737692
Cl         3.728498   -0.903285   -3.388116
C         2.567100    0.097500   -1.141680
O         2.360167    1.250444   -1.828216
C         3.427250    2.193925   -1.827134
C         3.720975    2.712347   -0.441091
C         2.915781    3.713064    0.109742
C         3.121740    4.103755    1.425135
F         2.346802    5.054965    1.946878
C         4.111935    3.530192    2.215551
C         4.917523    2.539634    1.658819
C         4.725330    2.132074    0.339372
C         2.124027   -0.030591    0.174879
C         2.308806   -1.205593    0.892782
H        -0.379220    0.276127    2.012537
H        -0.792481    1.980718    2.361398
H        -1.279815    1.226912    0.806802
H        -2.852882   -0.266130    1.918444
H        -3.240290    1.412707    2.268775
H        -1.500279   -0.612847    5.308762
H        -0.962200   -0.981010    3.663562
H        -3.328820   -1.953212    3.241218
H        -3.596423   -1.832987    4.992914
H        -0.021104   -3.704001    5.806054
H        -2.827041   -3.928360    2.202349
H        -0.530236   -1.718356    0.358267
H        -2.897738   -1.406223   -1.583053
H        -5.091578    1.600836   -2.722725
H        -3.413672    1.052627   -2.887193
H        -3.044988    3.632432   -4.678347
H        -5.569486    3.122642   -6.749928
H        -4.063008    4.080166   -6.628186
H        -5.666365    4.860304   -6.416805
H        -2.439169    2.798802   -0.641819
H         0.049683    4.294173   -1.496131
H         0.188795    2.561037   -1.127322
H        -0.291524    3.704441    0.163468
H        -0.054333   -0.160455   -1.385497
H        -1.542036    0.763754   -1.720004
H        -0.922554    1.560270   -3.835057
H        -0.390904    0.425936   -5.095663
H         0.694695    0.816041   -3.724279
H         0.759812   -1.751652   -3.239862
H        -0.306933   -1.911237   -4.667598
H        -0.827473   -2.559747   -3.094068
H         0.512826   -3.614111    0.845067
H         4.424532   -4.698434    4.997913
H         4.155912   -3.858472    0.771887
H         3.809020   -3.055764   -1.540727
H         3.086400    3.000727   -2.488597
H         4.330696    1.738829   -2.267959
H         2.120830    4.184259   -0.469842
H         4.235495    3.863540    3.247015
H         5.697450    2.075248    2.265740
H         5.347499    1.340406   -0.084896
H         1.634606    0.827984    0.637679
H         1.979191   -1.251779    1.930416
