97
-1 1
C        -0.661358    1.467176    2.013029
C        -2.017191    1.032286    2.549103
O        -2.013077    0.824548    3.951632
C        -1.545514   -0.433347    4.344416
C        -2.669927   -1.472119    4.304455
O        -2.210441   -2.815154    4.469705
C        -1.093647   -3.183416    3.784585
C        -0.010035   -3.635753    4.488027
C        -1.077949   -3.107058    2.338361
N        -2.270307   -2.872344    1.721277
C        -2.635961   -2.327348    0.426795
O        -3.758864   -2.670660    0.034697
C        -1.747541   -1.433232   -0.174065
C        -2.165788   -0.711206   -1.386845
S        -3.399715    0.664725   -0.873339
C        -3.949931    1.351268   -2.471960
C        -3.715447    2.865257   -2.672515
H        -4.223478    3.393522   -1.847895
N        -4.273393    3.311851   -3.926095
C        -5.592535    3.553984   -4.107711
C        -5.971462    4.060893   -5.488705
O        -6.432199    3.362547   -3.245609
C        -2.237434    3.294045   -2.688918
N        -1.593632    3.164403   -1.513138
C        -0.181513    3.416322   -1.382487
O        -1.723207    3.748291   -3.703630
C        -1.024733   -0.104534   -2.207708
N        -0.534370   -0.970964   -3.263625
C         0.351630   -0.260182   -4.154733
C         0.038906   -2.214818   -2.800991
C         0.141796   -3.279682    1.697899
C         1.295828   -3.652355    2.430805
C         1.208745   -3.928088    3.825024
N         2.248402   -4.446449    4.529283
C         3.339779   -4.696207    3.854506
N         3.573671   -4.403740    2.561161
C         2.596565   -3.845648    1.873722
N         2.919702   -3.524184    0.553498
C         2.844964   -2.258734   -0.041482
C         3.541396   -2.074539   -1.245786
C         3.560719   -0.832814   -1.867016
Cl         4.453789   -0.636832   -3.353946
C         2.870867    0.258533   -1.331724
O         2.886203    1.476800   -1.946129
C         3.937249    2.346654   -1.536479
C         3.776780    2.756356   -0.093238
C         2.823088    3.721713    0.239269
C         2.528768    3.956364    1.573811
F         1.584619    4.850354    1.880232
C         3.173927    3.274612    2.599574
C         4.147347    2.336790    2.263520
C         4.446263    2.075358    0.926665
C         2.157574    0.057927   -0.151201
C         2.150878   -1.167829    0.500849
H         0.113861    0.716314    2.235139
H        -0.342250    2.430100    2.440508
H        -0.717659    1.558234    0.917574
H        -2.343483    0.126542    2.007535
H        -2.770531    1.808590    2.351119
H        -1.144449   -0.344170    5.366854
H        -0.709591   -0.767493    3.703646
H        -3.222413   -1.358459    3.359845
H        -3.371763   -1.303287    5.132064
H        -0.064136   -3.731093    5.572605
H        -3.094153   -3.202409    2.210612
H        -0.837953   -1.108499    0.335790
H        -2.791241   -1.345074   -2.033392
H        -5.031726    1.186938   -2.567508
H        -3.454006    0.790466   -3.279966
H        -3.574279    3.590566   -4.609352
H        -6.522224    3.266064   -6.012868
H        -5.108247    4.357836   -6.100169
H        -6.653704    4.913717   -5.373357
H        -2.042636    2.537173   -0.837918
H         0.101700    4.235495   -2.057612
H         0.435086    2.537419   -1.640655
H         0.037482    3.709092   -0.346397
H        -0.211329    0.205301   -1.510372
H        -1.357077    0.815024   -2.707907
H        -0.152046    0.632568   -4.558740
H         0.634579   -0.905680   -5.001769
H         1.290325    0.084179   -3.665928
H         0.963056   -2.066698   -2.200248
H         0.296123   -2.847613   -3.666062
H        -0.677781   -2.753907   -2.167573
H         0.183871   -3.170940    0.613679
H         4.170055   -5.168297    4.393466
H         3.765726   -4.021758    0.295650
H         4.076303   -2.908128   -1.703820
H         3.868853    3.214546   -2.205881
H         4.913956    1.858489   -1.697228
H         2.285032    4.271123   -0.534453
H         2.903155    3.480725    3.636040
H         4.660493    1.786565    3.054663
H         5.177864    1.305534    0.670950
H         1.607769    0.899730    0.271645
H         1.596993   -1.267630    1.431720
