-1 1
 OpenBabel05232414493D

 97 99  0  0  1  0  0  0  0  0999 V2000
   -0.2740   -7.0741    7.8272 C   0  0  0  0  0  0  0  0  0  0  0  0
   -1.6209   -7.5083    8.3838 C   0  0  0  0  0  0  0  0  0  0  0  0
   -1.5927   -7.7327    9.7853 O   0  0  0  0  0  0  0  0  0  0  0  0
   -1.1089   -8.9870   10.1600 C   0  0  0  0  0  0  0  0  0  0  0  0
   -2.2266  -10.0332   10.1403 C   0  0  0  0  0  0  0  0  0  0  0  0
   -1.7527  -11.3692   10.3373 O   0  0  0  0  0  0  0  0  0  0  0  0
   -0.6400  -11.7430    9.6542 C   0  0  0  0  0  0  0  0  0  0  0  0
    0.4584  -12.1639   10.3574 C   0  0  0  0  0  0  0  0  0  0  0  0
   -0.6387  -11.7165    8.2096 C   0  0  0  0  0  0  0  0  0  0  0  0
   -1.8524  -11.5272    7.5921 N   0  0  0  0  0  0  0  0  0  0  0  0
   -2.2351  -10.9143    6.3580 C   0  0  0  0  0  0  0  0  0  0  0  0
   -3.3656  -11.1807    5.9665 O   0  0  0  0  0  0  0  0  0  0  0  0
   -1.3163  -10.0012    5.7606 C   0  0  0  0  0  3  0  0  0  0  0  0
   -1.7011   -9.2582    4.6394 C   0  0  0  0  0  3  0  0  0  0  0  0
   -3.1481   -7.5242    5.2127 S   0  0  0  0  0  1  0  0  0  0  0  0
   -3.6108   -7.0308    3.5230 C   0  0  0  0  0  0  0  0  0  0  0  0
   -3.3424   -5.5569    3.1334 C   0  0  2  0  0  0  0  0  0  0  0  0
   -3.8890   -4.9200    3.8487 H   0  0  0  0  0  0  0  0  0  0  0  0
   -3.8099   -5.2755    1.7962 N   0  0  0  0  0  0  0  0  0  0  0  0
   -5.1052   -5.0421    1.4870 C   0  0  0  0  0  0  0  0  0  0  0  0
   -5.3700   -4.7299    0.0225 C   0  0  0  0  0  0  0  0  0  0  0  0
   -6.0129   -5.0953    2.2985 O   0  0  0  0  0  0  0  0  0  0  0  0
   -1.8582   -5.1578    3.1536 C   0  0  0  0  0  0  0  0  0  0  0  0
   -1.2838   -5.1810    4.3710 N   0  0  0  0  0  0  0  0  0  0  0  0
    0.1306   -4.9780    4.5422 C   0  0  0  0  0  0  0  0  0  0  0  0
   -1.2715   -4.8311    2.1262 O   0  0  0  0  0  0  0  0  0  0  0  0
   -0.6395   -8.5271    3.8454 C   0  0  0  0  0  0  0  0  0  0  0  0
   -0.2207   -9.2455    2.6534 N   0  0  0  0  0  0  0  0  0  0  0  0
    0.5679   -8.4003    1.7857 C   0  0  0  0  0  0  0  0  0  0  0  0
    0.4210  -10.5117    2.9178 C   0  0  0  0  0  0  0  0  0  0  0  0
    0.5657  -11.9077    7.5555 C   0  0  0  0  0  0  0  0  0  0  0  0
    1.7377  -12.2320    8.2848 C   0  0  0  0  0  0  0  0  0  0  0  0
    1.6694  -12.4650    9.6862 C   0  0  0  0  0  0  0  0  0  0  0  0
    2.7249  -12.9548   10.3891 N   0  0  0  0  0  0  0  0  0  0  0  0
    3.8062  -13.2172    9.7035 C   0  0  0  0  0  0  0  0  0  0  0  0
    4.0222  -12.9548    8.4000 N   0  0  0  0  0  0  0  0  0  0  0  0
    3.0322  -12.4208    7.7129 C   0  0  0  0  0  0  0  0  0  0  0  0
    3.3298  -12.1090    6.3866 N   0  0  0  0  0  0  0  0  0  0  0  0
    3.2427  -10.8363    5.7990 C   0  0  0  0  0  0  0  0  0  0  0  0
    3.9149  -10.6441    4.5833 C   0  0  0  0  0  0  0  0  0  0  0  0
    3.9359   -9.3933    3.9791 C   0  0  0  0  0  0  0  0  0  0  0  0
    4.8002   -9.1856    2.4783 Cl  0  0  0  0  0  0  0  0  0  0  0  0
    3.2683   -8.3025    4.5431 C   0  0  0  0  0  0  0  0  0  0  0  0
    3.2790   -7.0797    3.9417 O   0  0  0  0  0  0  0  0  0  0  0  0
    4.3226   -6.2051    4.3595 C   0  0  0  0  0  0  0  0  0  0  0  0
    4.1544   -5.8015    5.8037 C   0  0  0  0  0  0  0  0  0  0  0  0
    3.1748   -4.8627    6.1376 C   0  0  0  0  0  0  0  0  0  0  0  0
    2.8821   -4.6310    7.4730 C   0  0  0  0  0  0  0  0  0  0  0  0
    1.9198   -3.7589    7.7834 F   0  0  0  0  0  0  0  0  0  0  0  0
    3.5505   -5.2926    8.4974 C   0  0  0  0  0  0  0  0  0  0  0  0
    4.5471   -6.2048    8.1595 C   0  0  0  0  0  0  0  0  0  0  0  0
    4.8470   -6.4615    6.8217 C   0  0  0  0  0  0  0  0  0  0  0  0
    2.5742   -8.5128    5.7334 C   0  0  0  0  0  0  0  0  0  0  0  0
    2.5671   -9.7481    6.3678 C   0  0  0  0  0  0  0  0  0  0  0  0
    0.5034   -7.8303    8.0242 H   0  0  0  0  0  0  0  0  0  0  0  0
    0.0567   -6.1192    8.2635 H   0  0  0  0  0  0  0  0  0  0  0  0
   -0.3578   -6.9627    6.7355 H   0  0  0  0  0  0  0  0  0  0  0  0
   -1.9650   -8.4072    7.8423 H   0  0  0  0  0  0  0  0  0  0  0  0
   -2.3758   -6.7303    8.2049 H   0  0  0  0  0  0  0  0  0  0  0  0
   -0.6869   -8.9041   11.1748 H   0  0  0  0  0  0  0  0  0  0  0  0
   -0.2843   -9.3134    9.4998 H   0  0  0  0  0  0  0  0  0  0  0  0
   -2.7820   -9.9480    9.1944 H   0  0  0  0  0  0  0  0  0  0  0  0
   -2.9292   -9.8521   10.9642 H   0  0  0  0  0  0  0  0  0  0  0  0
    0.4191  -12.2292   11.4447 H   0  0  0  0  0  0  0  0  0  0  0  0
   -2.6592  -11.8964    8.0828 H   0  0  0  0  0  0  0  0  0  0  0  0
   -0.3862   -9.7472    6.2740 H   0  0  0  0  0  0  0  0  0  0  0  0
   -2.5047   -9.6873    4.0345 H   0  0  0  0  0  0  0  0  0  0  0  0
   -4.6893   -7.1889    3.3851 H   0  0  0  0  0  0  0  0  0  0  0  0
   -3.0896   -7.6826    2.7985 H   0  0  0  0  0  0  0  0  0  0  0  0
   -3.0618   -5.1029    1.1302 H   0  0  0  0  0  0  0  0  0  0  0  0
   -5.8956   -5.5854   -0.4268 H   0  0  0  0  0  0  0  0  0  0  0  0
   -4.4580   -4.5297   -0.5570 H   0  0  0  0  0  0  0  0  0  0  0  0
   -6.0419   -3.8630   -0.0346 H   0  0  0  0  0  0  0  0  0  0  0  0
   -1.7899   -5.7502    5.0680 H   0  0  0  0  0  0  0  0  0  0  0  0
    0.4757   -4.2023    3.8439 H   0  0  0  0  0  0  0  0  0  0  0  0
    0.7202   -5.8916    4.3436 H   0  0  0  0  0  0  0  0  0  0  0  0
    0.3257   -4.6507    5.5728 H   0  0  0  0  0  0  0  0  0  0  0  0
    0.2197   -8.3029    4.5179 H   0  0  0  0  0  0  0  0  0  0  0  0
   -1.0191   -7.5608    3.5004 H   0  0  0  0  0  0  0  0  0  0  0  0
    0.0176   -7.4740    1.5580 H   0  0  0  0  0  0  0  0  0  0  0  0
    0.7747   -8.9206    0.8365 H   0  0  0  0  0  0  0  0  0  0  0  0
    1.5449   -8.1029    2.2283 H   0  0  0  0  0  0  0  0  0  0  0  0
    1.3763  -10.4063    3.4789 H   0  0  0  0  0  0  0  0  0  0  0  0
    0.6447  -11.0210    1.9666 H   0  0  0  0  0  0  0  0  0  0  0  0
   -0.2386  -11.1591    3.5116 H   0  0  0  0  0  0  0  0  0  0  0  0
    0.5971  -11.8499    6.4668 H   0  0  0  0  0  0  0  0  0  0  0  0
    4.6464  -13.6718   10.2419 H   0  0  0  0  0  0  0  0  0  0  0  0
    4.1801  -12.5951    6.1202 H   0  0  0  0  0  0  0  0  0  0  0  0
    4.4348  -11.4759    4.1051 H   0  0  0  0  0  0  0  0  0  0  0  0
    4.2505   -5.3354    3.6930 H   0  0  0  0  0  0  0  0  0  0  0  0
    5.3032   -6.6863    4.2007 H   0  0  0  0  0  0  0  0  0  0  0  0
    2.6179   -4.3316    5.3647 H   0  0  0  0  0  0  0  0  0  0  0  0
    3.2800   -5.0895    9.5346 H   0  0  0  0  0  0  0  0  0  0  0  0
    5.0795   -6.7378    8.9498 H   0  0  0  0  0  0  0  0  0  0  0  0
    5.5998   -7.2102    6.5644 H   0  0  0  0  0  0  0  0  0  0  0  0
    2.0387   -7.6722    6.1761 H   0  0  0  0  0  0  0  0  0  0  0  0
    2.0337   -9.8524    7.3103 H   0  0  0  0  0  0  0  0  0  0  0  0
  1 55  1  0  0  0  0
  1 56  1  0  0  0  0
  1  2  1  0  0  0  0
  2  3  1  0  0  0  0
  3  4  1  0  0  0  0
  4 60  1  0  0  0  0
  5  4  1  0  0  0  0
  5  6  1  0  0  0  0
  5 63  1  0  0  0  0
  7  6  1  0  0  0  0
  7  8  1  0  0  0  0
  8 64  1  0  0  0  0
  9  7  2  0  0  0  0
 10 65  1  0  0  0  0
 10  9  1  0  0  0  0
 11 10  1  0  0  0  0
 12 11  2  0  0  0  0
 13 66  1  0  0  0  0
 13 11  1  0  0  0  0
 14 13  1  0  0  0  0
 16 15  1  0  0  0  0
 17 23  1  0  0  0  0
 17 16  1  0  0  0  0
 17 18  1  1  0  0  0
 19 17  1  0  0  0  0
 20 19  1  0  0  0  0
 20 22  2  0  0  0  0
 21 20  1  0  0  0  0
 23 24  1  0  0  0  0
 24 25  1  0  0  0  0
 24 74  1  0  0  0  0
 25 77  1  0  0  0  0
 26 23  2  0  0  0  0
 27 78  1  0  0  0  0
 27 14  1  0  0  0  0
 28 30  1  0  0  0  0
 28 27  1  0  0  0  0
 29 82  1  0  0  0  0
 29 28  1  0  0  0  0
 30 83  1  0  0  0  0
 30 85  1  0  0  0  0
 31  9  1  0  0  0  0
 31 32  2  0  0  0  0
 32 33  1  0  0  0  0
 33  8  2  0  0  0  0
 33 34  1  0  0  0  0
 35 87  1  0  0  0  0
 35 34  2  0  0  0  0
 36 35  1  0  0  0  0
 37 32  1  0  0  0  0
 37 36  2  0  0  0  0
 38 37  1  0  0  0  0
 39 54  1  0  0  0  0
 39 38  1  0  0  0  0
 40 39  2  0  0  0  0
 41 43  2  0  0  0  0
 41 40  1  0  0  0  0
 42 41  1  0  0  0  0
 43 53  1  0  0  0  0
 44 45  1  0  0  0  0
 44 43  1  0  0  0  0
 45 46  1  0  0  0  0
 46 47  2  0  0  0  0
 46 52  1  0  0  0  0
 47 48  1  0  0  0  0
 48 49  1  0  0  0  0
 48 50  2  0  0  0  0
 50 93  1  0  0  0  0
 51 50  1  0  0  0  0
 51 94  1  0  0  0  0
 52 51  2  0  0  0  0
 53 96  1  0  0  0  0
 53 54  2  0  0  0  0
 54 97  1  0  0  0  0
 57  1  1  0  0  0  0
 58  2  1  0  0  0  0
 59  2  1  0  0  0  0
 61  4  1  0  0  0  0
 62  5  1  0  0  0  0
 67 14  1  0  0  0  0
 68 16  1  0  0  0  0
 69 16  1  0  0  0  0
 70 19  1  0  0  0  0
 71 21  1  0  0  0  0
 72 21  1  0  0  0  0
 73 21  1  0  0  0  0
 75 25  1  0  0  0  0
 76 25  1  0  0  0  0
 79 27  1  0  0  0  0
 80 29  1  0  0  0  0
 81 29  1  0  0  0  0
 84 30  1  0  0  0  0
 86 31  1  0  0  0  0
 88 38  1  0  0  0  0
 89 40  1  0  0  0  0
 90 45  1  0  0  0  0
 91 45  1  0  0  0  0
 92 47  1  0  0  0  0
 95 52  1  0  0  0  0
M  END
