89
-1 1
C         2.187033   -6.612071   -4.480952
C         1.087272   -5.876079   -3.747250
O         0.374151   -6.800861   -2.959012
C        -0.642926   -6.233471   -2.183272
C        -0.074529   -5.592317   -0.917297
O        -1.057629   -4.880399   -0.182527
C        -1.148112   -3.545358   -0.386879
C        -0.891873   -2.928142   -1.590377
C        -1.529912   -2.771128    0.749000
N        -1.880184   -3.446875    1.930390
C        -1.630661   -3.053784    3.228443
O        -2.309535   -3.474433    4.145356
C        -0.424368   -2.193365    3.415492
C        -0.393795   -0.938323    3.859231
S         2.865488   -0.324690    2.894395
C         2.006358   -0.081357    1.294598
C         2.651868   -0.850540    0.122711
H         3.744350   -0.722195    0.237703
N         2.255711   -0.386423   -1.195262
C         2.593842    0.819678   -1.702525
C         2.362462    1.002899   -3.190786
O         3.067390    1.727174   -1.032500
C         2.352968   -2.359652    0.141809
N         2.434275   -2.941103    1.342949
C         2.105691   -4.326032    1.544417
O         2.064529   -2.969686   -0.891832
C        -1.582767   -0.082480    4.167910
N        -1.580285    1.150389    3.377655
C        -0.379483    1.986980    3.532011
C         0.123559    2.255739    4.949741
C        -2.854466    1.853560    3.423971
C        -3.336125    2.391155    4.774808
C        -1.555587   -1.396126    0.649183
C        -1.211672   -0.750429   -0.556425
C        -0.931747   -1.522542   -1.705733
N        -0.699149   -0.951077   -2.924263
C        -0.743281    0.354611   -2.949638
N        -0.907861    1.201438   -1.920225
C        -1.106484    0.675545   -0.722442
N        -1.210448    1.512023    0.340629
C        -0.960292    2.904433    0.222653
C         0.333007    3.373190   -0.031324
C         0.562878    4.741597   -0.113523
Cl         2.153968    5.351555   -0.443906
C        -0.489675    5.640747    0.071551
F        -0.266214    6.951775    0.003006
C        -1.774188    5.181608    0.319244
C        -2.009045    3.809853    0.380559
H         2.751148   -5.919047   -5.121797
H         1.765320   -7.410610   -5.109267
H         2.884546   -7.069715   -3.764461
H         0.398434   -5.390291   -4.468700
H         1.520880   -5.068038   -3.128545
H        -1.340551   -7.040711   -1.911624
H        -1.220445   -5.489383   -2.764858
H         0.766116   -4.915367   -1.142518
H         0.300021   -6.383328   -0.250873
H        -0.604672   -3.484420   -2.479723
H        -2.519278   -4.229946    1.843168
H         0.529920   -2.653322    3.137722
H         0.610942   -0.490756    3.927429
H         2.050498    0.981441    1.026811
H         0.941717   -0.370973    1.364294
H         1.945382   -1.132755   -1.813729
H         1.940656    0.117753   -3.684601
H         3.327061    1.260913   -3.651271
H         1.686695    1.857617   -3.331633
H         2.657184   -2.306949    2.144923
H         2.575375   -4.957125    0.773969
H         1.015518   -4.502680    1.505431
H         2.470615   -4.640263    2.531766
H        -1.591938    0.127204    5.258355
H        -2.519787   -0.624598    3.957327
H        -0.591945    2.942414    3.026442
H         0.448339    1.520177    2.973012
H        -0.631517    2.731966    5.592282
H         0.998515    2.919260    4.893545
H         0.463855    1.331023    5.437678
H        -3.620795    1.165565    3.024374
H        -2.794837    2.691659    2.712656
H        -2.681773    3.189806    5.152309
H        -3.384828    1.599833    5.537900
H        -4.348024    2.812009    4.667711
H        -1.838081   -0.808601    1.522166
H        -0.608475    0.833282   -3.927702
H        -1.314101    1.140865    1.293975
H         1.168001    2.682742   -0.178605
H        -2.577860    5.908308    0.446702
H        -3.018845    3.430077    0.542645
