-1 1
 OpenBabel05192410563D

 89 91  0  0  1  0  0  0  0  0999 V2000
   -1.4384   -8.6460   -5.0675 C   0  0  0  0  0  0  0  0  0  0  0  0
   -1.4343   -7.3089   -4.3586 C   0  0  0  0  0  0  0  0  0  0  0  0
   -2.2165   -7.4115   -3.1964 O   0  0  0  0  0  0  0  0  0  0  0  0
   -2.2615   -6.2471   -2.4183 C   0  0  0  0  0  0  0  0  0  0  0  0
   -1.0963   -6.1951   -1.4270 C   0  0  0  0  0  0  0  0  0  0  0  0
   -1.0796   -4.9900   -0.7062 O   0  0  0  0  0  0  0  0  0  0  0  0
   -0.5856   -3.8627   -1.2753 C   0  0  0  0  0  0  0  0  0  0  0  0
   -0.0060   -3.8000   -2.5162 C   0  0  0  0  0  0  0  0  0  0  0  0
   -0.7129   -2.6875   -0.4398 C   0  0  0  0  0  0  0  0  0  0  0  0
   -1.2854   -2.8616    0.7786 N   0  0  0  0  0  0  0  0  0  0  0  0
   -1.5709   -1.9148    1.8522 C   0  0  0  0  0  0  0  0  0  0  0  0
   -2.7210   -2.0000    2.3063 O   0  0  0  0  0  0  0  0  0  0  0  0
   -0.4871   -1.1410    2.2807 C   0  0  0  0  0  3  0  0  0  0  0  0
   -0.5032   -0.2897    3.4798 C   0  0  1  0  0  0  0  0  0  0  0  0
   -0.7292    1.6300    3.1875 S   0  0  0  0  0  0  0  0  0  0  0  0
    0.1267    1.8104    1.6079 C   0  0  0  0  0  0  0  0  0  0  0  0
    1.6191    2.1994    1.6533 C   0  0  2  0  0  0  0  0  0  0  0  0
    1.7000    3.1856    2.1354 H   0  0  0  0  0  0  0  0  0  0  0  0
    2.1656    2.3177    0.3204 N   0  0  0  0  0  0  0  0  0  0  0  0
    2.4456    3.5264   -0.2417 C   0  0  0  0  0  0  0  0  0  0  0  0
    3.2866    3.4714   -1.5003 C   0  0  0  0  0  0  0  0  0  0  0  0
    2.0609    4.5801    0.2327 O   0  0  0  0  0  0  0  0  0  0  0  0
    2.5044    1.1972    2.4064 C   0  0  0  0  0  0  0  0  0  0  0  0
    2.4335    1.2696    3.7559 N   0  0  0  0  0  0  0  0  0  0  0  0
    3.1016    0.3024    4.5907 C   0  0  0  0  0  0  0  0  0  0  0  0
    3.2430    0.4286    1.8105 O   0  0  0  0  0  0  0  0  0  0  0  0
   -1.5491   -0.6240    4.5414 C   0  0  0  0  0  0  0  0  0  0  0  0
   -1.4870    0.2391    5.7054 N   0  0  0  0  0  0  0  0  0  0  0  0
   -0.2553    0.2439    6.4621 C   0  0  0  0  0  0  0  0  0  0  0  0
    0.3150   -1.1156    6.8839 C   0  0  0  0  0  0  0  0  0  0  0  0
   -2.7203    0.3693    6.4452 C   0  0  0  0  0  0  0  0  0  0  0  0
   -3.1974   -0.8651    7.2212 C   0  0  0  0  0  0  0  0  0  0  0  0
   -0.2618   -1.4813   -0.9623 C   0  0  0  0  0  0  0  0  0  0  0  0
    0.2995   -1.3972   -2.2593 C   0  0  0  0  0  0  0  0  0  0  0  0
    0.4547   -2.5654   -3.0423 C   0  0  0  0  0  0  0  0  0  0  0  0
    0.9997   -2.5495   -4.2919 N   0  0  0  0  0  0  0  0  0  0  0  0
    1.3472   -1.3791   -4.7485 C   0  0  0  0  0  0  0  0  0  0  0  0
    1.2017   -0.1879   -4.1345 N   0  0  0  0  0  0  0  0  0  0  0  0
    0.6798   -0.1764   -2.9236 C   0  0  0  0  0  0  0  0  0  0  0  0
    0.4611    1.0227   -2.2874 N   0  0  0  0  0  0  0  0  0  0  0  0
    0.4475    2.3218   -2.8029 C   0  0  0  0  0  0  0  0  0  0  0  0
   -0.1311    3.3165   -1.9987 C   0  0  0  0  0  0  0  0  0  0  0  0
   -0.1553    4.6422   -2.4090 C   0  0  0  0  0  0  0  0  0  0  0  0
   -0.8547    5.8610   -1.3934 Cl  0  0  0  0  0  0  0  0  0  0  0  0
    0.3815    4.9954   -3.6458 C   0  0  0  0  0  0  0  0  0  0  0  0
    0.3580    6.2657   -4.0521 F   0  0  0  0  0  0  0  0  0  0  0  0
    0.9367    4.0183   -4.4578 C   0  0  0  0  0  0  0  0  0  0  0  0
    0.9797    2.6881   -4.0490 C   0  0  0  0  0  0  0  0  0  0  0  0
   -0.8464   -8.5941   -5.9928 H   0  0  0  0  0  0  0  0  0  0  0  0
   -2.4669   -8.9395   -5.3236 H   0  0  0  0  0  0  0  0  0  0  0  0
   -1.0108   -9.4257   -4.4203 H   0  0  0  0  0  0  0  0  0  0  0  0
   -1.8388   -6.5177   -5.0212 H   0  0  0  0  0  0  0  0  0  0  0  0
   -0.3938   -7.0132   -4.1171 H   0  0  0  0  0  0  0  0  0  0  0  0
   -3.2081   -6.2531   -1.8574 H   0  0  0  0  0  0  0  0  0  0  0  0
   -2.2606   -5.3401   -3.0510 H   0  0  0  0  0  0  0  0  0  0  0  0
   -0.1339   -6.3625   -1.9403 H   0  0  0  0  0  0  0  0  0  0  0  0
   -1.2130   -6.9952   -0.6831 H   0  0  0  0  0  0  0  0  0  0  0  0
    0.1094   -4.6730   -3.1571 H   0  0  0  0  0  0  0  0  0  0  0  0
   -1.8581   -3.6925    0.8640 H   0  0  0  0  0  0  0  0  0  0  0  0
    0.4879   -1.3340    1.8253 H   0  0  0  0  0  0  0  0  0  0  0  0
    0.4931   -0.3242    3.9389 H   0  0  0  0  0  0  0  0  0  0  0  0
   -0.3939    2.5993    1.0470 H   0  0  0  0  0  0  0  0  0  0  0  0
    0.0005    0.8493    1.0780 H   0  0  0  0  0  0  0  0  0  0  0  0
    2.6743    1.4933    0.0121 H   0  0  0  0  0  0  0  0  0  0  0  0
    4.3112    3.7845   -1.2482 H   0  0  0  0  0  0  0  0  0  0  0  0
    2.8819    4.1888   -2.2258 H   0  0  0  0  0  0  0  0  0  0  0  0
    3.3166    2.4720   -1.9550 H   0  0  0  0  0  0  0  0  0  0  0  0
    1.6203    1.7623    4.1257 H   0  0  0  0  0  0  0  0  0  0  0  0
    4.0787    0.0638    4.1509 H   0  0  0  0  0  0  0  0  0  0  0  0
    2.5314   -0.6391    4.6797 H   0  0  0  0  0  0  0  0  0  0  0  0
    3.2478    0.7199    5.5965 H   0  0  0  0  0  0  0  0  0  0  0  0
   -1.4239   -1.6996    4.7854 H   0  0  0  0  0  0  0  0  0  0  0  0
   -2.5461   -0.5493    4.0904 H   0  0  0  0  0  0  0  0  0  0  0  0
   -0.4168    0.8660    7.3580 H   0  0  0  0  0  0  0  0  0  0  0  0
    0.5206    0.7729    5.8783 H   0  0  0  0  0  0  0  0  0  0  0  0
   -0.3878   -1.6806    7.5141 H   0  0  0  0  0  0  0  0  0  0  0  0
    1.2486   -0.9761    7.4522 H   0  0  0  0  0  0  0  0  0  0  0  0
    0.5494   -1.7397    6.0081 H   0  0  0  0  0  0  0  0  0  0  0  0
   -3.5060    0.6592    5.7277 H   0  0  0  0  0  0  0  0  0  0  0  0
   -2.6179    1.2189    7.1437 H   0  0  0  0  0  0  0  0  0  0  0  0
   -2.5028   -1.1292    8.0339 H   0  0  0  0  0  0  0  0  0  0  0  0
   -3.2894   -1.7362    6.5544 H   0  0  0  0  0  0  0  0  0  0  0  0
   -4.1852   -0.6807    7.6734 H   0  0  0  0  0  0  0  0  0  0  0  0
   -0.3845   -0.6054   -0.3256 H   0  0  0  0  0  0  0  0  0  0  0  0
    1.7999   -1.3406   -5.7471 H   0  0  0  0  0  0  0  0  0  0  0  0
    0.1339    0.9524   -1.3328 H   0  0  0  0  0  0  0  0  0  0  0  0
   -0.5512    3.0626   -1.0253 H   0  0  0  0  0  0  0  0  0  0  0  0
    1.3486    4.3162   -5.4237 H   0  0  0  0  0  0  0  0  0  0  0  0
    1.4218    1.9199   -4.6768 H   0  0  0  0  0  0  0  0  0  0  0  0
  1 51  1  0  0  0  0
  1  2  1  0  0  0  0
  2 53  1  0  0  0  0
  2  3  1  0  0  0  0
  3  4  1  0  0  0  0
  4 54  1  0  0  0  0
  4  5  1  0  0  0  0
  5  6  1  0  0  0  0
  5 57  1  0  0  0  0
  7  6  1  0  0  0  0
  7  9  1  0  0  0  0
  8  7  2  0  0  0  0
  9 10  1  0  0  0  0
 10 59  1  0  0  0  0
 10 11  1  0  0  0  0
 11 13  1  0  0  0  0
 11 12  2  0  0  0  0
 13 14  1  0  0  0  0
 14 61  1  1  0  0  0
 14 27  1  0  0  0  0
 15 14  1  0  0  0  0
 16 17  1  0  0  0  0
 16 15  1  0  0  0  0
 17 18  1  1  0  0  0
 17 23  1  0  0  0  0
 19 17  1  0  0  0  0
 20 22  2  0  0  0  0
 20 19  1  0  0  0  0
 21 65  1  0  0  0  0
 21 20  1  0  0  0  0
 23 24  1  0  0  0  0
 24 68  1  0  0  0  0
 24 25  1  0  0  0  0
 25 70  1  0  0  0  0
 25 71  1  0  0  0  0
 26 23  2  0  0  0  0
 27 72  1  0  0  0  0
 27 28  1  0  0  0  0
 28 31  1  0  0  0  0
 28 29  1  0  0  0  0
 29 30  1  0  0  0  0
 29 74  1  0  0  0  0
 30 77  1  0  0  0  0
 30 76  1  0  0  0  0
 31 80  1  0  0  0  0
 31 32  1  0  0  0  0
 32 83  1  0  0  0  0
 32 81  1  0  0  0  0
 33  9  2  0  0  0  0
 33 84  1  0  0  0  0
 34 33  1  0  0  0  0
 35  8  1  0  0  0  0
 35 34  2  0  0  0  0
 36 35  1  0  0  0  0
 37 36  2  0  0  0  0
 37 38  1  0  0  0  0
 38 39  2  0  0  0  0
 39 40  1  0  0  0  0
 39 34  1  0  0  0  0
 40 86  1  0  0  0  0
 41 40  1  0  0  0  0
 41 42  1  0  0  0  0
 42 87  1  0  0  0  0
 43 42  2  0  0  0  0
 43 44  1  0  0  0  0
 45 43  1  0  0  0  0
 46 45  1  0  0  0  0
 47 48  1  0  0  0  0
 47 45  2  0  0  0  0
 48 41  2  0  0  0  0
 49  1  1  0  0  0  0
 50  1  1  0  0  0  0
 52  2  1  0  0  0  0
 55  4  1  0  0  0  0
 56  5  1  0  0  0  0
 58  8  1  0  0  0  0
 60 13  1  0  0  0  0
 62 16  1  0  0  0  0
 63 16  1  0  0  0  0
 64 19  1  0  0  0  0
 66 21  1  0  0  0  0
 67 21  1  0  0  0  0
 69 25  1  0  0  0  0
 73 27  1  0  0  0  0
 75 29  1  0  0  0  0
 78 30  1  0  0  0  0
 79 31  1  0  0  0  0
 82 32  1  0  0  0  0
 85 37  1  0  0  0  0
 88 47  1  0  0  0  0
 89 48  1  0  0  0  0
M  END
