89
-1 1
C        -1.438378   -8.645986   -5.067512
C        -1.434251   -7.308933   -4.358597
O        -2.216469   -7.411457   -3.196431
C        -2.261501   -6.247083   -2.418272
C        -1.096267   -6.195104   -1.426967
O        -1.079592   -4.989957   -0.706212
C        -0.585602   -3.862737   -1.275326
C        -0.006047   -3.799990   -2.516171
C        -0.712920   -2.687538   -0.439764
N        -1.285400   -2.861601    0.778593
C        -1.570938   -1.914758    1.852199
O        -2.720959   -2.000037    2.306258
C        -0.487136   -1.141031    2.280681
C        -0.503166   -0.289703    3.479833
S        -0.729221    1.630010    3.187527
C         0.126739    1.810384    1.607904
C         1.619059    2.199392    1.653275
H         1.700019    3.185610    2.135412
N         2.165603    2.317715    0.320435
C         2.445638    3.526439   -0.241672
C         3.286562    3.471406   -1.500281
O         2.060881    4.580139    0.232693
C         2.504392    1.197187    2.406391
N         2.433452    1.269622    3.755850
C         3.101636    0.302355    4.590666
O         3.243034    0.428610    1.810464
C        -1.549056   -0.623957    4.541416
N        -1.486970    0.239084    5.705412
C        -0.255308    0.243945    6.462054
C         0.314989   -1.115643    6.883939
C        -2.720260    0.369295    6.445220
C        -3.197430   -0.865148    7.221173
C        -0.261768   -1.481318   -0.962266
C         0.299465   -1.397207   -2.259348
C         0.454741   -2.565358   -3.042296
N         0.999656   -2.549548   -4.291879
C         1.347185   -1.379114   -4.748537
N         1.201684   -0.187920   -4.134545
C         0.679824   -0.176401   -2.923609
N         0.461108    1.022682   -2.287443
C         0.447475    2.321759   -2.802866
C        -0.131124    3.316502   -1.998672
C        -0.155277    4.642162   -2.409032
Cl        -0.854731    5.860968   -1.393416
C         0.381549    4.995366   -3.645794
F         0.358020    6.265708   -4.052131
C         0.936665    4.018337   -4.457784
C         0.979661    2.688120   -4.048994
H        -0.846369   -8.594122   -5.992837
H        -2.466886   -8.939490   -5.323561
H        -1.010822   -9.425670   -4.420316
H        -1.838765   -6.517667   -5.021169
H        -0.393839   -7.013218   -4.117109
H        -3.208102   -6.253101   -1.857350
H        -2.260588   -5.340079   -3.050998
H        -0.133851   -6.362517   -1.940286
H        -1.212951   -6.995205   -0.683084
H         0.109375   -4.672955   -3.157105
H        -1.858120   -3.692528    0.863979
H         0.487892   -1.334035    1.825341
H         0.493137   -0.324227    3.938922
H        -0.393887    2.599320    1.047015
H         0.000453    0.849300    1.078000
H         2.674276    1.493292    0.012051
H         4.311213    3.784461   -1.248207
H         2.881938    4.188830   -2.225783
H         3.316636    2.472017   -1.955011
H         1.620293    1.762342    4.125693
H         4.078738    0.063774    4.150884
H         2.531408   -0.639146    4.679654
H         3.247827    0.719868    5.596457
H        -1.423889   -1.699628    4.785386
H        -2.546135   -0.549347    4.090405
H        -0.416834    0.865988    7.358046
H         0.520616    0.772915    5.878274
H        -0.387769   -1.680619    7.514147
H         1.248620   -0.976122    7.452213
H         0.549390   -1.739685    6.008096
H        -3.505984    0.659183    5.727734
H        -2.617937    1.218913    7.143651
H        -2.502756   -1.129233    8.033949
H        -3.289382   -1.736171    6.554358
H        -4.185246   -0.680726    7.673381
H        -0.384487   -0.605445   -0.325635
H         1.799853   -1.340617   -5.747059
H         0.133944    0.952413   -1.332831
H        -0.551165    3.062599   -1.025308
H         1.348568    4.316197   -5.423705
H         1.421751    1.919861   -4.676808
