-1 1
 OpenBabel05232413493D

 89 90  0  0  1  0  0  0  0  0999 V2000
    2.1870   -6.6121   -4.4810 C   0  0  0  0  0  0  0  0  0  0  0  0
    1.0873   -5.8761   -3.7473 C   0  0  0  0  0  0  0  0  0  0  0  0
    0.3742   -6.8009   -2.9590 O   0  0  0  0  0  0  0  0  0  0  0  0
   -0.6429   -6.2335   -2.1833 C   0  0  0  0  0  0  0  0  0  0  0  0
   -0.0745   -5.5923   -0.9173 C   0  0  0  0  0  0  0  0  0  0  0  0
   -1.0576   -4.8804   -0.1825 O   0  0  0  0  0  0  0  0  0  0  0  0
   -1.1481   -3.5454   -0.3869 C   0  0  0  0  0  0  0  0  0  0  0  0
   -0.8919   -2.9281   -1.5904 C   0  0  0  0  0  0  0  0  0  0  0  0
   -1.5299   -2.7711    0.7490 C   0  0  0  0  0  0  0  0  0  0  0  0
   -1.8802   -3.4469    1.9304 N   0  0  0  0  0  0  0  0  0  0  0  0
   -1.6307   -3.0538    3.2284 C   0  0  0  0  0  0  0  0  0  0  0  0
   -2.3095   -3.4744    4.1454 O   0  0  0  0  0  0  0  0  0  0  0  0
   -0.4244   -2.1934    3.4155 C   0  0  0  0  0  0  0  0  0  0  0  0
   -0.3938   -0.9383    3.8592 C   0  0  0  0  0  0  0  0  0  0  0  0
    2.8655   -0.3247    2.8944 S   0  0  0  0  0  1  0  0  0  0  0  0
    2.0064   -0.0814    1.2946 C   0  0  0  0  0  0  0  0  0  0  0  0
    2.6519   -0.8505    0.1227 C   0  0  2  0  0  0  0  0  0  0  0  0
    3.7443   -0.7222    0.2377 H   0  0  0  0  0  0  0  0  0  0  0  0
    2.2557   -0.3864   -1.1953 N   0  0  0  0  0  0  0  0  0  0  0  0
    2.5938    0.8197   -1.7025 C   0  0  0  0  0  0  0  0  0  0  0  0
    2.3625    1.0029   -3.1908 C   0  0  0  0  0  0  0  0  0  0  0  0
    3.0674    1.7272   -1.0325 O   0  0  0  0  0  0  0  0  0  0  0  0
    2.3530   -2.3597    0.1418 C   0  0  0  0  0  0  0  0  0  0  0  0
    2.4343   -2.9411    1.3429 N   0  0  0  0  0  0  0  0  0  0  0  0
    2.1057   -4.3260    1.5444 C   0  0  0  0  0  0  0  0  0  0  0  0
    2.0645   -2.9697   -0.8918 O   0  0  0  0  0  0  0  0  0  0  0  0
   -1.5828   -0.0825    4.1679 C   0  0  0  0  0  0  0  0  0  0  0  0
   -1.5803    1.1504    3.3777 N   0  0  0  0  0  0  0  0  0  0  0  0
   -0.3795    1.9870    3.5320 C   0  0  0  0  0  0  0  0  0  0  0  0
    0.1236    2.2557    4.9497 C   0  0  0  0  0  0  0  0  0  0  0  0
   -2.8545    1.8536    3.4240 C   0  0  0  0  0  0  0  0  0  0  0  0
   -3.3361    2.3912    4.7748 C   0  0  0  0  0  0  0  0  0  0  0  0
   -1.5556   -1.3961    0.6492 C   0  0  0  0  0  0  0  0  0  0  0  0
   -1.2117   -0.7504   -0.5564 C   0  0  0  0  0  0  0  0  0  0  0  0
   -0.9317   -1.5225   -1.7057 C   0  0  0  0  0  0  0  0  0  0  0  0
   -0.6991   -0.9511   -2.9243 N   0  0  0  0  0  0  0  0  0  0  0  0
   -0.7433    0.3546   -2.9496 C   0  0  0  0  0  0  0  0  0  0  0  0
   -0.9079    1.2014   -1.9202 N   0  0  0  0  0  0  0  0  0  0  0  0
   -1.1065    0.6755   -0.7224 C   0  0  0  0  0  0  0  0  0  0  0  0
   -1.2104    1.5120    0.3406 N   0  0  0  0  0  0  0  0  0  0  0  0
   -0.9603    2.9044    0.2227 C   0  0  0  0  0  0  0  0  0  0  0  0
    0.3330    3.3732   -0.0313 C   0  0  0  0  0  0  0  0  0  0  0  0
    0.5629    4.7416   -0.1135 C   0  0  0  0  0  0  0  0  0  0  0  0
    2.1540    5.3516   -0.4439 Cl  0  0  0  0  0  0  0  0  0  0  0  0
   -0.4897    5.6407    0.0716 C   0  0  0  0  0  0  0  0  0  0  0  0
   -0.2662    6.9518    0.0030 F   0  0  0  0  0  0  0  0  0  0  0  0
   -1.7742    5.1816    0.3192 C   0  0  0  0  0  0  0  0  0  0  0  0
   -2.0090    3.8099    0.3806 C   0  0  0  0  0  0  0  0  0  0  0  0
    2.7511   -5.9190   -5.1218 H   0  0  0  0  0  0  0  0  0  0  0  0
    1.7653   -7.4106   -5.1093 H   0  0  0  0  0  0  0  0  0  0  0  0
    2.8845   -7.0697   -3.7645 H   0  0  0  0  0  0  0  0  0  0  0  0
    0.3984   -5.3903   -4.4687 H   0  0  0  0  0  0  0  0  0  0  0  0
    1.5209   -5.0680   -3.1285 H   0  0  0  0  0  0  0  0  0  0  0  0
   -1.3406   -7.0407   -1.9116 H   0  0  0  0  0  0  0  0  0  0  0  0
   -1.2204   -5.4894   -2.7649 H   0  0  0  0  0  0  0  0  0  0  0  0
    0.7661   -4.9154   -1.1425 H   0  0  0  0  0  0  0  0  0  0  0  0
    0.3000   -6.3833   -0.2509 H   0  0  0  0  0  0  0  0  0  0  0  0
   -0.6047   -3.4844   -2.4797 H   0  0  0  0  0  0  0  0  0  0  0  0
   -2.5193   -4.2299    1.8432 H   0  0  0  0  0  0  0  0  0  0  0  0
    0.5299   -2.6533    3.1377 H   0  0  0  0  0  0  0  0  0  0  0  0
    0.6109   -0.4908    3.9274 H   0  0  0  0  0  0  0  0  0  0  0  0
    2.0505    0.9814    1.0268 H   0  0  0  0  0  0  0  0  0  0  0  0
    0.9417   -0.3710    1.3643 H   0  0  0  0  0  0  0  0  0  0  0  0
    1.9454   -1.1328   -1.8137 H   0  0  0  0  0  0  0  0  0  0  0  0
    1.9407    0.1178   -3.6846 H   0  0  0  0  0  0  0  0  0  0  0  0
    3.3271    1.2609   -3.6513 H   0  0  0  0  0  0  0  0  0  0  0  0
    1.6867    1.8576   -3.3316 H   0  0  0  0  0  0  0  0  0  0  0  0
    2.6572   -2.3069    2.1449 H   0  0  0  0  0  0  0  0  0  0  0  0
    2.5754   -4.9571    0.7740 H   0  0  0  0  0  0  0  0  0  0  0  0
    1.0155   -4.5027    1.5054 H   0  0  0  0  0  0  0  0  0  0  0  0
    2.4706   -4.6403    2.5318 H   0  0  0  0  0  0  0  0  0  0  0  0
   -1.5919    0.1272    5.2584 H   0  0  0  0  0  0  0  0  0  0  0  0
   -2.5198   -0.6246    3.9573 H   0  0  0  0  0  0  0  0  0  0  0  0
   -0.5919    2.9424    3.0264 H   0  0  0  0  0  0  0  0  0  0  0  0
    0.4483    1.5202    2.9730 H   0  0  0  0  0  0  0  0  0  0  0  0
   -0.6315    2.7320    5.5923 H   0  0  0  0  0  0  0  0  0  0  0  0
    0.9985    2.9193    4.8935 H   0  0  0  0  0  0  0  0  0  0  0  0
    0.4639    1.3310    5.4377 H   0  0  0  0  0  0  0  0  0  0  0  0
   -3.6208    1.1656    3.0244 H   0  0  0  0  0  0  0  0  0  0  0  0
   -2.7948    2.6917    2.7127 H   0  0  0  0  0  0  0  0  0  0  0  0
   -2.6818    3.1898    5.1523 H   0  0  0  0  0  0  0  0  0  0  0  0
   -3.3848    1.5998    5.5379 H   0  0  0  0  0  0  0  0  0  0  0  0
   -4.3480    2.8120    4.6677 H   0  0  0  0  0  0  0  0  0  0  0  0
   -1.8381   -0.8086    1.5222 H   0  0  0  0  0  0  0  0  0  0  0  0
   -0.6085    0.8333   -3.9277 H   0  0  0  0  0  0  0  0  0  0  0  0
   -1.3141    1.1409    1.2940 H   0  0  0  0  0  0  0  0  0  0  0  0
    1.1680    2.6827   -0.1786 H   0  0  0  0  0  0  0  0  0  0  0  0
   -2.5779    5.9083    0.4467 H   0  0  0  0  0  0  0  0  0  0  0  0
   -3.0188    3.4301    0.5426 H   0  0  0  0  0  0  0  0  0  0  0  0
  1 51  1  0  0  0  0
  1  2  1  0  0  0  0
  2 53  1  0  0  0  0
  2  3  1  0  0  0  0
  3  4  1  0  0  0  0
  4 54  1  0  0  0  0
  4  5  1  0  0  0  0
  5 57  1  0  0  0  0
  5  6  1  0  0  0  0
  7  6  1  0  0  0  0
  7  9  1  0  0  0  0
  8  7  2  0  0  0  0
  9 10  1  0  0  0  0
 10 11  1  0  0  0  0
 11 13  1  0  0  0  0
 11 12  2  0  0  0  0
 13 14  2  0  0  0  0
 14 61  1  0  0  0  0
 14 27  1  0  0  0  0
 16 63  1  0  0  0  0
 16 15  1  0  0  0  0
 17 23  1  0  0  0  0
 17 18  1  1  0  0  0
 17 16  1  0  0  0  0
 19 17  1  0  0  0  0
 20 19  1  0  0  0  0
 20 22  2  0  0  0  0
 21 20  1  0  0  0  0
 23 24  1  0  0  0  0
 24 25  1  0  0  0  0
 24 68  1  0  0  0  0
 25 71  1  0  0  0  0
 26 23  2  0  0  0  0
 27 72  1  0  0  0  0
 28 31  1  0  0  0  0
 28 29  1  0  0  0  0
 28 27  1  0  0  0  0
 29 30  1  0  0  0  0
 30 78  1  0  0  0  0
 30 76  1  0  0  0  0
 31 32  1  0  0  0  0
 32 81  1  0  0  0  0
 32 82  1  0  0  0  0
 33  9  2  0  0  0  0
 33 84  1  0  0  0  0
 34 33  1  0  0  0  0
 35  8  1  0  0  0  0
 35 34  2  0  0  0  0
 36 35  1  0  0  0  0
 37 36  2  0  0  0  0
 37 38  1  0  0  0  0
 38 39  2  0  0  0  0
 39 34  1  0  0  0  0
 39 40  1  0  0  0  0
 40 86  1  0  0  0  0
 41 40  1  0  0  0  0
 41 48  1  0  0  0  0
 42 41  2  0  0  0  0
 43 42  1  0  0  0  0
 43 45  2  0  0  0  0
 44 43  1  0  0  0  0
 45 47  1  0  0  0  0
 46 45  1  0  0  0  0
 47 48  2  0  0  0  0
 47 88  1  0  0  0  0
 48 89  1  0  0  0  0
 49  1  1  0  0  0  0
 50  1  1  0  0  0  0
 52  2  1  0  0  0  0
 55  4  1  0  0  0  0
 56  5  1  0  0  0  0
 58  8  1  0  0  0  0
 59 10  1  0  0  0  0
 60 13  1  0  0  0  0
 62 16  1  0  0  0  0
 64 19  1  0  0  0  0
 65 21  1  0  0  0  0
 66 21  1  0  0  0  0
 67 21  1  0  0  0  0
 69 25  1  0  0  0  0
 70 25  1  0  0  0  0
 73 27  1  0  0  0  0
 74 29  1  0  0  0  0
 75 29  1  0  0  0  0
 77 30  1  0  0  0  0
 79 31  1  0  0  0  0
 80 31  1  0  0  0  0
 83 32  1  0  0  0  0
 85 37  1  0  0  0  0
 87 42  1  0  0  0  0
M  END
