79
-1 1
O         7.832285    3.501262   -8.010649
C         7.855044    3.518999   -9.263578
N         7.316674    2.401845   -9.915891
C         7.331747    2.209918  -11.349049
C         7.424672    0.723651  -11.706341
N         6.436732   -0.085760  -11.016361
C         6.644965    0.054365   -9.577385
C         6.454222    1.504912   -9.156408
C         5.142378   -0.183436  -11.507862
C         4.158931   -0.902433  -10.795923
C         2.839111   -0.986040  -11.221542
C         1.881679   -1.768589  -10.405425
C         1.267048   -1.450159   -9.230780
C         0.417526   -2.653594   -8.843854
N         0.631983   -3.604209   -9.820029
C         1.524360   -3.158475  -10.796678
O         1.914084   -3.815226  -11.727150
O        -0.315971   -2.797750   -7.898471
C         1.333221   -0.222533   -8.473525
C         1.860883    0.951175   -9.009146
N         1.849479    1.938013   -8.096460
H         2.221779    2.889450   -8.234531
C         0.978561    0.100967   -7.096331
C         1.331046    1.463227   -6.915099
C         1.163693    2.144457   -5.705338
C         0.632128    1.434407   -4.640100
C         0.276864    0.079999   -4.788683
C         0.440343   -0.589043   -5.994203
C         2.455967   -0.341350  -12.411678
C         1.014524   -0.253856  -12.821178
F         0.291746    0.460343  -11.939022
F         0.866512    0.352133  -14.009740
F         0.409758   -1.445303  -12.922778
C         3.430494    0.316311  -13.157310
C         4.747452    0.390011  -12.730883
C         8.408861    4.637136   -9.978820
C         8.054949    5.209662  -11.218874
S         6.368900    6.686285  -11.144203
C         5.686187    6.121974   -9.571135
C         4.892853    4.809945   -9.672627
H         5.599368    4.008590   -9.926641
N         3.899107    4.870715  -10.713895
C         3.354056    3.739795  -11.198140
C         2.478728    3.870503  -12.423723
O         3.571327    2.645222  -10.687946
C         4.261984    4.427683   -8.327955
N         5.135322    4.053549   -7.382902
C         4.682343    3.602077   -6.090767
O         3.045534    4.462613   -8.133327
H         8.213773    2.717848  -11.758235
H         6.429838    2.646262  -11.823207
H         8.417187    0.349024  -11.405929
H         7.351743    0.583477  -12.792744
H         7.670463   -0.279381   -9.349302
H         5.962859   -0.590049   -9.012288
H         6.703324    1.635154   -8.097625
H         5.391561    1.773788   -9.310713
H         4.417159   -1.415260   -9.870471
H         0.207101   -4.521111   -9.813501
H         2.261740    1.154206   -9.998916
H         1.450268    3.194737   -5.624359
H         0.486493    1.930187   -3.677255
H        -0.143377   -0.458001   -3.935232
H         0.140809   -1.629842   -6.097962
H         3.146526    0.814187  -14.085128
H         5.452419    0.957669  -13.335442
H         8.982294    5.274269   -9.298914
H         7.604444    4.605445  -12.004944
H         8.750396    5.952326  -11.617350
H         5.053425    6.916775   -9.145996
H         6.522421    5.947869   -8.874822
H         3.899450    5.714181  -11.279019
H         3.049427    3.518771  -13.296305
H         2.144791    4.900427  -12.607924
H         1.609271    3.210106  -12.308724
H         6.141599    3.954544   -7.599076
H         4.095334    2.671298   -6.164328
H         4.046031    4.358639   -5.606015
H         5.559247    3.414626   -5.458260
