-1 1
 OpenBabel05192410563D

 79 83  0  0  1  0  0  0  0  0999 V2000
    4.2895    2.0929    1.8805 O   0  0  0  0  0  0  0  0  0  0  0  0
    4.2897    2.1308    0.6146 C   0  0  0  0  0  0  0  0  0  0  0  0
    3.7449    0.9866   -0.0236 N   0  0  0  0  0  0  0  0  0  0  0  0
    3.8120    0.7457   -1.4439 C   0  0  0  0  0  0  0  0  0  0  0  0
    3.9291   -0.7506   -1.7497 C   0  0  0  0  0  0  0  0  0  0  0  0
    2.9200   -1.5416   -1.0662 N   0  0  0  0  0  0  0  0  0  0  0  0
    3.0830   -1.3540    0.3752 C   0  0  0  0  0  0  0  0  0  0  0  0
    2.8733    0.1095    0.7415 C   0  0  0  0  0  0  0  0  0  0  0  0
    1.6412   -1.6418   -1.5919 C   0  0  0  0  0  0  0  0  0  0  0  0
    0.6319   -2.3397   -0.8940 C   0  0  0  0  0  0  0  0  0  0  0  0
   -0.6781   -2.4126   -1.3500 C   0  0  0  0  0  0  0  0  0  0  0  0
   -1.6648   -3.1705   -0.5464 C   0  0  0  0  0  0  0  0  0  0  0  0
   -2.2851   -2.8340    0.6193 C   0  0  0  0  0  0  0  0  0  0  0  0
   -3.1719   -4.0123    0.9980 C   0  0  0  0  0  0  0  0  0  0  0  0
   -2.9687   -4.9721    0.0283 N   0  0  0  0  0  0  0  0  0  0  0  0
   -2.0518   -4.5534   -0.9376 C   0  0  0  0  0  0  0  0  0  0  0  0
   -1.6655   -5.2240   -1.8593 O   0  0  0  0  0  0  0  0  0  0  0  0
   -3.9234   -4.1327    1.9326 O   0  0  0  0  0  0  0  0  0  0  0  0
   -2.1954   -1.6059    1.3746 C   0  0  0  0  0  0  0  0  0  0  0  0
   -1.6445   -0.4418    0.8416 C   0  0  0  0  0  0  0  0  0  0  0  0
   -1.6385    0.5429    1.7578 N   0  0  0  0  0  0  0  0  0  0  0  0
   -1.2534    1.4901    1.6280 H   0  0  0  0  0  0  0  0  0  0  0  0
   -2.5442   -1.2795    2.7521 C   0  0  0  0  0  0  0  0  0  0  0  0
   -2.1655    0.0748    2.9375 C   0  0  0  0  0  0  0  0  0  0  0  0
   -2.3181    0.7556    4.1497 C   0  0  0  0  0  0  0  0  0  0  0  0
   -2.8627    0.0525    5.2128 C   0  0  0  0  0  0  0  0  0  0  0  0
   -3.2446   -1.2945    5.0601 C   0  0  0  0  0  0  0  0  0  0  0  0
   -3.0949   -1.9627    3.8525 C   0  0  0  0  0  0  0  0  0  0  0  0
   -1.0268   -1.7777   -2.5562 C   0  0  0  0  0  0  0  0  0  0  0  0
   -2.4582   -1.6639   -2.9913 C   0  0  0  0  0  0  0  0  0  0  0  0
   -3.1824   -0.9283   -2.1262 F   0  0  0  0  0  0  0  0  0  0  0  0
   -2.5745   -1.0638   -4.1864 F   0  0  0  0  0  0  0  0  0  0  0  0
   -3.0878   -2.8426   -3.0944 F   0  0  0  0  0  0  0  0  0  0  0  0
   -0.0249   -1.1484   -3.2906 C   0  0  0  0  0  0  0  0  0  0  0  0
    1.2831   -1.0896   -2.8367 C   0  0  0  0  0  0  0  0  0  0  0  0
    4.7900    3.2289   -0.1152 C   0  0  0  0  0  3  0  0  0  0  0  0
    4.3419    3.7916   -1.3890 C   0  0  0  0  0  0  0  0  0  0  0  0
    2.9862    5.2065   -1.2581 S   0  0  0  0  0  0  0  0  0  0  0  0
    2.1693    4.7104    0.2749 C   0  0  0  0  0  0  0  0  0  0  0  0
    1.3604    3.4133    0.1862 C   0  0  2  0  0  0  0  0  0  0  0  0
    2.0435    2.6011   -0.0952 H   0  0  0  0  0  0  0  0  0  0  0  0
    0.3302    3.4828   -0.8174 N   0  0  0  0  0  0  0  0  0  0  0  0
   -0.2361    2.3630   -1.3073 C   0  0  0  0  0  0  0  0  0  0  0  0
   -1.2683    2.5315   -2.3987 C   0  0  0  0  0  0  0  0  0  0  0  0
    0.0770    1.2497   -0.9028 O   0  0  0  0  0  0  0  0  0  0  0  0
    0.7709    3.0351    1.5560 C   0  0  0  0  0  0  0  0  0  0  0  0
    1.6641    2.6808    2.4835 N   0  0  0  0  0  0  0  0  0  0  0  0
    1.2344    2.2206    3.7808 C   0  0  0  0  0  0  0  0  0  0  0  0
   -0.4460    3.0588    1.7639 O   0  0  0  0  0  0  0  0  0  0  0  0
    4.7047    1.2511   -1.8369 H   0  0  0  0  0  0  0  0  0  0  0  0
    2.9254    1.1513   -1.9742 H   0  0  0  0  0  0  0  0  0  0  0  0
    4.9115   -1.1092   -1.4013 H   0  0  0  0  0  0  0  0  0  0  0  0
    3.8928   -0.9305   -2.8326 H   0  0  0  0  0  0  0  0  0  0  0  0
    4.1032   -1.6733    0.6432 H   0  0  0  0  0  0  0  0  0  0  0  0
    2.3869   -1.9859    0.9382 H   0  0  0  0  0  0  0  0  0  0  0  0
    3.1045    0.2744    1.7999 H   0  0  0  0  0  0  0  0  0  0  0  0
    1.8086    0.3572    0.5615 H   0  0  0  0  0  0  0  0  0  0  0  0
    0.8628   -2.8403    0.0454 H   0  0  0  0  0  0  0  0  0  0  0  0
   -3.4168   -5.8778    0.0324 H   0  0  0  0  0  0  0  0  0  0  0  0
   -1.2394   -0.2461   -0.1485 H   0  0  0  0  0  0  0  0  0  0  0  0
   -2.0093    1.7993    4.2334 H   0  0  0  0  0  0  0  0  0  0  0  0
   -2.9972    0.5474    6.1777 H   0  0  0  0  0  0  0  0  0  0  0  0
   -3.6743   -1.8270    5.9123 H   0  0  0  0  0  0  0  0  0  0  0  0
   -3.4149   -2.9971    3.7458 H   0  0  0  0  0  0  0  0  0  0  0  0
   -0.2791   -0.6599   -4.2320 H   0  0  0  0  0  0  0  0  0  0  0  0
    2.0104   -0.5428   -3.4336 H   0  0  0  0  0  0  0  0  0  0  0  0
    5.3356    3.9213    0.5341 H   0  0  0  0  0  0  0  0  0  0  0  0
    3.8827    3.0893   -2.0897 H   0  0  0  0  0  0  0  0  0  0  0  0
    5.1212    4.3542   -1.9244 H   0  0  0  0  0  0  0  0  0  0  0  0
    1.5245    5.5474    0.5878 H   0  0  0  0  0  0  0  0  0  0  0  0
    2.9464    4.5717    1.0397 H   0  0  0  0  0  0  0  0  0  0  0  0
    0.0863    4.3862   -1.1988 H   0  0  0  0  0  0  0  0  0  0  0  0
   -0.8668    2.0916   -3.3230 H   0  0  0  0  0  0  0  0  0  0  0  0
   -1.5453    3.5776   -2.5873 H   0  0  0  0  0  0  0  0  0  0  0  0
   -2.1623    1.9547   -2.1259 H   0  0  0  0  0  0  0  0  0  0  0  0
    2.6776    2.5649    2.2522 H   0  0  0  0  0  0  0  0  0  0  0  0
    0.6275    1.3026    3.7082 H   0  0  0  0  0  0  0  0  0  0  0  0
    0.6261    2.9812    4.2951 H   0  0  0  0  0  0  0  0  0  0  0  0
    2.1251    2.0061    4.3848 H   0  0  0  0  0  0  0  0  0  0  0  0
  2  1  2  0  0  0  0
  3  2  1  0  0  0  0
  3  8  1  0  0  0  0
  4  3  1  0  0  0  0
  5  4  1  0  0  0  0
  5 52  1  0  0  0  0
  5  6  1  0  0  0  0
  6  7  1  0  0  0  0
  7 54  1  0  0  0  0
  7  8  1  0  0  0  0
  7 55  1  0  0  0  0
  8 56  1  0  0  0  0
  9  6  1  0  0  0  0
  9 10  1  0  0  0  0
 10 58  1  0  0  0  0
 11 10  2  0  0  0  0
 11 12  1  0  0  0  0
 12 13  2  0  0  0  0
 13 14  1  0  0  0  0
 13 19  1  0  0  0  0
 14 18  2  0  0  0  0
 15 59  1  0  0  0  0
 15 14  1  0  0  0  0
 16 12  1  0  0  0  0
 16 15  1  0  0  0  0
 17 16  2  0  0  0  0
 19 23  1  0  0  0  0
 20 19  2  0  0  0  0
 20 21  1  0  0  0  0
 21 24  1  0  0  0  0
 22 21  1  0  0  0  0
 23 24  2  0  0  0  0
 23 28  1  0  0  0  0
 24 25  1  0  0  0  0
 25 61  1  0  0  0  0
 25 26  2  0  0  0  0
 26 62  1  0  0  0  0
 27 26  1  0  0  0  0
 27 63  1  0  0  0  0
 28 27  2  0  0  0  0
 29 11  1  0  0  0  0
 30 29  1  0  0  0  0
 30 31  1  0  0  0  0
 32 30  1  0  0  0  0
 33 30  1  0  0  0  0
 34 35  1  0  0  0  0
 34 29  2  0  0  0  0
 35  9  2  0  0  0  0
 36 67  1  0  0  0  0
 36  2  1  0  0  0  0
 37 38  1  0  0  0  0
 37 36  1  0  0  0  0
 38 39  1  0  0  0  0
 39 70  1  0  0  0  0
 39 71  1  0  0  0  0
 40 41  1  6  0  0  0
 40 39  1  0  0  0  0
 40 46  1  0  0  0  0
 42 40  1  0  0  0  0
 43 45  2  0  0  0  0
 43 42  1  0  0  0  0
 44 75  1  0  0  0  0
 44 43  1  0  0  0  0
 46 49  2  0  0  0  0
 46 47  1  0  0  0  0
 47 48  1  0  0  0  0
 48 78  1  0  0  0  0
 48 79  1  0  0  0  0
 50  4  1  0  0  0  0
 51  4  1  0  0  0  0
 53  5  1  0  0  0  0
 57  8  1  0  0  0  0
 60 20  1  0  0  0  0
 64 28  1  0  0  0  0
 65 34  1  0  0  0  0
 66 35  1  0  0  0  0
 68 37  1  0  0  0  0
 69 37  1  0  0  0  0
 72 42  1  0  0  0  0
 73 44  1  0  0  0  0
 74 44  1  0  0  0  0
 76 47  1  0  0  0  0
 77 48  1  0  0  0  0
M  END
