-1 1
 OpenBabel05232413493D

 79 82  0  0  1  0  0  0  0  0999 V2000
    5.0743    1.4590    3.0721 O   0  0  0  0  0  0  0  0  0  0  0  0
    3.9785    1.9576    3.3283 C   0  0  0  0  0  0  0  0  0  0  0  0
    3.0093    2.0833    2.3819 N   0  0  0  0  0  0  0  0  0  0  0  0
    1.6361    2.4776    2.6895 C   0  0  0  0  0  0  0  0  0  0  0  0
    0.9403    3.0552    1.4644 C   0  0  0  0  0  0  0  0  0  0  0  0
    1.0737    2.2431    0.2748 N   0  0  0  0  0  0  0  0  0  0  0  0
    2.4775    2.0430   -0.0442 C   0  0  0  0  0  0  0  0  0  0  0  0
    3.2452    1.4009    1.1074 C   0  0  0  0  0  0  0  0  0  0  0  0
    0.1388    1.2362   -0.0006 C   0  0  0  0  0  0  0  0  0  0  0  0
    0.0041    0.7596   -1.3158 C   0  0  0  0  0  0  0  0  0  0  0  0
   -0.9680   -0.1810   -1.6589 C   0  0  0  0  0  0  0  0  0  0  0  0
   -1.0932   -0.5713   -3.0760 C   0  0  0  0  0  0  0  0  0  0  0  0
   -2.1179   -0.3606   -3.9383 C   0  0  0  0  0  0  0  0  0  0  0  0
   -1.7359   -0.9693   -5.2698 C   0  0  0  0  0  0  0  0  0  0  0  0
   -0.4716   -1.5022   -5.0939 N   0  0  0  0  0  0  0  0  0  0  0  0
    0.0022   -1.2994   -3.7987 C   0  0  0  0  0  0  0  0  0  0  0  0
    1.0728   -1.6538   -3.3841 O   0  0  0  0  0  0  0  0  0  0  0  0
   -2.3633   -0.9995   -6.2985 O   0  0  0  0  0  0  0  0  0  0  0  0
   -3.3463    0.3814   -3.6976 C   0  0  0  0  0  0  0  0  0  0  0  0
   -3.4585    1.3669   -2.7361 C   0  0  0  0  0  0  0  0  0  0  0  0
   -4.7336    1.8430   -2.6999 N   0  0  0  0  0  0  0  0  0  0  0  0
   -5.0640    2.5583   -2.0692 H   0  0  0  0  0  0  0  0  0  0  0  0
   -4.6647    0.2473   -4.2913 C   0  0  0  0  0  0  0  0  0  0  0  0
   -5.5025    1.1771   -3.6276 C   0  0  0  0  0  0  0  0  0  0  0  0
   -6.8632    1.3163   -3.9233 C   0  0  0  0  0  0  0  0  0  0  0  0
   -7.3906    0.4947   -4.9068 C   0  0  0  0  0  0  0  0  0  0  0  0
   -6.5793   -0.4408   -5.5787 C   0  0  0  0  0  0  0  0  0  0  0  0
   -5.2309   -0.5720   -5.2846 C   0  0  0  0  0  0  0  0  0  0  0  0
   -1.8379   -0.7074   -0.6826 C   0  0  0  0  0  0  0  0  0  0  0  0
   -2.8621   -1.7603   -1.0129 C   0  0  0  0  0  0  0  0  0  0  0  0
   -1.6860   -0.2363    0.6211 C   0  0  0  0  0  0  0  0  0  0  0  0
   -0.7259    0.7098    0.9703 C   0  0  0  0  0  0  0  0  0  0  0  0
    3.7516    2.4178    4.7371 C   0  0  0  0  0  0  0  0  0  0  0  0
    2.7160    2.1369    5.5327 C   0  0  0  0  0  0  0  0  0  0  0  0
   -0.2717   -0.0639    4.6123 S   0  0  0  0  0  1  0  0  0  0  0  0
    1.2377   -1.0711    4.8453 C   0  0  0  0  0  0  0  0  0  0  0  0
    2.0907   -1.2239    3.5759 C   0  0  2  0  0  0  0  0  0  0  0  0
    2.4631   -0.2285    3.2832 H   0  0  0  0  0  0  0  0  0  0  0  0
    1.2766   -1.7751    2.5206 N   0  0  0  0  0  0  0  0  0  0  0  0
    1.7781   -2.0886    1.3102 C   0  0  0  0  0  0  0  0  0  0  0  0
    0.8151   -2.7023    0.3168 C   0  0  0  0  0  0  0  0  0  0  0  0
    2.9573   -1.9156    1.0221 O   0  0  0  0  0  0  0  0  0  0  0  0
    3.2930   -2.1313    3.8662 C   0  0  0  0  0  0  0  0  0  0  0  0
    4.4860   -1.4850    3.9272 N   0  0  0  0  0  0  0  0  0  0  0  0
    5.7049   -2.2085    4.1673 C   0  0  0  0  0  0  0  0  0  0  0  0
    3.1652   -3.3171    4.1150 O   0  0  0  0  0  0  0  0  0  0  0  0
    1.6524    3.2430    3.4749 H   0  0  0  0  0  0  0  0  0  0  0  0
    1.0633    1.6192    3.0923 H   0  0  0  0  0  0  0  0  0  0  0  0
    1.3726    4.0466    1.2314 H   0  0  0  0  0  0  0  0  0  0  0  0
   -0.1230    3.2089    1.6958 H   0  0  0  0  0  0  0  0  0  0  0  0
    2.9195    3.0253   -0.2924 H   0  0  0  0  0  0  0  0  0  0  0  0
    2.5805    1.4004   -0.9287 H   0  0  0  0  0  0  0  0  0  0  0  0
    4.3238    1.4285    0.9106 H   0  0  0  0  0  0  0  0  0  0  0  0
    2.9765    0.3333    1.1900 H   0  0  0  0  0  0  0  0  0  0  0  0
    0.6510    1.1619   -2.0985 H   0  0  0  0  0  0  0  0  0  0  0  0
    0.0454   -1.9795   -5.8202 H   0  0  0  0  0  0  0  0  0  0  0  0
   -2.6939    1.7544   -2.0661 H   0  0  0  0  0  0  0  0  0  0  0  0
   -7.4847    2.0419   -3.3942 H   0  0  0  0  0  0  0  0  0  0  0  0
   -8.4494    0.5737   -5.1636 H   0  0  0  0  0  0  0  0  0  0  0  0
   -7.0223   -1.0729   -6.3514 H   0  0  0  0  0  0  0  0  0  0  0  0
   -4.6060   -1.2799   -5.8272 H   0  0  0  0  0  0  0  0  0  0  0  0
   -2.4184   -2.5871   -1.5891 H   0  0  0  0  0  0  0  0  0  0  0  0
   -3.6899   -1.3534   -1.6169 H   0  0  0  0  0  0  0  0  0  0  0  0
   -3.2918   -2.1826   -0.0938 H   0  0  0  0  0  0  0  0  0  0  0  0
   -2.3066   -0.6488    1.4219 H   0  0  0  0  0  0  0  0  0  0  0  0
   -0.6252    0.9591    2.0302 H   0  0  0  0  0  0  0  0  0  0  0  0
    4.6522    2.8806    5.1540 H   0  0  0  0  0  0  0  0  0  0  0  0
    1.8029    1.6192    5.2057 H   0  0  0  0  0  0  0  0  0  0  0  0
    2.7620    2.4120    6.5906 H   0  0  0  0  0  0  0  0  0  0  0  0
    0.9784   -2.0856    5.1874 H   0  0  0  0  0  0  0  0  0  0  0  0
    1.8919   -0.6338    5.6184 H   0  0  0  0  0  0  0  0  0  0  0  0
    0.2736   -1.7194    2.6895 H   0  0  0  0  0  0  0  0  0  0  0  0
    0.8545   -2.1281   -0.6195 H   0  0  0  0  0  0  0  0  0  0  0  0
   -0.2190   -2.7470    0.6820 H   0  0  0  0  0  0  0  0  0  0  0  0
    1.1663   -3.7206    0.0950 H   0  0  0  0  0  0  0  0  0  0  0  0
    4.5722   -0.5589    3.5176 H   0  0  0  0  0  0  0  0  0  0  0  0
    6.0967   -2.6839    3.2502 H   0  0  0  0  0  0  0  0  0  0  0  0
    5.5152   -3.0054    4.8993 H   0  0  0  0  0  0  0  0  0  0  0  0
    6.4691   -1.5232    4.5612 H   0  0  0  0  0  0  0  0  0  0  0  0
  1  2  2  0  0  0  0
  2 33  1  0  0  0  0
  3  4  1  0  0  0  0
  3  2  1  0  0  0  0
  4 48  1  0  0  0  0
  4 47  1  0  0  0  0
  5 50  1  0  0  0  0
  5  4  1  0  0  0  0
  6  5  1  0  0  0  0
  7  6  1  0  0  0  0
  7  8  1  0  0  0  0
  8 54  1  0  0  0  0
  8  3  1  0  0  0  0
  9  6  1  0  0  0  0
  9 32  1  0  0  0  0
 10  9  2  0  0  0  0
 11 10  1  0  0  0  0
 11 29  2  0  0  0  0
 12 11  1  0  0  0  0
 13 19  1  0  0  0  0
 13 12  2  0  0  0  0
 14 15  1  0  0  0  0
 14 13  1  0  0  0  0
 15 16  1  0  0  0  0
 16 17  2  0  0  0  0
 16 12  1  0  0  0  0
 18 14  2  0  0  0  0
 19 20  2  0  0  0  0
 20 21  1  0  0  0  0
 20 57  1  0  0  0  0
 21 22  1  0  0  0  0
 23 19  1  0  0  0  0
 23 24  1  0  0  0  0
 24 21  1  0  0  0  0
 25 24  2  0  0  0  0
 25 58  1  0  0  0  0
 26 25  1  0  0  0  0
 27 28  1  0  0  0  0
 27 26  2  0  0  0  0
 28 23  2  0  0  0  0
 29 31  1  0  0  0  0
 30 29  1  0  0  0  0
 30 64  1  0  0  0  0
 31 32  2  0  0  0  0
 31 65  1  0  0  0  0
 32 66  1  0  0  0  0
 33 67  1  0  0  0  0
 33 34  2  0  0  0  0
 34 69  1  0  0  0  0
 35 36  1  0  0  0  0
 36 70  1  0  0  0  0
 36 71  1  0  0  0  0
 37 38  1  6  0  0  0
 37 43  1  0  0  0  0
 37 36  1  0  0  0  0
 39 72  1  0  0  0  0
 39 37  1  0  0  0  0
 40 39  1  0  0  0  0
 41 74  1  0  0  0  0
 41 40  1  0  0  0  0
 42 40  2  0  0  0  0
 43 44  1  0  0  0  0
 43 46  2  0  0  0  0
 44 45  1  0  0  0  0
 45 79  1  0  0  0  0
 45 78  1  0  0  0  0
 49  5  1  0  0  0  0
 51  7  1  0  0  0  0
 52  7  1  0  0  0  0
 53  8  1  0  0  0  0
 55 10  1  0  0  0  0
 56 15  1  0  0  0  0
 59 26  1  0  0  0  0
 60 27  1  0  0  0  0
 61 28  1  0  0  0  0
 62 30  1  0  0  0  0
 63 30  1  0  0  0  0
 68 34  1  0  0  0  0
 73 41  1  0  0  0  0
 75 41  1  0  0  0  0
 76 44  1  0  0  0  0
 77 45  1  0  0  0  0
M  END
