-1 1
 OpenBabel05232413493D

 82 85  0  0  1  0  0  0  0  0999 V2000
    0.4468    5.2197   -5.3520 O   0  0  0  0  0  0  0  0  0  0  0  0
   -0.5083    4.9138   -4.6488 C   0  0  0  0  0  0  0  0  0  0  0  0
   -0.5173    3.8020   -3.8524 N   0  0  0  0  0  0  0  0  0  0  0  0
    0.7674    3.1814   -3.5705 C   0  0  1  0  0  0  0  0  0  0  0  0
    1.2203    3.3914   -2.1123 C   0  0  0  0  0  0  0  0  0  0  0  0
    0.6974    2.1775   -1.3528 C   0  0  0  0  0  0  0  0  0  0  0  0
    0.5865    1.1407   -2.3752 N   0  0  0  0  0  0  0  0  0  0  0  0
    0.7706    1.6516   -3.7213 C   0  0  0  0  0  0  0  0  0  0  0  0
    0.4338   -0.1736   -2.0803 C   0  0  0  0  0  0  0  0  0  0  0  0
    0.1669   -0.5805   -0.7518 C   0  0  0  0  0  0  0  0  0  0  0  0
    0.0708   -1.9189   -0.3978 C   0  0  0  0  0  0  0  0  0  0  0  0
   -0.2215   -2.2305    1.0185 C   0  0  0  0  0  0  0  0  0  0  0  0
    0.6168   -2.3492    2.0714 C   0  0  0  0  0  0  0  0  0  0  0  0
   -0.2480   -2.5499    3.3018 C   0  0  0  0  0  0  0  0  0  0  0  0
   -1.5412   -2.6988    2.8458 N   0  0  0  0  0  0  0  0  0  0  0  0
   -1.6303   -2.4275    1.4870 C   0  0  0  0  0  0  0  0  0  0  0  0
   -2.6433   -2.3931    0.8403 O   0  0  0  0  0  0  0  0  0  0  0  0
    0.0890   -2.5642    4.4587 O   0  0  0  0  0  0  0  0  0  0  0  0
    2.0693   -2.2533    2.0984 C   0  0  0  0  0  0  0  0  0  0  0  0
    2.8209   -1.6453    1.1112 C   0  0  0  0  0  0  0  0  0  0  0  0
    4.1488   -1.7603    1.3906 N   0  0  0  0  0  0  0  0  0  0  0  0
    4.8927   -1.3829    0.8232 H   0  0  0  0  0  0  0  0  0  0  0  0
    3.0273   -2.7863    3.0550 C   0  0  0  0  0  0  0  0  0  0  0  0
    4.3148   -2.4571    2.5648 C   0  0  0  0  0  0  0  0  0  0  0  0
    5.4959   -2.8245    3.2195 C   0  0  0  0  0  0  0  0  0  0  0  0
    5.3762   -3.5494    4.3940 C   0  0  0  0  0  0  0  0  0  0  0  0
    4.1084   -3.8965    4.9000 C   0  0  0  0  0  0  0  0  0  0  0  0
    2.9419   -3.5251    4.2496 C   0  0  0  0  0  0  0  0  0  0  0  0
    0.2339   -2.9157   -1.3760 C   0  0  0  0  0  0  0  0  0  0  0  0
    0.2283   -4.3682   -0.9999 C   0  0  0  0  0  0  0  0  0  0  0  0
    1.2627   -4.6852   -0.2026 F   0  0  0  0  0  0  0  0  0  0  0  0
   -0.8797   -4.7340   -0.3394 F   0  0  0  0  0  0  0  0  0  0  0  0
    0.3164   -5.1655   -2.0754 F   0  0  0  0  0  0  0  0  0  0  0  0
    0.4551   -2.5244   -2.6977 C   0  0  0  0  0  0  0  0  0  0  0  0
    0.5471   -1.1880   -3.0585 C   0  0  0  0  0  0  0  0  0  0  0  0
   -1.6799    3.3300   -3.1110 C   0  0  0  0  0  0  0  0  0  0  0  0
   -1.6964    5.8283   -4.6337 C   0  0  0  0  0  0  0  0  0  0  0  0
   -2.2853    6.2973   -3.5314 C   0  0  0  0  0  0  0  0  0  0  0  0
   -1.3442    4.9877    0.2465 S   0  0  0  0  0  1  0  0  0  0  0  0
   -2.8654    4.1850    0.8826 C   0  0  0  0  0  0  0  0  0  0  0  0
   -2.7553    2.6508    1.0181 C   0  0  2  0  0  0  0  0  0  0  0  0
   -3.4832    2.2864    1.7671 H   0  0  0  0  0  0  0  0  0  0  0  0
   -1.4234    2.3391    1.5008 N   0  0  0  0  0  0  0  0  0  0  0  0
   -1.0287    1.2487    2.1612 C   0  0  0  0  0  0  0  0  0  0  0  0
    0.3976    1.2656    2.6711 C   0  0  0  0  0  0  0  0  0  0  0  0
   -1.7448    0.2560    2.3359 O   0  0  0  0  0  0  0  0  0  0  0  0
   -3.1444    1.9322   -0.2950 C   0  0  0  0  0  0  0  0  0  0  0  0
   -2.7660    0.6343   -0.3761 N   0  0  0  0  0  0  0  0  0  0  0  0
   -3.1277   -0.1730   -1.5147 C   0  0  0  0  0  0  0  0  0  0  0  0
   -3.7897    2.4790   -1.1736 O   0  0  0  0  0  0  0  0  0  0  0  0
    1.4676    3.6390   -4.2776 H   0  0  0  0  0  0  0  0  0  0  0  0
    0.8268    4.3253   -1.6877 H   0  0  0  0  0  0  0  0  0  0  0  0
    2.3205    3.4229   -2.0779 H   0  0  0  0  0  0  0  0  0  0  0  0
   -0.2733    2.3928   -0.8799 H   0  0  0  0  0  0  0  0  0  0  0  0
    1.3891    1.8585   -0.5539 H   0  0  0  0  0  0  0  0  0  0  0  0
   -0.0306    1.3117   -4.3990 H   0  0  0  0  0  0  0  0  0  0  0  0
    1.7324    1.3088   -4.1498 H   0  0  0  0  0  0  0  0  0  0  0  0
   -0.0013    0.1750    0.0112 H   0  0  0  0  0  0  0  0  0  0  0  0
   -2.3404   -2.6248    3.4616 H   0  0  0  0  0  0  0  0  0  0  0  0
    2.4819   -1.1256    0.2189 H   0  0  0  0  0  0  0  0  0  0  0  0
    6.4733   -2.5512    2.8156 H   0  0  0  0  0  0  0  0  0  0  0  0
    6.2757   -3.8542    4.9337 H   0  0  0  0  0  0  0  0  0  0  0  0
    4.0427   -4.4658    5.8298 H   0  0  0  0  0  0  0  0  0  0  0  0
    1.9682   -3.7757    4.6660 H   0  0  0  0  0  0  0  0  0  0  0  0
    0.5691   -3.2900   -3.4663 H   0  0  0  0  0  0  0  0  0  0  0  0
    0.7255   -0.9279   -4.1019 H   0  0  0  0  0  0  0  0  0  0  0  0
   -2.6054    3.6216   -3.6160 H   0  0  0  0  0  0  0  0  0  0  0  0
   -1.7046    3.7234   -2.0806 H   0  0  0  0  0  0  0  0  0  0  0  0
   -1.6639    2.2323   -3.0672 H   0  0  0  0  0  0  0  0  0  0  0  0
   -1.9381    6.2394   -5.6190 H   0  0  0  0  0  0  0  0  0  0  0  0
   -2.0301    5.9503   -2.5210 H   0  0  0  0  0  0  0  0  0  0  0  0
   -3.0510    7.0750   -3.6056 H   0  0  0  0  0  0  0  0  0  0  0  0
   -3.7151    4.3849    0.2171 H   0  0  0  0  0  0  0  0  0  0  0  0
   -3.1073    4.5963    1.8755 H   0  0  0  0  0  0  0  0  0  0  0  0
   -0.7893    3.1400    1.3140 H   0  0  0  0  0  0  0  0  0  0  0  0
    0.9720    0.4799    2.1576 H   0  0  0  0  0  0  0  0  0  0  0  0
    0.3912    1.0038    3.7384 H   0  0  0  0  0  0  0  0  0  0  0  0
    0.8949    2.2344    2.5301 H   0  0  0  0  0  0  0  0  0  0  0  0
   -2.4621    0.1747    0.4818 H   0  0  0  0  0  0  0  0  0  0  0  0
   -2.8930   -1.2192   -1.2863 H   0  0  0  0  0  0  0  0  0  0  0  0
   -2.5653    0.1327   -2.4128 H   0  0  0  0  0  0  0  0  0  0  0  0
   -4.2006   -0.0775   -1.7481 H   0  0  0  0  0  0  0  0  0  0  0  0
  1  2  2  0  0  0  0
  2 37  1  0  0  0  0
  2  3  1  0  0  0  0
  3  4  1  0  0  0  0
  3 36  1  0  0  0  0
  4 51  1  6  0  0  0
  4  5  1  0  0  0  0
  5 53  1  0  0  0  0
  5 52  1  0  0  0  0
  5  6  1  0  0  0  0
  6 54  1  0  0  0  0
  6 55  1  0  0  0  0
  7  9  1  0  0  0  0
  7  6  1  0  0  0  0
  8  4  1  0  0  0  0
  8  7  1  0  0  0  0
  9 10  1  0  0  0  0
 10 11  2  0  0  0  0
 10 58  1  0  0  0  0
 11 12  1  0  0  0  0
 12 16  1  0  0  0  0
 12 13  2  0  0  0  0
 13 19  1  0  0  0  0
 13 14  1  0  0  0  0
 14 18  2  0  0  0  0
 15 14  1  0  0  0  0
 15 59  1  0  0  0  0
 16 15  1  0  0  0  0
 17 16  2  0  0  0  0
 19 23  1  0  0  0  0
 20 21  1  0  0  0  0
 20 19  2  0  0  0  0
 21 24  1  0  0  0  0
 22 21  1  0  0  0  0
 23 28  1  0  0  0  0
 24 23  2  0  0  0  0
 24 25  1  0  0  0  0
 25 26  2  0  0  0  0
 26 27  1  0  0  0  0
 26 62  1  0  0  0  0
 27 63  1  0  0  0  0
 28 64  1  0  0  0  0
 28 27  2  0  0  0  0
 29 30  1  0  0  0  0
 29 11  1  0  0  0  0
 30 32  1  0  0  0  0
 30 31  1  0  0  0  0
 33 30  1  0  0  0  0
 34 29  2  0  0  0  0
 35 34  1  0  0  0  0
 35  9  2  0  0  0  0
 36 69  1  0  0  0  0
 36 68  1  0  0  0  0
 37 38  2  0  0  0  0
 38 71  1  0  0  0  0
 39 40  1  0  0  0  0
 40 41  1  0  0  0  0
 40 74  1  0  0  0  0
 41 43  1  0  0  0  0
 41 42  1  1  0  0  0
 43 44  1  0  0  0  0
 44 46  2  0  0  0  0
 44 45  1  0  0  0  0
 45 77  1  0  0  0  0
 47 41  1  0  0  0  0
 48 47  1  0  0  0  0
 48 79  1  0  0  0  0
 49 80  1  0  0  0  0
 49 48  1  0  0  0  0
 50 47  2  0  0  0  0
 56  8  1  0  0  0  0
 57  8  1  0  0  0  0
 60 20  1  0  0  0  0
 61 25  1  0  0  0  0
 65 34  1  0  0  0  0
 66 35  1  0  0  0  0
 67 36  1  0  0  0  0
 70 37  1  0  0  0  0
 72 38  1  0  0  0  0
 73 40  1  0  0  0  0
 75 43  1  0  0  0  0
 76 45  1  0  0  0  0
 78 45  1  0  0  0  0
 81 49  1  0  0  0  0
 82 49  1  0  0  0  0
M  END
