82
-1 1
O         0.710075    5.715167   -4.218889
C        -0.210919    5.205732   -3.562129
N        -0.436686    3.738032   -3.756336
C         0.836323    3.041469   -3.730659
C         1.455005    3.200714   -2.336768
C         0.671743    2.192897   -1.505749
N         0.463147    1.091382   -2.440929
C         0.686689    1.516191   -3.815298
C         0.274478   -0.194275   -2.075675
C         0.030248   -0.540055   -0.723185
C        -0.078962   -1.859262   -0.305981
C        -0.314248   -2.111215    1.133114
C         0.572484   -2.213844    2.149690
C        -0.237887   -2.368295    3.424022
N        -1.552223   -2.515608    3.031616
C        -1.700220   -2.277170    1.672228
O        -2.744141   -2.233695    1.075636
O         0.146617   -2.346716    4.565882
C         2.025656   -2.141374    2.102691
C         2.733039   -1.628274    1.030456
N         4.070609   -1.740269    1.250283
H         4.787470   -1.425465    0.613633
C         3.027441   -2.609860    3.050066
C         4.290642   -2.341072    2.467997
C         5.501869   -2.670100    3.086711
C         5.439322   -3.294782    4.321479
C         4.197266   -3.581155    4.920194
C         3.000805   -3.247658    4.304431
C         0.031766   -2.903681   -1.241358
C         0.011336   -4.336389   -0.801365
F         1.073904   -4.646221   -0.037061
F        -1.072901   -4.647062   -0.073491
F         0.030571   -5.182567   -1.841786
C         0.218457   -2.574065   -2.586252
C         0.331098   -1.259475   -3.008848
C        -1.201776    3.530742   -4.967669
C        -1.095841    5.825481   -2.680556
C        -2.109486    5.129854   -1.887365
S        -1.613742    5.034056   -0.029455
C        -3.001866    4.141009    0.754146
C        -2.799707    2.624850    0.901054
H        -3.473818    2.239994    1.686453
N        -1.443402    2.362952    1.346902
C        -1.066231    1.348233    2.144876
C         0.381803    1.354784    2.585175
O        -1.832560    0.448875    2.484282
C        -3.184035    1.862407   -0.388454
N        -2.930843    0.536973   -0.361460
C        -3.233998   -0.297505   -1.498498
O        -3.710131    2.414661   -1.338267
H         1.514327    3.419766   -4.520435
H         1.365264    4.227414   -1.961117
H         2.522422    2.926130   -2.366819
H        -0.287318    2.623266   -1.177611
H         1.229023    1.848414   -0.618426
H        -0.141281    1.198779   -4.466208
H         1.615119    1.065421   -4.217454
H        -0.105876    0.254168    0.005533
H        -2.321550   -2.420177    3.681625
H         2.355106   -1.180061    0.115315
H         6.458128   -2.444751    2.609447
H         6.363657   -3.567614    4.835748
H         4.175815   -4.072524    5.895452
H         2.048989   -3.451174    4.790711
H         0.289297   -3.374838   -3.323796
H         0.481646   -1.051202   -4.067682
H        -2.075435    4.197013   -4.943302
H        -1.585988    2.499582   -5.041467
H        -0.624986    3.760549   -5.890466
H        -0.992371    6.910305   -2.580962
H        -2.256393    4.091664   -2.198644
H        -3.084943    5.638831   -1.829989
H        -3.909240    4.320323    0.161519
H        -3.146973    4.577751    1.752970
H        -0.770100    3.060838    1.026379
H         0.915885    0.537005    2.079037
H         0.420297    1.140099    3.661580
H         0.895385    2.302593    2.376016
H        -2.665219    0.100552    0.517607
H        -2.923750   -1.322994   -1.267265
H        -2.694731    0.059204   -2.389550
H        -4.311363   -0.286587   -1.732433
