-1 1
 OpenBabel05232414493D

 82 86  0  0  1  0  0  0  0  0999 V2000
    4.4251   10.2591   -0.3239 O   0  0  0  0  0  0  0  0  0  0  0  0
    3.3602    9.7923    0.0994 C   0  0  0  0  0  0  0  0  0  0  0  0
    3.1594    8.3571   -0.0252 N   0  0  0  0  0  0  0  0  0  0  0  0
    4.4046    7.6256   -0.1545 C   0  0  1  0  0  0  0  0  0  0  0  0
    5.1745    7.7334    1.1698 C   0  0  0  0  0  0  0  0  0  0  0  0
    4.4203    6.7553    2.0632 C   0  0  0  0  0  0  0  0  0  0  0  0
    4.0672    5.6793    1.1381 N   0  0  0  0  0  0  0  0  0  0  0  0
    4.2117    6.1081   -0.2446 C   0  0  0  0  0  0  0  0  0  0  0  0
    3.8697    4.3936    1.5043 C   0  0  0  0  0  0  0  0  0  0  0  0
    3.6715    4.0484    2.8634 C   0  0  0  0  0  0  0  0  0  0  0  0
    3.5332    2.7310    3.2772 C   0  0  0  0  0  0  0  0  0  0  0  0
    3.2974    2.4793    4.7158 C   0  0  0  0  0  0  0  0  0  0  0  0
    4.1761    2.3860    5.7387 C   0  0  0  0  0  0  0  0  0  0  0  0
    3.3605    2.2242    7.0080 C   0  0  0  0  0  0  0  0  0  0  0  0
    2.0485    2.0758    6.6080 N   0  0  0  0  0  0  0  0  0  0  0  0
    1.9070    2.3062    5.2467 C   0  0  0  0  0  0  0  0  0  0  0  0
    0.8673    2.3337    4.6423 O   0  0  0  0  0  0  0  0  0  0  0  0
    3.7425    2.2388    8.1507 O   0  0  0  0  0  0  0  0  0  0  0  0
    5.6290    2.4729    5.7093 C   0  0  0  0  0  0  0  0  0  0  0  0
    6.3476    3.0597    4.6848 C   0  0  0  0  0  0  0  0  0  0  0  0
    7.6835    2.9415    4.9179 N   0  0  0  0  0  0  0  0  0  0  0  0
    8.4080    3.3043    4.3165 H   0  0  0  0  0  0  0  0  0  0  0  0
    6.6183    1.9504    6.6396 C   0  0  0  0  0  0  0  0  0  0  0  0
    7.8886    2.2636    6.0971 C   0  0  0  0  0  0  0  0  0  0  0  0
    9.0910    1.9000    6.7141 C   0  0  0  0  0  0  0  0  0  0  0  0
    9.0106    1.1949    7.9038 C   0  0  0  0  0  0  0  0  0  0  0  0
    7.7603    0.8630    8.4612 C   0  0  0  0  0  0  0  0  0  0  0  0
    6.5728    1.2307    7.8479 C   0  0  0  0  0  0  0  0  0  0  0  0
    3.5842    1.6894    2.3329 C   0  0  0  0  0  0  0  0  0  0  0  0
    3.5479    0.2545    2.7668 C   0  0  0  0  0  0  0  0  0  0  0  0
    4.6123   -0.0704    3.5212 F   0  0  0  0  0  0  0  0  0  0  0  0
    2.4658   -0.0474    3.5013 F   0  0  0  0  0  0  0  0  0  0  0  0
    3.5483   -0.5868    1.7222 F   0  0  0  0  0  0  0  0  0  0  0  0
    3.7317    2.0209    0.9842 C   0  0  0  0  0  0  0  0  0  0  0  0
    3.8602    3.3350    0.5639 C   0  0  0  0  0  0  0  0  0  0  0  0
    2.0356    7.9123   -0.8205 C   0  0  0  0  0  0  0  0  0  0  0  0
    2.3181   10.5215    0.7258 C   0  0  0  0  0  3  0  0  0  0  0  0
    1.3031    9.9462    1.5463 C   0  0  0  0  0  0  0  0  0  0  0  0
    1.8708    9.6457    3.5403 S   0  0  0  0  0  0  0  0  0  0  0  0
    0.4764    8.6542    4.1746 C   0  0  0  0  0  0  0  0  0  0  0  0
    0.7556    7.1475    4.3065 C   0  0  2  0  0  0  0  0  0  0  0  0
    0.0644    6.7102    5.0479 H   0  0  0  0  0  0  0  0  0  0  0  0
    2.0994    6.9509    4.8179 N   0  0  0  0  0  0  0  0  0  0  0  0
    2.4827    5.9524    5.6294 C   0  0  0  0  0  0  0  0  0  0  0  0
    3.9033    6.0253    6.1463 C   0  0  0  0  0  0  0  0  0  0  0  0
    1.7435    5.0167    5.9330 O   0  0  0  0  0  0  0  0  0  0  0  0
    0.5027    6.3734    2.9921 C   0  0  0  0  0  0  0  0  0  0  0  0
    0.6704    5.0378    3.0925 N   0  0  0  0  0  0  0  0  0  0  0  0
    0.4486    4.1712    1.9619 C   0  0  0  0  0  0  0  0  0  0  0  0
    0.1395    6.9135    1.9608 O   0  0  0  0  0  0  0  0  0  0  0  0
    5.0047    7.9992   -1.0043 H   0  0  0  0  0  0  0  0  0  0  0  0
    5.1836    8.7601    1.5518 H   0  0  0  0  0  0  0  0  0  0  0  0
    6.2173    7.4025    1.0282 H   0  0  0  0  0  0  0  0  0  0  0  0
    3.5194    7.2320    2.4813 H   0  0  0  0  0  0  0  0  0  0  0  0
    5.0379    6.3666    2.8903 H   0  0  0  0  0  0  0  0  0  0  0  0
    3.3414    5.8066   -0.8453 H   0  0  0  0  0  0  0  0  0  0  0  0
    5.1082    5.6517   -0.7085 H   0  0  0  0  0  0  0  0  0  0  0  0
    3.5837    4.8434    3.5995 H   0  0  0  0  0  0  0  0  0  0  0  0
    1.2734    2.1553    7.2531 H   0  0  0  0  0  0  0  0  0  0  0  0
    5.9790    3.5646    3.7956 H   0  0  0  0  0  0  0  0  0  0  0  0
   10.0542    2.1605    6.2700 H   0  0  0  0  0  0  0  0  0  0  0  0
    9.9276    0.8932    8.4151 H   0  0  0  0  0  0  0  0  0  0  0  0
    7.7258    0.3082    9.4014 H   0  0  0  0  0  0  0  0  0  0  0  0
    5.6142    0.9905    8.3037 H   0  0  0  0  0  0  0  0  0  0  0  0
    3.7581    1.2224    0.2413 H   0  0  0  0  0  0  0  0  0  0  0  0
    3.9744    3.5458   -0.4990 H   0  0  0  0  0  0  0  0  0  0  0  0
    1.3170    8.7370   -0.8978 H   0  0  0  0  0  0  0  0  0  0  0  0
    1.5067    7.0594   -0.3617 H   0  0  0  0  0  0  0  0  0  0  0  0
    2.3297    7.6387   -1.8571 H   0  0  0  0  0  0  0  0  0  0  0  0
    2.4767   11.6030    0.7560 H   0  0  0  0  0  0  0  0  0  0  0  0
    0.9907    8.9188    1.3431 H   0  0  0  0  0  0  0  0  0  0  0  0
    0.4399   10.5918    1.7495 H   0  0  0  0  0  0  0  0  0  0  0  0
   -0.3808    8.7888    3.4985 H   0  0  0  0  0  0  0  0  0  0  0  0
    0.1930    9.0430    5.1639 H   0  0  0  0  0  0  0  0  0  0  0  0
    2.7378    7.7064    4.5537 H   0  0  0  0  0  0  0  0  0  0  0  0
    4.4614    5.1485    5.7863 H   0  0  0  0  0  0  0  0  0  0  0  0
    3.8790    5.9572    7.2428 H   0  0  0  0  0  0  0  0  0  0  0  0
    4.4293    6.9413    5.8463 H   0  0  0  0  0  0  0  0  0  0  0  0
    0.8699    4.6277    4.0021 H   0  0  0  0  0  0  0  0  0  0  0  0
    0.7218    3.1494    2.2506 H   0  0  0  0  0  0  0  0  0  0  0  0
    1.0637    4.4868    1.1055 H   0  0  0  0  0  0  0  0  0  0  0  0
   -0.6060    4.1890    1.6398 H   0  0  0  0  0  0  0  0  0  0  0  0
  1  2  2  0  0  0  0
  2 37  1  0  0  0  0
  3  2  1  0  0  0  0
  4 51  1  6  0  0  0
  4  3  1  0  0  0  0
  4  5  1  0  0  0  0
  5 52  1  0  0  0  0
  5  6  1  0  0  0  0
  6 54  1  0  0  0  0
  6 55  1  0  0  0  0
  7  9  1  0  0  0  0
  7  6  1  0  0  0  0
  8  4  1  0  0  0  0
  8  7  1  0  0  0  0
  9 10  1  0  0  0  0
 10 11  2  0  0  0  0
 10 58  1  0  0  0  0
 11 12  1  0  0  0  0
 12 16  1  0  0  0  0
 12 13  2  0  0  0  0
 13 14  1  0  0  0  0
 14 18  2  0  0  0  0
 15 14  1  0  0  0  0
 15 59  1  0  0  0  0
 16 15  1  0  0  0  0
 17 16  2  0  0  0  0
 19 13  1  0  0  0  0
 19 23  1  0  0  0  0
 20 21  1  0  0  0  0
 20 19  2  0  0  0  0
 21 24  1  0  0  0  0
 22 21  1  0  0  0  0
 23 28  1  0  0  0  0
 24 23  2  0  0  0  0
 24 25  1  0  0  0  0
 25 26  2  0  0  0  0
 26 62  1  0  0  0  0
 26 27  1  0  0  0  0
 27 63  1  0  0  0  0
 28 64  1  0  0  0  0
 28 27  2  0  0  0  0
 29 30  1  0  0  0  0
 29 11  1  0  0  0  0
 30 32  1  0  0  0  0
 30 31  1  0  0  0  0
 33 30  1  0  0  0  0
 34 29  2  0  0  0  0
 35 34  1  0  0  0  0
 35  9  2  0  0  0  0
 36 68  1  0  0  0  0
 36  3  1  0  0  0  0
 37 70  1  0  0  0  0
 37 38  1  0  0  0  0
 38 72  1  0  0  0  0
 38 39  1  0  0  0  0
 39 40  1  0  0  0  0
 40 41  1  0  0  0  0
 40 74  1  0  0  0  0
 41 43  1  0  0  0  0
 41 42  1  1  0  0  0
 43 44  1  0  0  0  0
 44 46  2  0  0  0  0
 44 45  1  0  0  0  0
 45 77  1  0  0  0  0
 47 48  1  0  0  0  0
 47 41  1  0  0  0  0
 48 79  1  0  0  0  0
 49 80  1  0  0  0  0
 49 48  1  0  0  0  0
 50 47  2  0  0  0  0
 53  5  1  0  0  0  0
 56  8  1  0  0  0  0
 57  8  1  0  0  0  0
 60 20  1  0  0  0  0
 61 25  1  0  0  0  0
 65 34  1  0  0  0  0
 66 35  1  0  0  0  0
 67 36  1  0  0  0  0
 69 36  1  0  0  0  0
 71 38  1  0  0  0  0
 73 40  1  0  0  0  0
 75 43  1  0  0  0  0
 76 45  1  0  0  0  0
 78 45  1  0  0  0  0
 81 49  1  0  0  0  0
 82 49  1  0  0  0  0
M  END
