81
-1 1
O         2.013174    6.700216   -0.665560
C         2.549382    5.718263   -1.172154
N         1.909089    4.528579   -1.268247
C         0.580374    4.434065   -0.697967
C        -0.115492    3.108630   -0.959233
C        -0.358136    2.764179   -2.432089
N        -1.415377    1.767807   -2.601743
C        -1.203642    0.480026   -2.157123
C        -2.269514   -0.336984   -1.724171
C        -2.059130   -1.613845   -1.202240
C        -3.219243   -2.329237   -0.631231
C        -3.519086   -2.633851    0.656364
C        -4.784404   -3.478773    0.635980
N        -5.154018   -3.583369   -0.688494
C        -4.270420   -2.903686   -1.527191
O        -4.374054   -2.821571   -2.722120
O        -5.371848   -3.976771    1.564214
C        -2.866641   -2.322574    1.911255
C        -3.009257   -3.098279    3.048207
N        -2.216585   -2.617391    4.041760
H        -2.136822   -3.017305    4.964394
C        -1.925079   -1.269727    2.257307
C        -1.540302   -1.498393    3.597829
C        -0.628204   -0.682623    4.278665
C        -0.095770    0.394506    3.588828
C        -0.489518    0.667034    2.265092
C        -1.393959   -0.143808    1.600019
C        -0.765766   -2.152699   -1.181693
C        -0.484736   -3.543887   -0.688726
F        -1.381695   -4.439640   -1.133754
F         0.719649   -3.976785   -1.083624
F        -0.491951   -3.641132    0.653481
C         0.291841   -1.358718   -1.639610
C         0.099035   -0.065717   -2.091313
C        -2.765357    2.273188   -2.638601
C         3.954877    5.845438   -1.674457
C         4.738993    4.895559   -2.188313
S         3.255938    1.639723   -2.513857
C         3.519292    0.495992   -1.116224
C         2.880003    0.953480    0.204481
H         1.792057    1.050417    0.054977
N         3.422280    2.230565    0.585809
C         2.857579    3.019297    1.522371
C         3.507984    4.370212    1.731090
O         1.876748    2.677862    2.171945
C         3.120761   -0.112105    1.280923
N         2.140614   -1.055919    1.325646
C         2.174731   -2.183453    2.218789
O         4.130738   -0.154307    1.957041
H         2.370787    3.673844   -1.621443
H        -0.028473    5.267028   -1.090664
H         0.630245    4.591935    0.394413
H        -1.085609    3.150356   -0.435947
H         0.450250    2.293252   -0.484970
H         0.579114    2.415904   -2.892992
H        -0.665146    3.664322   -2.986803
H        -3.290133    0.042013   -1.716666
H        -5.969434   -4.086914   -1.010240
H        -3.633981   -3.975207    3.190901
H        -0.339621   -0.898016    5.310210
H         0.645804    1.048688    4.050456
H        -0.030536    1.524618    1.771068
H        -1.680739    0.093458    0.578293
H         1.304086   -1.765015   -1.638900
H         0.974953    0.514413   -2.407849
H        -2.767219    3.252084   -3.135913
H        -3.218911    2.401628   -1.634480
H        -3.418058    1.604492   -3.220446
H         4.317571    6.871388   -1.556074
H         5.758111    5.145012   -2.499640
H         4.415275    3.852096   -2.322432
H         4.596629    0.347465   -0.930232
H         3.110478   -0.498774   -1.350098
H         4.123071    2.618057   -0.035502
H         2.777535    5.160132    1.502971
H         4.398028    4.527099    1.107162
H         3.781615    4.462528    2.791483
H         1.273613   -0.864669    0.838240
H         1.361445   -2.127311    2.959811
H         3.138672   -2.162665    2.743399
H         2.080429   -3.132210    1.668281
