90
-1 1
C         1.610118   -2.072724    1.079411
N         1.458178   -1.976770   -0.360916
C         0.135010   -2.424295   -0.812918
C        -0.966159   -1.519804   -0.368266
S        -1.928344   -5.361036   -1.274861
C        -2.085598   -4.248040   -2.721233
C        -1.029884   -4.451506   -3.836439
H        -0.034192   -4.476278   -3.363829
N        -1.058262   -3.390465   -4.824596
C        -0.305843   -2.278258   -4.801220
C        -0.492869   -1.333136   -5.971932
O         0.471523   -1.989506   -3.894951
C        -1.255789   -5.754827   -4.623590
N        -1.192552   -6.875220   -3.885514
C        -1.537300   -8.161095   -4.430900
O        -1.484591   -5.729817   -5.830741
C        -2.156974   -1.932587    0.080703
C        -3.135902   -0.887901    0.486530
N        -3.722419   -1.034306    1.740976
C        -3.177270   -1.930126    2.737387
C        -1.908416   -1.359153    3.384200
N        -1.846474    0.103452    3.427877
C        -2.845976    0.955786    2.783937
C        -4.112034    0.208327    2.379226
C        -0.597351    0.649090    3.646538
C        -0.264970    1.950556    3.210790
C         1.028574    2.456714    3.305242
C         1.320166    3.724268    2.597432
C         1.487542    3.890382    1.255170
C         1.716907    5.377043    1.024800
N         1.632021    5.971817    2.269346
C         1.368684    5.043719    3.278759
O         1.193025    5.312009    4.439176
O         1.941029    5.960012   -0.004530
C         1.481064    2.891761    0.211676
C         1.690003    1.535165    0.454221
N         1.542695    0.813288   -0.670311
H         1.572287   -0.236972   -0.690546
C         1.171566    2.982798   -1.209237
C         1.200698    1.654671   -1.705244
C         0.897658    1.320076   -3.030743
C         0.567865    2.363508   -3.880878
C         0.540423    3.695283   -3.419935
C         0.834273    4.016164   -2.103011
C         2.030665    1.696929    3.931240
C         3.456581    2.170951    3.975923
F         3.584923    3.405596    4.473499
F         4.224519    1.368551    4.728096
F         4.012953    2.193889    2.752221
C         1.703377    0.431583    4.417778
C         0.429013   -0.094725    4.271505
O        -3.351059    0.110212   -0.175736
C         2.509144   -2.685555   -1.072892
H         1.495892   -3.113153    1.448529
H         0.854298   -1.448287    1.580509
H         2.603222   -1.703535    1.380797
H        -0.078528   -3.472606   -0.522700
H         0.153790   -2.396791   -1.914472
H        -0.792026   -0.440173   -0.461440
H        -1.997176   -3.197937   -2.400372
H        -3.084776   -4.344047   -3.180657
H        -1.511498   -3.671918   -5.690788
H         0.495804   -1.027943   -6.340461
H        -1.003033   -0.430587   -5.603274
H        -1.079810   -1.763018   -6.794967
H        -1.258767   -6.722223   -2.859393
H        -2.581704   -8.437086   -4.203907
H        -0.878960   -8.940856   -4.018383
H        -1.419449   -8.129847   -5.521976
H        -2.376110   -3.006319    0.166951
H        -2.945013   -2.909432    2.302268
H        -3.960795   -2.095638    3.493039
H        -1.042115   -1.724959    2.806324
H        -1.816112   -1.778700    4.400764
H        -2.432723    1.387026    1.855945
H        -3.094548    1.796309    3.454213
H        -4.682300    0.828688    1.678930
H        -4.750472   -0.025627    3.244871
H        -0.999079    2.572342    2.704107
H         1.721631    6.966832    2.423007
H         1.963099    1.044751    1.384369
H         0.902296    0.277890   -3.365414
H         0.321971    2.149163   -4.923927
H         0.280023    4.495608   -4.117098
H         0.823708    5.051176   -1.765379
H         2.471111   -0.169522    4.906404
H         0.235821   -1.094982    4.654501
H         3.493011   -2.275598   -0.795541
H         2.361016   -2.558783   -2.154537
H         2.505465   -3.771864   -0.848467
