-1 1
 OpenBabel05232414493D

 90 93  0  0  1  0  0  0  0  0999 V2000
    2.4059   -3.6694    6.9473 C   0  0  0  0  0  0  0  0  0  0  0  0
    2.2712   -3.9423    5.5288 N   0  0  0  0  0  0  0  0  0  0  0  0
    1.2740   -4.9685    5.1911 C   0  0  0  0  0  0  0  0  0  0  0  0
   -0.1477   -4.5387    5.4887 C   0  0  0  0  0  3  0  0  0  0  0  0
   -1.2837   -5.8811    3.9812 S   0  0  0  0  0  1  0  0  0  0  0  0
   -0.8086   -5.0138    2.4551 C   0  0  0  0  0  0  0  0  0  0  0  0
    0.1628   -5.7800    1.5302 C   0  0  2  0  0  0  0  0  0  0  0  0
    0.9646   -6.2028    2.1580 H   0  0  0  0  0  0  0  0  0  0  0  0
    0.7519   -4.9166    0.5333 N   0  0  0  0  0  0  0  0  0  0  0  0
    1.7800   -4.0904    0.7976 C   0  0  0  0  0  0  0  0  0  0  0  0
    2.2638   -3.2341   -0.3539 C   0  0  0  0  0  0  0  0  0  0  0  0
    2.2914   -4.0024    1.9087 O   0  0  0  0  0  0  0  0  0  0  0  0
   -0.5220   -6.9208    0.7657 C   0  0  0  0  0  0  0  0  0  0  0  0
   -1.0346   -7.8898    1.5474 N   0  0  0  0  0  0  0  0  0  0  0  0
   -1.8259   -8.9707    1.0202 C   0  0  0  0  0  0  0  0  0  0  0  0
   -0.5803   -6.9168   -0.4587 O   0  0  0  0  0  0  0  0  0  0  0  0
   -0.6677   -4.6448    6.7791 C   0  0  0  0  0  3  0  0  0  0  0  0
   -1.7575   -3.7913    7.1614 C   0  0  0  0  0  0  0  0  0  0  0  0
   -2.2211   -3.8298    8.5098 N   0  0  0  0  0  0  0  0  0  0  0  0
   -1.4196   -4.3778    9.5739 C   0  0  0  0  0  0  0  0  0  0  0  0
   -0.2216   -3.4839    9.9271 C   0  0  0  0  0  0  0  0  0  0  0  0
   -0.4407   -2.0585    9.6836 N   0  0  0  0  0  0  0  0  0  0  0  0
   -1.6770   -1.5381    9.0946 C   0  0  0  0  0  0  0  0  0  0  0  0
   -2.7856   -2.5794    8.9693 C   0  0  0  0  0  0  0  0  0  0  0  0
    0.6834   -1.2719    9.5868 C   0  0  0  0  0  0  0  0  0  0  0  0
    0.6501   -0.0028    8.9637 C   0  0  0  0  0  0  0  0  0  0  0  0
    1.8092    0.7157    8.6877 C   0  0  0  0  0  0  0  0  0  0  0  0
    1.7049    1.9167    7.8285 C   0  0  0  0  0  0  0  0  0  0  0  0
    1.8355    1.9860    6.4749 C   0  0  0  0  0  0  0  0  0  0  0  0
    1.6926    3.4535    6.0981 C   0  0  0  0  0  0  0  0  0  0  0  0
    1.4935    4.1338    7.2846 N   0  0  0  0  0  0  0  0  0  0  0  0
    1.4683    3.2741    8.3837 C   0  0  0  0  0  0  0  0  0  0  0  0
    1.2825    3.6113    9.5247 O   0  0  0  0  0  0  0  0  0  0  0  0
    1.7245    3.9665    5.0089 O   0  0  0  0  0  0  0  0  0  0  0  0
    2.0331    0.9135    5.5263 C   0  0  0  0  0  0  0  0  0  0  0  0
    1.7333   -0.4181    5.8068 C   0  0  0  0  0  0  0  0  0  0  0  0
    2.0605   -1.2172    4.7759 N   0  0  0  0  0  0  0  0  0  0  0  0
    1.9934   -2.2577    4.8308 H   0  0  0  0  0  0  0  0  0  0  0  0
    2.6059    0.9021    4.1884 C   0  0  0  0  0  0  0  0  0  0  0  0
    2.6138   -0.4544    3.7734 C   0  0  0  0  0  0  0  0  0  0  0  0
    3.1267   -0.8758    2.5412 C   0  0  0  0  0  0  0  0  0  0  0  0
    3.6470    0.0997    1.7053 C   0  0  0  0  0  0  0  0  0  0  0  0
    3.6537    1.4555    2.0909 C   0  0  0  0  0  0  0  0  0  0  0  0
    3.1426    1.8652    3.3136 C   0  0  0  0  0  0  0  0  0  0  0  0
    3.0530    0.2327    9.1244 C   0  0  0  0  0  0  0  0  0  0  0  0
    4.3289    0.9617    8.8097 C   0  0  0  0  0  0  0  0  0  0  0  0
    4.2715    2.2646    9.1251 F   0  0  0  0  0  0  0  0  0  0  0  0
    5.3711    0.4509    9.4859 F   0  0  0  0  0  0  0  0  0  0  0  0
    4.6502    0.8979    7.5107 F   0  0  0  0  0  0  0  0  0  0  0  0
    3.0904   -0.9733    9.8239 C   0  0  0  0  0  0  0  0  0  0  0  0
    1.9441   -1.7190   10.0481 C   0  0  0  0  0  0  0  0  0  0  0  0
   -2.2878   -2.9714    6.4098 O   0  0  0  0  0  0  0  0  0  0  0  0
    3.5584   -4.2547    4.9301 C   0  0  0  0  0  0  0  0  0  0  0  0
    2.7573   -4.5579    7.5172 H   0  0  0  0  0  0  0  0  0  0  0  0
    1.4379   -3.3625    7.3630 H   0  0  0  0  0  0  0  0  0  0  0  0
    3.1301   -2.8542    7.1034 H   0  0  0  0  0  0  0  0  0  0  0  0
    1.4956   -5.9218    5.7187 H   0  0  0  0  0  0  0  0  0  0  0  0
    1.3914   -5.1511    4.1172 H   0  0  0  0  0  0  0  0  0  0  0  0
   -0.4744   -3.6463    4.9432 H   0  0  0  0  0  0  0  0  0  0  0  0
   -0.2989   -4.0795    2.7435 H   0  0  0  0  0  0  0  0  0  0  0  0
   -1.7017   -4.7235    1.8784 H   0  0  0  0  0  0  0  0  0  0  0  0
    0.4235   -5.0829   -0.4141 H   0  0  0  0  0  0  0  0  0  0  0  0
    3.3566   -3.3207   -0.4239 H   0  0  0  0  0  0  0  0  0  0  0  0
    2.0310   -2.1838   -0.1226 H   0  0  0  0  0  0  0  0  0  0  0  0
    1.8087   -3.4991   -1.3180 H   0  0  0  0  0  0  0  0  0  0  0  0
   -1.0646   -7.6824    2.5539 H   0  0  0  0  0  0  0  0  0  0  0  0
   -2.8953   -8.8424    1.2556 H   0  0  0  0  0  0  0  0  0  0  0  0
   -1.4938   -9.9360    1.4328 H   0  0  0  0  0  0  0  0  0  0  0  0
   -1.7072   -8.9877   -0.0707 H   0  0  0  0  0  0  0  0  0  0  0  0
   -0.2644   -5.4014    7.4547 H   0  0  0  0  0  0  0  0  0  0  0  0
   -1.0529   -5.3804    9.3214 H   0  0  0  0  0  0  0  0  0  0  0  0
   -2.0744   -4.5013   10.4524 H   0  0  0  0  0  0  0  0  0  0  0  0
    0.6327   -3.8095    9.3107 H   0  0  0  0  0  0  0  0  0  0  0  0
    0.0605   -3.6550   10.9820 H   0  0  0  0  0  0  0  0  0  0  0  0
   -1.4721   -1.1929    8.0674 H   0  0  0  0  0  0  0  0  0  0  0  0
   -2.0250   -0.6677    9.6780 H   0  0  0  0  0  0  0  0  0  0  0  0
   -3.5199   -2.2149    8.2426 H   0  0  0  0  0  0  0  0  0  0  0  0
   -3.2950   -2.7532    9.9310 H   0  0  0  0  0  0  0  0  0  0  0  0
   -0.2864    0.4094    8.5960 H   0  0  0  0  0  0  0  0  0  0  0  0
    1.3475    5.1322    7.3405 H   0  0  0  0  0  0  0  0  0  0  0  0
    1.2762   -0.8425    6.6957 H   0  0  0  0  0  0  0  0  0  0  0  0
    3.0985   -1.9339    2.2674 H   0  0  0  0  0  0  0  0  0  0  0  0
    4.0582   -0.1869    0.7337 H   0  0  0  0  0  0  0  0  0  0  0  0
    4.0674    2.2030    1.4093 H   0  0  0  0  0  0  0  0  0  0  0  0
    3.1348    2.9182    3.5898 H   0  0  0  0  0  0  0  0  0  0  0  0
    4.0470   -1.3511   10.1870 H   0  0  0  0  0  0  0  0  0  0  0  0
    2.0374   -2.6631   10.5810 H   0  0  0  0  0  0  0  0  0  0  0  0
    4.2608   -3.4251    5.1095 H   0  0  0  0  0  0  0  0  0  0  0  0
    3.4393   -4.3802    3.8455 H   0  0  0  0  0  0  0  0  0  0  0  0
    4.0048   -5.1794    5.3562 H   0  0  0  0  0  0  0  0  0  0  0  0
  1 56  1  0  0  0  0
  1 55  1  0  0  0  0
  1 54  1  0  0  0  0
  2  1  1  0  0  0  0
  3  4  1  0  0  0  0
  3  2  1  0  0  0  0
  3 57  1  0  0  0  0
  4 17  1  0  0  0  0
  6 60  1  0  0  0  0
  6  5  1  0  0  0  0
  7  8  1  1  0  0  0
  7  6  1  0  0  0  0
  9 10  1  0  0  0  0
  9  7  1  0  0  0  0
 10 12  2  0  0  0  0
 11 64  1  0  0  0  0
 11 10  1  0  0  0  0
 13  7  1  0  0  0  0
 13 14  1  0  0  0  0
 14 66  1  0  0  0  0
 15 67  1  0  0  0  0
 15 68  1  0  0  0  0
 15 14  1  0  0  0  0
 16 13  2  0  0  0  0
 17 18  1  0  0  0  0
 17 70  1  0  0  0  0
 18 19  1  0  0  0  0
 19 24  1  0  0  0  0
 19 20  1  0  0  0  0
 20 21  1  0  0  0  0
 20 72  1  0  0  0  0
 21 74  1  0  0  0  0
 22 21  1  0  0  0  0
 23 76  1  0  0  0  0
 23 22  1  0  0  0  0
 24 23  1  0  0  0  0
 24 78  1  0  0  0  0
 25 22  1  0  0  0  0
 25 51  1  0  0  0  0
 26 25  2  0  0  0  0
 27 26  1  0  0  0  0
 27 45  2  0  0  0  0
 28 32  1  0  0  0  0
 28 27  1  0  0  0  0
 29 28  2  0  0  0  0
 30 29  1  0  0  0  0
 30 31  1  0  0  0  0
 31 80  1  0  0  0  0
 31 32  1  0  0  0  0
 32 33  2  0  0  0  0
 34 30  2  0  0  0  0
 35 36  2  0  0  0  0
 35 29  1  0  0  0  0
 36 81  1  0  0  0  0
 37 38  1  0  0  0  0
 37 36  1  0  0  0  0
 39 35  1  0  0  0  0
 40 39  1  0  0  0  0
 40 37  1  0  0  0  0
 41 40  2  0  0  0  0
 42 43  2  0  0  0  0
 42 41  1  0  0  0  0
 43 44  1  0  0  0  0
 44 85  1  0  0  0  0
 44 39  2  0  0  0  0
 45 50  1  0  0  0  0
 46 45  1  0  0  0  0
 46 47  1  0  0  0  0
 46 48  1  0  0  0  0
 49 46  1  0  0  0  0
 50 51  2  0  0  0  0
 50 86  1  0  0  0  0
 51 87  1  0  0  0  0
 52 18  2  0  0  0  0
 53 88  1  0  0  0  0
 53 90  1  0  0  0  0
 53  2  1  0  0  0  0
 58  3  1  0  0  0  0
 59  4  1  0  0  0  0
 61  6  1  0  0  0  0
 62  9  1  0  0  0  0
 63 11  1  0  0  0  0
 65 11  1  0  0  0  0
 69 15  1  0  0  0  0
 71 20  1  0  0  0  0
 73 21  1  0  0  0  0
 75 23  1  0  0  0  0
 77 24  1  0  0  0  0
 79 26  1  0  0  0  0
 82 41  1  0  0  0  0
 83 42  1  0  0  0  0
 84 43  1  0  0  0  0
 89 53  1  0  0  0  0
M  END
