-1 1
 OpenBabel05192410563D

 79 83  0  0  1  0  0  0  0  0999 V2000
    5.2159   -0.1465    1.1406 O   0  0  0  0  0  0  0  0  0  0  0  0
    4.4247    0.0328    2.1110 C   0  0  0  0  0  0  0  0  0  0  0  0
    3.4603   -0.9929    2.2904 N   0  0  0  0  0  0  0  0  0  0  0  0
    2.6784   -1.2906    3.4510 C   0  0  0  0  0  0  0  0  0  0  0  0
    1.1892   -1.1061    3.1706 C   0  0  0  0  0  0  0  0  0  0  0  0
    0.7741   -1.8013    1.9502 N   0  0  0  0  0  0  0  0  0  0  0  0
    1.6994   -1.8041    0.8168 C   0  0  0  0  0  0  0  0  0  0  0  0
    3.1615   -1.9139    1.2356 C   0  0  0  0  0  0  0  0  0  0  0  0
   -0.5744   -1.8950    1.6759 C   0  0  0  0  0  0  0  0  0  0  0  0
   -1.0369   -2.1920    0.3776 C   0  0  0  0  0  0  0  0  0  0  0  0
   -2.3876   -2.3099    0.0522 C   0  0  0  0  0  0  0  0  0  0  0  0
   -2.6622   -2.5465   -1.3815 C   0  0  0  0  0  0  0  0  0  0  0  0
   -2.1452   -1.8428   -2.4171 C   0  0  0  0  0  0  0  0  0  0  0  0
   -2.4690   -2.5802   -3.6951 C   0  0  0  0  0  0  0  0  0  0  0  0
   -3.2277   -3.6743   -3.3115 N   0  0  0  0  0  0  0  0  0  0  0  0
   -3.3654   -3.7526   -1.9243 C   0  0  0  0  0  0  0  0  0  0  0  0
   -3.9105   -4.6447   -1.3310 O   0  0  0  0  0  0  0  0  0  0  0  0
   -2.1349   -2.3084   -4.8192 O   0  0  0  0  0  0  0  0  0  0  0  0
   -1.3968   -0.6034   -2.3863 C   0  0  0  0  0  0  0  0  0  0  0  0
   -0.2299   -0.3269   -3.0821 C   0  0  0  0  0  0  0  0  0  0  0  0
    0.2615    0.8809   -2.7145 N   0  0  0  0  0  0  0  0  0  0  0  0
    1.2046    1.2618   -2.8754 H   0  0  0  0  0  0  0  0  0  0  0  0
   -1.6375    0.5388   -1.5379 C   0  0  0  0  0  0  0  0  0  0  0  0
   -0.5767    1.4401   -1.7767 C   0  0  0  0  0  0  0  0  0  0  0  0
   -0.4844    2.6791   -1.1316 C   0  0  0  0  0  0  0  0  0  0  0  0
   -1.4817    3.0053   -0.2272 C   0  0  0  0  0  0  0  0  0  0  0  0
   -2.5431    2.1120    0.0010 C   0  0  0  0  0  0  0  0  0  0  0  0
   -3.4908    2.4777    0.8770 F   0  0  0  0  0  0  0  0  0  0  0  0
   -2.6539    0.8916   -0.6324 C   0  0  0  0  0  0  0  0  0  0  0  0
   -3.3558   -2.1318    1.0528 C   0  0  0  0  0  0  0  0  0  0  0  0
   -4.8358   -2.2190    0.8067 C   0  0  0  0  0  0  0  0  0  0  0  0
   -5.3348   -3.4384    1.0335 F   0  0  0  0  0  0  0  0  0  0  0  0
   -5.5139   -1.3820    1.6101 F   0  0  0  0  0  0  0  0  0  0  0  0
   -5.1698   -1.8873   -0.4523 F   0  0  0  0  0  0  0  0  0  0  0  0
   -2.9159   -1.8182    2.3416 C   0  0  0  0  0  0  0  0  0  0  0  0
   -1.5730   -1.6891    2.6561 C   0  0  0  0  0  0  0  0  0  0  0  0
    4.4552    1.1733    2.9296 C   0  0  0  0  0  3  0  0  0  0  0  0
    3.3873    1.8119    3.6995 C   0  0  0  0  0  0  0  0  0  0  0  0
    2.0346    2.8167    2.6921 S   0  0  0  0  0  0  0  0  0  0  0  0
    2.1791    2.0410    1.0654 C   0  0  0  0  0  0  0  0  0  0  0  0
    3.2330    2.6605    0.1347 C   0  0  2  0  0  0  0  0  0  0  0  0
    4.2215    2.5579    0.6101 H   0  0  0  0  0  0  0  0  0  0  0  0
    2.9241    4.0465   -0.1074 N   0  0  0  0  0  0  0  0  0  0  0  0
    3.7380    4.8376   -0.8544 C   0  0  0  0  0  0  0  0  0  0  0  0
    3.2932    6.2843   -0.9758 C   0  0  0  0  0  0  0  0  0  0  0  0
    4.7240    4.4146   -1.4260 O   0  0  0  0  0  0  0  0  0  0  0  0
    3.2488    1.8586   -1.1724 C   0  0  0  0  0  0  0  0  0  0  0  0
    3.9980    0.7533   -1.1262 N   0  0  0  0  0  0  0  0  0  0  0  0
    4.0277   -0.1698   -2.2295 C   0  0  0  0  0  0  0  0  0  0  0  0
    2.5606    2.1759   -2.1463 O   0  0  0  0  0  0  0  0  0  0  0  0
    2.9882   -0.6752    4.3008 H   0  0  0  0  0  0  0  0  0  0  0  0
    2.8511   -2.3478    3.7430 H   0  0  0  0  0  0  0  0  0  0  0  0
    0.9546   -0.0252    3.0991 H   0  0  0  0  0  0  0  0  0  0  0  0
    0.6287   -1.5169    4.0224 H   0  0  0  0  0  0  0  0  0  0  0  0
    1.5573   -0.8930    0.2009 H   0  0  0  0  0  0  0  0  0  0  0  0
    1.4704   -2.6690    0.1778 H   0  0  0  0  0  0  0  0  0  0  0  0
    3.8174   -1.6989    0.3846 H   0  0  0  0  0  0  0  0  0  0  0  0
    3.3678   -2.9537    1.5636 H   0  0  0  0  0  0  0  0  0  0  0  0
   -0.3311   -2.3034   -0.4398 H   0  0  0  0  0  0  0  0  0  0  0  0
   -3.5632   -4.3836   -3.9491 H   0  0  0  0  0  0  0  0  0  0  0  0
    0.2883   -0.9519   -3.8063 H   0  0  0  0  0  0  0  0  0  0  0  0
    0.3691    3.3323   -1.3228 H   0  0  0  0  0  0  0  0  0  0  0  0
   -1.4619    3.9457    0.3257 H   0  0  0  0  0  0  0  0  0  0  0  0
   -3.5016    0.2410   -0.4218 H   0  0  0  0  0  0  0  0  0  0  0  0
   -3.6550   -1.6393    3.1242 H   0  0  0  0  0  0  0  0  0  0  0  0
   -1.3089   -1.4114    3.6742 H   0  0  0  0  0  0  0  0  0  0  0  0
    5.3043    1.8167    2.6821 H   0  0  0  0  0  0  0  0  0  0  0  0
    3.7791    2.5991    4.3573 H   0  0  0  0  0  0  0  0  0  0  0  0
    2.7461    1.1633    4.3053 H   0  0  0  0  0  0  0  0  0  0  0  0
    1.1867    2.0875    0.5957 H   0  0  0  0  0  0  0  0  0  0  0  0
    2.4237    0.9844    1.2147 H   0  0  0  0  0  0  0  0  0  0  0  0
    2.2546    4.4744    0.5205 H   0  0  0  0  0  0  0  0  0  0  0  0
    4.1829    6.9210   -1.0583 H   0  0  0  0  0  0  0  0  0  0  0  0
    2.6739    6.6191   -0.1313 H   0  0  0  0  0  0  0  0  0  0  0  0
    2.7081    6.3936   -1.9014 H   0  0  0  0  0  0  0  0  0  0  0  0
    4.5502    0.5166   -0.2689 H   0  0  0  0  0  0  0  0  0  0  0  0
    3.0726   -0.7148   -2.3385 H   0  0  0  0  0  0  0  0  0  0  0  0
    4.8257   -0.9028   -2.0535 H   0  0  0  0  0  0  0  0  0  0  0  0
    4.2239    0.3542   -3.1778 H   0  0  0  0  0  0  0  0  0  0  0  0
  1  2  2  0  0  0  0
  2  3  1  0  0  0  0
  2 37  1  0  0  0  0
  3  4  1  0  0  0  0
  4 52  1  0  0  0  0
  4 51  1  0  0  0  0
  5  4  1  0  0  0  0
  5 54  1  0  0  0  0
  6  5  1  0  0  0  0
  7  8  1  0  0  0  0
  7  6  1  0  0  0  0
  8 58  1  0  0  0  0
  8  3  1  0  0  0  0
  9  6  1  0  0  0  0
  9 36  1  0  0  0  0
 10  9  2  0  0  0  0
 11 10  1  0  0  0  0
 11 30  2  0  0  0  0
 12 11  1  0  0  0  0
 13 19  1  0  0  0  0
 13 12  2  0  0  0  0
 14 15  1  0  0  0  0
 14 13  1  0  0  0  0
 15 16  1  0  0  0  0
 16 12  1  0  0  0  0
 16 17  2  0  0  0  0
 18 14  2  0  0  0  0
 19 23  1  0  0  0  0
 20 21  1  0  0  0  0
 20 19  2  0  0  0  0
 21 24  1  0  0  0  0
 22 21  1  0  0  0  0
 23 29  1  0  0  0  0
 24 23  2  0  0  0  0
 24 25  1  0  0  0  0
 25 26  2  0  0  0  0
 26 27  1  0  0  0  0
 26 63  1  0  0  0  0
 27 28  1  0  0  0  0
 29 64  1  0  0  0  0
 29 27  2  0  0  0  0
 30 35  1  0  0  0  0
 31 32  1  0  0  0  0
 31 30  1  0  0  0  0
 31 33  1  0  0  0  0
 34 31  1  0  0  0  0
 35 36  2  0  0  0  0
 35 65  1  0  0  0  0
 36 66  1  0  0  0  0
 37 38  1  0  0  0  0
 38 69  1  0  0  0  0
 38 68  1  0  0  0  0
 39 38  1  0  0  0  0
 40 71  1  0  0  0  0
 40 39  1  0  0  0  0
 41 42  1  1  0  0  0
 41 40  1  0  0  0  0
 43 41  1  0  0  0  0
 43 72  1  0  0  0  0
 44 43  1  0  0  0  0
 45 44  1  0  0  0  0
 45 74  1  0  0  0  0
 46 44  2  0  0  0  0
 47 48  1  0  0  0  0
 47 41  1  0  0  0  0
 48 76  1  0  0  0  0
 49 78  1  0  0  0  0
 49 48  1  0  0  0  0
 50 47  2  0  0  0  0
 53  5  1  0  0  0  0
 55  7  1  0  0  0  0
 56  7  1  0  0  0  0
 57  8  1  0  0  0  0
 59 10  1  0  0  0  0
 60 15  1  0  0  0  0
 61 20  1  0  0  0  0
 62 25  1  0  0  0  0
 67 37  1  0  0  0  0
 70 40  1  0  0  0  0
 73 45  1  0  0  0  0
 75 45  1  0  0  0  0
 77 49  1  0  0  0  0
 79 49  1  0  0  0  0
M  END
