79
-1 1
O         5.215934   -0.146479    1.140576
C         4.424739    0.032813    2.110958
N         3.460348   -0.992863    2.290441
C         2.678354   -1.290599    3.450990
C         1.189161   -1.106115    3.170602
N         0.774147   -1.801300    1.950246
C         1.699411   -1.804141    0.816782
C         3.161476   -1.913922    1.235646
C        -0.574445   -1.895025    1.675860
C        -1.036865   -2.192025    0.377607
C        -2.387606   -2.309923    0.052186
C        -2.662241   -2.546532   -1.381547
C        -2.145192   -1.842780   -2.417062
C        -2.469002   -2.580216   -3.695127
N        -3.227714   -3.674326   -3.311471
C        -3.365386   -3.752571   -1.924313
O        -3.910500   -4.644665   -1.331003
O        -2.134914   -2.308358   -4.819156
C        -1.396813   -0.603413   -2.386315
C        -0.229943   -0.326926   -3.082140
N         0.261514    0.880865   -2.714511
H         1.204616    1.261820   -2.875379
C        -1.637491    0.538820   -1.537898
C        -0.576653    1.440145   -1.776702
C        -0.484359    2.679096   -1.131561
C        -1.481717    3.005319   -0.227200
C        -2.543147    2.112030    0.000978
F        -3.490833    2.477711    0.877022
C        -2.653925    0.891643   -0.632417
C        -3.355838   -2.131796    1.052764
C        -4.835753   -2.219023    0.806676
F        -5.334778   -3.438448    1.033545
F        -5.513858   -1.381961    1.610118
F        -5.169770   -1.887283   -0.452287
C        -2.915906   -1.818194    2.341620
C        -1.573042   -1.689083    2.656074
C         4.455159    1.173285    2.929564
C         3.387296    1.811949    3.699525
S         2.034561    2.816656    2.692056
C         2.179066    2.040960    1.065397
C         3.233036    2.660458    0.134722
H         4.221507    2.557863    0.610096
N         2.924122    4.046485   -0.107362
C         3.738045    4.837573   -0.854365
C         3.293240    6.284325   -0.975763
O         4.723978    4.414625   -1.425957
C         3.248791    1.858566   -1.172380
N         3.997990    0.753279   -1.126220
C         4.027749   -0.169768   -2.229484
O         2.560576    2.175865   -2.146276
H         2.988166   -0.675247    4.300826
H         2.851144   -2.347814    3.743033
H         0.954645   -0.025166    3.099093
H         0.628666   -1.516949    4.022389
H         1.557267   -0.892999    0.200871
H         1.470434   -2.668957    0.177751
H         3.817443   -1.698937    0.384605
H         3.367799   -2.953663    1.563553
H        -0.331125   -2.303367   -0.439798
H        -3.563233   -4.383638   -3.949113
H         0.288340   -0.951922   -3.806320
H         0.369109    3.332314   -1.322792
H        -1.461895    3.945745    0.325715
H        -3.501592    0.240973   -0.421827
H        -3.655028   -1.639285    3.124240
H        -1.308931   -1.411389    3.674155
H         5.304287    1.816748    2.682089
H         3.779121    2.599058    4.357286
H         2.746069    1.163303    4.305268
H         1.186662    2.087470    0.595742
H         2.423717    0.984351    1.214680
H         2.254550    4.474352    0.520519
H         4.182895    6.920985   -1.058320
H         2.673858    6.619122   -0.131302
H         2.708061    6.393619   -1.901387
H         4.550182    0.516636   -0.268871
H         3.072576   -0.714753   -2.338484
H         4.825720   -0.902844   -2.053522
H         4.223914    0.354212   -3.177844
