-1 1
 OpenBabel05232414493D

 79 82  0  0  1  0  0  0  0  0999 V2000
    7.1277   -5.9309   -7.7766 O   0  0  0  0  0  0  0  0  0  0  0  0
    6.3756   -5.7713   -6.7889 C   0  0  0  0  0  0  0  0  0  0  0  0
    5.4645   -6.8000   -6.5315 N   0  0  0  0  0  0  0  0  0  0  0  0
    4.5819   -6.9474   -5.4076 C   0  0  0  0  0  0  0  0  0  0  0  0
    3.1336   -6.6521   -5.7899 C   0  0  0  0  0  0  0  0  0  0  0  0
    2.7260   -7.4229   -6.9666 N   0  0  0  0  0  0  0  0  0  0  0  0
    3.6890   -7.4918   -8.0620 C   0  0  0  0  0  0  0  0  0  0  0  0
    5.1164   -7.7256   -7.5763 C   0  0  0  0  0  0  0  0  0  0  0  0
    1.3814   -7.5177   -7.2725 C   0  0  0  0  0  0  0  0  0  0  0  0
    0.9471   -7.8119   -8.5801 C   0  0  0  0  0  0  0  0  0  0  0  0
   -0.3964   -7.9539   -8.9287 C   0  0  0  0  0  0  0  0  0  0  0  0
   -0.6478   -8.1916  -10.3665 C   0  0  0  0  0  0  0  0  0  0  0  0
   -0.1333   -7.4780  -11.3975 C   0  0  0  0  0  0  0  0  0  0  0  0
   -0.4307   -8.2237  -12.6781 C   0  0  0  0  0  0  0  0  0  0  0  0
   -1.1723   -9.3310  -12.3011 N   0  0  0  0  0  0  0  0  0  0  0  0
   -1.3213   -9.4106  -10.9148 C   0  0  0  0  0  0  0  0  0  0  0  0
   -1.8541  -10.3138  -10.3266 O   0  0  0  0  0  0  0  0  0  0  0  0
   -0.0903   -7.9474  -13.7994 O   0  0  0  0  0  0  0  0  0  0  0  0
    0.5978   -6.2303  -11.3668 C   0  0  0  0  0  0  0  0  0  0  0  0
    1.7456   -5.9380  -12.0893 C   0  0  0  0  0  0  0  0  0  0  0  0
    2.2406   -4.7342  -11.7167 N   0  0  0  0  0  0  0  0  0  0  0  0
    3.1808   -4.3548  -11.8925 H   0  0  0  0  0  0  0  0  0  0  0  0
    0.3735   -5.1002  -10.4963 C   0  0  0  0  0  0  0  0  0  0  0  0
    1.4255   -4.1926  -10.7472 C   0  0  0  0  0  0  0  0  0  0  0  0
    1.5398   -2.9693  -10.0760 C   0  0  0  0  0  0  0  0  0  0  0  0
    0.5709   -2.6628   -9.1354 C   0  0  0  0  0  0  0  0  0  0  0  0
   -0.4872   -3.5578   -8.9009 C   0  0  0  0  0  0  0  0  0  0  0  0
   -1.4104   -3.2122   -7.9914 F   0  0  0  0  0  0  0  0  0  0  0  0
   -0.6186   -4.7635   -9.5581 C   0  0  0  0  0  0  0  0  0  0  0  0
   -1.3834   -7.7972   -7.9436 C   0  0  0  0  0  0  0  0  0  0  0  0
   -2.8582   -7.9087   -8.2128 C   0  0  0  0  0  0  0  0  0  0  0  0
   -3.3402   -9.1357   -7.9898 F   0  0  0  0  0  0  0  0  0  0  0  0
   -3.5609   -7.0812   -7.4203 F   0  0  0  0  0  0  0  0  0  0  0  0
   -3.1791   -7.5844   -9.4761 F   0  0  0  0  0  0  0  0  0  0  0  0
   -0.9710   -7.4788   -6.6467 C   0  0  0  0  0  0  0  0  0  0  0  0
    0.3637   -7.3301   -6.3095 C   0  0  0  0  0  0  0  0  0  0  0  0
    6.4530   -4.5795   -5.9896 C   0  0  0  0  0  3  0  0  0  0  0  0
    5.4933   -3.9206   -5.2065 C   0  0  0  0  0  3  0  0  0  0  0  0
    3.8978   -2.7780   -6.3891 S   0  0  0  0  0  1  0  0  0  0  0  0
    4.1783   -3.6583   -7.9372 C   0  0  0  0  0  0  0  0  0  0  0  0
    5.2087   -3.0111   -8.8825 C   0  0  2  0  0  0  0  0  0  0  0  0
    6.2045   -3.0820   -8.4127 H   0  0  0  0  0  0  0  0  0  0  0  0
    4.8622   -1.6367   -9.1246 N   0  0  0  0  0  0  0  0  0  0  0  0
    5.6701   -0.8207   -9.8501 C   0  0  0  0  0  0  0  0  0  0  0  0
    5.2058    0.6220   -9.9423 C   0  0  0  0  0  0  0  0  0  0  0  0
    6.6650   -1.2175  -10.4271 O   0  0  0  0  0  0  0  0  0  0  0  0
    5.2367   -3.8188  -10.1825 C   0  0  0  0  0  0  0  0  0  0  0  0
    5.9532   -4.9500  -10.1110 N   0  0  0  0  0  0  0  0  0  0  0  0
    5.9809   -5.8862  -11.2035 C   0  0  0  0  0  0  0  0  0  0  0  0
    4.5855   -3.5003  -11.1784 O   0  0  0  0  0  0  0  0  0  0  0  0
    4.9023   -6.3131   -4.5766 H   0  0  0  0  0  0  0  0  0  0  0  0
    4.6446   -7.9952   -5.0546 H   0  0  0  0  0  0  0  0  0  0  0  0
    3.0026   -5.5660   -5.9673 H   0  0  0  0  0  0  0  0  0  0  0  0
    2.5005   -6.9309   -4.9377 H   0  0  0  0  0  0  0  0  0  0  0  0
    3.6532   -6.5701   -8.6769 H   0  0  0  0  0  0  0  0  0  0  0  0
    3.4231   -8.3342   -8.7147 H   0  0  0  0  0  0  0  0  0  0  0  0
    5.8228   -7.5973   -8.4040 H   0  0  0  0  0  0  0  0  0  0  0  0
    5.2093   -8.7620   -7.2000 H   0  0  0  0  0  0  0  0  0  0  0  0
    1.6677   -7.8978   -9.3881 H   0  0  0  0  0  0  0  0  0  0  0  0
   -1.4881  -10.0471  -12.9411 H   0  0  0  0  0  0  0  0  0  0  0  0
    2.2468   -6.5504  -12.8358 H   0  0  0  0  0  0  0  0  0  0  0  0
    2.3920   -2.3145  -10.2672 H   0  0  0  0  0  0  0  0  0  0  0  0
    0.6174   -1.7415   -8.5534 H   0  0  0  0  0  0  0  0  0  0  0  0
   -1.4624   -5.4156   -9.3378 H   0  0  0  0  0  0  0  0  0  0  0  0
   -1.7258   -7.3156   -5.8758 H   0  0  0  0  0  0  0  0  0  0  0  0
    0.6053   -7.0567   -5.2847 H   0  0  0  0  0  0  0  0  0  0  0  0
    7.3129   -3.9798   -6.3010 H   0  0  0  0  0  0  0  0  0  0  0  0
    5.8451   -3.0377   -4.6689 H   0  0  0  0  0  0  0  0  0  0  0  0
    4.7221   -4.4570   -4.6574 H   0  0  0  0  0  0  0  0  0  0  0  0
    3.2187   -3.7823   -8.4586 H   0  0  0  0  0  0  0  0  0  0  0  0
    4.5487   -4.6634   -7.7003 H   0  0  0  0  0  0  0  0  0  0  0  0
    4.2265   -1.2361   -8.4400 H   0  0  0  0  0  0  0  0  0  0  0  0
    6.0856    1.2726  -10.0232 H   0  0  0  0  0  0  0  0  0  0  0  0
    4.5904    0.9309   -9.0852 H   0  0  0  0  0  0  0  0  0  0  0  0
    4.6079    0.7395  -10.8588 H   0  0  0  0  0  0  0  0  0  0  0  0
    6.4781   -5.1866   -9.2517 H   0  0  0  0  0  0  0  0  0  0  0  0
    5.0110   -6.3993  -11.3316 H   0  0  0  0  0  0  0  0  0  0  0  0
    6.7495   -6.6432  -11.0007 H   0  0  0  0  0  0  0  0  0  0  0  0
    6.2180   -5.3787  -12.1513 H   0  0  0  0  0  0  0  0  0  0  0  0
  1  2  2  0  0  0  0
  2  3  1  0  0  0  0
  2 37  1  0  0  0  0
  3  4  1  0  0  0  0
  4 52  1  0  0  0  0
  4 51  1  0  0  0  0
  5  4  1  0  0  0  0
  5 54  1  0  0  0  0
  6  5  1  0  0  0  0
  7  8  1  0  0  0  0
  7  6  1  0  0  0  0
  8 58  1  0  0  0  0
  8  3  1  0  0  0  0
  9  6  1  0  0  0  0
  9 36  1  0  0  0  0
 10  9  2  0  0  0  0
 11 10  1  0  0  0  0
 11 30  2  0  0  0  0
 12 11  1  0  0  0  0
 13 19  1  0  0  0  0
 13 12  2  0  0  0  0
 14 15  1  0  0  0  0
 14 13  1  0  0  0  0
 15 16  1  0  0  0  0
 16 12  1  0  0  0  0
 16 17  2  0  0  0  0
 18 14  2  0  0  0  0
 19 23  1  0  0  0  0
 20 21  1  0  0  0  0
 20 19  2  0  0  0  0
 21 24  1  0  0  0  0
 22 21  1  0  0  0  0
 23 29  1  0  0  0  0
 24 23  2  0  0  0  0
 24 25  1  0  0  0  0
 25 26  2  0  0  0  0
 26 27  1  0  0  0  0
 26 63  1  0  0  0  0
 27 28  1  0  0  0  0
 29 64  1  0  0  0  0
 29 27  2  0  0  0  0
 30 35  1  0  0  0  0
 31 32  1  0  0  0  0
 31 30  1  0  0  0  0
 31 33  1  0  0  0  0
 34 31  1  0  0  0  0
 35 36  2  0  0  0  0
 35 65  1  0  0  0  0
 36 66  1  0  0  0  0
 37 38  1  0  0  0  0
 38 68  1  0  0  0  0
 38 69  1  0  0  0  0
 40 71  1  0  0  0  0
 40 39  1  0  0  0  0
 41 42  1  1  0  0  0
 41 40  1  0  0  0  0
 43 41  1  0  0  0  0
 43 72  1  0  0  0  0
 44 43  1  0  0  0  0
 45 44  1  0  0  0  0
 45 74  1  0  0  0  0
 46 44  2  0  0  0  0
 47 48  1  0  0  0  0
 47 41  1  0  0  0  0
 48 76  1  0  0  0  0
 49 78  1  0  0  0  0
 49 48  1  0  0  0  0
 50 47  2  0  0  0  0
 53  5  1  0  0  0  0
 55  7  1  0  0  0  0
 56  7  1  0  0  0  0
 57  8  1  0  0  0  0
 59 10  1  0  0  0  0
 60 15  1  0  0  0  0
 61 20  1  0  0  0  0
 62 25  1  0  0  0  0
 67 37  1  0  0  0  0
 70 40  1  0  0  0  0
 73 45  1  0  0  0  0
 75 45  1  0  0  0  0
 77 49  1  0  0  0  0
 79 49  1  0  0  0  0
M  END
