-1 1
 OpenBabel05232413493D

 76 77  0  0  1  0  0  0  0  0999 V2000
    5.7933   -1.8775    0.3706 O   0  0  0  0  0  0  0  0  0  0  0  0
    4.8208   -1.3525    0.8856 C   0  0  0  0  0  0  0  0  0  0  0  0
    3.5269   -1.1184    0.1098 C   0  0  2  0  0  0  0  0  0  0  0  0
    3.5341    0.3241   -0.4650 C   0  0  0  0  0  0  0  0  0  0  0  0
    1.9197    0.8880   -1.1079 S   0  0  0  0  0  1  0  0  0  0  0  0
    0.3182    1.0506    2.7615 C   0  0  0  0  0  0  0  0  0  0  0  0
   -0.9687    1.4995    2.2060 C   0  0  0  0  0  0  0  0  0  0  0  0
   -2.1497    1.5098    2.9597 C   0  0  0  0  0  0  0  0  0  0  0  0
   -3.3607    1.8633    2.3674 C   0  0  0  0  0  0  0  0  0  0  0  0
   -4.5937    1.8298    3.2244 C   0  0  0  0  0  0  0  0  0  0  0  0
   -5.7834    1.7357    2.5517 N   0  0  0  0  0  0  0  0  0  0  0  0
   -4.5507    1.8850    4.4377 O   0  0  0  0  0  0  0  0  0  0  0  0
   -3.3853    2.2332    1.0153 C   0  0  0  0  0  0  0  0  0  0  0  0
   -2.2156    2.2537    0.2581 C   0  0  0  0  0  0  0  0  0  0  0  0
   -2.2270    2.6732   -1.2011 C   0  0  0  0  0  0  0  0  0  0  0  0
   -1.2546    1.9452   -1.9692 N   0  0  0  0  0  0  0  0  0  0  0  0
   -1.5266    0.5400   -2.1945 C   0  0  0  0  0  0  0  0  0  0  0  0
   -2.4816    0.3129   -3.3694 C   0  0  0  0  0  0  0  0  0  0  0  0
   -1.9946    1.0005   -4.5574 N   0  0  0  0  0  0  0  0  0  0  0  0
   -1.6504    2.4030   -4.3726 C   0  0  0  0  0  0  0  0  0  0  0  0
   -0.7255    2.5644   -3.1624 C   0  0  0  0  0  0  0  0  0  0  0  0
   -1.9685    0.4063   -5.7758 C   0  0  0  0  0  0  0  0  0  0  0  0
   -1.5540    1.1429   -6.8283 N   0  0  0  0  0  0  0  0  0  0  0  0
   -1.4989    0.5382   -8.0020 C   0  0  0  0  0  0  0  0  0  0  0  0
   -1.8555   -0.7960   -8.1918 C   0  0  0  0  0  0  0  0  0  0  0  0
   -2.2943   -1.4578   -7.0458 C   0  0  0  0  0  0  0  0  0  0  0  0
   -2.3616   -0.8822   -5.8583 N   0  0  0  0  0  0  0  0  0  0  0  0
   -1.0088    1.8869    0.8604 C   0  0  0  0  0  0  0  0  0  0  0  0
    0.4592    0.1600    3.7538 C   0  0  0  0  0  0  0  0  0  0  0  0
    1.8029   -0.3321    4.1212 C   0  0  0  0  0  0  0  0  0  0  0  0
    2.8401    0.2695    3.9543 O   0  0  0  0  0  0  0  0  0  0  0  0
    1.7414   -1.5663    4.6262 O   0  0  0  0  0  0  0  0  0  0  0  0
    2.9739   -2.2659    4.8320 C   0  0  0  0  0  0  0  0  0  0  0  0
    2.6536   -3.7322    5.0021 C   0  0  0  0  0  0  0  0  0  0  0  0
    2.3117   -1.2914    0.8798 N   0  0  0  0  0  0  0  0  0  0  0  0
    1.9358   -2.4634    1.4382 C   0  0  0  0  0  0  0  0  0  0  0  0
    0.4577   -2.5831    1.7708 C   0  0  0  0  0  0  0  0  0  0  0  0
    2.7107   -3.3785    1.6864 O   0  0  0  0  0  0  0  0  0  0  0  0
    3.5499   -1.8411   -0.7225 H   0  0  0  0  0  0  0  0  0  0  0  0
    4.8473   -0.8459    2.1434 N   0  0  0  0  0  0  0  0  0  0  0  0
    6.0320   -0.9083    2.9528 C   0  0  0  0  0  0  0  0  0  0  0  0
    3.8653    1.0056    0.3366 H   0  0  0  0  0  0  0  0  0  0  0  0
    4.3076    0.3507   -1.2468 H   0  0  0  0  0  0  0  0  0  0  0  0
   -2.1492    1.2467    4.0195 H   0  0  0  0  0  0  0  0  0  0  0  0
   -5.8110    1.4065    1.5976 H   0  0  0  0  0  0  0  0  0  0  0  0
   -6.6087    1.6025    3.1211 H   0  0  0  0  0  0  0  0  0  0  0  0
   -4.3247    2.5382    0.5433 H   0  0  0  0  0  0  0  0  0  0  0  0
   -1.9627    3.7435   -1.2558 H   0  0  0  0  0  0  0  0  0  0  0  0
   -3.2722    2.6019   -1.5836 H   0  0  0  0  0  0  0  0  0  0  0  0
   -1.9456    0.0919   -1.2806 H   0  0  0  0  0  0  0  0  0  0  0  0
   -0.5638    0.0368   -2.3852 H   0  0  0  0  0  0  0  0  0  0  0  0
   -3.4927    0.6960   -3.1245 H   0  0  0  0  0  0  0  0  0  0  0  0
   -2.5784   -0.7531   -3.6001 H   0  0  0  0  0  0  0  0  0  0  0  0
   -2.5820    2.9848   -4.2214 H   0  0  0  0  0  0  0  0  0  0  0  0
   -1.1752    2.7663   -5.2901 H   0  0  0  0  0  0  0  0  0  0  0  0
   -0.5381    3.6327   -2.9748 H   0  0  0  0  0  0  0  0  0  0  0  0
    0.2506    2.0959   -3.3754 H   0  0  0  0  0  0  0  0  0  0  0  0
   -1.1539    1.1493   -8.8454 H   0  0  0  0  0  0  0  0  0  0  0  0
   -1.8016   -1.2835   -9.1646 H   0  0  0  0  0  0  0  0  0  0  0  0
   -2.6106   -2.5072   -7.0933 H   0  0  0  0  0  0  0  0  0  0  0  0
   -0.0907    1.8497    0.2560 H   0  0  0  0  0  0  0  0  0  0  0  0
    3.4764   -1.8380    5.7155 H   0  0  0  0  0  0  0  0  0  0  0  0
    3.6189   -2.1168    3.9549 H   0  0  0  0  0  0  0  0  0  0  0  0
    1.9268   -3.8936    5.8126 H   0  0  0  0  0  0  0  0  0  0  0  0
    3.5751   -4.2825    5.2425 H   0  0  0  0  0  0  0  0  0  0  0  0
    2.2607   -4.1315    4.0561 H   0  0  0  0  0  0  0  0  0  0  0  0
    1.5890   -0.6465    0.5212 H   0  0  0  0  0  0  0  0  0  0  0  0
    0.3448   -2.6834    2.8591 H   0  0  0  0  0  0  0  0  0  0  0  0
    0.0825   -3.5051    1.3044 H   0  0  0  0  0  0  0  0  0  0  0  0
   -0.1376   -1.7278    1.4234 H   0  0  0  0  0  0  0  0  0  0  0  0
    4.0297   -0.3737    2.5168 H   0  0  0  0  0  0  0  0  0  0  0  0
    5.7762   -0.5976    3.9753 H   0  0  0  0  0  0  0  0  0  0  0  0
    6.8326   -0.2486    2.5741 H   0  0  0  0  0  0  0  0  0  0  0  0
    6.4361   -1.9327    2.9743 H   0  0  0  0  0  0  0  0  0  0  0  0
    1.2204    1.4152    2.2571 H   0  0  0  0  0  0  0  0  0  0  0  0
   -0.3963   -0.3319    4.2229 H   0  0  0  0  0  0  0  0  0  0  0  0
  1  2  2  0  0  0  0
  2 40  1  0  0  0  0
  3 39  1  6  0  0  0
  3 35  1  0  0  0  0
  3  2  1  0  0  0  0
  4  3  1  0  0  0  0
  4 42  1  0  0  0  0
  5  4  1  0  0  0  0
  6 29  2  0  0  0  0
  7  6  1  0  0  0  0
  7  8  1  0  0  0  0
  8 44  1  0  0  0  0
  9  8  2  0  0  0  0
  9 10  1  0  0  0  0
 10 12  2  0  0  0  0
 11 46  1  0  0  0  0
 11 10  1  0  0  0  0
 13  9  1  0  0  0  0
 14 28  1  0  0  0  0
 14 13  2  0  0  0  0
 15 14  1  0  0  0  0
 16 15  1  0  0  0  0
 17 16  1  0  0  0  0
 17 50  1  0  0  0  0
 18 52  1  0  0  0  0
 18 17  1  0  0  0  0
 19 20  1  0  0  0  0
 19 18  1  0  0  0  0
 20 54  1  0  0  0  0
 20 21  1  0  0  0  0
 21 56  1  0  0  0  0
 21 16  1  0  0  0  0
 22 19  1  0  0  0  0
 23 22  2  0  0  0  0
 24 23  1  0  0  0  0
 25 24  2  0  0  0  0
 25 26  1  0  0  0  0
 26 27  2  0  0  0  0
 27 22  1  0  0  0  0
 28  7  2  0  0  0  0
 29 30  1  0  0  0  0
 29 76  1  0  0  0  0
 30 32  1  0  0  0  0
 31 30  2  0  0  0  0
 32 33  1  0  0  0  0
 33 34  1  0  0  0  0
 33 62  1  0  0  0  0
 34 65  1  0  0  0  0
 34 64  1  0  0  0  0
 35 36  1  0  0  0  0
 36 38  2  0  0  0  0
 36 37  1  0  0  0  0
 37 68  1  0  0  0  0
 40 71  1  0  0  0  0
 40 41  1  0  0  0  0
 41 74  1  0  0  0  0
 41 72  1  0  0  0  0
 43  4  1  0  0  0  0
 45 11  1  0  0  0  0
 47 13  1  0  0  0  0
 48 15  1  0  0  0  0
 49 15  1  0  0  0  0
 51 17  1  0  0  0  0
 53 18  1  0  0  0  0
 55 20  1  0  0  0  0
 57 21  1  0  0  0  0
 58 24  1  0  0  0  0
 59 25  1  0  0  0  0
 60 26  1  0  0  0  0
 61 28  1  0  0  0  0
 63 33  1  0  0  0  0
 66 34  1  0  0  0  0
 67 35  1  0  0  0  0
 69 37  1  0  0  0  0
 70 37  1  0  0  0  0
 73 41  1  0  0  0  0
 75  6  1  0  0  0  0
M  END
