-1 1
 OpenBabel05232414493D

 76 77  0  0  1  0  0  0  0  0999 V2000
    4.7713   -3.6459    1.8892 O   0  0  0  0  0  0  0  0  0  0  0  0
    4.0204   -2.8445    2.4105 C   0  0  0  0  0  0  0  0  0  0  0  0
    2.7632   -2.2745    1.7297 C   0  0  2  0  0  0  0  0  0  0  0  0
    1.4435   -2.4404    2.5103 C   0  0  0  0  0  0  0  0  0  0  0  0
    0.0808   -1.5213    1.7447 S   0  0  0  0  0  1  0  0  0  0  0  0
    0.2983    0.5568    3.3272 C   0  0  0  0  0  3  0  0  0  0  0  0
   -0.9772    1.0542    2.7755 C   0  0  0  0  0  0  0  0  0  0  0  0
   -2.1822    1.0073    3.4854 C   0  0  0  0  0  0  0  0  0  0  0  0
   -3.3766    1.4077    2.8866 C   0  0  0  0  0  0  0  0  0  0  0  0
   -4.6416    1.2860    3.6843 C   0  0  0  0  0  0  0  0  0  0  0  0
   -5.7855    1.1023    2.9457 N   0  0  0  0  0  0  0  0  0  0  0  0
   -4.6704    1.3513    4.8969 O   0  0  0  0  0  0  0  0  0  0  0  0
   -3.3717    1.8904    1.5729 C   0  0  0  0  0  0  0  0  0  0  0  0
   -2.1722    1.9955    0.8669 C   0  0  0  0  0  0  0  0  0  0  0  0
   -2.1576    2.5309   -0.5482 C   0  0  0  0  0  0  0  0  0  0  0  0
   -1.1974    1.8544   -1.4003 N   0  0  0  0  0  0  0  0  0  0  0  0
   -1.3897    0.4188   -1.5588 C   0  0  0  0  0  0  0  0  0  0  0  0
   -2.5382    0.0709   -2.5060 C   0  0  0  0  0  0  0  0  0  0  0  0
   -2.3689    0.7611   -3.7796 N   0  0  0  0  0  0  0  0  0  0  0  0
   -2.1416    2.1934   -3.6827 C   0  0  0  0  0  0  0  0  0  0  0  0
   -1.0057    2.4781   -2.6932 C   0  0  0  0  0  0  0  0  0  0  0  0
   -2.5025    0.1304   -4.9735 C   0  0  0  0  0  0  0  0  0  0  0  0
   -2.3615    0.8668   -6.0957 N   0  0  0  0  0  0  0  0  0  0  0  0
   -2.4704    0.2301   -7.2498 C   0  0  0  0  0  0  0  0  0  0  0  0
   -2.7244   -1.1364   -7.3471 C   0  0  0  0  0  0  0  0  0  0  0  0
   -2.8665   -1.7996   -6.1284 C   0  0  0  0  0  0  0  0  0  0  0  0
   -2.7649   -1.1923   -4.9593 N   0  0  0  0  0  0  0  0  0  0  0  0
   -0.9905    1.5864    1.4796 C   0  0  0  0  0  0  0  0  0  0  0  0
    0.4947    0.1689    4.6275 C   0  0  0  0  0  3  0  0  0  0  0  0
    1.8194   -0.0840    5.1221 C   0  0  0  0  0  0  0  0  0  0  0  0
    2.8800    0.0585    4.5197 O   0  0  0  0  0  0  0  0  0  0  0  0
    1.8105   -0.5244    6.4064 O   0  0  0  0  0  0  0  0  0  0  0  0
    3.0502   -0.9240    6.9526 C   0  0  0  0  0  0  0  0  0  0  0  0
    2.8387   -1.2340    8.4188 C   0  0  0  0  0  0  0  0  0  0  0  0
    2.6601   -2.7515    0.3657 N   0  0  0  0  0  0  0  0  0  0  0  0
    2.2773   -4.0207    0.0447 C   0  0  0  0  0  0  0  0  0  0  0  0
    1.8997   -4.1947   -1.4195 C   0  0  0  0  0  0  0  0  0  0  0  0
    2.2120   -4.9404    0.8342 O   0  0  0  0  0  0  0  0  0  0  0  0
    2.9438   -1.1885    1.6594 H   0  0  0  0  0  0  0  0  0  0  0  0
    4.2595   -2.3256    3.6481 N   0  0  0  0  0  0  0  0  0  0  0  0
    5.4843   -2.6519    4.3283 C   0  0  0  0  0  0  0  0  0  0  0  0
    1.2036   -3.5106    2.5740 H   0  0  0  0  0  0  0  0  0  0  0  0
    1.5700   -2.0765    3.5446 H   0  0  0  0  0  0  0  0  0  0  0  0
   -2.2189    0.6269    4.5066 H   0  0  0  0  0  0  0  0  0  0  0  0
   -5.7179    0.7176    2.0136 H   0  0  0  0  0  0  0  0  0  0  0  0
   -6.6172    0.8806    3.4780 H   0  0  0  0  0  0  0  0  0  0  0  0
   -4.3040    2.2140    1.1004 H   0  0  0  0  0  0  0  0  0  0  0  0
   -1.8744    3.5986   -0.5279 H   0  0  0  0  0  0  0  0  0  0  0  0
   -3.1993    2.5053   -0.9392 H   0  0  0  0  0  0  0  0  0  0  0  0
   -1.5432   -0.0555   -0.5793 H   0  0  0  0  0  0  0  0  0  0  0  0
   -0.4556   -0.0061   -1.9618 H   0  0  0  0  0  0  0  0  0  0  0  0
   -3.5073    0.3669   -2.0608 H   0  0  0  0  0  0  0  0  0  0  0  0
   -2.5769   -1.0069   -2.6938 H   0  0  0  0  0  0  0  0  0  0  0  0
   -3.0733    2.6878   -3.3461 H   0  0  0  0  0  0  0  0  0  0  0  0
   -1.9046    2.5782   -4.6804 H   0  0  0  0  0  0  0  0  0  0  0  0
   -0.8928    3.5667   -2.5656 H   0  0  0  0  0  0  0  0  0  0  0  0
   -0.0647    2.0972   -3.1271 H   0  0  0  0  0  0  0  0  0  0  0  0
   -2.3506    0.8416   -8.1528 H   0  0  0  0  0  0  0  0  0  0  0  0
   -2.8104   -1.6486   -8.3048 H   0  0  0  0  0  0  0  0  0  0  0  0
   -3.0752   -2.8760   -6.0977 H   0  0  0  0  0  0  0  0  0  0  0  0
   -0.0618    1.6168    0.9055 H   0  0  0  0  0  0  0  0  0  0  0  0
    3.8006   -0.1293    6.8104 H   0  0  0  0  0  0  0  0  0  0  0  0
    3.4179   -1.8132    6.4115 H   0  0  0  0  0  0  0  0  0  0  0  0
    2.4813   -0.3432    8.9564 H   0  0  0  0  0  0  0  0  0  0  0  0
    3.7818   -1.5653    8.8787 H   0  0  0  0  0  0  0  0  0  0  0  0
    2.0915   -2.0313    8.5431 H   0  0  0  0  0  0  0  0  0  0  0  0
    2.4108   -2.0384   -0.3057 H   0  0  0  0  0  0  0  0  0  0  0  0
    0.8604   -3.8576   -1.5586 H   0  0  0  0  0  0  0  0  0  0  0  0
    1.9624   -5.2590   -1.6757 H   0  0  0  0  0  0  0  0  0  0  0  0
    2.5476   -3.6113   -2.0904 H   0  0  0  0  0  0  0  0  0  0  0  0
    3.7592   -1.4824    3.9401 H   0  0  0  0  0  0  0  0  0  0  0  0
    5.4476   -2.2565    5.3533 H   0  0  0  0  0  0  0  0  0  0  0  0
    6.3751   -2.2338    3.8245 H   0  0  0  0  0  0  0  0  0  0  0  0
    5.6199   -3.7426    4.3702 H   0  0  0  0  0  0  0  0  0  0  0  0
    1.1886    0.8044    2.7474 H   0  0  0  0  0  0  0  0  0  0  0  0
   -0.3317   -0.0505    5.3039 H   0  0  0  0  0  0  0  0  0  0  0  0
  1  2  2  0  0  0  0
  2 40  1  0  0  0  0
  3 39  1  6  0  0  0
  3  2  1  0  0  0  0
  3  4  1  0  0  0  0
  4 42  1  0  0  0  0
  4 43  1  0  0  0  0
  5  4  1  0  0  0  0
  6 29  1  0  0  0  0
  7  6  1  0  0  0  0
  7  8  1  0  0  0  0
  8 44  1  0  0  0  0
  9  8  2  0  0  0  0
  9 10  1  0  0  0  0
 10 12  2  0  0  0  0
 11 46  1  0  0  0  0
 11 10  1  0  0  0  0
 13  9  1  0  0  0  0
 14 28  1  0  0  0  0
 14 13  2  0  0  0  0
 15 48  1  0  0  0  0
 15 14  1  0  0  0  0
 16 15  1  0  0  0  0
 17 16  1  0  0  0  0
 17 50  1  0  0  0  0
 18 52  1  0  0  0  0
 18 17  1  0  0  0  0
 19 20  1  0  0  0  0
 19 18  1  0  0  0  0
 20 54  1  0  0  0  0
 20 21  1  0  0  0  0
 21 56  1  0  0  0  0
 21 16  1  0  0  0  0
 22 27  1  0  0  0  0
 22 19  1  0  0  0  0
 23 22  2  0  0  0  0
 24 23  1  0  0  0  0
 25 24  2  0  0  0  0
 25 26  1  0  0  0  0
 26 60  1  0  0  0  0
 26 27  2  0  0  0  0
 28  7  2  0  0  0  0
 29 30  1  0  0  0  0
 29 76  1  0  0  0  0
 30 32  1  0  0  0  0
 31 30  2  0  0  0  0
 32 33  1  0  0  0  0
 33 34  1  0  0  0  0
 34 66  1  0  0  0  0
 34 65  1  0  0  0  0
 34 64  1  0  0  0  0
 35  3  1  0  0  0  0
 36 35  1  0  0  0  0
 36 38  2  0  0  0  0
 37 36  1  0  0  0  0
 40 71  1  0  0  0  0
 40 41  1  0  0  0  0
 41 74  1  0  0  0  0
 41 72  1  0  0  0  0
 45 11  1  0  0  0  0
 47 13  1  0  0  0  0
 49 15  1  0  0  0  0
 51 17  1  0  0  0  0
 53 18  1  0  0  0  0
 55 20  1  0  0  0  0
 57 21  1  0  0  0  0
 58 24  1  0  0  0  0
 59 25  1  0  0  0  0
 61 28  1  0  0  0  0
 62 33  1  0  0  0  0
 63 33  1  0  0  0  0
 67 35  1  0  0  0  0
 68 37  1  0  0  0  0
 69 37  1  0  0  0  0
 70 37  1  0  0  0  0
 73 41  1  0  0  0  0
 75  6  1  0  0  0  0
M  END
