-1 1
 OpenBabel05192410563D

 82 86  0  0  1  0  0  0  0  0999 V2000
    3.4841    3.9228    2.0375 O   0  0  0  0  0  0  0  0  0  0  0  0
    2.2972    4.1620    2.3276 C   0  0  0  0  0  0  0  0  0  0  0  0
    1.2695    3.2465    1.7989 N   0  0  0  0  0  0  0  0  0  0  0  0
    0.5184    3.7258    0.6542 C   0  0  0  0  0  0  0  0  0  0  0  0
    1.2637    3.4958   -0.6703 C   0  0  0  0  0  0  0  0  0  0  0  0
    1.5791    2.0725   -0.7997 N   0  0  0  0  0  0  0  0  0  0  0  0
    2.4725    1.6870    0.2954 C   0  0  0  0  0  0  0  0  0  0  0  0
    1.7396    1.8828    1.6259 C   0  0  0  0  0  0  0  0  0  0  0  0
    0.6167    1.1970   -1.2347 C   0  0  0  0  0  0  0  0  0  0  0  0
    0.6430   -0.1737   -0.8824 C   0  0  0  0  0  0  0  0  0  0  0  0
   -0.3169   -1.0802   -1.3170 C   0  0  0  0  0  0  0  0  0  0  0  0
   -0.1591   -2.4833   -0.8858 C   0  0  0  0  0  0  0  0  0  0  0  0
    0.0765   -3.6179   -1.5878 C   0  0  0  0  0  0  0  0  0  0  0  0
    0.0437   -4.7759   -0.6028 C   0  0  0  0  0  0  0  0  0  0  0  0
   -0.1749   -4.2173    0.6394 N   0  0  0  0  0  0  0  0  0  0  0  0
   -0.2809   -2.8312    0.5686 C   0  0  0  0  0  0  0  0  0  0  0  0
   -0.4275   -2.0959    1.5084 O   0  0  0  0  0  0  0  0  0  0  0  0
    0.1741   -5.9542   -0.8238 O   0  0  0  0  0  0  0  0  0  0  0  0
    0.3315   -3.8616   -2.9939 C   0  0  0  0  0  0  0  0  0  0  0  0
    0.1126   -5.0825   -3.6025 C   0  0  0  0  0  0  0  0  0  0  0  0
    0.3891   -4.9967   -4.9330 N   0  0  0  0  0  0  0  0  0  0  0  0
    0.3038   -5.7554   -5.5922 H   0  0  0  0  0  0  0  0  0  0  0  0
    0.7999   -2.9691   -4.0407 C   0  0  0  0  0  0  0  0  0  0  0  0
    0.8158   -3.7220   -5.2356 C   0  0  0  0  0  0  0  0  0  0  0  0
    1.2213   -3.1929   -6.4660 C   0  0  0  0  0  0  0  0  0  0  0  0
    1.6320   -1.8671   -6.5124 C   0  0  0  0  0  0  0  0  0  0  0  0
    2.0726   -1.2311   -7.8059 C   0  0  0  0  0  0  0  0  0  0  0  0
    1.6363   -1.1079   -5.3194 C   0  0  0  0  0  0  0  0  0  0  0  0
    1.2357   -1.6336   -4.1031 C   0  0  0  0  0  0  0  0  0  0  0  0
   -1.3924   -0.6456   -2.1103 C   0  0  0  0  0  0  0  0  0  0  0  0
   -2.5214   -1.5513   -2.5069 C   0  0  0  0  0  0  0  0  0  0  0  0
   -2.9467   -2.3159   -1.4878 F   0  0  0  0  0  0  0  0  0  0  0  0
   -3.5858   -0.8558   -2.9355 F   0  0  0  0  0  0  0  0  0  0  0  0
   -2.2093   -2.3983   -3.5036 F   0  0  0  0  0  0  0  0  0  0  0  0
   -1.4185    0.6987   -2.4882 C   0  0  0  0  0  0  0  0  0  0  0  0
   -0.4468    1.5957   -2.0812 C   0  0  0  0  0  0  0  0  0  0  0  0
    1.8186    5.2090    3.1246 C   0  0  0  0  0  3  0  0  0  0  0  0
    0.4415    5.3855    3.5731 C   0  0  0  0  0  0  0  0  0  0  0  0
   -0.0783    4.5630    5.2635 S   0  0  0  0  0  0  0  0  0  0  0  0
    0.3407    2.8305    4.9326 C   0  0  0  0  0  0  0  0  0  0  0  0
   -0.8034    1.8929    4.4790 C   0  0  2  0  0  0  0  0  0  0  0  0
   -1.5493    1.8723    5.2932 H   0  0  0  0  0  0  0  0  0  0  0  0
   -0.3149    0.5505    4.2656 N   0  0  0  0  0  0  0  0  0  0  0  0
   -0.0134   -0.2936    5.2797 C   0  0  0  0  0  0  0  0  0  0  0  0
    0.4669   -1.6666    4.8452 C   0  0  0  0  0  0  0  0  0  0  0  0
   -0.0820    0.0242    6.4565 O   0  0  0  0  0  0  0  0  0  0  0  0
   -1.5461    2.2875    3.1923 C   0  0  0  0  0  0  0  0  0  0  0  0
   -2.2551    3.4360    3.2736 N   0  0  0  0  0  0  0  0  0  0  0  0
   -2.9354    3.9940    2.1343 C   0  0  0  0  0  0  0  0  0  0  0  0
   -1.5503    1.5629    2.2075 O   0  0  0  0  0  0  0  0  0  0  0  0
    0.3181    4.7995    0.7848 H   0  0  0  0  0  0  0  0  0  0  0  0
   -0.4485    3.1902    0.6061 H   0  0  0  0  0  0  0  0  0  0  0  0
    2.2153    4.0476   -0.6594 H   0  0  0  0  0  0  0  0  0  0  0  0
    0.6861    3.8564   -1.5314 H   0  0  0  0  0  0  0  0  0  0  0  0
    3.3364    2.3638    0.2916 H   0  0  0  0  0  0  0  0  0  0  0  0
    2.8428    0.6628    0.1579 H   0  0  0  0  0  0  0  0  0  0  0  0
    2.4091    1.6339    2.4609 H   0  0  0  0  0  0  0  0  0  0  0  0
    0.8663    1.2084    1.6620 H   0  0  0  0  0  0  0  0  0  0  0  0
    1.4250   -0.5533   -0.2301 H   0  0  0  0  0  0  0  0  0  0  0  0
   -0.2224   -4.7474    1.4995 H   0  0  0  0  0  0  0  0  0  0  0  0
   -0.2285   -6.0085   -3.1490 H   0  0  0  0  0  0  0  0  0  0  0  0
    1.2161   -3.8098   -7.3687 H   0  0  0  0  0  0  0  0  0  0  0  0
    2.0452   -1.9469   -8.6401 H   0  0  0  0  0  0  0  0  0  0  0  0
    3.0998   -0.8418   -7.7272 H   0  0  0  0  0  0  0  0  0  0  0  0
    1.4236   -0.3809   -8.0693 H   0  0  0  0  0  0  0  0  0  0  0  0
    1.9673   -0.0668   -5.3580 H   0  0  0  0  0  0  0  0  0  0  0  0
    1.2635   -1.0099   -3.2113 H   0  0  0  0  0  0  0  0  0  0  0  0
   -2.2409    1.0608   -3.1065 H   0  0  0  0  0  0  0  0  0  0  0  0
   -0.5350    2.6313   -2.4034 H   0  0  0  0  0  0  0  0  0  0  0  0
    2.5844    5.8801    3.5225 H   0  0  0  0  0  0  0  0  0  0  0  0
   -0.3070    4.9918    2.8765 H   0  0  0  0  0  0  0  0  0  0  0  0
    0.1878    6.4319    3.8024 H   0  0  0  0  0  0  0  0  0  0  0  0
    0.7337    2.4035    5.8643 H   0  0  0  0  0  0  0  0  0  0  0  0
    1.1462    2.8400    4.1852 H   0  0  0  0  0  0  0  0  0  0  0  0
   -0.3972    0.2156    3.3077 H   0  0  0  0  0  0  0  0  0  0  0  0
    1.5680   -1.6632    4.8398 H   0  0  0  0  0  0  0  0  0  0  0  0
    0.1138   -1.9486    3.8440 H   0  0  0  0  0  0  0  0  0  0  0  0
    0.1375   -2.4024    5.5904 H   0  0  0  0  0  0  0  0  0  0  0  0
   -2.0343    4.0371    4.0710 H   0  0  0  0  0  0  0  0  0  0  0  0
   -3.1324    3.1868    1.4170 H   0  0  0  0  0  0  0  0  0  0  0  0
   -2.3303    4.7658    1.6274 H   0  0  0  0  0  0  0  0  0  0  0  0
   -3.8912    4.4455    2.4407 H   0  0  0  0  0  0  0  0  0  0  0  0
  1  2  2  0  0  0  0
  2 37  1  0  0  0  0
  3  2  1  0  0  0  0
  4 51  1  0  0  0  0
  4  3  1  0  0  0  0
  5 53  1  0  0  0  0
  5  4  1  0  0  0  0
  6  5  1  0  0  0  0
  6  7  1  0  0  0  0
  7  8  1  0  0  0  0
  8 58  1  0  0  0  0
  8  3  1  0  0  0  0
  8 57  1  0  0  0  0
  9 10  1  0  0  0  0
  9  6  1  0  0  0  0
 10 59  1  0  0  0  0
 11 12  1  0  0  0  0
 11 10  2  0  0  0  0
 12 16  1  0  0  0  0
 13 12  2  0  0  0  0
 13 14  1  0  0  0  0
 14 15  1  0  0  0  0
 15 60  1  0  0  0  0
 16 15  1  0  0  0  0
 16 17  2  0  0  0  0
 18 14  2  0  0  0  0
 19 13  1  0  0  0  0
 20 61  1  0  0  0  0
 20 19  2  0  0  0  0
 21 20  1  0  0  0  0
 22 21  1  0  0  0  0
 23 19  1  0  0  0  0
 24 21  1  0  0  0  0
 24 23  2  0  0  0  0
 25 24  1  0  0  0  0
 26 25  2  0  0  0  0
 26 28  1  0  0  0  0
 27 64  1  0  0  0  0
 27 26  1  0  0  0  0
 28 29  2  0  0  0  0
 29 23  1  0  0  0  0
 29 67  1  0  0  0  0
 30 11  1  0  0  0  0
 31 30  1  0  0  0  0
 31 32  1  0  0  0  0
 33 31  1  0  0  0  0
 34 31  1  0  0  0  0
 35 30  2  0  0  0  0
 35 36  1  0  0  0  0
 36  9  2  0  0  0  0
 37 70  1  0  0  0  0
 37 38  1  0  0  0  0
 38 72  1  0  0  0  0
 38 39  1  0  0  0  0
 40 39  1  0  0  0  0
 40 73  1  0  0  0  0
 41 40  1  0  0  0  0
 41 42  1  1  0  0  0
 43 41  1  0  0  0  0
 43 44  1  0  0  0  0
 44 46  2  0  0  0  0
 45 44  1  0  0  0  0
 45 78  1  0  0  0  0
 47 48  1  0  0  0  0
 47 41  1  0  0  0  0
 48 79  1  0  0  0  0
 49 82  1  0  0  0  0
 49 48  1  0  0  0  0
 50 47  2  0  0  0  0
 52  4  1  0  0  0  0
 54  5  1  0  0  0  0
 55  7  1  0  0  0  0
 56  7  1  0  0  0  0
 62 25  1  0  0  0  0
 63 27  1  0  0  0  0
 65 27  1  0  0  0  0
 66 28  1  0  0  0  0
 68 35  1  0  0  0  0
 69 36  1  0  0  0  0
 71 38  1  0  0  0  0
 74 40  1  0  0  0  0
 75 43  1  0  0  0  0
 76 45  1  0  0  0  0
 77 45  1  0  0  0  0
 80 49  1  0  0  0  0
 81 49  1  0  0  0  0
M  END
