82
-1 1
O         3.484058    3.922800    2.037542
C         2.297170    4.162002    2.327625
N         1.269490    3.246461    1.798887
C         0.518432    3.725811    0.654188
C         1.263670    3.495764   -0.670258
N         1.579129    2.072465   -0.799653
C         2.472513    1.686953    0.295365
C         1.739586    1.882814    1.625926
C         0.616721    1.197026   -1.234709
C         0.643021   -0.173697   -0.882439
C        -0.316877   -1.080175   -1.317022
C        -0.159074   -2.483323   -0.885833
C         0.076451   -3.617894   -1.587832
C         0.043727   -4.775855   -0.602766
N        -0.174927   -4.217337    0.639437
C        -0.280936   -2.831162    0.568570
O        -0.427451   -2.095949    1.508372
O         0.174069   -5.954157   -0.823752
C         0.331474   -3.861619   -2.993879
C         0.112609   -5.082549   -3.602459
N         0.389085   -4.996701   -4.933023
H         0.303836   -5.755408   -5.592181
C         0.799893   -2.969138   -4.040666
C         0.815770   -3.721972   -5.235625
C         1.221301   -3.192910   -6.465971
C         1.632048   -1.867054   -6.512383
C         2.072576   -1.231146   -7.805928
C         1.636306   -1.107934   -5.319402
C         1.235675   -1.633567   -4.103103
C        -1.392405   -0.645611   -2.110294
C        -2.521399   -1.551347   -2.506904
F        -2.946700   -2.315938   -1.487756
F        -3.585818   -0.855781   -2.935526
F        -2.209301   -2.398268   -3.503595
C        -1.418518    0.698724   -2.488230
C        -0.446797    1.595681   -2.081207
C         1.818577    5.208975    3.124560
C         0.441518    5.385462    3.573110
S        -0.078279    4.562967    5.263509
C         0.340662    2.830529    4.932589
C        -0.803423    1.892937    4.478964
H        -1.549299    1.872288    5.293239
N        -0.314897    0.550500    4.265610
C        -0.013444   -0.293626    5.279704
C         0.466931   -1.666626    4.845243
O        -0.081958    0.024230    6.456509
C        -1.546138    2.287522    3.192288
N        -2.255062    3.436037    3.273599
C        -2.935428    3.994019    2.134263
O        -1.550278    1.562929    2.207546
H         0.318071    4.799535    0.784788
H        -0.448460    3.190250    0.606128
H         2.215323    4.047645   -0.659354
H         0.686139    3.856384   -1.531431
H         3.336400    2.363771    0.291631
H         2.842818    0.662813    0.157929
H         2.409077    1.633942    2.460927
H         0.866279    1.208430    1.662004
H         1.424987   -0.553337   -0.230110
H        -0.222390   -4.747427    1.499474
H        -0.228533   -6.008534   -3.148964
H         1.216092   -3.809751   -7.368723
H         2.045227   -1.946896   -8.640093
H         3.099833   -0.841820   -7.727168
H         1.423617   -0.380918   -8.069341
H         1.967309   -0.066805   -5.357993
H         1.263501   -1.009884   -3.211259
H        -2.240902    1.060840   -3.106454
H        -0.534968    2.631299   -2.403407
H         2.584351    5.880086    3.522534
H        -0.307040    4.991808    2.876497
H         0.187810    6.431922    3.802429
H         0.733689    2.403523    5.864308
H         1.146219    2.840037    4.185206
H        -0.397222    0.215558    3.307685
H         1.567985   -1.663219    4.839771
H         0.113818   -1.948598    3.844019
H         0.137456   -2.402388    5.590355
H        -2.034317    4.037131    4.070952
H        -3.132355    3.186833    1.416972
H        -2.330289    4.765788    1.627374
H        -3.891178    4.445489    2.440671
