79
-1 1
O         0.054205    1.140354    3.744834
C         0.704813    1.609422    2.819784
N         0.123671    1.956891    1.629669
C         0.776409    1.983728    0.335127
C         0.524374    0.676420   -0.404951
N        -0.884175    0.290002   -0.449816
C        -1.652990    0.502321    0.779566
C        -1.307706    1.806617    1.478947
C        -1.182288   -0.861239   -1.165375
C        -2.468519   -1.441085   -1.138749
C        -2.724945   -2.642275   -1.791696
C        -4.126959   -3.194542   -1.801169
F        -4.869768   -2.721988   -0.792730
F        -4.770973   -2.885052   -2.934905
F        -4.137642   -4.530614   -1.705789
C        -1.722999   -3.346769   -2.455822
C        -0.438219   -2.795889   -2.480647
C         0.703933   -3.556854   -3.008002
C         1.982618   -3.610254   -2.548014
C         2.795422   -4.429994   -3.527146
N         1.901177   -4.874960   -4.483660
C         0.611699   -4.404561   -4.245837
O        -0.349590   -4.649955   -4.926251
O         3.978060   -4.657822   -3.508130
C         2.607148   -3.036455   -1.369355
C         3.899811   -2.548417   -1.339453
N         4.147063   -1.960000   -0.136946
H         5.004559   -1.490893    0.115061
C         2.041675   -2.758649   -0.062518
C         3.028140   -2.055528    0.664703
C         2.798125   -1.541248    1.945564
C         1.550824   -1.761682    2.509460
C         0.573258   -2.511884    1.825889
C         0.805991   -3.016786    0.556261
C        -0.198377   -1.548527   -1.899576
C         2.169266    1.842953    3.015487
C         2.845222    2.942455    2.675367
S         2.059613    6.533565    2.135409
C         0.379728    6.623595    1.409314
C        -0.383862    5.284401    1.431895
H         0.320314    4.524968    1.060357
N        -1.559365    5.273243    0.584085
C        -1.534330    4.917312   -0.717746
C        -2.897118    4.754894   -1.370604
O        -0.508422    4.700177   -1.345739
C        -0.864985    4.838071    2.821575
N         0.083103    4.794246    3.762982
C        -0.202923    4.367645    5.108118
O        -2.041577    4.526198    3.015997
H         1.856380    2.119615    0.448036
H         0.392671    2.837380   -0.246911
H         1.126250   -0.122806    0.069699
H         0.888308    0.806987   -1.434528
H        -1.485711   -0.339374    1.479969
H        -2.724879    0.533579    0.543422
H        -1.779822    1.841126    2.466112
H        -1.678049    2.666939    0.902327
H        -3.281938   -0.962712   -0.598619
H        -1.927007   -4.308679   -2.924064
H         2.154804   -5.451707   -5.274822
H         4.651902   -2.577650   -2.123643
H         3.561539   -0.962322    2.468354
H         1.310061   -1.330067    3.483096
H        -0.394271   -2.681340    2.302453
H         0.030695   -3.582423    0.038198
H         0.812766   -1.157298   -1.953205
H         2.634554    1.075880    3.642957
H         2.414040    3.798076    2.136510
H         3.886888    3.062422    2.987871
H         0.456107    6.907824    0.349104
H        -0.234765    7.391772    1.911171
H        -2.430210    5.223574    1.107784
H        -2.873796    5.229682   -2.360413
H        -3.720415    5.176257   -0.777399
H        -3.078259    3.679971   -1.524278
H         0.985519    5.252686    3.513260
H        -0.314122    3.272072    5.161787
H        -1.133523    4.824579    5.480508
H         0.629337    4.669366    5.758347
