76
-1 1
O         0.478376    0.832397    2.887449
C         0.736456    1.583144    1.914707
N        -0.316117    1.780439    0.951029
C        -0.086717    1.605291   -0.466528
C        -0.251552    0.152107   -0.905007
N        -1.534529   -0.411486   -0.500237
C        -1.797556   -0.195074    0.933781
C        -1.619642    1.269687    1.311800
C        -1.817127   -1.685759   -0.986738
C        -3.060797   -2.319556   -0.774284
F        -4.055917   -1.653746   -0.171491
C        -3.313906   -3.621321   -1.176280
C        -2.340719   -4.364455   -1.838978
C        -1.105034   -3.765596   -2.115660
C        -0.014069   -4.503846   -2.769647
C         1.335506   -4.322208   -2.690902
C         1.993666   -5.224463   -3.706974
N         0.970863   -5.956991   -4.283577
C        -0.273918   -5.591067   -3.779613
O        -1.318981   -6.077198   -4.130664
O         3.161905   -5.308259   -3.990732
C         2.143133   -3.448531   -1.859376
C         3.250824   -2.751592   -2.304455
N         3.683116   -1.901555   -1.331898
H         4.444143   -1.245824   -1.426741
C         1.919350   -3.020796   -0.493145
C         2.879382   -2.024482   -0.214554
C         2.886729   -1.297555    0.981635
C         1.923220   -1.613978    1.926189
C         0.999196   -2.652836    1.692795
C         0.983720   -3.356948    0.499884
C        -0.887060   -2.438607   -1.718875
C         1.932185    2.300550    1.755064
C         2.219550    3.466210    0.885571
S         2.270609    5.164099    1.736156
C         0.597742    5.794693    1.412869
C        -0.587858    4.898285    1.818814
H        -0.465881    3.908794    1.346246
N        -1.829831    5.473797    1.353006
C        -2.282844    5.321255    0.090760
C        -3.682787    5.854111   -0.164900
O        -1.636931    4.787412   -0.797873
C        -0.752613    4.701590    3.332206
N         0.080290    3.808274    3.875463
C        -0.001058    3.362497    5.240229
O        -1.623895    5.312150    3.950043
H         0.934924    1.906127   -0.723618
H        -0.780283    2.260311   -1.022876
H         0.586183   -0.435935   -0.477960
H        -0.173812    0.108022   -2.002779
H        -1.085219   -0.783448    1.540050
H        -2.817731   -0.514264    1.171354
H        -1.746472    1.368254    2.396687
H        -2.386432    1.878359    0.797932
H        -4.299589   -4.039155   -0.963577
H        -2.544190   -5.388082   -2.149195
H         1.103121   -6.648621   -5.009015
H         3.739679   -2.803320   -3.274060
H         3.577353   -0.469142    1.148278
H         1.825840   -0.997680    2.821380
H         0.254079   -2.875633    2.459325
H         0.237928   -4.132715    0.318878
H         0.073861   -1.991173   -1.947783
H         2.704412    2.036781    2.485293
H         1.504279    3.612440    0.064820
H         3.223465    3.426469    0.432676
H         0.492804    5.984225    0.334498
H         0.529400    6.760970    1.937199
H        -2.408622    5.850400    2.099932
H        -4.071883    6.473513    0.655065
H        -4.357497    4.998749   -0.317524
H        -3.672903    6.436989   -1.095683
H         0.755116    3.334363    3.263011
H        -0.971188    3.662547    5.658872
H         0.797166    3.799083    5.864158
H         0.094531    2.267093    5.250179
