-1 1
 OpenBabel05192410563D

 76 80  0  0  1  0  0  0  0  0999 V2000
    0.4784    0.8324    2.8874 O   0  0  0  0  0  0  0  0  0  0  0  0
    0.7365    1.5831    1.9147 C   0  0  0  0  0  0  0  0  0  0  0  0
   -0.3161    1.7804    0.9510 N   0  0  0  0  0  0  0  0  0  0  0  0
   -0.0867    1.6053   -0.4665 C   0  0  0  0  0  0  0  0  0  0  0  0
   -0.2516    0.1521   -0.9050 C   0  0  0  0  0  0  0  0  0  0  0  0
   -1.5345   -0.4115   -0.5002 N   0  0  0  0  0  0  0  0  0  0  0  0
   -1.7976   -0.1951    0.9338 C   0  0  0  0  0  0  0  0  0  0  0  0
   -1.6196    1.2697    1.3118 C   0  0  0  0  0  0  0  0  0  0  0  0
   -1.8171   -1.6858   -0.9867 C   0  0  0  0  0  0  0  0  0  0  0  0
   -3.0608   -2.3196   -0.7743 C   0  0  0  0  0  0  0  0  0  0  0  0
   -4.0559   -1.6537   -0.1715 F   0  0  0  0  0  0  0  0  0  0  0  0
   -3.3139   -3.6213   -1.1763 C   0  0  0  0  0  0  0  0  0  0  0  0
   -2.3407   -4.3645   -1.8390 C   0  0  0  0  0  0  0  0  0  0  0  0
   -1.1050   -3.7656   -2.1157 C   0  0  0  0  0  0  0  0  0  0  0  0
   -0.0141   -4.5038   -2.7696 C   0  0  0  0  0  0  0  0  0  0  0  0
    1.3355   -4.3222   -2.6909 C   0  0  0  0  0  0  0  0  0  0  0  0
    1.9937   -5.2245   -3.7070 C   0  0  0  0  0  0  0  0  0  0  0  0
    0.9709   -5.9570   -4.2836 N   0  0  0  0  0  0  0  0  0  0  0  0
   -0.2739   -5.5911   -3.7796 C   0  0  0  0  0  0  0  0  0  0  0  0
   -1.3190   -6.0772   -4.1307 O   0  0  0  0  0  0  0  0  0  0  0  0
    3.1619   -5.3083   -3.9907 O   0  0  0  0  0  0  0  0  0  0  0  0
    2.1431   -3.4485   -1.8594 C   0  0  0  0  0  0  0  0  0  0  0  0
    3.2508   -2.7516   -2.3045 C   0  0  0  0  0  0  0  0  0  0  0  0
    3.6831   -1.9016   -1.3319 N   0  0  0  0  0  0  0  0  0  0  0  0
    4.4441   -1.2458   -1.4267 H   0  0  0  0  0  0  0  0  0  0  0  0
    1.9193   -3.0208   -0.4931 C   0  0  0  0  0  0  0  0  0  0  0  0
    2.8794   -2.0245   -0.2146 C   0  0  0  0  0  0  0  0  0  0  0  0
    2.8867   -1.2976    0.9816 C   0  0  0  0  0  0  0  0  0  0  0  0
    1.9232   -1.6140    1.9262 C   0  0  0  0  0  0  0  0  0  0  0  0
    0.9992   -2.6528    1.6928 C   0  0  0  0  0  0  0  0  0  0  0  0
    0.9837   -3.3569    0.4999 C   0  0  0  0  0  0  0  0  0  0  0  0
   -0.8871   -2.4386   -1.7189 C   0  0  0  0  0  0  0  0  0  0  0  0
    1.9322    2.3005    1.7551 C   0  0  0  0  0  3  0  0  0  0  0  0
    2.2195    3.4662    0.8856 C   0  0  0  0  0  0  0  0  0  0  0  0
    2.2706    5.1641    1.7362 S   0  0  0  0  0  0  0  0  0  0  0  0
    0.5977    5.7947    1.4129 C   0  0  0  0  0  0  0  0  0  0  0  0
   -0.5879    4.8983    1.8188 C   0  0  2  0  0  0  0  0  0  0  0  0
   -0.4659    3.9088    1.3462 H   0  0  0  0  0  0  0  0  0  0  0  0
   -1.8298    5.4738    1.3530 N   0  0  0  0  0  0  0  0  0  0  0  0
   -2.2828    5.3213    0.0908 C   0  0  0  0  0  0  0  0  0  0  0  0
   -3.6828    5.8541   -0.1649 C   0  0  0  0  0  0  0  0  0  0  0  0
   -1.6369    4.7874   -0.7979 O   0  0  0  0  0  0  0  0  0  0  0  0
   -0.7526    4.7016    3.3322 C   0  0  0  0  0  0  0  0  0  0  0  0
    0.0803    3.8083    3.8755 N   0  0  0  0  0  0  0  0  0  0  0  0
   -0.0011    3.3625    5.2402 C   0  0  0  0  0  0  0  0  0  0  0  0
   -1.6239    5.3121    3.9500 O   0  0  0  0  0  0  0  0  0  0  0  0
    0.9349    1.9061   -0.7236 H   0  0  0  0  0  0  0  0  0  0  0  0
   -0.7803    2.2603   -1.0229 H   0  0  0  0  0  0  0  0  0  0  0  0
    0.5862   -0.4359   -0.4780 H   0  0  0  0  0  0  0  0  0  0  0  0
   -0.1738    0.1080   -2.0028 H   0  0  0  0  0  0  0  0  0  0  0  0
   -1.0852   -0.7834    1.5400 H   0  0  0  0  0  0  0  0  0  0  0  0
   -2.8177   -0.5143    1.1714 H   0  0  0  0  0  0  0  0  0  0  0  0
   -1.7465    1.3683    2.3967 H   0  0  0  0  0  0  0  0  0  0  0  0
   -2.3864    1.8784    0.7979 H   0  0  0  0  0  0  0  0  0  0  0  0
   -4.2996   -4.0392   -0.9636 H   0  0  0  0  0  0  0  0  0  0  0  0
   -2.5442   -5.3881   -2.1492 H   0  0  0  0  0  0  0  0  0  0  0  0
    1.1031   -6.6486   -5.0090 H   0  0  0  0  0  0  0  0  0  0  0  0
    3.7397   -2.8033   -3.2741 H   0  0  0  0  0  0  0  0  0  0  0  0
    3.5774   -0.4691    1.1483 H   0  0  0  0  0  0  0  0  0  0  0  0
    1.8258   -0.9977    2.8214 H   0  0  0  0  0  0  0  0  0  0  0  0
    0.2541   -2.8756    2.4593 H   0  0  0  0  0  0  0  0  0  0  0  0
    0.2379   -4.1327    0.3189 H   0  0  0  0  0  0  0  0  0  0  0  0
    0.0739   -1.9912   -1.9478 H   0  0  0  0  0  0  0  0  0  0  0  0
    2.7044    2.0368    2.4853 H   0  0  0  0  0  0  0  0  0  0  0  0
    1.5043    3.6124    0.0648 H   0  0  0  0  0  0  0  0  0  0  0  0
    3.2235    3.4265    0.4327 H   0  0  0  0  0  0  0  0  0  0  0  0
    0.4928    5.9842    0.3345 H   0  0  0  0  0  0  0  0  0  0  0  0
    0.5294    6.7610    1.9372 H   0  0  0  0  0  0  0  0  0  0  0  0
   -2.4086    5.8504    2.0999 H   0  0  0  0  0  0  0  0  0  0  0  0
   -4.0719    6.4735    0.6551 H   0  0  0  0  0  0  0  0  0  0  0  0
   -4.3575    4.9987   -0.3175 H   0  0  0  0  0  0  0  0  0  0  0  0
   -3.6729    6.4370   -1.0957 H   0  0  0  0  0  0  0  0  0  0  0  0
    0.7551    3.3344    3.2630 H   0  0  0  0  0  0  0  0  0  0  0  0
   -0.9712    3.6625    5.6589 H   0  0  0  0  0  0  0  0  0  0  0  0
    0.7972    3.7991    5.8642 H   0  0  0  0  0  0  0  0  0  0  0  0
    0.0945    2.2671    5.2502 H   0  0  0  0  0  0  0  0  0  0  0  0
  2  1  2  0  0  0  0
  3  8  1  0  0  0  0
  3  2  1  0  0  0  0
  4  3  1  0  0  0  0
  5  6  1  0  0  0  0
  5 49  1  0  0  0  0
  5  4  1  0  0  0  0
  6  7  1  0  0  0  0
  7 52  1  0  0  0  0
  7  8  1  0  0  0  0
  7 51  1  0  0  0  0
  8 53  1  0  0  0  0
  9 10  1  0  0  0  0
  9  6  1  0  0  0  0
 10 11  1  0  0  0  0
 12 55  1  0  0  0  0
 12 10  2  0  0  0  0
 13 12  1  0  0  0  0
 14 13  2  0  0  0  0
 14 32  1  0  0  0  0
 15 16  2  0  0  0  0
 15 14  1  0  0  0  0
 16 22  1  0  0  0  0
 17 16  1  0  0  0  0
 18 19  1  0  0  0  0
 18 17  1  0  0  0  0
 19 15  1  0  0  0  0
 20 19  2  0  0  0  0
 21 17  2  0  0  0  0
 22 26  1  0  0  0  0
 23 22  2  0  0  0  0
 23 24  1  0  0  0  0
 24 27  1  0  0  0  0
 25 24  1  0  0  0  0
 26 27  2  0  0  0  0
 26 31  1  0  0  0  0
 27 28  1  0  0  0  0
 28 59  1  0  0  0  0
 28 29  2  0  0  0  0
 29 60  1  0  0  0  0
 30 29  1  0  0  0  0
 30 61  1  0  0  0  0
 31 30  2  0  0  0  0
 32  9  2  0  0  0  0
 33  2  1  0  0  0  0
 33 64  1  0  0  0  0
 34 35  1  0  0  0  0
 34 33  1  0  0  0  0
 36 35  1  0  0  0  0
 36 37  1  0  0  0  0
 36 68  1  0  0  0  0
 37 38  1  6  0  0  0
 37 43  1  0  0  0  0
 39 37  1  0  0  0  0
 39 69  1  0  0  0  0
 40 39  1  0  0  0  0
 41 40  1  0  0  0  0
 41 70  1  0  0  0  0
 42 40  2  0  0  0  0
 43 44  1  0  0  0  0
 43 46  2  0  0  0  0
 44 45  1  0  0  0  0
 45 76  1  0  0  0  0
 45 74  1  0  0  0  0
 45 75  1  0  0  0  0
 47  4  1  0  0  0  0
 48  4  1  0  0  0  0
 50  5  1  0  0  0  0
 54  8  1  0  0  0  0
 56 13  1  0  0  0  0
 57 18  1  0  0  0  0
 58 23  1  0  0  0  0
 62 31  1  0  0  0  0
 63 32  1  0  0  0  0
 65 34  1  0  0  0  0
 66 34  1  0  0  0  0
 67 36  1  0  0  0  0
 71 41  1  0  0  0  0
 72 41  1  0  0  0  0
 73 44  1  0  0  0  0
M  END
