-1 1
 OpenBabel05232413493D

 80 83  0  0  1  0  0  0  0  0999 V2000
    2.0350   -0.2093    0.0757 O   0  0  0  0  0  0  0  0  0  0  0  0
    2.3222    0.5055    1.0436 C   0  0  0  0  0  0  0  0  0  0  0  0
    1.5431    0.4901    2.1753 N   0  0  0  0  0  0  0  0  0  0  0  0
    1.2745    1.6612    2.9853 C   0  0  0  0  0  0  0  0  0  0  0  0
    0.1318    2.4696    2.3804 C   0  0  0  0  0  0  0  0  0  0  0  0
   -1.0166    1.6775    1.9504 N   0  0  0  0  0  0  0  0  0  0  0  0
   -0.8014    0.2827    1.5490 C   0  0  0  0  0  0  0  0  0  0  0  0
    0.3896   -0.3884    2.2117 C   0  0  0  0  0  0  0  0  0  0  0  0
   -1.9223    2.3816    1.1463 C   0  0  0  0  0  0  0  0  0  0  0  0
   -2.7167    1.7263    0.1903 C   0  0  0  0  0  0  0  0  0  0  0  0
   -3.4321    2.4155   -0.7888 C   0  0  0  0  0  0  0  0  0  0  0  0
   -4.0406    1.6611   -1.8982 C   0  0  0  0  0  0  0  0  0  0  0  0
   -3.4840    0.6598   -2.6294 C   0  0  0  0  0  0  0  0  0  0  0  0
   -4.5197    0.1945   -3.6311 C   0  0  0  0  0  0  0  0  0  0  0  0
   -5.6456    0.9675   -3.4006 N   0  0  0  0  0  0  0  0  0  0  0  0
   -5.4652    1.8489   -2.3362 C   0  0  0  0  0  0  0  0  0  0  0  0
   -6.3210    2.5526   -1.8693 O   0  0  0  0  0  0  0  0  0  0  0  0
   -4.4223   -0.6594   -4.4741 O   0  0  0  0  0  0  0  0  0  0  0  0
   -2.1566    0.0688   -2.5267 C   0  0  0  0  0  0  0  0  0  0  0  0
   -1.0037    0.7378   -2.1544 C   0  0  0  0  0  0  0  0  0  0  0  0
    0.0144   -0.1384   -1.9504 N   0  0  0  0  0  0  0  0  0  0  0  0
    0.8916    0.0551   -1.4576 H   0  0  0  0  0  0  0  0  0  0  0  0
   -1.8075   -1.3393   -2.5459 C   0  0  0  0  0  0  0  0  0  0  0  0
   -0.4520   -1.4165   -2.1481 C   0  0  0  0  0  0  0  0  0  0  0  0
    0.2195   -2.6318   -1.9795 C   0  0  0  0  0  0  0  0  0  0  0  0
   -0.4905   -3.7933   -2.2323 C   0  0  0  0  0  0  0  0  0  0  0  0
   -1.8387   -3.7425   -2.6444 C   0  0  0  0  0  0  0  0  0  0  0  0
   -2.5021   -2.5359   -2.8022 C   0  0  0  0  0  0  0  0  0  0  0  0
   -3.4499    3.8193   -0.7809 C   0  0  0  0  0  0  0  0  0  0  0  0
   -4.0718    4.4318   -1.8161 O   0  0  0  0  0  0  0  0  0  0  0  0
   -4.3732    5.7910   -1.7155 C   0  0  0  0  0  0  0  0  0  0  0  0
   -2.7807    4.4880    0.2454 C   0  0  0  0  0  0  0  0  0  0  0  0
   -2.0179    3.7863    1.1771 C   0  0  0  0  0  0  0  0  0  0  0  0
    3.5149    1.3785    0.9949 C   0  0  0  0  0  0  0  0  0  0  0  0
    4.3415    1.6468    2.0218 C   0  0  0  0  0  0  0  0  0  0  0  0
    6.5137   -0.4588    2.1878 S   0  0  0  0  0  1  0  0  0  0  0  0
    5.4205   -1.3771    1.0568 C   0  0  0  0  0  0  0  0  0  0  0  0
    4.5704   -2.5286    1.6373 C   0  0  2  0  0  0  0  0  0  0  0  0
    5.2450   -3.2955    2.0482 H   0  0  0  0  0  0  0  0  0  0  0  0
    3.8202   -3.1580    0.5723 N   0  0  0  0  0  0  0  0  0  0  0  0
    3.6324   -4.5051    0.5248 C   0  0  0  0  0  0  0  0  0  0  0  0
    2.5319   -4.9490   -0.4235 C   0  0  0  0  0  0  0  0  0  0  0  0
    4.2899   -5.3037    1.1653 O   0  0  0  0  0  0  0  0  0  0  0  0
    3.5800   -2.1708    2.7655 C   0  0  0  0  0  0  0  0  0  0  0  0
    4.0974   -1.4637    3.7862 N   0  0  0  0  0  0  0  0  0  0  0  0
    3.2831   -1.0552    4.8943 C   0  0  0  0  0  0  0  0  0  0  0  0
    2.4146   -2.5555    2.7421 O   0  0  0  0  0  0  0  0  0  0  0  0
    2.1523    2.3089    3.0614 H   0  0  0  0  0  0  0  0  0  0  0  0
    1.0209    1.3210    4.0019 H   0  0  0  0  0  0  0  0  0  0  0  0
    0.5423    3.0397    1.5202 H   0  0  0  0  0  0  0  0  0  0  0  0
   -0.1875    3.2139    3.1283 H   0  0  0  0  0  0  0  0  0  0  0  0
   -0.6410    0.2225    0.4594 H   0  0  0  0  0  0  0  0  0  0  0  0
   -1.7082   -0.3004    1.7747 H   0  0  0  0  0  0  0  0  0  0  0  0
    0.6299   -1.3279    1.7044 H   0  0  0  0  0  0  0  0  0  0  0  0
    0.1937   -0.6331    3.2663 H   0  0  0  0  0  0  0  0  0  0  0  0
   -2.7275    0.6415    0.1301 H   0  0  0  0  0  0  0  0  0  0  0  0
   -6.5250    0.8374   -3.8823 H   0  0  0  0  0  0  0  0  0  0  0  0
   -0.8617    1.8044   -1.9953 H   0  0  0  0  0  0  0  0  0  0  0  0
    1.2583   -2.6481   -1.6495 H   0  0  0  0  0  0  0  0  0  0  0  0
    0.0010   -4.7608   -2.1074 H   0  0  0  0  0  0  0  0  0  0  0  0
   -2.3700   -4.6761   -2.8433 H   0  0  0  0  0  0  0  0  0  0  0  0
   -3.5392   -2.5107   -3.1366 H   0  0  0  0  0  0  0  0  0  0  0  0
   -4.9889    6.0444   -2.5876 H   0  0  0  0  0  0  0  0  0  0  0  0
   -3.4650    6.4212   -1.7295 H   0  0  0  0  0  0  0  0  0  0  0  0
   -4.9463    6.0146   -0.7984 H   0  0  0  0  0  0  0  0  0  0  0  0
   -2.7986    5.5769    0.3025 H   0  0  0  0  0  0  0  0  0  0  0  0
   -1.4746    4.3632    1.9242 H   0  0  0  0  0  0  0  0  0  0  0  0
    3.7894    1.6731   -0.0214 H   0  0  0  0  0  0  0  0  0  0  0  0
    4.1441    1.2895    3.0338 H   0  0  0  0  0  0  0  0  0  0  0  0
    5.2444    2.2388    1.8814 H   0  0  0  0  0  0  0  0  0  0  0  0
    6.0230   -1.8352    0.2584 H   0  0  0  0  0  0  0  0  0  0  0  0
    4.7313   -0.6742    0.5536 H   0  0  0  0  0  0  0  0  0  0  0  0
    3.0990   -2.5687    0.1672 H   0  0  0  0  0  0  0  0  0  0  0  0
    1.5569   -4.6196   -0.0326 H   0  0  0  0  0  0  0  0  0  0  0  0
    2.5449   -6.0426   -0.4967 H   0  0  0  0  0  0  0  0  0  0  0  0
    2.6668   -4.5108   -1.4242 H   0  0  0  0  0  0  0  0  0  0  0  0
    5.0342   -1.0441    3.6181 H   0  0  0  0  0  0  0  0  0  0  0  0
    3.9283   -0.7405    5.7268 H   0  0  0  0  0  0  0  0  0  0  0  0
    2.6462   -1.8882    5.2275 H   0  0  0  0  0  0  0  0  0  0  0  0
    2.6109   -0.2160    4.6364 H   0  0  0  0  0  0  0  0  0  0  0  0
  1  2  2  0  0  0  0
  2  3  1  0  0  0  0
  3  8  1  0  0  0  0
  3  4  1  0  0  0  0
  4 48  1  0  0  0  0
  4 49  1  0  0  0  0
  5  4  1  0  0  0  0
  5 51  1  0  0  0  0
  6  5  1  0  0  0  0
  7 53  1  0  0  0  0
  7  6  1  0  0  0  0
  7  8  1  0  0  0  0
  8 55  1  0  0  0  0
  9 33  1  0  0  0  0
  9  6  1  0  0  0  0
 10  9  2  0  0  0  0
 11 29  2  0  0  0  0
 11 10  1  0  0  0  0
 12 11  1  0  0  0  0
 13 19  1  0  0  0  0
 13 12  2  0  0  0  0
 14 15  1  0  0  0  0
 14 13  1  0  0  0  0
 15 16  1  0  0  0  0
 16 12  1  0  0  0  0
 16 17  2  0  0  0  0
 18 14  2  0  0  0  0
 19 20  2  0  0  0  0
 20 58  1  0  0  0  0
 20 21  1  0  0  0  0
 21 22  1  0  0  0  0
 23 19  1  0  0  0  0
 23 24  1  0  0  0  0
 24 25  2  0  0  0  0
 24 21  1  0  0  0  0
 25 59  1  0  0  0  0
 26 60  1  0  0  0  0
 26 25  1  0  0  0  0
 27 26  2  0  0  0  0
 28 27  1  0  0  0  0
 28 23  2  0  0  0  0
 29 32  1  0  0  0  0
 30 31  1  0  0  0  0
 30 29  1  0  0  0  0
 31 65  1  0  0  0  0
 32 66  1  0  0  0  0
 32 33  2  0  0  0  0
 33 67  1  0  0  0  0
 34  2  1  0  0  0  0
 34 35  2  0  0  0  0
 35 69  1  0  0  0  0
 37 38  1  0  0  0  0
 37 36  1  0  0  0  0
 38 39  1  1  0  0  0
 38 44  1  0  0  0  0
 40 38  1  0  0  0  0
 41 40  1  0  0  0  0
 41 43  2  0  0  0  0
 42 74  1  0  0  0  0
 42 41  1  0  0  0  0
 44 45  1  0  0  0  0
 45 46  1  0  0  0  0
 46 79  1  0  0  0  0
 46 78  1  0  0  0  0
 47 44  2  0  0  0  0
 50  5  1  0  0  0  0
 52  7  1  0  0  0  0
 54  8  1  0  0  0  0
 56 10  1  0  0  0  0
 57 15  1  0  0  0  0
 61 27  1  0  0  0  0
 62 28  1  0  0  0  0
 63 31  1  0  0  0  0
 64 31  1  0  0  0  0
 68 34  1  0  0  0  0
 70 35  1  0  0  0  0
 71 37  1  0  0  0  0
 72 37  1  0  0  0  0
 73 40  1  0  0  0  0
 75 42  1  0  0  0  0
 76 42  1  0  0  0  0
 77 45  1  0  0  0  0
 80 46  1  0  0  0  0
M  END
