-1 1
 OpenBabel05232414493D

 76 79  0  0  1  0  0  0  0  0999 V2000
   12.2692    5.1866   -2.1699 O   0  0  0  0  0  0  0  0  0  0  0  0
   11.9343    5.0172   -1.0014 C   0  0  0  0  0  0  0  0  0  0  0  0
   11.3809    6.0752   -0.2606 N   0  0  0  0  0  0  0  0  0  0  0  0
   11.6421    6.1580    1.1645 C   0  0  0  0  0  0  0  0  0  0  0  0
   12.9783    6.8695    1.3834 C   0  0  0  0  0  0  0  0  0  0  0  0
   12.9036    8.2148    0.8263 N   0  0  0  0  0  0  0  0  0  0  0  0
   12.6496    8.1650   -0.6108 C   0  0  0  0  0  0  0  0  0  0  0  0
   11.3639    7.3761   -0.9002 C   0  0  0  0  0  0  0  0  0  0  0  0
   12.5811    9.2846    1.6100 C   0  0  0  0  0  0  0  0  0  0  0  0
   12.4128   10.5828    1.0624 C   0  0  0  0  0  0  0  0  0  0  0  0
   12.0997   11.6945    1.8365 C   0  0  0  0  0  0  0  0  0  0  0  0
   12.1065   13.0143    1.1841 C   0  0  0  0  0  0  0  0  0  0  0  0
   12.7537   14.1485    1.5392 C   0  0  0  0  0  0  0  0  0  0  0  0
   12.3253   15.2434    0.5864 C   0  0  0  0  0  0  0  0  0  0  0  0
   11.4786   14.6425   -0.3256 N   0  0  0  0  0  0  0  0  0  0  0  0
   11.2993   13.2881   -0.0501 C   0  0  0  0  0  0  0  0  0  0  0  0
   10.6255   12.5316   -0.6980 O   0  0  0  0  0  0  0  0  0  0  0  0
   12.6348   16.4080    0.5989 O   0  0  0  0  0  0  0  0  0  0  0  0
   13.6622   14.4230    2.6329 C   0  0  0  0  0  0  0  0  0  0  0  0
   13.7339   15.6361    3.2876 C   0  0  0  0  0  0  0  0  0  0  0  0
   14.6236   15.5575    4.3150 N   0  0  0  0  0  0  0  0  0  0  0  0
   14.8277   16.3035    4.9627 H   0  0  0  0  0  0  0  0  0  0  0  0
   14.6017   13.5440    3.3033 C   0  0  0  0  0  0  0  0  0  0  0  0
   15.1751   14.2947    4.3556 C   0  0  0  0  0  0  0  0  0  0  0  0
   16.1363   13.7656    5.2226 C   0  0  0  0  0  0  0  0  0  0  0  0
   16.5308   12.4531    5.0142 C   0  0  0  0  0  0  0  0  0  0  0  0
   15.9915   11.6927    3.9589 C   0  0  0  0  0  0  0  0  0  0  0  0
   15.0408   12.2240    3.1018 C   0  0  0  0  0  0  0  0  0  0  0  0
   11.9107   11.5176    3.2190 C   0  0  0  0  0  0  0  0  0  0  0  0
   11.4817   12.5957    4.0941 N   0  0  0  0  0  0  0  0  0  0  0  0
   10.7679   13.4669    3.6329 O   0  0  0  0  0  0  0  0  0  0  0  0
   11.8335   12.5533    5.2578 O   0  0  0  0  0  0  0  0  0  0  0  0
   12.1209   10.2645    3.7919 C   0  0  0  0  0  0  0  0  0  0  0  0
   12.4460    9.1662    3.0207 C   0  0  0  0  0  0  0  0  0  0  0  0
   12.0409    3.7580   -0.3411 C   0  0  0  0  0  0  0  0  0  0  0  0
   12.1803    2.6121    0.1278 C   0  0  0  0  0  3  0  0  0  0  0  0
   13.8752    2.0068    1.7305 S   0  0  0  0  0  1  0  0  0  0  0  0
   13.8068    3.5162    2.7325 C   0  0  0  0  0  0  0  0  0  0  0  0
   12.7162    3.5013    3.8097 C   0  0  2  0  0  0  0  0  0  0  0  0
   12.9388    2.7048    4.5420 H   0  0  0  0  0  0  0  0  0  0  0  0
   11.4348    3.1924    3.1866 N   0  0  0  0  0  0  0  0  0  0  0  0
   10.3955    2.6174    3.8229 C   0  0  0  0  0  0  0  0  0  0  0  0
    9.3251    2.0470    2.9179 C   0  0  0  0  0  0  0  0  0  0  0  0
   10.3057    2.5370    5.0464 O   0  0  0  0  0  0  0  0  0  0  0  0
   12.6326    4.8330    4.5886 C   0  0  0  0  0  0  0  0  0  0  0  0
   11.8168    4.7964    5.6622 N   0  0  0  0  0  0  0  0  0  0  0  0
   11.5502    5.9796    6.4378 C   0  0  0  0  0  0  0  0  0  0  0  0
   13.2611    5.8374    4.2753 O   0  0  0  0  0  0  0  0  0  0  0  0
   11.6483    5.1574    1.6052 H   0  0  0  0  0  0  0  0  0  0  0  0
   10.8336    6.7263    1.6561 H   0  0  0  0  0  0  0  0  0  0  0  0
   13.7588    6.3193    0.8321 H   0  0  0  0  0  0  0  0  0  0  0  0
   13.2798    6.8621    2.4332 H   0  0  0  0  0  0  0  0  0  0  0  0
   13.4951    7.6498   -1.0938 H   0  0  0  0  0  0  0  0  0  0  0  0
   12.5839    9.1689   -1.0434 H   0  0  0  0  0  0  0  0  0  0  0  0
   11.2560    7.2298   -1.9815 H   0  0  0  0  0  0  0  0  0  0  0  0
   10.4979    7.9468   -0.5219 H   0  0  0  0  0  0  0  0  0  0  0  0
   12.5684   10.7491   -0.0009 H   0  0  0  0  0  0  0  0  0  0  0  0
   11.0355   15.1262   -1.0950 H   0  0  0  0  0  0  0  0  0  0  0  0
   13.1840   16.5493    3.0776 H   0  0  0  0  0  0  0  0  0  0  0  0
   16.5582   14.3640    6.0330 H   0  0  0  0  0  0  0  0  0  0  0  0
   17.2736   12.0027    5.6761 H   0  0  0  0  0  0  0  0  0  0  0  0
   16.3231   10.6625    3.8157 H   0  0  0  0  0  0  0  0  0  0  0  0
   14.6402   11.6187    2.2883 H   0  0  0  0  0  0  0  0  0  0  0  0
   12.0057   10.1603    4.8707 H   0  0  0  0  0  0  0  0  0  0  0  0
   12.5811    8.2075    3.5208 H   0  0  0  0  0  0  0  0  0  0  0  0
   11.8118    1.5942    0.1350 H   0  0  0  0  0  0  0  0  0  0  0  0
   13.6406    4.3732    2.0601 H   0  0  0  0  0  0  0  0  0  0  0  0
   14.7723    3.7014    3.2230 H   0  0  0  0  0  0  0  0  0  0  0  0
   11.5007    3.0405    2.1796 H   0  0  0  0  0  0  0  0  0  0  0  0
    9.3647    2.4619    1.9014 H   0  0  0  0  0  0  0  0  0  0  0  0
    8.3403    2.2321    3.3654 H   0  0  0  0  0  0  0  0  0  0  0  0
    9.4725    0.9582    2.8567 H   0  0  0  0  0  0  0  0  0  0  0  0
   11.2356    3.9579    5.7678 H   0  0  0  0  0  0  0  0  0  0  0  0
   11.0872    5.6940    7.3919 H   0  0  0  0  0  0  0  0  0  0  0  0
   10.8736    6.6798    5.9163 H   0  0  0  0  0  0  0  0  0  0  0  0
   12.4873    6.5174    6.6412 H   0  0  0  0  0  0  0  0  0  0  0  0
  1  2  2  0  0  0  0
  2 35  2  0  0  0  0
  2  3  1  0  0  0  0
  3  4  1  0  0  0  0
  4  5  1  0  0  0  0
  4 49  1  0  0  0  0
  4 50  1  0  0  0  0
  5 52  1  0  0  0  0
  6  5  1  0  0  0  0
  6  9  1  0  0  0  0
  7  6  1  0  0  0  0
  8  7  1  0  0  0  0
  8 56  1  0  0  0  0
  8  3  1  0  0  0  0
  9 34  1  0  0  0  0
 10  9  2  0  0  0  0
 10 11  1  0  0  0  0
 11 29  2  0  0  0  0
 12 13  2  0  0  0  0
 12 11  1  0  0  0  0
 13 19  1  0  0  0  0
 14 18  2  0  0  0  0
 14 13  1  0  0  0  0
 15 16  1  0  0  0  0
 15 14  1  0  0  0  0
 16 12  1  0  0  0  0
 17 16  2  0  0  0  0
 19 20  2  0  0  0  0
 19 23  1  0  0  0  0
 20 21  1  0  0  0  0
 21 24  1  0  0  0  0
 21 22  1  0  0  0  0
 23 24  1  0  0  0  0
 24 25  2  0  0  0  0
 25 60  1  0  0  0  0
 26 25  1  0  0  0  0
 26 61  1  0  0  0  0
 27 26  2  0  0  0  0
 28 23  2  0  0  0  0
 28 27  1  0  0  0  0
 29 33  1  0  0  0  0
 29 30  1  0  0  0  0
 30 32  2  0  0  0  0
 31 30  2  0  0  0  0
 33 64  1  0  0  0  0
 34 65  1  0  0  0  0
 34 33  2  0  0  0  0
 35 36  2  0  0  0  0
 36 66  1  0  0  0  0
 37 38  1  0  0  0  0
 38 68  1  0  0  0  0
 38 39  1  0  0  0  0
 39 40  1  1  0  0  0
 39 45  1  0  0  0  0
 41 39  1  0  0  0  0
 41 42  1  0  0  0  0
 42 44  2  0  0  0  0
 43 71  1  0  0  0  0
 43 42  1  0  0  0  0
 45 46  1  0  0  0  0
 46 73  1  0  0  0  0
 46 47  1  0  0  0  0
 47 76  1  0  0  0  0
 47 74  1  0  0  0  0
 48 45  2  0  0  0  0
 51  5  1  0  0  0  0
 53  7  1  0  0  0  0
 54  7  1  0  0  0  0
 55  8  1  0  0  0  0
 57 10  1  0  0  0  0
 58 15  1  0  0  0  0
 59 20  1  0  0  0  0
 62 27  1  0  0  0  0
 63 28  1  0  0  0  0
 67 38  1  0  0  0  0
 69 41  1  0  0  0  0
 70 43  1  0  0  0  0
 72 43  1  0  0  0  0
 75 47  1  0  0  0  0
M  END
