76
-1 1
O        -1.348897   -3.953825   -4.564814
C        -0.997027   -4.025146   -3.400886
N        -1.156382   -2.993142   -2.506624
C        -0.578210   -2.972291   -1.171722
C         0.652081   -2.071982   -1.175740
N         0.292543   -0.730784   -1.620609
C        -0.295697   -0.744779   -2.953740
C        -1.512925   -1.680151   -3.005700
C         0.065196    0.286560   -0.727676
C        -0.203376    1.602147   -1.177620
C        -0.442935    2.662087   -0.309318
C        -0.565724    4.012583   -0.880897
C         0.068843    5.157611   -0.536752
C        -0.518920    6.279138   -1.365897
N        -1.439285    5.684760   -2.208995
C        -1.521259    4.310084   -1.997930
O        -2.226687    3.553977   -2.612562
O        -0.262917    7.455377   -1.318640
C         1.093582    5.415521    0.452028
C         1.193652    6.588535    1.173090
N         2.207862    6.493115    2.075437
H         2.457692    7.206757    2.743369
C         2.147712    4.547098    0.941015
C         2.815206    5.260259    1.963064
C         3.899275    4.728854    2.668517
C         4.320505    3.453379    2.325703
C         3.686772    2.732661    1.295391
C         2.614424    3.266349    0.598406
C        -0.437193    2.403100    1.072514
N        -0.782734    3.417941    2.057706
O        -1.603117    4.262138    1.751678
O        -0.254959    3.346250    3.150268
C        -0.111704    1.133356    1.541948
C         0.136825    0.086030    0.673338
C        -0.347119   -5.206241   -2.839362
C         0.264640   -6.113825   -2.317590
S         1.492599   -7.385002    0.582263
C         1.328679   -5.645949    1.124766
C        -0.033637   -5.336927    1.772368
H        -0.088008   -5.838638    2.757318
N        -1.062653   -5.894557    0.902242
C        -2.324860   -6.203719    1.261964
C        -3.018098   -7.174088    0.329686
O        -2.894698   -5.759614    2.258653
C        -0.223473   -3.826861    2.029826
N        -1.404879   -3.488207    2.579141
C        -1.745188   -2.120880    2.869961
O         0.651009   -2.998691    1.787415
H        -0.329990   -3.988055   -0.849671
H        -1.327049   -2.578939   -0.463192
H         1.385497   -2.483637   -1.889971
H         1.122357   -2.066887   -0.188729
H         0.462150   -1.101162   -3.671976
H        -0.598470    0.260814   -3.264473
H        -1.876065   -1.787864   -4.034986
H        -2.321690   -1.260346   -2.382955
H        -0.180025    1.828351   -2.241556
H        -1.990899    6.185639   -2.892598
H         0.581448    7.482796    1.094905
H         4.392948    5.296577    3.460117
H         5.158332    3.001213    2.860680
H         4.042153    1.731337    1.044724
H         2.141207    2.692728   -0.198939
H        -0.080095    0.967683    2.618943
H         0.346166   -0.897670    1.098976
H         0.802027   -6.839626   -1.688737
H         1.459294   -4.961958    0.267745
H         2.111485   -5.376701    1.847153
H        -0.606411   -6.572906    0.268693
H        -2.745465   -6.989252   -0.718763
H        -4.103248   -7.092499    0.463426
H        -2.700693   -8.197115    0.584904
H        -2.099112   -4.239945    2.685632
H        -2.611466   -2.097966    3.544427
H        -1.997909   -1.545193    1.962036
H        -0.901508   -1.609581    3.358142
