76
-1 1
O        12.269193    5.186579   -2.169949
C        11.934266    5.017162   -1.001437
N        11.380911    6.075172   -0.260634
C        11.642084    6.158021    1.164518
C        12.978273    6.869483    1.383356
N        12.903572    8.214757    0.826268
C        12.649624    8.164956   -0.610789
C        11.363873    7.376128   -0.900231
C        12.581072    9.284577    1.610035
C        12.412849   10.582826    1.062388
C        12.099679   11.694461    1.836487
C        12.106468   13.014314    1.184098
C        12.753737   14.148513    1.539237
C        12.325317   15.243435    0.586388
N        11.478622   14.642480   -0.325595
C        11.299279   13.288099   -0.050090
O        10.625549   12.531586   -0.697952
O        12.634815   16.408044    0.598873
C        13.662200   14.423048    2.632879
C        13.733947   15.636078    3.287562
N        14.623634   15.557530    4.315025
H        14.827729   16.303528    4.962678
C        14.601678   13.544020    3.303347
C        15.175085   14.294658    4.355550
C        16.136290   13.765630    5.222584
C        16.530830   12.453103    5.014176
C        15.991497   11.692686    3.958941
C        15.040845   12.223997    3.101798
C        11.910739   11.517642    3.218971
N        11.481740   12.595709    4.094055
O        10.767877   13.466860    3.632887
O        11.833513   12.553288    5.257832
C        12.120912   10.264536    3.791899
C        12.446015    9.166212    3.020727
C        12.040863    3.758045   -0.341084
C        12.180273    2.612053    0.127844
S        13.875244    2.006818    1.730491
C        13.806830    3.516218    2.732536
C        12.716203    3.501308    3.809708
H        12.938828    2.704820    4.541983
N        11.434804    3.192376    3.186594
C        10.395520    2.617366    3.822897
C         9.325102    2.047003    2.917884
O        10.305670    2.536998    5.046363
C        12.632605    4.833041    4.588629
N        11.816762    4.796402    5.662178
C        11.550247    5.979558    6.437844
O        13.261068    5.837371    4.275256
H        11.648276    5.157395    1.605186
H        10.833588    6.726310    1.656093
H        13.758839    6.319250    0.832121
H        13.279805    6.862146    2.433178
H        13.495070    7.649833   -1.093766
H        12.583936    9.168920   -1.043360
H        11.256011    7.229780   -1.981548
H        10.497854    7.946849   -0.521894
H        12.568385   10.749059   -0.000925
H        11.035497   15.126184   -1.095000
H        13.184011   16.549287    3.077622
H        16.558166   14.364012    6.032992
H        17.273638   12.002726    5.676127
H        16.323077   10.662469    3.815664
H        14.640237   11.618734    2.288312
H        12.005656   10.160334    4.870676
H        12.581142    8.207529    3.520832
H        11.811760    1.594223    0.135047
H        13.640569    4.373209    2.060072
H        14.772342    3.701403    3.223012
H        11.500719    3.040496    2.179625
H         9.364715    2.461855    1.901449
H         8.340278    2.232143    3.365370
H         9.472504    0.958173    2.856678
H        11.235589    3.957890    5.767821
H        11.087233    5.694000    7.391899
H        10.873585    6.679800    5.916273
H        12.487277    6.517412    6.641213
