74
-1 1
O         0.100523   -2.775593   -1.296562
C        -0.383412   -1.697667   -0.984763
C        -0.467282   -0.530535   -1.963127
C        -1.798371   -0.631407   -2.747924
S        -2.005572    0.576057   -4.085567
C        -1.898242    2.667409   -2.387941
Cl        -1.960615    3.922717   -3.596702
C        -2.953868    2.511853   -1.539621
C        -2.888503    1.602828   -0.423932
O        -1.881640    1.312933    0.224562
N        -4.106558    1.037027   -0.009930
C        -5.211277    0.667970   -0.766122
C        -6.391043    0.316991   -0.076621
C        -7.515536   -0.114520   -0.757964
C        -7.482046   -0.182809   -2.152710
S        -8.911261   -0.759600   -3.012846
N        -8.834695   -2.420505   -2.748736
C        -7.779505   -3.150967   -3.449971
C        -8.239956   -3.661825   -4.814318
C       -10.092429   -3.153322   -2.660347
C       -10.561005   -3.652884   -4.026267
N        -9.490602   -4.392314   -4.673831
C        -9.569117   -5.688170   -5.086282
O       -10.791875   -6.201510   -4.853803
C       -11.123797   -7.563610   -5.206914
C       -11.007426   -7.763821   -6.717840
C       -10.242733   -8.543241   -4.431698
C       -12.578942   -7.688311   -4.762778
O        -8.652378   -6.297470   -5.597132
O       -10.124923   -0.315293   -2.327909
O        -8.743387   -0.459632   -4.435662
C        -6.328537    0.169687   -2.854339
C        -5.190472    0.581044   -2.171254
N         0.683150   -0.525235   -2.824993
C         1.326050    0.620808   -3.158781
C         2.258176    0.504804   -4.347414
O         1.175099    1.678403   -2.567782
H        -0.445646    0.409645   -1.398388
N        -0.953378   -1.439488    0.218964
C        -1.070038   -2.436485    1.246459
H        -1.870677   -1.652032   -3.161987
H        -2.616126   -0.551255   -2.007259
H        -4.048454    0.636108    0.919520
H        -6.413592    0.393608    1.013177
H        -8.424943   -0.383627   -0.217883
H        -7.492763   -4.002722   -2.810803
H        -6.891829   -2.511585   -3.553973
H        -7.493938   -4.336391   -5.249748
H        -8.388430   -2.806053   -5.493225
H       -10.848940   -2.507853   -2.197143
H        -9.920238   -4.016921   -1.995259
H       -10.839440   -2.789726   -4.656786
H       -11.438107   -4.298372   -3.919432
H        -9.965265   -7.667515   -7.044827
H       -11.616818   -7.015762   -7.246990
H       -11.377477   -8.764093   -6.988742
H       -10.314221   -8.344253   -3.351647
H        -9.194405   -8.453025   -4.740337
H       -10.583516   -9.573347   -4.614962
H       -13.206447   -6.955605   -5.290934
H       -12.668485   -7.505874   -3.681826
H       -12.958978   -8.697145   -4.980320
H        -6.306941    0.108982   -3.944190
H        -4.285808    0.797462   -2.753307
H         0.817675   -1.352020   -3.392322
H         1.673797    0.742084   -5.249458
H         2.682714   -0.503510   -4.459982
H         3.063258    1.242845   -4.246511
H        -1.294505   -0.489582    0.388673
H        -0.511582   -2.154855    2.155142
H        -0.653337   -3.374650    0.856638
H        -2.122512   -2.608141    1.529727
H        -0.878710    2.318359   -2.206807
H        -3.922541    2.934003   -1.810637
