-1 1
 OpenBabel05232414493D

 74 74  0  0  1  0  0  0  0  0999 V2000
    0.1005   -2.7756   -1.2966 O   0  0  0  0  0  0  0  0  0  0  0  0
   -0.3834   -1.6977   -0.9848 C   0  0  0  0  0  0  0  0  0  0  0  0
   -0.4673   -0.5305   -1.9631 C   0  0  2  0  0  0  0  0  0  0  0  0
   -1.7984   -0.6314   -2.7479 C   0  0  0  0  0  0  0  0  0  0  0  0
   -2.0056    0.5761   -4.0856 S   0  0  0  0  0  1  0  0  0  0  0  0
   -1.8982    2.6674   -2.3879 C   0  0  0  0  0  3  0  0  0  0  0  0
   -1.9606    3.9227   -3.5967 Cl  0  0  0  0  0  0  0  0  0  0  0  0
   -2.9539    2.5119   -1.5396 C   0  0  0  0  0  3  0  0  0  0  0  0
   -2.8885    1.6028   -0.4239 C   0  0  0  0  0  0  0  0  0  0  0  0
   -1.8816    1.3129    0.2246 O   0  0  0  0  0  0  0  0  0  0  0  0
   -4.1066    1.0370   -0.0099 N   0  0  0  0  0  0  0  0  0  0  0  0
   -5.2113    0.6680   -0.7661 C   0  0  0  0  0  0  0  0  0  0  0  0
   -6.3910    0.3170   -0.0766 C   0  0  0  0  0  0  0  0  0  0  0  0
   -7.5155   -0.1145   -0.7580 C   0  0  0  0  0  0  0  0  0  0  0  0
   -7.4820   -0.1828   -2.1527 C   0  0  0  0  0  0  0  0  0  0  0  0
   -8.9113   -0.7596   -3.0128 S   0  0  0  0  0  0  0  0  0  0  0  0
   -8.8347   -2.4205   -2.7487 N   0  0  0  0  0  0  0  0  0  0  0  0
   -7.7795   -3.1510   -3.4500 C   0  0  0  0  0  0  0  0  0  0  0  0
   -8.2400   -3.6618   -4.8143 C   0  0  0  0  0  0  0  0  0  0  0  0
  -10.0924   -3.1533   -2.6603 C   0  0  0  0  0  0  0  0  0  0  0  0
  -10.5610   -3.6529   -4.0263 C   0  0  0  0  0  0  0  0  0  0  0  0
   -9.4906   -4.3923   -4.6738 N   0  0  0  0  0  0  0  0  0  0  0  0
   -9.5691   -5.6882   -5.0863 C   0  0  0  0  0  0  0  0  0  0  0  0
  -10.7919   -6.2015   -4.8538 O   0  0  0  0  0  0  0  0  0  0  0  0
  -11.1238   -7.5636   -5.2069 C   0  0  0  0  0  0  0  0  0  0  0  0
  -11.0074   -7.7638   -6.7178 C   0  0  0  0  0  0  0  0  0  0  0  0
  -10.2427   -8.5432   -4.4317 C   0  0  0  0  0  0  0  0  0  0  0  0
  -12.5789   -7.6883   -4.7628 C   0  0  0  0  0  0  0  0  0  0  0  0
   -8.6524   -6.2975   -5.5971 O   0  0  0  0  0  0  0  0  0  0  0  0
  -10.1249   -0.3153   -2.3279 O   0  0  0  0  0  0  0  0  0  0  0  0
   -8.7434   -0.4596   -4.4357 O   0  0  0  0  0  0  0  0  0  0  0  0
   -6.3285    0.1697   -2.8543 C   0  0  0  0  0  0  0  0  0  0  0  0
   -5.1905    0.5810   -2.1713 C   0  0  0  0  0  0  0  0  0  0  0  0
    0.6832   -0.5252   -2.8250 N   0  0  0  0  0  0  0  0  0  0  0  0
    1.3260    0.6208   -3.1588 C   0  0  0  0  0  0  0  0  0  0  0  0
    2.2582    0.5048   -4.3474 C   0  0  0  0  0  0  0  0  0  0  0  0
    1.1751    1.6784   -2.5678 O   0  0  0  0  0  0  0  0  0  0  0  0
   -0.4456    0.4096   -1.3984 H   0  0  0  0  0  0  0  0  0  0  0  0
   -0.9534   -1.4395    0.2190 N   0  0  0  0  0  0  0  0  0  0  0  0
   -1.0700   -2.4365    1.2465 C   0  0  0  0  0  0  0  0  0  0  0  0
   -1.8707   -1.6520   -3.1620 H   0  0  0  0  0  0  0  0  0  0  0  0
   -2.6161   -0.5513   -2.0073 H   0  0  0  0  0  0  0  0  0  0  0  0
   -4.0485    0.6361    0.9195 H   0  0  0  0  0  0  0  0  0  0  0  0
   -6.4136    0.3936    1.0132 H   0  0  0  0  0  0  0  0  0  0  0  0
   -8.4249   -0.3836   -0.2179 H   0  0  0  0  0  0  0  0  0  0  0  0
   -7.4928   -4.0027   -2.8108 H   0  0  0  0  0  0  0  0  0  0  0  0
   -6.8918   -2.5116   -3.5540 H   0  0  0  0  0  0  0  0  0  0  0  0
   -7.4939   -4.3364   -5.2497 H   0  0  0  0  0  0  0  0  0  0  0  0
   -8.3884   -2.8061   -5.4932 H   0  0  0  0  0  0  0  0  0  0  0  0
  -10.8489   -2.5079   -2.1971 H   0  0  0  0  0  0  0  0  0  0  0  0
   -9.9202   -4.0169   -1.9953 H   0  0  0  0  0  0  0  0  0  0  0  0
  -10.8394   -2.7897   -4.6568 H   0  0  0  0  0  0  0  0  0  0  0  0
  -11.4381   -4.2984   -3.9194 H   0  0  0  0  0  0  0  0  0  0  0  0
   -9.9653   -7.6675   -7.0448 H   0  0  0  0  0  0  0  0  0  0  0  0
  -11.6168   -7.0158   -7.2470 H   0  0  0  0  0  0  0  0  0  0  0  0
  -11.3775   -8.7641   -6.9887 H   0  0  0  0  0  0  0  0  0  0  0  0
  -10.3142   -8.3443   -3.3516 H   0  0  0  0  0  0  0  0  0  0  0  0
   -9.1944   -8.4530   -4.7403 H   0  0  0  0  0  0  0  0  0  0  0  0
  -10.5835   -9.5733   -4.6150 H   0  0  0  0  0  0  0  0  0  0  0  0
  -13.2064   -6.9556   -5.2909 H   0  0  0  0  0  0  0  0  0  0  0  0
  -12.6685   -7.5059   -3.6818 H   0  0  0  0  0  0  0  0  0  0  0  0
  -12.9590   -8.6971   -4.9803 H   0  0  0  0  0  0  0  0  0  0  0  0
   -6.3069    0.1090   -3.9442 H   0  0  0  0  0  0  0  0  0  0  0  0
   -4.2858    0.7975   -2.7533 H   0  0  0  0  0  0  0  0  0  0  0  0
    0.8177   -1.3520   -3.3923 H   0  0  0  0  0  0  0  0  0  0  0  0
    1.6738    0.7421   -5.2495 H   0  0  0  0  0  0  0  0  0  0  0  0
    2.6827   -0.5035   -4.4600 H   0  0  0  0  0  0  0  0  0  0  0  0
    3.0633    1.2428   -4.2465 H   0  0  0  0  0  0  0  0  0  0  0  0
   -1.2945   -0.4896    0.3887 H   0  0  0  0  0  0  0  0  0  0  0  0
   -0.5116   -2.1549    2.1551 H   0  0  0  0  0  0  0  0  0  0  0  0
   -0.6533   -3.3746    0.8566 H   0  0  0  0  0  0  0  0  0  0  0  0
   -2.1225   -2.6081    1.5297 H   0  0  0  0  0  0  0  0  0  0  0  0
   -0.8787    2.3184   -2.2068 H   0  0  0  0  0  0  0  0  0  0  0  0
   -3.9225    2.9340   -1.8106 H   0  0  0  0  0  0  0  0  0  0  0  0
  1  2  2  0  0  0  0
  2 39  1  0  0  0  0
  3 38  1  1  0  0  0
  3  2  1  0  0  0  0
  4 42  1  0  0  0  0
  4  3  1  0  0  0  0
  5  4  1  0  0  0  0
  6 73  1  0  0  0  0
  6  8  1  0  0  0  0
  7  6  1  0  0  0  0
  8  9  1  0  0  0  0
  9 11  1  0  0  0  0
  9 10  2  0  0  0  0
 11 43  1  0  0  0  0
 12 13  1  0  0  0  0
 12 11  1  0  0  0  0
 13 44  1  0  0  0  0
 14 45  1  0  0  0  0
 14 13  2  0  0  0  0
 15 14  1  0  0  0  0
 16 17  1  0  0  0  0
 16 30  2  0  0  0  0
 16 15  1  0  0  0  0
 17 20  1  0  0  0  0
 18 46  1  0  0  0  0
 18 17  1  0  0  0  0
 19 22  1  0  0  0  0
 19 18  1  0  0  0  0
 20 50  1  0  0  0  0
 20 51  1  0  0  0  0
 21 53  1  0  0  0  0
 21 20  1  0  0  0  0
 22 21  1  0  0  0  0
 23 24  1  0  0  0  0
 23 22  1  0  0  0  0
 25 24  1  0  0  0  0
 25 28  1  0  0  0  0
 25 27  1  0  0  0  0
 26 25  1  0  0  0  0
 27 57  1  0  0  0  0
 28 61  1  0  0  0  0
 29 23  2  0  0  0  0
 31 16  2  0  0  0  0
 32 33  1  0  0  0  0
 32 15  2  0  0  0  0
 33 12  2  0  0  0  0
 34  3  1  0  0  0  0
 35 34  1  0  0  0  0
 35 37  2  0  0  0  0
 36 68  1  0  0  0  0
 36 35  1  0  0  0  0
 39 69  1  0  0  0  0
 39 40  1  0  0  0  0
 40 72  1  0  0  0  0
 40 70  1  0  0  0  0
 41  4  1  0  0  0  0
 47 18  1  0  0  0  0
 48 19  1  0  0  0  0
 49 19  1  0  0  0  0
 52 21  1  0  0  0  0
 54 26  1  0  0  0  0
 55 26  1  0  0  0  0
 56 26  1  0  0  0  0
 58 27  1  0  0  0  0
 59 27  1  0  0  0  0
 60 28  1  0  0  0  0
 62 28  1  0  0  0  0
 63 32  1  0  0  0  0
 64 33  1  0  0  0  0
 65 34  1  0  0  0  0
 66 36  1  0  0  0  0
 67 36  1  0  0  0  0
 71 40  1  0  0  0  0
 74  8  1  0  0  0  0
M  END
