74
-1 1
O         2.456138   -0.264403    3.181996
C         3.318699    0.041595    2.364690
C         2.973441    0.201515    0.876123
C         1.756151   -0.653033    0.478483
S         1.396982   -0.573006   -1.310802
C         3.719029    4.349226    0.566709
Cl         3.729999    5.354540   -0.848736
C         2.668419    4.275706    1.380955
C         2.766200    3.389970    2.577009
O         3.771666    3.349836    3.259811
N         1.671825    2.628873    2.911400
C         0.511852    2.270742    2.207533
C        -0.501826    1.648212    2.960951
C        -1.648873    1.178596    2.350659
C        -1.802384    1.339336    0.970756
S        -3.268537    0.718319    0.193280
N        -3.048763   -0.931171    0.326876
C        -1.943900   -1.530517   -0.430024
C        -2.379032   -1.998976   -1.813094
C        -4.241220   -1.767615    0.380437
C        -4.691261   -2.209760   -1.010636
N        -3.581672   -2.821456   -1.720578
C        -3.628837   -4.033665   -2.333361
O        -4.831377   -4.626316   -2.155340
C        -5.117203   -5.929564   -2.702270
C        -5.033668   -5.898022   -4.228952
C        -4.179207   -6.978201   -2.102943
C        -6.554630   -6.183888   -2.253833
O        -2.713811   -4.527420   -2.957932
O        -4.436435    1.033730    1.019835
O        -3.263432    1.163831   -1.201282
C        -0.816169    1.951327    0.208838
C         0.340036    2.420609    0.827787
N         4.044250   -0.076097   -0.072692
C         5.042775    0.772706   -0.365178
C         5.693899    0.568802   -1.715123
O         5.417159    1.678011    0.387219
H         2.697213    1.265672    0.760724
N         4.588441    0.336874    2.717147
C         4.968865    0.420476    4.104558
H         1.953066   -1.692702    0.790565
H         0.905330   -0.309827    1.083829
H         1.872550    2.022034    3.704454
H        -0.358360    1.511011    4.034090
H        -2.427359    0.684161    2.933696
H        -1.577794   -2.385727    0.160849
H        -1.092243   -0.837954   -0.536019
H        -1.578110   -2.584991   -2.277030
H        -2.583326   -1.121298   -2.449325
H        -5.042034   -1.223293    0.897009
H        -3.984465   -2.657125    0.980495
H        -5.047647   -1.328728   -1.575221
H        -5.515366   -2.925841   -0.934288
H        -4.005374   -5.703223   -4.556150
H        -5.688505   -5.107987   -4.626819
H        -5.367134   -6.863001   -4.640108
H        -4.230412   -6.947039   -1.003992
H        -3.143676   -6.795242   -2.413718
H        -4.483491   -7.982720   -2.434292
H        -7.223939   -5.406684   -2.651091
H        -6.622610   -6.170640   -1.156045
H        -6.900537   -7.163660   -2.614966
H        -0.922378    2.020438   -0.873766
H         1.130801    2.820644    0.196830
H         3.635816   -0.581246   -0.877906
H         5.138269    1.163763   -2.456502
H         5.665545   -0.481029   -2.036105
H         6.728610    0.930484   -1.676896
H         5.127191    0.871033    2.030616
H         6.049214    0.241409    4.205527
H         4.422453   -0.342315    4.674589
H         4.730186    1.412185    4.524471
H         4.620201    3.740626    0.687824
H         1.745767    4.827889    1.186472
