48
-1 1
O        -2.641347   -1.455576    1.118187
C        -2.578878   -2.632106    0.738296
C        -1.861582   -2.991414   -0.569385
C        -2.038627   -4.433674   -1.067201
S        -1.281711   -5.701632    0.024264
C        -0.453642   -2.015152    4.792446
C        -0.792031   -1.423682    3.647316
C         0.187654   -0.566491    2.922672
N        -0.245219   -0.108619    1.708087
C         0.509742    0.709152    0.898301
S         2.128841    1.223628    1.317606
C         2.181060    2.094981   -0.172337
C         1.007124    1.947441   -0.859494
C         0.685484    2.478565   -2.205621
C         1.020832    3.758814   -2.671213
Cl         1.853776    4.924486   -1.651365
C         0.683782    4.185364   -3.955658
C        -0.004626    3.328719   -4.808128
C        -0.355151    2.053152   -4.368109
C        -0.018034    1.637572   -3.085058
N         0.072675    1.156174   -0.237897
O         1.287311   -0.277960    3.370839
N        -0.460443   -2.653354   -0.432302
C         0.193481   -1.947912   -1.388771
C         1.692377   -1.832059   -1.205873
O        -0.372514   -1.418987   -2.334107
H        -2.265127   -2.288428   -1.314948
N        -3.130013   -3.648797    1.412066
C        -3.803487   -3.467250    2.669361
H        -3.117899   -4.621115   -1.200900
H        -1.585801   -4.475492   -2.070467
H        -1.140372   -0.458620    1.316548
H         3.062904    2.659739   -0.462937
H         0.959592    5.191967   -4.272891
H        -0.266687    3.663846   -5.814334
H        -0.892871    1.368043   -5.026599
H        -0.276019    0.628591   -2.747543
H         0.061493   -3.321729    0.133905
H         2.057474   -2.303658   -0.283869
H         1.959003   -0.764978   -1.196466
H         2.188404   -2.291282   -2.072686
H        -2.754691   -4.590911    1.165552
H        -4.224015   -2.453639    2.715351
H        -3.119279   -3.598013    3.526211
H        -4.616640   -4.201124    2.768499
H         0.549069   -1.877177    5.206678
H        -1.158917   -2.650152    5.333489
H        -1.777296   -1.540146    3.189881
