-1 1
 OpenBabel05192410563D

 48 49  0  0  1  0  0  0  0  0999 V2000
   -2.2958   -1.9455   -0.2389 O   0  0  0  0  0  0  0  0  0  0  0  0
   -2.2894   -2.9614    0.4312 C   0  0  0  0  0  0  0  0  0  0  0  0
   -1.0941   -3.9344    0.4038 C   0  0  2  0  0  0  0  0  0  0  0  0
   -0.9455   -4.9112    1.5863 C   0  0  0  0  0  0  0  0  0  0  0  0
   -0.0131   -4.3829    3.0517 S   0  0  0  0  0  0  0  0  0  0  0  0
   -0.8958   -2.8874    3.7545 C   0  0  0  0  0  0  0  0  0  0  0  0
   -1.1846   -1.7605    2.8403 C   0  0  0  0  0  3  0  0  0  0  0  0
   -0.1671   -1.0476    2.2308 C   0  0  0  0  0  0  0  0  0  0  0  0
   -0.5716   -0.0679    1.2675 N   0  0  0  0  0  0  0  0  0  0  0  0
    0.2959    0.6915    0.5601 C   0  0  0  0  0  0  0  0  0  0  0  0
    1.9962    0.8262    0.9807 S   0  0  0  0  0  0  0  0  0  0  0  0
    2.1767    1.9681   -0.3148 C   0  0  0  0  0  0  0  0  0  0  0  0
    0.9923    2.1363   -0.9781 C   0  0  0  0  0  0  0  0  0  0  0  0
    0.7258    2.9193   -2.2080 C   0  0  0  0  0  0  0  0  0  0  0  0
    1.4711    4.0049   -2.6988 C   0  0  0  0  0  0  0  0  0  0  0  0
    2.8665    4.6482   -1.8450 Cl  0  0  0  0  0  0  0  0  0  0  0  0
    1.1329    4.6618   -3.8834 C   0  0  0  0  0  0  0  0  0  0  0  0
    0.0262    4.2534   -4.6176 C   0  0  0  0  0  0  0  0  0  0  0  0
   -0.7443    3.1883   -4.1514 C   0  0  0  0  0  0  0  0  0  0  0  0
   -0.3980    2.5451   -2.9715 C   0  0  0  0  0  0  0  0  0  0  0  0
   -0.0621    1.4116   -0.4688 N   0  0  0  0  0  0  0  0  0  0  0  0
    1.0709   -1.2162    2.3717 O   0  0  0  0  0  0  0  0  0  0  0  0
    0.1226   -3.2391    0.1112 N   0  0  0  0  0  0  0  0  0  0  0  0
    0.5576   -3.0880   -1.1698 C   0  0  0  0  0  0  0  0  0  0  0  0
    1.6724   -2.0802   -1.3390 C   0  0  0  0  0  0  0  0  0  0  0  0
    0.0787   -3.6978   -2.1118 O   0  0  0  0  0  0  0  0  0  0  0  0
   -1.3014   -4.5474   -0.4924 H   0  0  0  0  0  0  0  0  0  0  0  0
   -3.4076   -3.3864    1.0959 N   0  0  0  0  0  0  0  0  0  0  0  0
   -4.5536   -2.5186    1.1973 C   0  0  0  0  0  0  0  0  0  0  0  0
   -1.9208   -5.3427    1.8641 H   0  0  0  0  0  0  0  0  0  0  0  0
   -0.3463   -5.7613    1.2281 H   0  0  0  0  0  0  0  0  0  0  0  0
   -1.4633   -0.2228    0.8022 H   0  0  0  0  0  0  0  0  0  0  0  0
    3.1472    2.3963   -0.5433 H   0  0  0  0  0  0  0  0  0  0  0  0
    1.7468    5.5001   -4.2159 H   0  0  0  0  0  0  0  0  0  0  0  0
   -0.2320    4.7698   -5.5448 H   0  0  0  0  0  0  0  0  0  0  0  0
   -1.6209    2.8541   -4.7106 H   0  0  0  0  0  0  0  0  0  0  0  0
   -0.9947    1.7172   -2.5862 H   0  0  0  0  0  0  0  0  0  0  0  0
    0.5662   -2.7050    0.8606 H   0  0  0  0  0  0  0  0  0  0  0  0
    2.2734   -1.9549   -0.4281 H   0  0  0  0  0  0  0  0  0  0  0  0
    1.2153   -1.1046   -1.5697 H   0  0  0  0  0  0  0  0  0  0  0  0
    2.3031   -2.3763   -2.1865 H   0  0  0  0  0  0  0  0  0  0  0  0
   -3.2719   -4.0562    1.8392 H   0  0  0  0  0  0  0  0  0  0  0  0
   -4.7187   -2.0328    0.2271 H   0  0  0  0  0  0  0  0  0  0  0  0
   -4.4138   -1.7208    1.9494 H   0  0  0  0  0  0  0  0  0  0  0  0
   -5.4443   -3.1054    1.4641 H   0  0  0  0  0  0  0  0  0  0  0  0
   -0.1749   -2.6303    4.5510 H   0  0  0  0  0  0  0  0  0  0  0  0
   -1.8126   -3.2484    4.2460 H   0  0  0  0  0  0  0  0  0  0  0  0
   -2.2221   -1.4827    2.6547 H   0  0  0  0  0  0  0  0  0  0  0  0
  1  2  2  0  0  0  0
  2 28  1  0  0  0  0
  3 27  1  6  0  0  0
  3  2  1  0  0  0  0
  3  4  1  0  0  0  0
  4 30  1  0  0  0  0
  4  5  1  0  0  0  0
  5  6  1  0  0  0  0
  6 47  1  0  0  0  0
  6 46  1  0  0  0  0
  7  6  1  0  0  0  0
  8 22  2  0  0  0  0
  8  7  1  0  0  0  0
  9  8  1  0  0  0  0
 10 11  1  0  0  0  0
 10  9  1  0  0  0  0
 12 11  1  0  0  0  0
 13 21  1  0  0  0  0
 13 12  2  0  0  0  0
 14 13  1  0  0  0  0
 15 14  1  0  0  0  0
 15 16  1  0  0  0  0
 17 15  2  0  0  0  0
 18 19  2  0  0  0  0
 18 17  1  0  0  0  0
 19 20  1  0  0  0  0
 20 37  1  0  0  0  0
 20 14  2  0  0  0  0
 21 10  2  0  0  0  0
 23  3  1  0  0  0  0
 23 38  1  0  0  0  0
 24 23  1  0  0  0  0
 25 24  1  0  0  0  0
 25 39  1  0  0  0  0
 26 24  2  0  0  0  0
 28 29  1  0  0  0  0
 28 42  1  0  0  0  0
 29 45  1  0  0  0  0
 29 44  1  0  0  0  0
 31  4  1  0  0  0  0
 32  9  1  0  0  0  0
 33 12  1  0  0  0  0
 34 17  1  0  0  0  0
 35 18  1  0  0  0  0
 36 19  1  0  0  0  0
 40 25  1  0  0  0  0
 41 25  1  0  0  0  0
 43 29  1  0  0  0  0
 48  7  1  0  0  0  0
M  END
