-1 1
 OpenBabel05232414493D

 48 48  0  0  1  0  0  0  0  0999 V2000
   -0.4281   -8.4454   -0.4611 O   0  0  0  0  0  0  0  0  0  0  0  0
   -0.5589   -9.1551    0.5160 C   0  0  0  0  0  0  0  0  0  0  0  0
    0.3470  -10.3727    0.7942 C   0  0  2  0  0  0  0  0  0  0  0  0
    1.0108  -10.3560    2.1869 C   0  0  0  0  0  0  0  0  0  0  0  0
    2.3417   -9.1292    2.3794 S   0  0  0  0  0  1  0  0  0  0  0  0
    0.9801   -7.1401    2.8883 C   0  0  0  0  0  3  0  0  0  0  0  0
    0.8437   -6.2430    1.8515 C   0  0  0  0  0  3  0  0  0  0  0  0
    1.7476   -5.1394    1.7145 C   0  0  0  0  0  0  0  0  0  0  0  0
    1.5763   -4.3874    0.5330 N   0  0  0  0  0  0  0  0  0  0  0  0
    2.2833   -3.2702    0.2114 C   0  0  0  0  0  0  0  0  0  0  0  0
    3.5097   -2.5985    1.2624 S   0  0  0  0  0  0  0  0  0  0  0  0
    3.7464   -1.3417    0.0926 C   0  0  0  0  0  0  0  0  0  0  0  0
    2.9150   -1.5109   -0.9810 C   0  0  0  0  0  0  0  0  0  0  0  0
    2.8373   -0.7144   -2.2293 C   0  0  0  0  0  0  0  0  0  0  0  0
    3.2775    0.6075   -2.4161 C   0  0  0  0  0  0  0  0  0  0  0  0
    3.9728    1.5606   -1.1150 Cl  0  0  0  0  0  0  0  0  0  0  0  0
    3.1637    1.2588   -3.6455 C   0  0  0  0  0  0  0  0  0  0  0  0
    2.5970    0.6065   -4.7334 C   0  0  0  0  0  0  0  0  0  0  0  0
    2.1366   -0.7005   -4.5788 C   0  0  0  0  0  0  0  0  0  0  0  0
    2.2550   -1.3366   -3.3510 C   0  0  0  0  0  0  0  0  0  0  0  0
    2.0930   -2.6140   -0.8967 N   0  0  0  0  0  0  0  0  0  0  0  0
    2.6157   -4.7749    2.5061 O   0  0  0  0  0  0  0  0  0  0  0  0
    1.3515  -10.4711   -0.2215 N   0  0  0  0  0  0  0  0  0  0  0  0
    1.1034  -11.0118   -1.4390 C   0  0  0  0  0  0  0  0  0  0  0  0
    2.1758  -10.7390   -2.4768 C   0  0  0  0  0  0  0  0  0  0  0  0
    0.1029  -11.6607   -1.6943 O   0  0  0  0  0  0  0  0  0  0  0  0
   -0.3023  -11.2607    0.7052 H   0  0  0  0  0  0  0  0  0  0  0  0
   -1.5559   -8.9699    1.4303 N   0  0  0  0  0  0  0  0  0  0  0  0
   -2.4407   -7.8335    1.3882 C   0  0  0  0  0  0  0  0  0  0  0  0
    0.2406  -10.2091    2.9663 H   0  0  0  0  0  0  0  0  0  0  0  0
    1.4231  -11.3617    2.3645 H   0  0  0  0  0  0  0  0  0  0  0  0
    0.9083   -4.6955   -0.1626 H   0  0  0  0  0  0  0  0  0  0  0  0
    4.4970   -0.5750    0.2533 H   0  0  0  0  0  0  0  0  0  0  0  0
    3.5207    2.2859   -3.7332 H   0  0  0  0  0  0  0  0  0  0  0  0
    2.5124    1.1216   -5.6926 H   0  0  0  0  0  0  0  0  0  0  0  0
    1.6821   -1.2294   -5.4192 H   0  0  0  0  0  0  0  0  0  0  0  0
    1.8900   -2.3544   -3.2115 H   0  0  0  0  0  0  0  0  0  0  0  0
    2.1427   -9.8464   -0.0705 H   0  0  0  0  0  0  0  0  0  0  0  0
    3.1833  -10.7118   -2.0377 H   0  0  0  0  0  0  0  0  0  0  0  0
    1.9744   -9.7570   -2.9316 H   0  0  0  0  0  0  0  0  0  0  0  0
    2.1240  -11.5073   -3.2578 H   0  0  0  0  0  0  0  0  0  0  0  0
   -1.5359   -9.5345    2.2677 H   0  0  0  0  0  0  0  0  0  0  0  0
   -2.4164   -7.4300    0.3679 H   0  0  0  0  0  0  0  0  0  0  0  0
   -2.1235   -7.0342    2.0799 H   0  0  0  0  0  0  0  0  0  0  0  0
   -3.4723   -8.1317    1.6306 H   0  0  0  0  0  0  0  0  0  0  0  0
    1.6388   -6.8774    3.7176 H   0  0  0  0  0  0  0  0  0  0  0  0
    0.1719   -7.8343    3.1200 H   0  0  0  0  0  0  0  0  0  0  0  0
    0.1496   -6.4477    1.0330 H   0  0  0  0  0  0  0  0  0  0  0  0
  1  2  2  0  0  0  0
  2  3  1  0  0  0  0
  2 28  1  0  0  0  0
  3 27  1  6  0  0  0
  3  4  1  0  0  0  0
  4 31  1  0  0  0  0
  4  5  1  0  0  0  0
  4 30  1  0  0  0  0
  6 47  1  0  0  0  0
  6 46  1  0  0  0  0
  7  6  1  0  0  0  0
  8  7  1  0  0  0  0
  8 22  2  0  0  0  0
  9  8  1  0  0  0  0
 10  9  1  0  0  0  0
 10 11  1  0  0  0  0
 12 33  1  0  0  0  0
 12 11  1  0  0  0  0
 13 21  1  0  0  0  0
 13 12  2  0  0  0  0
 14 13  1  0  0  0  0
 15 14  1  0  0  0  0
 15 16  1  0  0  0  0
 17 15  2  0  0  0  0
 18 19  2  0  0  0  0
 18 17  1  0  0  0  0
 19 20  1  0  0  0  0
 20 37  1  0  0  0  0
 20 14  2  0  0  0  0
 21 10  2  0  0  0  0
 23 38  1  0  0  0  0
 23  3  1  0  0  0  0
 24 23  1  0  0  0  0
 25 39  1  0  0  0  0
 25 24  1  0  0  0  0
 26 24  2  0  0  0  0
 28 42  1  0  0  0  0
 29 28  1  0  0  0  0
 29 45  1  0  0  0  0
 29 44  1  0  0  0  0
 32  9  1  0  0  0  0
 34 17  1  0  0  0  0
 35 18  1  0  0  0  0
 36 19  1  0  0  0  0
 40 25  1  0  0  0  0
 41 25  1  0  0  0  0
 43 29  1  0  0  0  0
 48  7  1  0  0  0  0
M  END
