58
-1 1
O        -1.644058    0.600825    0.991888
C        -1.940065    1.777996    1.140087
C        -1.302094    2.878693    0.305385
C         0.025427    3.333753    0.958082
S         0.732484    4.818269    0.166592
C         4.572917    2.949587    0.054133
C         3.401440    2.402503   -0.272528
C         3.234608    0.926776   -0.231393
N         2.017278    0.475713   -0.684794
C         1.594157   -0.827751   -0.609741
C         0.342577   -1.282152   -0.996443
C        -0.664499   -0.373388   -1.562671
O        -1.869273   -0.923063   -1.638305
C        -2.983332   -0.070149   -1.925012
C        -4.146295   -0.499893   -1.061489
O        -0.405812    0.752615   -1.942881
C         0.166261   -2.668444   -0.727209
C         1.266275   -3.262212   -0.172120
C         1.440227   -4.668902    0.217260
C         2.377008   -5.053762    1.191038
C         2.527200   -6.389955    1.553430
C         1.739394   -7.375541    0.960722
C         0.803719   -7.008129   -0.006777
C         0.661556   -5.675201   -0.379745
S         2.559917   -2.102506    0.054120
O         4.078614    0.147047    0.180599
N        -2.157175    4.038689    0.149186
C        -3.285567    3.988044   -0.599794
C        -3.834434    5.340315   -1.016134
O        -3.833943    2.945021   -0.925981
H        -1.081625    2.433757   -0.675979
N        -2.789540    2.209385    2.107752
C        -3.516860    1.313925    2.962161
H        -0.162250    3.522835    2.029616
H         0.711490    2.471920    0.911559
H         1.325318    1.114568   -1.087334
H        -3.211277   -0.157208   -3.000307
H        -2.721137    0.973250   -1.711978
H        -4.462523   -1.531505   -1.281633
H        -4.991470    0.182755   -1.228753
H        -3.848888   -0.432706   -0.005609
H        -0.773700   -3.180579   -0.929289
H         2.986400   -4.291921    1.683381
H         3.262861   -6.660521    2.314633
H         1.854840   -8.422991    1.248447
H         0.184083   -7.769989   -0.486197
H        -0.054558   -5.405761   -1.158697
H        -1.576243    4.893629    0.121533
H        -3.627566    6.120095   -0.270153
H        -4.914335    5.254210   -1.189486
H        -3.351074    5.638010   -1.959577
H        -3.020498    3.194713    2.083351
H        -4.579311    1.234181    2.672742
H        -3.463244    1.634548    4.014782
H        -3.058984    0.320128    2.871089
H         2.539832    3.043821   -0.516195
H         4.690908    4.035321    0.063176
H         5.423809    2.320019    0.330788
