58
-1 1
O        -1.470625    0.231538    0.960623
C        -1.598575    1.385916    1.315969
C        -0.660912    2.485198    0.813061
C         0.553733    2.581690    1.768838
S         1.556977    4.095156    1.638347
C         2.744066    3.670454    0.172691
C         2.188650    2.752655   -0.816602
C         2.329276    1.380927   -0.613886
N         1.472797    0.560077   -1.420506
C         1.178782   -0.718389   -1.128014
C         0.041249   -1.409874   -1.568619
C        -1.039116   -0.709936   -2.236214
O        -2.162255   -1.446573   -2.333434
C        -3.335530   -0.778659   -2.777887
C        -3.992980    0.006570   -1.657720
O        -0.981052    0.433135   -2.662047
C         0.007911   -2.753009   -1.091651
C         1.083369   -3.091194   -0.321890
C         1.355357   -4.373825    0.332735
C         2.237703   -4.475490    1.424026
C         2.481937   -5.699000    2.042296
C         1.849389   -6.858789    1.596182
C         0.972510   -6.775968    0.513458
C         0.735747   -5.556754   -0.112948
S         2.172050   -1.716025   -0.111415
O         3.050937    0.785140    0.212110
N        -1.305061    3.781678    0.717855
C        -2.356793    4.014076   -0.116040
C        -2.631261    5.480608   -0.398271
O        -3.035101    3.128768   -0.601125
H        -0.324070    2.146245   -0.175216
N        -2.508456    1.790332    2.246586
C        -3.542092    0.914557    2.728663
H         0.194985    2.568667    2.809699
H         1.201038    1.706863    1.620877
H         0.768795    1.001890   -2.011951
H        -3.993710   -1.581425   -3.142906
H        -3.083960   -0.116287   -3.619968
H        -4.171244   -0.643890   -0.788709
H        -4.958537    0.410185   -2.001314
H        -3.366430    0.851254   -1.339557
H        -0.831209   -3.417140   -1.297804
H         2.729032   -3.575657    1.801798
H         3.171630   -5.742706    2.889139
H         2.040085   -7.817834    2.083655
H         0.473851   -7.675822    0.143443
H         0.068140   -5.515759   -0.976105
H        -0.656425    4.549640    0.903161
H        -2.334880    6.134040    0.434368
H        -3.698612    5.607889   -0.616742
H        -2.059387    5.779164   -1.290370
H        -2.613176    2.790490    2.358119
H        -4.508446    1.101432    2.229205
H        -3.677917    1.021639    3.816259
H        -3.235459   -0.115991    2.507486
H         1.456339    3.120468   -1.541147
H         2.982985    4.676406   -0.203176
H         3.623301    3.236967    0.666109
