-1 1
 OpenBabel05232414493D

 58 58  0  0  1  0  0  0  0  0999 V2000
   -5.2137    2.2089    2.2612 O   0  0  0  0  0  0  0  0  0  0  0  0
   -5.4429    3.3286    2.6807 C   0  0  0  0  0  0  0  0  0  0  0  0
   -4.5604    4.5169    2.3081 C   0  0  2  0  0  0  0  0  0  0  0  0
   -3.3539    4.5676    3.2800 C   0  0  0  0  0  0  0  0  0  0  0  0
   -2.4105    6.1198    3.2638 S   0  0  0  0  0  1  0  0  0  0  0  0
   -1.0092    5.5496    1.4870 C   0  0  0  0  0  3  0  0  0  0  0  0
   -1.5822    4.6086    0.6377 C   0  0  0  0  0  3  0  0  0  0  0  0
   -1.4560    3.2096    0.9016 C   0  0  0  0  0  0  0  0  0  0  0  0
   -2.3732    2.4056    0.1883 N   0  0  0  0  0  0  0  0  0  0  0  0
   -2.6579    1.1192    0.4933 C   0  0  0  0  0  0  0  0  0  0  0  0
   -3.8082    0.4387    0.0901 C   0  0  0  0  0  0  0  0  0  0  0  0
   -4.8906    1.1444   -0.5814 C   0  0  0  0  0  0  0  0  0  0  0  0
   -6.0344    0.4434   -0.6128 O   0  0  0  0  0  0  0  0  0  0  0  0
   -7.1929    1.1188   -1.0911 C   0  0  0  0  0  0  0  0  0  0  0  0
   -7.8037    2.0183   -0.0327 C   0  0  0  0  0  0  0  0  0  0  0  0
   -4.8007    2.2594   -1.0663 O   0  0  0  0  0  0  0  0  0  0  0  0
   -3.8484   -0.8939    0.5916 C   0  0  0  0  0  0  0  0  0  0  0  0
   -2.7570   -1.2325    1.3406 C   0  0  0  0  0  0  0  0  0  0  0  0
   -2.4771   -2.5096    2.0057 C   0  0  0  0  0  0  0  0  0  0  0  0
   -1.5953   -2.5969    3.0977 C   0  0  0  0  0  0  0  0  0  0  0  0
   -1.3447   -3.8147    3.7248 C   0  0  0  0  0  0  0  0  0  0  0  0
   -1.9722   -4.9801    3.2865 C   0  0  0  0  0  0  0  0  0  0  0  0
   -2.8497   -4.9104    2.2036 C   0  0  0  0  0  0  0  0  0  0  0  0
   -3.0919   -3.6969    1.5678 C   0  0  0  0  0  0  0  0  0  0  0  0
   -1.6473    0.1273    1.4908 S   0  0  0  0  0  0  0  0  0  0  0  0
   -0.6770    2.6558    1.6800 O   0  0  0  0  0  0  0  0  0  0  0  0
   -5.2606    5.7844    2.3471 N   0  0  0  0  0  0  0  0  0  0  0  0
   -6.2606    6.0823    1.4747 C   0  0  0  0  0  0  0  0  0  0  0  0
   -6.5974    7.5598    1.3761 C   0  0  0  0  0  0  0  0  0  0  0  0
   -6.8511    5.2435    0.8181 O   0  0  0  0  0  0  0  0  0  0  0  0
   -4.2030    4.3048    1.2903 H   0  0  0  0  0  0  0  0  0  0  0  0
   -6.4294    3.6031    3.5752 N   0  0  0  0  0  0  0  0  0  0  0  0
   -7.3924    2.6189    3.9852 C   0  0  0  0  0  0  0  0  0  0  0  0
   -3.7188    4.4062    4.3066 H   0  0  0  0  0  0  0  0  0  0  0  0
   -2.6902    3.7265    3.0364 H   0  0  0  0  0  0  0  0  0  0  0  0
   -3.0974    2.8435   -0.3828 H   0  0  0  0  0  0  0  0  0  0  0  0
   -7.8844    0.3125   -1.3776 H   0  0  0  0  0  0  0  0  0  0  0  0
   -6.9328    1.6982   -1.9898 H   0  0  0  0  0  0  0  0  0  0  0  0
   -7.9828    1.4515    0.8928 H   0  0  0  0  0  0  0  0  0  0  0  0
   -8.7648    2.4160   -0.3946 H   0  0  0  0  0  0  0  0  0  0  0  0
   -7.1508    2.8711    0.1992 H   0  0  0  0  0  0  0  0  0  0  0  0
   -4.6987   -1.5528    0.4172 H   0  0  0  0  0  0  0  0  0  0  0  0
   -1.1103   -1.6914    3.4704 H   0  0  0  0  0  0  0  0  0  0  0  0
   -0.6555   -3.8492    4.5722 H   0  0  0  0  0  0  0  0  0  0  0  0
   -1.7771   -5.9344    3.7812 H   0  0  0  0  0  0  0  0  0  0  0  0
   -3.3438   -5.8155    1.8408 H   0  0  0  0  0  0  0  0  0  0  0  0
   -3.7587   -3.6647    0.7037 H   0  0  0  0  0  0  0  0  0  0  0  0
   -4.6414    6.5395    2.6641 H   0  0  0  0  0  0  0  0  0  0  0  0
   -6.4136    8.0955    2.3179 H   0  0  0  0  0  0  0  0  0  0  0  0
   -7.6470    7.6683    1.0764 H   0  0  0  0  0  0  0  0  0  0  0  0
   -5.9663    8.0137    0.5964 H   0  0  0  0  0  0  0  0  0  0  0  0
   -6.5848    4.5813    3.7814 H   0  0  0  0  0  0  0  0  0  0  0  0
   -8.3804    2.7916    3.5250 H   0  0  0  0  0  0  0  0  0  0  0  0
   -7.5106    2.6049    5.0805 H   0  0  0  0  0  0  0  0  0  0  0  0
   -7.0237    1.6385    3.6558 H   0  0  0  0  0  0  0  0  0  0  0  0
   -2.3079    4.9275   -0.1161 H   0  0  0  0  0  0  0  0  0  0  0  0
   -0.9371    6.5888    1.1626 H   0  0  0  0  0  0  0  0  0  0  0  0
   -0.2051    5.2060    2.1410 H   0  0  0  0  0  0  0  0  0  0  0  0
  1  2  2  0  0  0  0
  2 32  1  0  0  0  0
  3 31  1  6  0  0  0
  3 27  1  0  0  0  0
  3  2  1  0  0  0  0
  3  4  1  0  0  0  0
  4 34  1  0  0  0  0
  5  4  1  0  0  0  0
  6 58  1  0  0  0  0
  7  8  1  0  0  0  0
  7  6  1  0  0  0  0
  8 26  2  0  0  0  0
  9 10  1  0  0  0  0
  9  8  1  0  0  0  0
 10 25  1  0  0  0  0
 11 10  2  0  0  0  0
 11 17  1  0  0  0  0
 12 11  1  0  0  0  0
 13 12  1  0  0  0  0
 14 13  1  0  0  0  0
 14 15  1  0  0  0  0
 15 41  1  0  0  0  0
 15 39  1  0  0  0  0
 16 12  2  0  0  0  0
 17 18  2  0  0  0  0
 18 25  1  0  0  0  0
 18 19  1  0  0  0  0
 19 20  1  0  0  0  0
 20 43  1  0  0  0  0
 20 21  2  0  0  0  0
 21 44  1  0  0  0  0
 22 21  1  0  0  0  0
 22 45  1  0  0  0  0
 23 22  2  0  0  0  0
 24 19  2  0  0  0  0
 24 23  1  0  0  0  0
 27 48  1  0  0  0  0
 28 27  1  0  0  0  0
 29 28  1  0  0  0  0
 29 49  1  0  0  0  0
 30 28  2  0  0  0  0
 32 52  1  0  0  0  0
 32 33  1  0  0  0  0
 33 54  1  0  0  0  0
 35  4  1  0  0  0  0
 36  9  1  0  0  0  0
 37 14  1  0  0  0  0
 38 14  1  0  0  0  0
 40 15  1  0  0  0  0
 42 17  1  0  0  0  0
 46 23  1  0  0  0  0
 47 24  1  0  0  0  0
 50 29  1  0  0  0  0
 51 29  1  0  0  0  0
 53 33  1  0  0  0  0
 55 33  1  0  0  0  0
 56  7  1  0  0  0  0
 57  6  1  0  0  0  0
M  END
