58
-1 1
O        -5.213720    2.208905    2.261235
C        -5.442950    3.328551    2.680730
C        -4.560368    4.516873    2.308121
C        -3.353946    4.567631    3.279991
S        -2.410496    6.119775    3.263837
C        -1.009231    5.549628    1.487013
C        -1.582180    4.608648    0.637748
C        -1.455974    3.209634    0.901623
N        -2.373157    2.405553    0.188324
C        -2.657893    1.119154    0.493315
C        -3.808183    0.438676    0.090144
C        -4.890607    1.144383   -0.581368
O        -6.034370    0.443441   -0.612818
C        -7.192878    1.118783   -1.091114
C        -7.803717    2.018313   -0.032686
O        -4.800651    2.259437   -1.066315
C        -3.848409   -0.893936    0.591610
C        -2.756995   -1.232454    1.340626
C        -2.477142   -2.509602    2.005749
C        -1.595302   -2.596887    3.097749
C        -1.344711   -3.814661    3.724757
C        -1.972217   -4.980079    3.286458
C        -2.849687   -4.910428    2.203630
C        -3.091896   -3.696909    1.567802
S        -1.647338    0.127253    1.490817
O        -0.677039    2.655849    1.679996
N        -5.260572    5.784438    2.347092
C        -6.260550    6.082260    1.474667
C        -6.597358    7.559784    1.376051
O        -6.851092    5.243478    0.818099
H        -4.203025    4.304845    1.290271
N        -6.429444    3.603095    3.575228
C        -7.392394    2.618851    3.985204
H        -3.718782    4.406246    4.306578
H        -2.690180    3.726483    3.036430
H        -3.097448    2.843493   -0.382846
H        -7.884350    0.312506   -1.377593
H        -6.932756    1.698225   -1.989771
H        -7.982754    1.451547    0.892758
H        -8.764843    2.416014   -0.394566
H        -7.150829    2.871071    0.199241
H        -4.698658   -1.552822    0.417216
H        -1.110282   -1.691404    3.470387
H        -0.655540   -3.849156    4.572232
H        -1.777142   -5.934428    3.781177
H        -3.343790   -5.815497    1.840770
H        -3.758699   -3.664653    0.703652
H        -4.641352    6.539532    2.664081
H        -6.413605    8.095486    2.317915
H        -7.647014    7.668266    1.076410
H        -5.966286    8.013669    0.596366
H        -6.584791    4.581348    3.781442
H        -8.380435    2.791587    3.525014
H        -7.510561    2.604904    5.080525
H        -7.023704    1.638468    3.655814
H        -2.307852    4.927459   -0.116136
H        -0.937131    6.588760    1.162578
H        -0.205147    5.205957    2.141018
