-1 1
 OpenBabel05192410563D

 48 49  0  0  1  0  0  0  0  0999 V2000
    2.2624    1.7520   -1.5120 O   0  0  0  0  0  0  0  0  0  0  0  0
    1.2413    1.6165   -0.8440 C   0  0  0  0  0  0  0  0  0  0  0  0
    1.1810    2.1038    0.6130 C   0  0  2  0  0  0  0  0  0  0  0  0
    0.4428    3.4503    0.6895 C   0  0  0  0  0  0  0  0  0  0  0  0
    0.0427    4.0649    2.3537 S   0  0  0  0  0  0  0  0  0  0  0  0
   -1.4967    3.0488    2.7533 C   0  0  0  0  0  0  0  0  0  0  0  0
   -1.2784    1.5947    2.8829 C   0  0  0  0  0  3  0  0  0  0  0  0
   -1.3792    0.7823    1.7710 C   0  0  0  0  0  0  0  0  0  0  0  0
   -0.6753   -0.4969    1.9242 N   0  0  0  0  0  0  0  0  0  0  0  0
   -0.4396   -1.3381    0.8851 C   0  0  0  0  0  0  0  0  0  0  0  0
    1.1860   -2.0195    0.6634 S   0  0  0  0  0  0  0  0  0  0  0  0
    0.6172   -2.8298   -0.7541 C   0  0  0  0  0  0  0  0  0  0  0  0
   -0.6964   -2.5164   -0.9750 C   0  0  0  0  0  0  0  0  0  0  0  0
   -1.5162   -2.9510   -2.1263 C   0  0  0  0  0  0  0  0  0  0  0  0
   -1.0692   -3.9039   -3.0526 C   0  0  0  0  0  0  0  0  0  0  0  0
   -1.8608   -4.2692   -4.1383 C   0  0  0  0  0  0  0  0  0  0  0  0
   -3.1171   -3.6896   -4.3195 C   0  0  0  0  0  0  0  0  0  0  0  0
   -3.5720   -2.7428   -3.4017 C   0  0  0  0  0  0  0  0  0  0  0  0
   -2.7823   -2.3769   -2.3143 C   0  0  0  0  0  0  0  0  0  0  0  0
   -1.2769   -1.6998   -0.0393 N   0  0  0  0  0  0  0  0  0  0  0  0
   -1.8632    1.0584    0.6463 O   0  0  0  0  0  0  0  0  0  0  0  0
    2.5159    2.1341    1.1527 N   0  0  0  0  0  0  0  0  0  0  0  0
    2.9357    1.2310    2.0736 C   0  0  0  0  0  0  0  0  0  0  0  0
    4.4301    1.2330    2.3368 C   0  0  0  0  0  0  0  0  0  0  0  0
    2.2009    0.4491    2.6585 O   0  0  0  0  0  0  0  0  0  0  0  0
    0.6335    1.3804    1.2142 H   0  0  0  0  0  0  0  0  0  0  0  0
    0.1018    1.0707   -1.2926 N   0  0  0  0  0  0  0  0  0  0  0  0
    0.0042    0.5240   -2.6199 C   0  0  0  0  0  0  0  0  0  0  0  0
    1.0466    4.2307    0.1988 H   0  0  0  0  0  0  0  0  0  0  0  0
   -0.4998    3.3523    0.1325 H   0  0  0  0  0  0  0  0  0  0  0  0
    0.1196   -0.3966    2.5520 H   0  0  0  0  0  0  0  0  0  0  0  0
    1.2750   -3.4672   -1.3396 H   0  0  0  0  0  0  0  0  0  0  0  0
   -0.0912   -4.3725   -2.9224 H   0  0  0  0  0  0  0  0  0  0  0  0
   -1.4937   -5.0144   -4.8486 H   0  0  0  0  0  0  0  0  0  0  0  0
   -3.7377   -3.9756   -5.1723 H   0  0  0  0  0  0  0  0  0  0  0  0
   -4.5537   -2.2809   -3.5335 H   0  0  0  0  0  0  0  0  0  0  0  0
   -3.1188   -1.6357   -1.5864 H   0  0  0  0  0  0  0  0  0  0  0  0
    3.2136    2.5411    0.5390 H   0  0  0  0  0  0  0  0  0  0  0  0
    4.9227    2.1620    2.0180 H   0  0  0  0  0  0  0  0  0  0  0  0
    4.8797    0.3868    1.7955 H   0  0  0  0  0  0  0  0  0  0  0  0
    4.5965    1.0750    3.4099 H   0  0  0  0  0  0  0  0  0  0  0  0
   -0.7064    0.9875   -0.6379 H   0  0  0  0  0  0  0  0  0  0  0  0
    0.1195    1.3011   -3.3948 H   0  0  0  0  0  0  0  0  0  0  0  0
   -0.9784    0.0479   -2.7338 H   0  0  0  0  0  0  0  0  0  0  0  0
    0.7812   -0.2381   -2.7940 H   0  0  0  0  0  0  0  0  0  0  0  0
   -0.7626    1.2244    3.7723 H   0  0  0  0  0  0  0  0  0  0  0  0
   -1.8436    3.5337    3.6799 H   0  0  0  0  0  0  0  0  0  0  0  0
   -2.2170    3.2740    1.9534 H   0  0  0  0  0  0  0  0  0  0  0  0
  1  2  2  0  0  0  0
  2  3  1  0  0  0  0
  3  4  1  0  0  0  0
  3 22  1  0  0  0  0
  3 26  1  1  0  0  0
  4  5  1  0  0  0  0
  5  6  1  0  0  0  0
  6  7  1  0  0  0  0
  6 47  1  0  0  0  0
  7 46  1  0  0  0  0
  8  9  1  0  0  0  0
  8  7  1  0  0  0  0
  9 31  1  0  0  0  0
 10  9  1  0  0  0  0
 11 10  1  0  0  0  0
 12 11  1  0  0  0  0
 13 12  2  0  0  0  0
 13 20  1  0  0  0  0
 14 13  1  0  0  0  0
 15 33  1  0  0  0  0
 15 14  2  0  0  0  0
 16 15  1  0  0  0  0
 17 16  2  0  0  0  0
 17 18  1  0  0  0  0
 18 19  2  0  0  0  0
 19 14  1  0  0  0  0
 19 37  1  0  0  0  0
 20 10  2  0  0  0  0
 21  8  2  0  0  0  0
 22 23  1  0  0  0  0
 23 24  1  0  0  0  0
 23 25  2  0  0  0  0
 24 41  1  0  0  0  0
 27  2  1  0  0  0  0
 27 42  1  0  0  0  0
 28 27  1  0  0  0  0
 29  4  1  0  0  0  0
 30  4  1  0  0  0  0
 32 12  1  0  0  0  0
 34 16  1  0  0  0  0
 35 17  1  0  0  0  0
 36 18  1  0  0  0  0
 38 22  1  0  0  0  0
 39 24  1  0  0  0  0
 40 24  1  0  0  0  0
 43 28  1  0  0  0  0
 44 28  1  0  0  0  0
 45 28  1  0  0  0  0
 48  6  1  0  0  0  0
M  END
