48
-1 1
O         1.836921    1.305018   -0.803693
C         1.134689    2.120435   -0.234993
C         1.628152    2.990863    0.920705
C         2.047141    4.385503    0.372857
S         3.059031    5.346460    1.543723
C        -2.412136    2.196986    2.701896
C        -1.417233    1.375747    2.367311
C        -1.613834    0.338482    1.300071
N        -0.448959   -0.344991    1.028844
C        -0.269092   -1.317999    0.076559
S         1.351878   -1.937338   -0.180686
C         0.707747   -3.000521   -1.374736
C        -0.642365   -2.811351   -1.505488
C        -1.549229   -3.518473   -2.434922
C        -1.091570   -4.500388   -3.325123
C        -1.972746   -5.146670   -4.187636
C        -3.330000   -4.823928   -4.177698
C        -3.794645   -3.848152   -3.296158
C        -2.915073   -3.200423   -2.432392
N        -1.175268   -1.859098   -0.671480
O        -2.680212    0.155750    0.752087
N         2.768348    2.407146    1.572471
C         2.792394    1.234328    2.194866
C         4.106749    0.857041    2.839682
O         1.833367    0.449741    2.258172
H         0.811958    3.134216    1.652442
N        -0.147904    2.385550   -0.608580
C        -0.803760    1.712138   -1.702933
H         2.601821    4.215592   -0.565943
H         1.121443    4.919136    0.105402
H         0.414760   -0.002698    1.494295
H         1.356295   -3.683705   -1.917487
H        -0.032410   -4.765735   -3.349227
H        -1.595483   -5.908373   -4.874448
H        -4.021279   -5.330738   -4.855323
H        -4.855466   -3.586261   -3.280071
H        -3.262468   -2.434059   -1.736886
H         3.485522    3.130696    1.760595
H         4.788979    1.711035    2.944420
H         4.588162    0.090572    2.214210
H         3.905153    0.411523    3.822651
H        -0.680977    3.033633   -0.044396
H        -1.133689    2.428083   -2.473420
H        -1.670608    1.127634   -1.356796
H        -0.076354    1.023858   -2.151413
H        -0.433208    1.437217    2.841816
H        -2.285188    2.965596    3.467439
H        -3.380833    2.105821    2.201640
