48
-1 1
O         2.262409    1.751960   -1.512015
C         1.241286    1.616523   -0.843987
C         1.180980    2.103758    0.612959
C         0.442822    3.450338    0.689466
S         0.042712    4.064885    2.353735
C        -1.496666    3.048843    2.753298
C        -1.278355    1.594730    2.882866
C        -1.379213    0.782271    1.770989
N        -0.675302   -0.496946    1.924170
C        -0.439579   -1.338109    0.885133
S         1.185969   -2.019518    0.663409
C         0.617217   -2.829796   -0.754051
C        -0.696365   -2.516374   -0.975045
C        -1.516194   -2.951018   -2.126288
C        -1.069150   -3.903916   -3.052629
C        -1.860795   -4.269164   -4.138256
C        -3.117085   -3.689643   -4.319480
C        -3.571959   -2.742768   -3.401699
C        -2.782320   -2.376946   -2.314348
N        -1.276902   -1.699754   -0.039253
O        -1.863223    1.058356    0.646276
N         2.515947    2.134084    1.152679
C         2.935719    1.231008    2.073614
C         4.430054    1.233004    2.336809
O         2.200898    0.449146    2.658495
H         0.633501    1.380420    1.214239
N         0.101822    1.070725   -1.292606
C         0.004215    0.524034   -2.619944
H         1.046577    4.230684    0.198811
H        -0.499812    3.352335    0.132531
H         0.119607   -0.396588    2.552017
H         1.274950   -3.467243   -1.339636
H        -0.091158   -4.372543   -2.922417
H        -1.493695   -5.014432   -4.848574
H        -3.737690   -3.975620   -5.172309
H        -4.553690   -2.280937   -3.533526
H        -3.118834   -1.635705   -1.586419
H         3.213582    2.541112    0.538998
H         4.922661    2.162008    2.017991
H         4.879665    0.386819    1.795541
H         4.596469    1.074974    3.409873
H        -0.706434    0.987504   -0.637857
H         0.119524    1.301070   -3.394803
H        -0.978364    0.047930   -2.733788
H         0.781160   -0.238123   -2.794045
H        -0.762613    1.224357    3.772339
H        -1.843559    3.533711    3.679912
H        -2.216966    3.273954    1.953448
