48
-1 1
O         1.527813    1.993631   -3.553868
C         0.533755    1.908257   -2.846567
C         0.519802    2.420162   -1.402125
C        -0.055292    3.849564   -1.345321
S        -0.262542    4.526228    0.329958
C        -2.231078    3.117474    0.992653
C        -1.961633    1.766802    1.045143
C        -2.062231    0.959357   -0.138068
N        -1.252756   -0.216049   -0.071222
C        -1.027747   -1.029264   -1.150292
S         0.614222   -1.574061   -1.497609
C         0.003854   -2.405380   -2.880667
C        -1.343949   -2.200034   -2.999725
C        -2.212014   -2.685378   -4.093275
C        -1.763941   -3.601014   -5.055899
C        -2.601385   -4.017425   -6.087170
C        -3.904846   -3.527701   -6.175960
C        -4.360879   -2.619045   -5.221190
C        -3.525158   -2.201961   -4.188132
N        -1.908654   -1.438408   -2.007022
O        -2.669902    1.246344   -1.167351
N         1.836040    2.326332   -0.826651
C         2.166956    1.481798    0.164794
C         3.564886    1.652030    0.723831
O         1.416285    0.628816    0.633849
H        -0.111786    1.775365   -0.795741
N        -0.644540    1.401043   -3.269580
C        -0.802674    0.875217   -4.600011
H         0.600380    4.509811   -1.940508
H        -1.026473    3.824184   -1.864433
H        -0.418680   -0.062988    0.502270
H         0.666673   -2.970943   -3.530868
H        -0.749180   -4.000664   -4.997078
H        -2.233098   -4.732357   -6.827185
H        -4.561440   -3.853882   -6.986184
H        -5.379426   -2.227697   -5.280991
H        -3.864847   -1.489661   -3.433671
H         2.537370    2.958041   -1.187832
H         4.220411    2.257790    0.083105
H         4.009505    0.660310    0.877850
H         3.478234    2.143432    1.704034
H        -1.432796    1.333197   -2.615927
H        -0.847023    1.673925   -5.360751
H        -1.731464    0.291211   -4.644237
H         0.040570    0.215897   -4.857338
H        -1.443149    1.346498    1.910102
H        -2.264409    3.708885    1.906988
H        -2.795743    3.511399    0.145824
