48
-1 1
O         0.664083   -5.251281   -0.775024
C         0.217528   -4.559891   -1.686469
C         0.771955   -3.147773   -1.957137
C         1.285187   -2.911494   -3.394539
S         0.031630   -2.912837   -4.712108
C        -0.649337   -0.691023   -4.479198
C        -0.131899   -0.085684   -3.336560
C        -0.812939   -0.223627   -2.091234
N        -0.048933    0.118830   -0.952913
C        -0.419109   -0.179541    0.318860
S        -2.025708   -0.741884    0.724470
C        -1.531290   -0.811653    2.406685
C        -2.429534   -1.246955    3.480027
C        -2.209784   -0.843449    4.809488
C        -3.043926   -1.271539    5.837723
C        -4.133568   -2.099720    5.566318
C        -4.373374   -2.496470    4.251284
C        -3.531876   -2.080760    3.222685
C        -0.219901   -0.432112    2.494480
N         0.403254   -0.077059    1.336396
O        -1.960808   -0.646659   -1.914095
N         1.802808   -2.958147   -0.951897
C         2.550137   -1.865031   -0.712079
C         3.385683   -1.923141    0.551176
O         2.557098   -0.851469   -1.405070
H        -0.065492   -2.455022   -1.779841
N        -0.794525   -4.934644   -2.485652
C        -1.417753   -6.226694   -2.392961
H         1.763278   -1.921840   -3.380901
H         2.062623   -3.655665   -3.629215
H         0.963359    0.187900   -1.085654
H        -1.380329   -0.168783    5.032216
H        -2.848009   -0.943162    6.861712
H        -4.792553   -2.429310    6.372922
H        -5.221872   -3.145464    4.021065
H        -3.720600   -2.418627    2.200818
H         0.354867   -0.424422    3.423573
H         1.858750   -3.758199   -0.323291
H         2.881489   -1.270634    1.280913
H         4.377579   -1.501338    0.342359
H         3.486229   -2.933154    0.971992
H        -0.977592   -4.327131   -3.297065
H        -2.514606   -6.129666   -2.379774
H        -1.089603   -6.706091   -1.461731
H        -1.138337   -6.876954   -3.239384
H         0.884062    0.313847   -3.328806
H        -0.238656   -0.421455   -5.452884
H        -1.710088   -0.948653   -4.471158
