-1 1
 OpenBabel05232413493D

 48 48  0  0  1  0  0  0  0  0999 V2000
    2.4535   -4.1298   -2.3972 O   0  0  0  0  0  0  0  0  0  0  0  0
    1.9976   -3.2679   -3.1500 C   0  0  0  0  0  0  0  0  0  0  0  0
    2.0507   -1.7794   -2.7622 C   0  0  2  0  0  0  0  0  0  0  0  0
    2.7135   -0.8886   -3.8360 C   0  0  0  0  0  0  0  0  0  0  0  0
    1.6740   -0.6043   -5.3188 S   0  0  0  0  0  1  0  0  0  0  0  0
   -1.3434    0.9896   -3.4473 C   0  0  0  0  0  0  0  0  0  0  0  0
   -0.5602    1.0676   -2.3699 C   0  0  0  0  0  0  0  0  0  0  0  0
   -1.1163    1.3241   -1.0187 C   0  0  0  0  0  0  0  0  0  0  0  0
   -0.1927    1.1897   -0.0043 N   0  0  0  0  0  0  0  0  0  0  0  0
   -0.4950    1.2525    1.3264 C   0  0  0  0  0  0  0  0  0  0  0  0
   -2.0862    1.6715    1.9143 S   0  0  0  0  0  0  0  0  0  0  0  0
   -1.4840    1.4944    3.5469 C   0  0  0  0  0  0  0  0  0  0  0  0
   -2.3292    1.6988    4.7300 C   0  0  0  0  0  0  0  0  0  0  0  0
   -1.7589    2.0799    5.9566 C   0  0  0  0  0  0  0  0  0  0  0  0
   -2.5479    2.2530    7.0899 C   0  0  0  0  0  0  0  0  0  0  0  0
   -3.9290    2.0681    7.0239 C   0  0  0  0  0  0  0  0  0  0  0  0
   -4.5103    1.7039    5.8102 C   0  0  0  0  0  0  0  0  0  0  0  0
   -3.7212    1.5170    4.6782 C   0  0  0  0  0  0  0  0  0  0  0  0
   -0.1639    1.1361    3.4931 C   0  0  0  0  0  0  0  0  0  0  0  0
    0.3885    1.0006    2.2549 N   0  0  0  0  0  0  0  0  0  0  0  0
   -2.2819    1.6020   -0.7808 O   0  0  0  0  0  0  0  0  0  0  0  0
    2.7322   -1.7541   -1.4788 N   0  0  0  0  0  0  0  0  0  0  0  0
    2.7285   -0.7205   -0.6359 C   0  0  0  0  0  0  0  0  0  0  0  0
    3.3526   -0.9342    0.7251 C   0  0  0  0  0  0  0  0  0  0  0  0
    2.2404    0.3780   -0.9210 O   0  0  0  0  0  0  0  0  0  0  0  0
    1.0159   -1.4174   -2.6310 H   0  0  0  0  0  0  0  0  0  0  0  0
    1.4278   -3.5178   -4.3353 N   0  0  0  0  0  0  0  0  0  0  0  0
    1.3773   -4.8381   -4.9002 C   0  0  0  0  0  0  0  0  0  0  0  0
    2.9305    0.0731   -3.3498 H   0  0  0  0  0  0  0  0  0  0  0  0
    3.6832   -1.3417   -4.1089 H   0  0  0  0  0  0  0  0  0  0  0  0
    0.7896    0.9527   -0.2417 H   0  0  0  0  0  0  0  0  0  0  0  0
   -0.6833    2.2600    6.0138 H   0  0  0  0  0  0  0  0  0  0  0  0
   -2.0797    2.5490    8.0318 H   0  0  0  0  0  0  0  0  0  0  0  0
   -4.5485    2.2118    7.9120 H   0  0  0  0  0  0  0  0  0  0  0  0
   -5.5906    1.5557    5.7427 H   0  0  0  0  0  0  0  0  0  0  0  0
   -4.1888    1.2115    3.7389 H   0  0  0  0  0  0  0  0  0  0  0  0
    0.4520    0.9295    4.3705 H   0  0  0  0  0  0  0  0  0  0  0  0
    3.0565   -2.6775   -1.1916 H   0  0  0  0  0  0  0  0  0  0  0  0
    2.6235   -0.6034    1.4802 H   0  0  0  0  0  0  0  0  0  0  0  0
    4.2322   -0.2801    0.8133 H   0  0  0  0  0  0  0  0  0  0  0  0
    3.6515   -1.9743    0.9125 H   0  0  0  0  0  0  0  0  0  0  0  0
    1.2566   -2.6764   -4.9322 H   0  0  0  0  0  0  0  0  0  0  0  0
    0.3899   -5.0279   -5.3492 H   0  0  0  0  0  0  0  0  0  0  0  0
    1.5591   -5.5743   -4.1060 H   0  0  0  0  0  0  0  0  0  0  0  0
    2.1415   -4.9773   -5.6844 H   0  0  0  0  0  0  0  0  0  0  0  0
    0.5166    0.8931   -2.4520 H   0  0  0  0  0  0  0  0  0  0  0  0
   -0.8935    0.7403   -4.4138 H   0  0  0  0  0  0  0  0  0  0  0  0
   -2.4228    1.1471   -3.3610 H   0  0  0  0  0  0  0  0  0  0  0  0
  2  3  1  0  0  0  0
  2  1  2  0  0  0  0
  3 26  1  1  0  0  0
  3 22  1  0  0  0  0
  4 29  1  0  0  0  0
  4  3  1  0  0  0  0
  5  4  1  0  0  0  0
  6 48  1  0  0  0  0
  6  7  2  0  0  0  0
  7  8  1  0  0  0  0
  8 21  2  0  0  0  0
  8  9  1  0  0  0  0
  9 10  1  0  0  0  0
 10 11  1  0  0  0  0
 10 20  2  0  0  0  0
 11 12  1  0  0  0  0
 12 13  1  0  0  0  0
 13 14  1  0  0  0  0
 14 32  1  0  0  0  0
 14 15  2  0  0  0  0
 15 33  1  0  0  0  0
 16 15  1  0  0  0  0
 16 34  1  0  0  0  0
 17 16  2  0  0  0  0
 18 13  2  0  0  0  0
 18 17  1  0  0  0  0
 19 12  2  0  0  0  0
 19 37  1  0  0  0  0
 20 19  1  0  0  0  0
 22 38  1  0  0  0  0
 22 23  1  0  0  0  0
 23 24  1  0  0  0  0
 24 40  1  0  0  0  0
 24 41  1  0  0  0  0
 24 39  1  0  0  0  0
 25 23  2  0  0  0  0
 27  2  1  0  0  0  0
 28 27  1  0  0  0  0
 28 44  1  0  0  0  0
 30  4  1  0  0  0  0
 31  9  1  0  0  0  0
 35 17  1  0  0  0  0
 36 18  1  0  0  0  0
 42 27  1  0  0  0  0
 43 28  1  0  0  0  0
 45 28  1  0  0  0  0
 46  7  1  0  0  0  0
 47  6  1  0  0  0  0
M  END
