-1 1
 OpenBabel05232414493D

 48 48  0  0  1  0  0  0  0  0999 V2000
    0.6641   -5.2513   -0.7750 O   0  0  0  0  0  0  0  0  0  0  0  0
    0.2175   -4.5599   -1.6865 C   0  0  0  0  0  0  0  0  0  0  0  0
    0.7720   -3.1478   -1.9571 C   0  0  2  0  0  0  0  0  0  0  0  0
    1.2852   -2.9115   -3.3945 C   0  0  0  0  0  0  0  0  0  0  0  0
    0.0316   -2.9128   -4.7121 S   0  0  0  0  0  1  0  0  0  0  0  0
   -0.6493   -0.6910   -4.4792 C   0  0  0  0  0  3  0  0  0  0  0  0
   -0.1319   -0.0857   -3.3366 C   0  0  0  0  0  3  0  0  0  0  0  0
   -0.8129   -0.2236   -2.0912 C   0  0  0  0  0  0  0  0  0  0  0  0
   -0.0489    0.1188   -0.9529 N   0  0  0  0  0  0  0  0  0  0  0  0
   -0.4191   -0.1795    0.3189 C   0  0  0  0  0  0  0  0  0  0  0  0
   -2.0257   -0.7419    0.7245 S   0  0  0  0  0  0  0  0  0  0  0  0
   -1.5313   -0.8117    2.4067 C   0  0  0  0  0  0  0  0  0  0  0  0
   -2.4295   -1.2470    3.4800 C   0  0  0  0  0  0  0  0  0  0  0  0
   -2.2098   -0.8434    4.8095 C   0  0  0  0  0  0  0  0  0  0  0  0
   -3.0439   -1.2715    5.8377 C   0  0  0  0  0  0  0  0  0  0  0  0
   -4.1336   -2.0997    5.5663 C   0  0  0  0  0  0  0  0  0  0  0  0
   -4.3734   -2.4965    4.2513 C   0  0  0  0  0  0  0  0  0  0  0  0
   -3.5319   -2.0808    3.2227 C   0  0  0  0  0  0  0  0  0  0  0  0
   -0.2199   -0.4321    2.4945 C   0  0  0  0  0  0  0  0  0  0  0  0
    0.4033   -0.0771    1.3364 N   0  0  0  0  0  0  0  0  0  0  0  0
   -1.9608   -0.6467   -1.9141 O   0  0  0  0  0  0  0  0  0  0  0  0
    1.8028   -2.9581   -0.9519 N   0  0  0  0  0  0  0  0  0  0  0  0
    2.5501   -1.8650   -0.7121 C   0  0  0  0  0  0  0  0  0  0  0  0
    3.3857   -1.9231    0.5512 C   0  0  0  0  0  0  0  0  0  0  0  0
    2.5571   -0.8515   -1.4051 O   0  0  0  0  0  0  0  0  0  0  0  0
   -0.0655   -2.4550   -1.7798 H   0  0  0  0  0  0  0  0  0  0  0  0
   -0.7945   -4.9346   -2.4857 N   0  0  0  0  0  0  0  0  0  0  0  0
   -1.4178   -6.2267   -2.3930 C   0  0  0  0  0  0  0  0  0  0  0  0
    1.7633   -1.9218   -3.3809 H   0  0  0  0  0  0  0  0  0  0  0  0
    2.0626   -3.6557   -3.6292 H   0  0  0  0  0  0  0  0  0  0  0  0
    0.9634    0.1879   -1.0857 H   0  0  0  0  0  0  0  0  0  0  0  0
   -1.3803   -0.1688    5.0322 H   0  0  0  0  0  0  0  0  0  0  0  0
   -2.8480   -0.9432    6.8617 H   0  0  0  0  0  0  0  0  0  0  0  0
   -4.7926   -2.4293    6.3729 H   0  0  0  0  0  0  0  0  0  0  0  0
   -5.2219   -3.1455    4.0211 H   0  0  0  0  0  0  0  0  0  0  0  0
   -3.7206   -2.4186    2.2008 H   0  0  0  0  0  0  0  0  0  0  0  0
    0.3549   -0.4244    3.4236 H   0  0  0  0  0  0  0  0  0  0  0  0
    1.8587   -3.7582   -0.3233 H   0  0  0  0  0  0  0  0  0  0  0  0
    2.8815   -1.2706    1.2809 H   0  0  0  0  0  0  0  0  0  0  0  0
    4.3776   -1.5013    0.3424 H   0  0  0  0  0  0  0  0  0  0  0  0
    3.4862   -2.9332    0.9720 H   0  0  0  0  0  0  0  0  0  0  0  0
   -0.9776   -4.3271   -3.2971 H   0  0  0  0  0  0  0  0  0  0  0  0
   -2.5146   -6.1297   -2.3798 H   0  0  0  0  0  0  0  0  0  0  0  0
   -1.0896   -6.7061   -1.4617 H   0  0  0  0  0  0  0  0  0  0  0  0
   -1.1383   -6.8770   -3.2394 H   0  0  0  0  0  0  0  0  0  0  0  0
    0.8841    0.3138   -3.3288 H   0  0  0  0  0  0  0  0  0  0  0  0
   -0.2387   -0.4215   -5.4529 H   0  0  0  0  0  0  0  0  0  0  0  0
   -1.7101   -0.9487   -4.4712 H   0  0  0  0  0  0  0  0  0  0  0  0
  2  1  2  0  0  0  0
  3 26  1  1  0  0  0
  3  2  1  0  0  0  0
  3 22  1  0  0  0  0
  4 29  1  0  0  0  0
  4  3  1  0  0  0  0
  5  4  1  0  0  0  0
  6 48  1  0  0  0  0
  6  7  1  0  0  0  0
  7 46  1  0  0  0  0
  7  8  1  0  0  0  0
  8 21  2  0  0  0  0
  8  9  1  0  0  0  0
  9 10  1  0  0  0  0
 10 11  1  0  0  0  0
 10 20  2  0  0  0  0
 11 12  1  0  0  0  0
 12 19  2  0  0  0  0
 12 13  1  0  0  0  0
 13 14  1  0  0  0  0
 14 32  1  0  0  0  0
 14 15  2  0  0  0  0
 15 33  1  0  0  0  0
 16 15  1  0  0  0  0
 16 34  1  0  0  0  0
 17 16  2  0  0  0  0
 18 13  2  0  0  0  0
 18 17  1  0  0  0  0
 19 37  1  0  0  0  0
 20 19  1  0  0  0  0
 22 23  1  0  0  0  0
 22 38  1  0  0  0  0
 23 24  1  0  0  0  0
 24 41  1  0  0  0  0
 24 39  1  0  0  0  0
 25 23  2  0  0  0  0
 27 28  1  0  0  0  0
 27  2  1  0  0  0  0
 28 43  1  0  0  0  0
 28 44  1  0  0  0  0
 30  4  1  0  0  0  0
 31  9  1  0  0  0  0
 35 17  1  0  0  0  0
 36 18  1  0  0  0  0
 40 24  1  0  0  0  0
 42 27  1  0  0  0  0
 45 28  1  0  0  0  0
 47  6  1  0  0  0  0
M  END
