48
-1 1
O         1.628435   -3.390522   -1.264688
C         1.057845   -2.318113   -1.457155
C         1.868907   -1.090055   -1.868728
C         2.094727   -0.991623   -3.391759
S         0.615426   -0.982647   -4.440610
C         0.009316    0.813748   -4.317327
C         0.369468    1.547456   -3.090364
C        -0.294266    1.285609   -1.911567
N         0.252046    1.870226   -0.726401
C        -0.200480    1.646472    0.527492
S        -1.656686    0.727086    0.857331
C        -1.403399    1.022565    2.572438
C        -2.300580    0.504666    3.606368
C        -2.342130    1.086982    4.887451
C        -3.176336    0.584448    5.880913
C        -4.010480   -0.504324    5.622832
C        -3.992727   -1.083868    4.354772
C        -3.148779   -0.591161    3.362870
C        -0.260248    1.759958    2.722841
N         0.409585    2.113650    1.592703
O        -1.287847    0.519314   -1.741068
N         3.136213   -1.169367   -1.176342
C         3.808842   -0.073396   -0.759956
C         5.055963   -0.349416    0.061790
O         3.451746    1.068841   -1.001620
H         1.371176   -0.175638   -1.540825
N        -0.257326   -2.108455   -1.311512
C        -1.173923   -3.170013   -0.996189
H         2.682295   -0.080546   -3.578199
H         2.689839   -1.858132   -3.719724
H         1.192105    2.253015   -0.772368
H        -1.719968    1.959567    5.097568
H        -3.184657    1.058099    6.866146
H        -4.670988   -0.893421    6.401231
H        -4.639107   -1.936976    4.133603
H        -3.133856   -1.070639    2.381179
H         0.153653    2.056889    3.689850
H         3.423130   -2.110382   -0.925247
H         4.859336   -0.044282    1.100088
H         5.873153    0.278072   -0.318496
H         5.364052   -1.404191    0.050751
H        -0.649894   -1.176043   -1.530433
H        -1.890437   -2.834000   -0.231652
H        -0.606270   -4.027999   -0.612641
H        -1.740617   -3.493328   -1.885883
H         1.277952    2.153214   -3.074546
H         0.388607    1.312058   -5.220124
H        -1.078857    0.682600   -4.410976
