-1 1
 OpenBabel05232414493D

 55 55  0  0  1  0  0  0  0  0999 V2000
    2.9017   -2.4350    7.6908 O   0  0  0  0  0  0  0  0  0  0  0  0
    2.2113   -2.5378    6.6891 C   0  0  0  0  0  0  0  0  0  0  0  0
    2.7995   -2.6089    5.2725 C   0  0  2  0  0  0  0  0  0  0  0  0
    2.6523   -4.0275    4.6933 C   0  0  0  0  0  0  0  0  0  0  0  0
    3.3072   -4.1997    3.0035 S   0  0  0  0  0  1  0  0  0  0  0  0
    1.4018   -3.2468    1.9817 C   0  0  0  0  0  3  0  0  0  0  0  0
    1.0108   -1.9778    2.4003 C   0  0  0  0  0  3  0  0  0  0  0  0
    0.0761   -1.8135    3.4765 C   0  0  0  0  0  0  0  0  0  0  0  0
   -0.2413   -0.5141    3.9054 N   0  0  0  0  0  0  0  0  0  0  0  0
    0.7967    0.5146    3.8518 C   0  0  0  0  0  0  0  0  0  0  0  0
    0.3508    1.8993    4.3408 C   0  0  0  0  0  0  0  0  0  0  0  0
   -0.6244    1.9225    5.5250 C   0  0  0  0  0  0  0  0  0  0  0  0
   -1.7637    0.9506    5.1782 C   0  0  0  0  0  0  0  0  0  0  0  0
   -1.2199   -0.4518    4.9802 C   0  0  0  0  0  0  0  0  0  0  0  0
   -0.0603    1.6125    6.9045 C   0  0  0  0  0  0  0  0  0  0  0  0
   -0.8206    1.9783    8.0264 C   0  0  0  0  0  0  0  0  0  0  0  0
   -0.4104    1.6560    9.3172 C   0  0  0  0  0  0  0  0  0  0  0  0
    0.7774    0.9491    9.5152 C   0  0  0  0  0  0  0  0  0  0  0  0
    1.5491    0.5893    8.4140 C   0  0  0  0  0  0  0  0  0  0  0  0
    1.1378    0.9250    7.1223 C   0  0  0  0  0  0  0  0  0  0  0  0
   -0.4740   -2.7695    4.0630 O   0  0  0  0  0  0  0  0  0  0  0  0
    4.1831   -2.2098    5.2605 N   0  0  0  0  0  0  0  0  0  0  0  0
    4.5650   -0.9273    5.4038 C   0  0  0  0  0  0  0  0  0  0  0  0
    6.0568   -0.6741    5.2827 C   0  0  0  0  0  0  0  0  0  0  0  0
    3.7914   -0.0113    5.6484 O   0  0  0  0  0  0  0  0  0  0  0  0
    2.2285   -1.9198    4.6356 H   0  0  0  0  0  0  0  0  0  0  0  0
    0.8583   -2.6307    6.7094 N   0  0  0  0  0  0  0  0  0  0  0  0
    0.1071   -2.5865    7.9352 C   0  0  0  0  0  0  0  0  0  0  0  0
    3.1624   -4.7382    5.3659 H   0  0  0  0  0  0  0  0  0  0  0  0
    1.5841   -4.2826    4.6907 H   0  0  0  0  0  0  0  0  0  0  0  0
    1.1246    0.6372    2.8104 H   0  0  0  0  0  0  0  0  0  0  0  0
    1.6926    0.1904    4.4083 H   0  0  0  0  0  0  0  0  0  0  0  0
   -0.1622    2.4152    3.5114 H   0  0  0  0  0  0  0  0  0  0  0  0
    1.2556    2.4850    4.5669 H   0  0  0  0  0  0  0  0  0  0  0  0
   -1.0456    2.9412    5.5804 H   0  0  0  0  0  0  0  0  0  0  0  0
   -2.2648    1.2915    4.2556 H   0  0  0  0  0  0  0  0  0  0  0  0
   -2.5190    0.9348    5.9799 H   0  0  0  0  0  0  0  0  0  0  0  0
   -2.0250   -1.1556    4.7358 H   0  0  0  0  0  0  0  0  0  0  0  0
   -0.7909   -0.7992    5.9377 H   0  0  0  0  0  0  0  0  0  0  0  0
   -1.7589    2.5238    7.8802 H   0  0  0  0  0  0  0  0  0  0  0  0
   -1.0235    1.9532   10.1725 H   0  0  0  0  0  0  0  0  0  0  0  0
    1.0957    0.6771   10.5247 H   0  0  0  0  0  0  0  0  0  0  0  0
    2.4660    0.0074    8.5306 H   0  0  0  0  0  0  0  0  0  0  0  0
    1.7882    0.6215    6.3027 H   0  0  0  0  0  0  0  0  0  0  0  0
    4.8216   -2.8667    4.8262 H   0  0  0  0  0  0  0  0  0  0  0  0
    6.5958   -1.4891    4.7798 H   0  0  0  0  0  0  0  0  0  0  0  0
    6.4712   -0.5474    6.2941 H   0  0  0  0  0  0  0  0  0  0  0  0
    6.2099    0.2647    4.7349 H   0  0  0  0  0  0  0  0  0  0  0  0
    0.3456   -2.7244    5.8239 H   0  0  0  0  0  0  0  0  0  0  0  0
    0.8154   -2.6236    8.7729 H   0  0  0  0  0  0  0  0  0  0  0  0
   -0.5846   -3.4414    8.0065 H   0  0  0  0  0  0  0  0  0  0  0  0
   -0.4768   -1.6537    8.0240 H   0  0  0  0  0  0  0  0  0  0  0  0
    0.7926   -4.0942    2.3024 H   0  0  0  0  0  0  0  0  0  0  0  0
    1.8716   -3.3546    1.0027 H   0  0  0  0  0  0  0  0  0  0  0  0
    1.4730   -1.1062    1.9380 H   0  0  0  0  0  0  0  0  0  0  0  0
  2 27  1  0  0  0  0
  2  1  2  0  0  0  0
  3 26  1  6  0  0  0
  3  2  1  0  0  0  0
  4  3  1  0  0  0  0
  4 29  1  0  0  0  0
  5  4  1  0  0  0  0
  6 53  1  0  0  0  0
  6  7  1  0  0  0  0
  7  8  1  0  0  0  0
  8  9  1  0  0  0  0
  8 21  2  0  0  0  0
  9 14  1  0  0  0  0
 10  9  1  0  0  0  0
 10 11  1  0  0  0  0
 10 32  1  0  0  0  0
 11 34  1  0  0  0  0
 11 12  1  0  0  0  0
 12 35  1  0  0  0  0
 12 15  1  0  0  0  0
 13 12  1  0  0  0  0
 13 37  1  0  0  0  0
 14 13  1  0  0  0  0
 14 39  1  0  0  0  0
 15 20  2  0  0  0  0
 15 16  1  0  0  0  0
 16 17  2  0  0  0  0
 17 18  1  0  0  0  0
 17 41  1  0  0  0  0
 18 42  1  0  0  0  0
 19 43  1  0  0  0  0
 19 18  2  0  0  0  0
 20 19  1  0  0  0  0
 22  3  1  0  0  0  0
 22 23  1  0  0  0  0
 23 25  2  0  0  0  0
 24 23  1  0  0  0  0
 24 47  1  0  0  0  0
 27 28  1  0  0  0  0
 28 51  1  0  0  0  0
 28 52  1  0  0  0  0
 28 50  1  0  0  0  0
 30  4  1  0  0  0  0
 31 10  1  0  0  0  0
 33 11  1  0  0  0  0
 36 13  1  0  0  0  0
 38 14  1  0  0  0  0
 40 16  1  0  0  0  0
 44 20  1  0  0  0  0
 45 22  1  0  0  0  0
 46 24  1  0  0  0  0
 48 24  1  0  0  0  0
 49 27  1  0  0  0  0
 54  6  1  0  0  0  0
 55  7  1  0  0  0  0
M  END
