55
-1 1
O         1.446601   -1.217825    2.082644
C         0.801874   -1.398306    1.065388
C         1.434279   -1.643490   -0.304490
C         1.461159   -3.165757   -0.604754
S         2.515356   -3.610105   -2.026728
C        -0.258655   -2.102780   -3.583397
C        -0.697437   -0.881344   -3.267158
C        -1.670663   -0.690348   -2.155343
N        -1.773480    0.569348   -1.607535
C        -0.571288    1.399218   -1.467742
C        -0.866423    2.840118   -1.056058
C        -1.892093    2.989253    0.075280
C        -3.131387    2.172798   -0.330927
C        -2.772186    0.714179   -0.556326
C        -1.422631    2.615439    1.478388
C        -2.284232    2.880519    2.555472
C        -1.945592    2.530821    3.859221
C        -0.728731    1.896423    4.116769
C         0.141226    1.638023    3.062380
C        -0.196510    2.003163    1.756695
O        -2.361656   -1.617020   -1.743900
N         2.775072   -1.132592   -0.369261
C         3.079300    0.169015   -0.289020
C         4.547375    0.502560   -0.478187
O         2.263069    1.056576   -0.049516
H         0.817532   -1.156716   -1.077777
N        -0.561580   -1.464576    1.054781
C        -1.339786   -1.404127    2.265001
H         1.809914   -3.681215    0.306649
H         0.417008   -3.479277   -0.767372
H        -0.026008    1.418761   -2.418920
H         0.115305    0.938557   -0.743630
H        -1.262761    3.389116   -1.927300
H         0.092207    3.309808   -0.788282
H        -2.185530    4.052638    0.116054
H        -3.555688    2.593454   -1.258739
H        -3.913430    2.232492    0.441157
H        -3.651039    0.126092   -0.847086
H        -2.400461    0.280596    0.388437
H        -3.242800    3.374691    2.367121
H        -2.636947    2.749933    4.677394
H        -0.465486    1.600445    5.135267
H         1.081351    1.107049    3.223565
H         0.532404    1.776296    0.976995
H         3.403154   -1.793274   -0.847425
H         5.110633   -0.307432   -0.961507
H         4.989541    0.699948    0.509953
H         4.627474    1.422221   -1.072840
H        -1.041312   -1.678251    0.185034
H        -0.649150   -1.475691    3.115084
H        -2.060487   -2.235663    2.309242
H        -1.890089   -0.451924    2.361263
H        -0.599705   -2.979541   -3.028771
H         0.472322   -2.268203   -4.374925
H        -0.328456   -0.005519   -3.804880
