-1 1
 OpenBabel05232414493D

 49 50  0  0  1  0  0  0  0  0999 V2000
   -1.0581   -2.4898   -0.5274 O   0  0  0  0  0  0  0  0  0  0  0  0
   -0.0004   -2.7110   -1.1145 C   0  0  0  0  0  0  0  0  0  0  0  0
    0.2391   -2.2412   -2.5562 C   0  0  2  0  0  0  0  0  0  0  0  0
    1.4297   -1.2724   -2.7925 C   0  0  0  0  0  0  0  0  0  0  0  0
    3.0502   -1.6536   -2.0712 S   0  0  0  0  0  0  0  0  0  0  0  0
    2.7890   -0.3100   -0.2917 C   0  0  0  0  0  0  0  0  0  0  0  0
    1.4691   -0.2361    0.1801 C   0  0  0  0  0  3  0  0  0  0  0  0
    0.5308    0.6948   -0.3681 C   0  0  0  0  0  0  0  0  0  0  0  0
   -0.8173    0.4172   -0.0369 N   0  0  0  0  0  0  0  0  0  0  0  0
   -1.8687    0.8768   -0.8043 C   0  0  0  0  0  0  0  0  0  0  0  0
   -1.9058    1.8570   -1.7760 C   0  0  0  0  0  0  0  0  0  0  0  0
   -3.1918    1.8773   -2.2612 N   0  0  0  0  0  0  0  0  0  0  0  0
   -3.6993    2.6643   -3.3102 C   0  0  0  0  0  0  0  0  0  0  0  0
   -2.8474    3.4657   -4.0793 C   0  0  0  0  0  0  0  0  0  0  0  0
   -3.3689    4.2345   -5.1172 C   0  0  0  0  0  0  0  0  0  0  0  0
   -4.7320    4.2128   -5.4057 C   0  0  0  0  0  0  0  0  0  0  0  0
   -5.5747    3.4068   -4.6392 C   0  0  0  0  0  0  0  0  0  0  0  0
   -5.0698    2.6364   -3.5973 C   0  0  0  0  0  0  0  0  0  0  0  0
   -3.9739    0.9727   -1.6606 N   0  0  0  0  0  0  0  0  0  0  0  0
   -3.1974    0.3638   -0.7818 C   0  0  0  0  0  0  0  0  0  0  0  0
    0.7850    1.6599   -1.0969 O   0  0  0  0  0  0  0  0  0  0  0  0
   -0.9864   -1.6215   -3.0023 N   0  0  0  0  0  0  0  0  0  0  0  0
   -1.3070   -1.4340   -4.3022 C   0  0  0  0  0  0  0  0  0  0  0  0
   -2.5751   -0.6338   -4.5374 C   0  0  0  0  0  0  0  0  0  0  0  0
   -0.6246   -1.8472   -5.2270 O   0  0  0  0  0  0  0  0  0  0  0  0
    0.4195   -3.1476   -3.1597 H   0  0  0  0  0  0  0  0  0  0  0  0
    0.9988   -3.4486   -0.5896 N   0  0  0  0  0  0  0  0  0  0  0  0
    0.9633   -3.8751    0.7842 C   0  0  0  0  0  0  0  0  0  0  0  0
    1.5416   -1.2050   -3.8828 H   0  0  0  0  0  0  0  0  0  0  0  0
    1.1297   -0.2796   -2.4341 H   0  0  0  0  0  0  0  0  0  0  0  0
   -0.9701   -0.5194    0.3258 H   0  0  0  0  0  0  0  0  0  0  0  0
   -1.1033    2.4966   -2.1198 H   0  0  0  0  0  0  0  0  0  0  0  0
   -1.7765    3.4829   -3.8784 H   0  0  0  0  0  0  0  0  0  0  0  0
   -2.6918    4.8525   -5.7113 H   0  0  0  0  0  0  0  0  0  0  0  0
   -5.1338    4.8147   -6.2236 H   0  0  0  0  0  0  0  0  0  0  0  0
   -6.6456    3.3749   -4.8544 H   0  0  0  0  0  0  0  0  0  0  0  0
   -5.7126    1.9984   -2.9923 H   0  0  0  0  0  0  0  0  0  0  0  0
   -3.5879   -0.4423   -0.1619 H   0  0  0  0  0  0  0  0  0  0  0  0
   -1.6091   -1.3095   -2.2639 H   0  0  0  0  0  0  0  0  0  0  0  0
   -3.1244   -1.0776   -5.3781 H   0  0  0  0  0  0  0  0  0  0  0  0
   -2.2896    0.3886   -4.8299 H   0  0  0  0  0  0  0  0  0  0  0  0
   -3.2259   -0.5658   -3.6544 H   0  0  0  0  0  0  0  0  0  0  0  0
    1.9184   -3.2769   -1.0232 H   0  0  0  0  0  0  0  0  0  0  0  0
    1.3611   -3.1065    1.4709 H   0  0  0  0  0  0  0  0  0  0  0  0
    1.5581   -4.7920    0.9072 H   0  0  0  0  0  0  0  0  0  0  0  0
   -0.0768   -4.0777    1.0712 H   0  0  0  0  0  0  0  0  0  0  0  0
    1.0877   -1.0126    0.8473 H   0  0  0  0  0  0  0  0  0  0  0  0
    3.5340   -0.8286    0.3182 H   0  0  0  0  0  0  0  0  0  0  0  0
    3.1686    0.5825   -0.7956 H   0  0  0  0  0  0  0  0  0  0  0  0
  2 27  1  0  0  0  0
  2  1  2  0  0  0  0
  3 26  1  6  0  0  0
  3  2  1  0  0  0  0
  4  3  1  0  0  0  0
  4 30  1  0  0  0  0
  4  5  1  0  0  0  0
  5  6  1  0  0  0  0
  6  7  1  0  0  0  0
  6 48  1  0  0  0  0
  7 47  1  0  0  0  0
  8  9  1  0  0  0  0
  8  7  1  0  0  0  0
  9 31  1  0  0  0  0
 10 20  1  0  0  0  0
 10  9  1  0  0  0  0
 11 10  2  0  0  0  0
 12 11  1  0  0  0  0
 12 19  1  0  0  0  0
 13 12  1  0  0  0  0
 14 33  1  0  0  0  0
 14 13  2  0  0  0  0
 15 14  1  0  0  0  0
 16 15  2  0  0  0  0
 16 17  1  0  0  0  0
 17 18  2  0  0  0  0
 18 13  1  0  0  0  0
 18 37  1  0  0  0  0
 19 20  2  0  0  0  0
 20 38  1  0  0  0  0
 21  8  2  0  0  0  0
 22  3  1  0  0  0  0
 22 39  1  0  0  0  0
 23 22  1  0  0  0  0
 24 23  1  0  0  0  0
 24 42  1  0  0  0  0
 25 23  2  0  0  0  0
 27 28  1  0  0  0  0
 28 45  1  0  0  0  0
 28 46  1  0  0  0  0
 28 44  1  0  0  0  0
 29  4  1  0  0  0  0
 32 11  1  0  0  0  0
 34 15  1  0  0  0  0
 35 16  1  0  0  0  0
 36 17  1  0  0  0  0
 40 24  1  0  0  0  0
 41 24  1  0  0  0  0
 43 27  1  0  0  0  0
 49  6  1  0  0  0  0
M  END
