-1 1
 OpenBabel05192410563D

 49 50  0  0  1  0  0  0  0  0999 V2000
   -0.0429   -2.5320    1.6045 O   0  0  0  0  0  0  0  0  0  0  0  0
    1.0323   -2.7171    1.0470 C   0  0  0  0  0  0  0  0  0  0  0  0
    1.3167   -2.1850   -0.3665 C   0  0  2  0  0  0  0  0  0  0  0  0
    2.5173   -1.2187   -0.5651 C   0  0  0  0  0  0  0  0  0  0  0  0
    4.0894   -1.5420    0.2852 S   0  0  0  0  0  0  0  0  0  0  0  0
    3.8221   -0.3865    1.8475 C   0  0  0  0  0  0  0  0  0  0  0  0
    2.4646   -0.3398    2.3698 C   0  0  0  0  0  3  0  0  0  0  0  0
    1.5414    0.5860    1.8581 C   0  0  0  0  0  0  0  0  0  0  0  0
    0.1851    0.3792    2.2711 N   0  0  0  0  0  0  0  0  0  0  0  0
   -0.8677    0.8016    1.4879 C   0  0  0  0  0  0  0  0  0  0  0  0
   -0.9213    1.7851    0.5189 C   0  0  0  0  0  0  0  0  0  0  0  0
   -2.2038    1.7775    0.0203 N   0  0  0  0  0  0  0  0  0  0  0  0
   -2.7198    2.5572   -1.0272 C   0  0  0  0  0  0  0  0  0  0  0  0
   -1.8897    3.4198   -1.7539 C   0  0  0  0  0  0  0  0  0  0  0  0
   -2.4193    4.1790   -2.7947 C   0  0  0  0  0  0  0  0  0  0  0  0
   -3.7694    4.0901   -3.1283 C   0  0  0  0  0  0  0  0  0  0  0  0
   -4.5906    3.2254   -2.4031 C   0  0  0  0  0  0  0  0  0  0  0  0
   -4.0776    2.4628   -1.3596 C   0  0  0  0  0  0  0  0  0  0  0  0
   -2.9690    0.8486    0.6070 N   0  0  0  0  0  0  0  0  0  0  0  0
   -2.1847    0.2542    1.4894 C   0  0  0  0  0  0  0  0  0  0  0  0
    1.7722    1.5202    1.0636 O   0  0  0  0  0  0  0  0  0  0  0  0
    0.1086   -1.5432   -0.8229 N   0  0  0  0  0  0  0  0  0  0  0  0
   -0.1887   -1.3533   -2.1275 C   0  0  0  0  0  0  0  0  0  0  0  0
   -1.4486   -0.5479   -2.3821 C   0  0  0  0  0  0  0  0  0  0  0  0
    0.5094   -1.7724   -3.0388 O   0  0  0  0  0  0  0  0  0  0  0  0
    1.4948   -3.0736   -0.9969 H   0  0  0  0  0  0  0  0  0  0  0  0
    2.0018   -3.5106    1.5616 N   0  0  0  0  0  0  0  0  0  0  0  0
    1.9007   -3.9963    2.9130 C   0  0  0  0  0  0  0  0  0  0  0  0
    2.7247   -1.2100   -1.6435 H   0  0  0  0  0  0  0  0  0  0  0  0
    2.2030   -0.2068   -0.2776 H   0  0  0  0  0  0  0  0  0  0  0  0
    0.0262   -0.5381    2.6742 H   0  0  0  0  0  0  0  0  0  0  0  0
   -0.1260    2.4364    0.1808 H   0  0  0  0  0  0  0  0  0  0  0  0
   -0.8289    3.4928   -1.5154 H   0  0  0  0  0  0  0  0  0  0  0  0
   -1.7585    4.8448   -3.3547 H   0  0  0  0  0  0  0  0  0  0  0  0
   -4.1774    4.6854   -3.9480 H   0  0  0  0  0  0  0  0  0  0  0  0
   -5.6511    3.1404   -2.6531 H   0  0  0  0  0  0  0  0  0  0  0  0
   -4.7027    1.7795   -0.7861 H   0  0  0  0  0  0  0  0  0  0  0  0
   -2.5608   -0.5673    2.0979 H   0  0  0  0  0  0  0  0  0  0  0  0
   -0.5139   -1.2089   -0.0935 H   0  0  0  0  0  0  0  0  0  0  0  0
   -1.9647   -0.9627   -3.2576 H   0  0  0  0  0  0  0  0  0  0  0  0
   -1.1587    0.4864   -2.6237 H   0  0  0  0  0  0  0  0  0  0  0  0
   -2.1299   -0.5169   -1.5201 H   0  0  0  0  0  0  0  0  0  0  0  0
    2.9384   -3.3242    1.1904 H   0  0  0  0  0  0  0  0  0  0  0  0
    2.1664   -3.2246    3.6579 H   0  0  0  0  0  0  0  0  0  0  0  0
    2.5695   -4.8586    3.0470 H   0  0  0  0  0  0  0  0  0  0  0  0
    0.8667   -4.3088    3.1098 H   0  0  0  0  0  0  0  0  0  0  0  0
    2.1193   -1.1217    3.0492 H   0  0  0  0  0  0  0  0  0  0  0  0
    4.5774   -0.7929    2.5365 H   0  0  0  0  0  0  0  0  0  0  0  0
    4.1457    0.5921    1.4707 H   0  0  0  0  0  0  0  0  0  0  0  0
  2 27  1  0  0  0  0
  2  1  2  0  0  0  0
  3 26  1  6  0  0  0
  3  2  1  0  0  0  0
  4  3  1  0  0  0  0
  4 30  1  0  0  0  0
  4  5  1  0  0  0  0
  5  6  1  0  0  0  0
  6  7  1  0  0  0  0
  6 48  1  0  0  0  0
  7 47  1  0  0  0  0
  8  9  1  0  0  0  0
  8  7  1  0  0  0  0
  9 31  1  0  0  0  0
 10 20  1  0  0  0  0
 10  9  1  0  0  0  0
 11 10  2  0  0  0  0
 12 11  1  0  0  0  0
 12 19  1  0  0  0  0
 13 12  1  0  0  0  0
 14 33  1  0  0  0  0
 14 13  2  0  0  0  0
 15 14  1  0  0  0  0
 16 15  2  0  0  0  0
 16 17  1  0  0  0  0
 17 18  2  0  0  0  0
 18 13  1  0  0  0  0
 18 37  1  0  0  0  0
 19 20  2  0  0  0  0
 20 38  1  0  0  0  0
 21  8  2  0  0  0  0
 22  3  1  0  0  0  0
 22 39  1  0  0  0  0
 23 22  1  0  0  0  0
 24 23  1  0  0  0  0
 24 42  1  0  0  0  0
 25 23  2  0  0  0  0
 27 28  1  0  0  0  0
 28 45  1  0  0  0  0
 28 46  1  0  0  0  0
 28 44  1  0  0  0  0
 29  4  1  0  0  0  0
 32 11  1  0  0  0  0
 34 15  1  0  0  0  0
 35 16  1  0  0  0  0
 36 17  1  0  0  0  0
 40 24  1  0  0  0  0
 41 24  1  0  0  0  0
 43 27  1  0  0  0  0
 49  6  1  0  0  0  0
M  END
