49
-1 1
O        -1.058071   -2.489765   -0.527410
C        -0.000412   -2.710980   -1.114534
C         0.239118   -2.241198   -2.556183
C         1.429663   -1.272362   -2.792483
S         3.050235   -1.653577   -2.071154
C         2.789000   -0.309999   -0.291664
C         1.469150   -0.236105    0.180092
C         0.530759    0.694847   -0.368121
N        -0.817303    0.417215   -0.036917
C        -1.868744    0.876813   -0.804331
C        -1.905788    1.857031   -1.776005
N        -3.191807    1.877270   -2.261221
C        -3.699304    2.664302   -3.310156
C        -2.847434    3.465691   -4.079317
C        -3.368914    4.234520   -5.117190
C        -4.732038    4.212840   -5.405714
C        -5.574692    3.406762   -4.639201
C        -5.069792    2.636406   -3.597274
N        -3.973921    0.972680   -1.660621
C        -3.197362    0.363768   -0.781839
O         0.784951    1.659906   -1.096869
N        -0.986443   -1.621451   -3.002261
C        -1.307030   -1.434036   -4.302188
C        -2.575147   -0.633779   -4.537376
O        -0.624649   -1.847150   -5.226961
H         0.419479   -3.147609   -3.159683
N         0.998805   -3.448613   -0.589559
C         0.963273   -3.875055    0.784186
H         1.541644   -1.205038   -3.882752
H         1.129720   -0.279579   -2.434096
H        -0.970140   -0.519436    0.325834
H        -1.103312    2.496596   -2.119794
H        -1.776483    3.482935   -3.878434
H        -2.691814    4.852549   -5.711316
H        -5.133839    4.814699   -6.223568
H        -6.645608    3.374873   -4.854399
H        -5.712581    1.998356   -2.992265
H        -3.587885   -0.442262   -0.161896
H        -1.609094   -1.309457   -2.263859
H        -3.124426   -1.077620   -5.378075
H        -2.289632    0.388600   -4.829875
H        -3.225912   -0.565820   -3.654411
H         1.918368   -3.276895   -1.023165
H         1.361102   -3.106455    1.470876
H         1.558074   -4.792015    0.907157
H        -0.076797   -4.077677    1.071155
H         1.087719   -1.012581    0.847327
H         3.534028   -0.828588    0.318205
H         3.168568    0.582469   -0.795621
