60
-1 1
O        -4.132565   -0.379280   -2.372556
C        -3.047593   -0.666503   -1.863472
C        -2.981467   -0.925393   -0.346031
C        -2.912569   -2.421754    0.020303
S        -1.391253   -3.294933   -0.451970
C        -0.026117   -2.191955    0.210786
C        -0.041979   -2.116224    1.750222
N        -0.749110   -0.980942    2.294130
C        -0.251422    0.291721    2.268546
C         0.989879    0.617121    1.683187
C         1.512058    1.909752    1.771079
S         3.140929    2.213216    1.049332
O         4.114458    2.056394    2.127242
N         3.401565    1.010572   -0.035296
C         4.035823   -0.243494    0.339231
C         2.774471    1.078061   -1.347052
O         3.063339    3.463136    0.301639
C         0.800168    2.915111    2.429746
Cl         1.420479    4.531052    2.675718
C        -0.463092    2.617059    2.946311
C        -0.987810    1.340620    2.863530
C         1.258656   -2.590172   -0.405299
C         1.511408   -2.121653   -1.684487
O         0.777588   -1.363206   -2.366878
O         2.730606   -2.492022   -2.215763
C         2.974140   -2.091616   -3.533707
N        -4.189731   -0.337488    0.194199
C        -4.429315   -0.123207    1.496120
C        -5.747113    0.552194    1.819141
O        -3.649315   -0.426119    2.396577
H        -2.110601   -0.406550    0.081436
N        -1.912965   -0.759104   -2.556432
C        -1.909859   -0.584707   -3.988135
H        -3.082756   -2.503777    1.103595
H        -3.738529   -2.947689   -0.483768
H         1.001598   -2.080542    2.105987
H        -0.488184   -3.028208    2.173393
H        -1.753018   -1.049102    2.455708
H         1.542480   -0.145919    1.134042
H         4.374561   -0.189633    1.380209
H         4.913852   -0.414294   -0.305151
H         3.336069   -1.087100    0.207496
H         1.926978    0.380473   -1.447612
H         3.526663    0.818226   -2.109285
H         2.436827    2.102406   -1.540217
H        -1.030534    3.409735    3.436937
H        -1.975597    1.120391    3.272462
H         2.958480   -0.995282   -3.650078
H         2.233077   -2.506345   -4.238327
H         3.973095   -2.469285   -3.796667
H        -4.858817   -0.094255   -0.536351
H        -6.243360   -0.012281    2.619937
H        -6.418281    0.636117    0.954012
H        -5.535105    1.559241    2.207031
H        -1.000769   -1.051520   -2.162686
H        -2.259459    0.421139   -4.270895
H        -2.566702   -1.316894   -4.485107
H        -0.878126   -0.727891   -4.331021
H         1.911608   -3.330190    0.059868
H        -0.270011   -1.189730   -0.172536
