-1 1
 OpenBabel05232414493D

 60 59  0  0  1  0  0  0  0  0999 V2000
   -1.5579    4.6463   -4.7312 O   0  0  0  0  0  0  0  0  0  0  0  0
   -0.4808    4.0807   -4.5378 C   0  0  0  0  0  0  0  0  0  0  0  0
   -0.1386    3.5502   -3.1354 C   0  0  2  0  0  0  0  0  0  0  0  0
   -0.1505    2.0107   -3.0264 C   0  0  0  0  0  0  0  0  0  0  0  0
    1.2417    1.1727   -3.8459 S   0  0  0  0  0  1  0  0  0  0  0  0
    3.1863    2.4231   -3.4412 C   0  0  0  0  0  3  0  0  0  0  0  0
    3.3647    2.2390   -1.9412 C   0  0  0  0  0  0  0  0  0  0  0  0
    2.7527    3.2754   -1.1431 N   0  0  0  0  0  0  0  0  0  0  0  0
    3.2696    4.5282   -1.0237 C   0  0  0  0  0  0  0  0  0  0  0  0
    4.4661    4.9247   -1.6575 C   0  0  0  0  0  0  0  0  0  0  0  0
    5.0203    6.1903   -1.4349 C   0  0  0  0  0  0  0  0  0  0  0  0
    6.6403    6.4390   -2.1789 S   0  0  0  0  0  0  0  0  0  0  0  0
    6.9183    7.8570   -2.3406 O   0  0  0  0  0  0  0  0  0  0  0  0
    7.7052    5.8615   -1.0173 N   0  0  0  0  0  0  0  0  0  0  0  0
    7.8241    6.6477    0.1974 C   0  0  0  0  0  0  0  0  0  0  0  0
    7.7198    4.4218   -0.8203 C   0  0  0  0  0  0  0  0  0  0  0  0
    6.7498    5.5332   -3.3119 O   0  0  0  0  0  0  0  0  0  0  0  0
    4.3762    7.1118   -0.6013 C   0  0  0  0  0  0  0  0  0  0  0  0
    4.9731    8.7175   -0.2353 Cl  0  0  0  0  0  0  0  0  0  0  0  0
    3.1591    6.7421   -0.0192 C   0  0  0  0  0  0  0  0  0  0  0  0
    2.6148    5.4881   -0.2157 C   0  0  0  0  0  0  0  0  0  0  0  0
    4.1586    2.0027   -4.3440 C   0  0  0  0  0  3  0  0  0  0  0  0
    4.0546    2.4465   -5.6957 C   0  0  0  0  0  0  0  0  0  0  0  0
    3.1827    3.1769   -6.1618 O   0  0  0  0  0  0  0  0  0  0  0  0
    5.0509    1.9773   -6.5013 O   0  0  0  0  0  0  0  0  0  0  0  0
    4.9995    2.3934   -7.8404 C   0  0  0  0  0  0  0  0  0  0  0  0
   -1.1240    4.1419   -2.2537 N   0  0  0  0  0  0  0  0  0  0  0  0
   -1.0035    4.2181   -0.9238 C   0  0  0  0  0  0  0  0  0  0  0  0
   -2.1242    4.9354   -0.1974 C   0  0  0  0  0  0  0  0  0  0  0  0
   -0.0482    3.7630   -0.2938 O   0  0  0  0  0  0  0  0  0  0  0  0
    0.8579    3.9152   -2.8439 H   0  0  0  0  0  0  0  0  0  0  0  0
    0.4445    3.9163   -5.4857 N   0  0  0  0  0  0  0  0  0  0  0  0
    0.2305    4.3619   -6.8388 C   0  0  0  0  0  0  0  0  0  0  0  0
   -0.1585    1.7746   -1.9514 H   0  0  0  0  0  0  0  0  0  0  0  0
   -1.1020    1.6431   -3.4464 H   0  0  0  0  0  0  0  0  0  0  0  0
    4.4447    2.2054   -1.7095 H   0  0  0  0  0  0  0  0  0  0  0  0
    2.9418    1.2759   -1.6297 H   0  0  0  0  0  0  0  0  0  0  0  0
    1.7869    3.1614   -0.8325 H   0  0  0  0  0  0  0  0  0  0  0  0
    4.9628    4.2613   -2.3671 H   0  0  0  0  0  0  0  0  0  0  0  0
    7.8338    7.7156   -0.0498 H   0  0  0  0  0  0  0  0  0  0  0  0
    8.7759    6.3907    0.6861 H   0  0  0  0  0  0  0  0  0  0  0  0
    6.9978    6.4512    0.9080 H   0  0  0  0  0  0  0  0  0  0  0  0
    7.6626    3.9136   -1.7900 H   0  0  0  0  0  0  0  0  0  0  0  0
    6.8848    4.0768   -0.1802 H   0  0  0  0  0  0  0  0  0  0  0  0
    8.6700    4.1480   -0.3379 H   0  0  0  0  0  0  0  0  0  0  0  0
    2.6406    7.4665    0.6113 H   0  0  0  0  0  0  0  0  0  0  0  0
    1.6677    5.2135    0.2528 H   0  0  0  0  0  0  0  0  0  0  0  0
    5.0608    3.4900   -7.9297 H   0  0  0  0  0  0  0  0  0  0  0  0
    4.0682    2.0694   -8.3332 H   0  0  0  0  0  0  0  0  0  0  0  0
    5.8616    1.9348   -8.3441 H   0  0  0  0  0  0  0  0  0  0  0  0
   -1.8957    4.5721   -2.7633 H   0  0  0  0  0  0  0  0  0  0  0  0
   -2.4411    4.3183    0.6540 H   0  0  0  0  0  0  0  0  0  0  0  0
   -2.9888    5.1529   -0.8386 H   0  0  0  0  0  0  0  0  0  0  0  0
   -1.7312    5.8802    0.2063 H   0  0  0  0  0  0  0  0  0  0  0  0
    1.2861    3.3546   -5.3228 H   0  0  0  0  0  0  0  0  0  0  0  0
   -0.1086    5.4088   -6.8540 H   0  0  0  0  0  0  0  0  0  0  0  0
   -0.5328    3.7552   -7.3548 H   0  0  0  0  0  0  0  0  0  0  0  0
    1.1854    4.2712   -7.3702 H   0  0  0  0  0  0  0  0  0  0  0  0
    4.8984    1.2409   -4.0916 H   0  0  0  0  0  0  0  0  0  0  0  0
    2.6909    3.3586   -3.7141 H   0  0  0  0  0  0  0  0  0  0  0  0
  1  2  2  0  0  0  0
  2  3  1  0  0  0  0
  3  4  1  0  0  0  0
  3 31  1  1  0  0  0
  3 27  1  0  0  0  0
  4 34  1  0  0  0  0
  5  4  1  0  0  0  0
  6  7  1  0  0  0  0
  7 36  1  0  0  0  0
  7 37  1  0  0  0  0
  7  8  1  0  0  0  0
  8  9  1  0  0  0  0
  8 38  1  0  0  0  0
  9 21  1  0  0  0  0
 10 11  1  0  0  0  0
 10  9  2  0  0  0  0
 11 18  2  0  0  0  0
 12 11  1  0  0  0  0
 12 14  1  0  0  0  0
 13 12  2  0  0  0  0
 14 16  1  0  0  0  0
 14 15  1  0  0  0  0
 15 41  1  0  0  0  0
 15 42  1  0  0  0  0
 16 45  1  0  0  0  0
 16 44  1  0  0  0  0
 17 12  2  0  0  0  0
 18 19  1  0  0  0  0
 18 20  1  0  0  0  0
 20 46  1  0  0  0  0
 21 20  2  0  0  0  0
 21 47  1  0  0  0  0
 22 59  1  0  0  0  0
 22  6  1  0  0  0  0
 23 22  1  0  0  0  0
 24 23  2  0  0  0  0
 25 23  1  0  0  0  0
 26 25  1  0  0  0  0
 27 28  1  0  0  0  0
 28 30  2  0  0  0  0
 28 29  1  0  0  0  0
 29 54  1  0  0  0  0
 29 52  1  0  0  0  0
 32 55  1  0  0  0  0
 32  2  1  0  0  0  0
 33 32  1  0  0  0  0
 35  4  1  0  0  0  0
 39 10  1  0  0  0  0
 40 15  1  0  0  0  0
 43 16  1  0  0  0  0
 48 26  1  0  0  0  0
 49 26  1  0  0  0  0
 50 26  1  0  0  0  0
 51 27  1  0  0  0  0
 53 29  1  0  0  0  0
 56 33  1  0  0  0  0
 57 33  1  0  0  0  0
 58 33  1  0  0  0  0
 60  6  1  0  0  0  0
M  END
