-1 1
 OpenBabel05192410563D

 60 60  0  0  1  0  0  0  0  0999 V2000
   -4.1326   -0.3793   -2.3726 O   0  0  0  0  0  0  0  0  0  0  0  0
   -3.0476   -0.6665   -1.8635 C   0  0  0  0  0  0  0  0  0  0  0  0
   -2.9815   -0.9254   -0.3460 C   0  0  2  0  0  0  0  0  0  0  0  0
   -2.9126   -2.4218    0.0203 C   0  0  0  0  0  0  0  0  0  0  0  0
   -1.3913   -3.2949   -0.4520 S   0  0  0  0  0  0  0  0  0  0  0  0
   -0.0261   -2.1920    0.2108 C   0  0  1  0  0  0  0  0  0  0  0  0
   -0.0420   -2.1162    1.7502 C   0  0  0  0  0  0  0  0  0  0  0  0
   -0.7491   -0.9809    2.2941 N   0  0  0  0  0  0  0  0  0  0  0  0
   -0.2514    0.2917    2.2685 C   0  0  0  0  0  0  0  0  0  0  0  0
    0.9899    0.6171    1.6832 C   0  0  0  0  0  0  0  0  0  0  0  0
    1.5121    1.9098    1.7711 C   0  0  0  0  0  0  0  0  0  0  0  0
    3.1409    2.2132    1.0493 S   0  0  0  0  0  0  0  0  0  0  0  0
    4.1145    2.0564    2.1272 O   0  0  0  0  0  0  0  0  0  0  0  0
    3.4016    1.0106   -0.0353 N   0  0  0  0  0  0  0  0  0  0  0  0
    4.0358   -0.2435    0.3392 C   0  0  0  0  0  0  0  0  0  0  0  0
    2.7745    1.0781   -1.3471 C   0  0  0  0  0  0  0  0  0  0  0  0
    3.0633    3.4631    0.3016 O   0  0  0  0  0  0  0  0  0  0  0  0
    0.8002    2.9151    2.4297 C   0  0  0  0  0  0  0  0  0  0  0  0
    1.4205    4.5311    2.6757 Cl  0  0  0  0  0  0  0  0  0  0  0  0
   -0.4631    2.6171    2.9463 C   0  0  0  0  0  0  0  0  0  0  0  0
   -0.9878    1.3406    2.8635 C   0  0  0  0  0  0  0  0  0  0  0  0
    1.2587   -2.5902   -0.4053 C   0  0  0  0  0  3  0  0  0  0  0  0
    1.5114   -2.1217   -1.6845 C   0  0  0  0  0  0  0  0  0  0  0  0
    0.7776   -1.3632   -2.3669 O   0  0  0  0  0  0  0  0  0  0  0  0
    2.7306   -2.4920   -2.2158 O   0  0  0  0  0  0  0  0  0  0  0  0
    2.9741   -2.0916   -3.5337 C   0  0  0  0  0  0  0  0  0  0  0  0
   -4.1897   -0.3375    0.1942 N   0  0  0  0  0  0  0  0  0  0  0  0
   -4.4293   -0.1232    1.4961 C   0  0  0  0  0  0  0  0  0  0  0  0
   -5.7471    0.5522    1.8191 C   0  0  0  0  0  0  0  0  0  0  0  0
   -3.6493   -0.4261    2.3966 O   0  0  0  0  0  0  0  0  0  0  0  0
   -2.1106   -0.4066    0.0814 H   0  0  0  0  0  0  0  0  0  0  0  0
   -1.9130   -0.7591   -2.5564 N   0  0  0  0  0  0  0  0  0  0  0  0
   -1.9099   -0.5847   -3.9881 C   0  0  0  0  0  0  0  0  0  0  0  0
   -3.0828   -2.5038    1.1036 H   0  0  0  0  0  0  0  0  0  0  0  0
   -3.7385   -2.9477   -0.4838 H   0  0  0  0  0  0  0  0  0  0  0  0
    1.0016   -2.0805    2.1060 H   0  0  0  0  0  0  0  0  0  0  0  0
   -0.4882   -3.0282    2.1734 H   0  0  0  0  0  0  0  0  0  0  0  0
   -1.7530   -1.0491    2.4557 H   0  0  0  0  0  0  0  0  0  0  0  0
    1.5425   -0.1459    1.1340 H   0  0  0  0  0  0  0  0  0  0  0  0
    4.3746   -0.1896    1.3802 H   0  0  0  0  0  0  0  0  0  0  0  0
    4.9139   -0.4143   -0.3052 H   0  0  0  0  0  0  0  0  0  0  0  0
    3.3361   -1.0871    0.2075 H   0  0  0  0  0  0  0  0  0  0  0  0
    1.9270    0.3805   -1.4476 H   0  0  0  0  0  0  0  0  0  0  0  0
    3.5267    0.8182   -2.1093 H   0  0  0  0  0  0  0  0  0  0  0  0
    2.4368    2.1024   -1.5402 H   0  0  0  0  0  0  0  0  0  0  0  0
   -1.0305    3.4097    3.4369 H   0  0  0  0  0  0  0  0  0  0  0  0
   -1.9756    1.1204    3.2725 H   0  0  0  0  0  0  0  0  0  0  0  0
    2.9585   -0.9953   -3.6501 H   0  0  0  0  0  0  0  0  0  0  0  0
    2.2331   -2.5063   -4.2383 H   0  0  0  0  0  0  0  0  0  0  0  0
    3.9731   -2.4693   -3.7967 H   0  0  0  0  0  0  0  0  0  0  0  0
   -4.8588   -0.0943   -0.5364 H   0  0  0  0  0  0  0  0  0  0  0  0
   -6.2434   -0.0123    2.6199 H   0  0  0  0  0  0  0  0  0  0  0  0
   -6.4183    0.6361    0.9540 H   0  0  0  0  0  0  0  0  0  0  0  0
   -5.5351    1.5592    2.2070 H   0  0  0  0  0  0  0  0  0  0  0  0
   -1.0008   -1.0515   -2.1627 H   0  0  0  0  0  0  0  0  0  0  0  0
   -2.2595    0.4211   -4.2709 H   0  0  0  0  0  0  0  0  0  0  0  0
   -2.5667   -1.3169   -4.4851 H   0  0  0  0  0  0  0  0  0  0  0  0
   -0.8781   -0.7279   -4.3310 H   0  0  0  0  0  0  0  0  0  0  0  0
    1.9116   -3.3302    0.0599 H   0  0  0  0  0  0  0  0  0  0  0  0
   -0.2700   -1.1897   -0.1725 H   0  0  0  0  0  0  0  0  0  0  0  0
  1  2  2  0  0  0  0
  2  3  1  0  0  0  0
  3  4  1  0  0  0  0
  3 31  1  1  0  0  0
  3 27  1  0  0  0  0
  4 34  1  0  0  0  0
  5  4  1  0  0  0  0
  5  6  1  0  0  0  0
  6 60  1  6  0  0  0
  6  7  1  0  0  0  0
  7 36  1  0  0  0  0
  7 37  1  0  0  0  0
  7  8  1  0  0  0  0
  8 38  1  0  0  0  0
  9  8  1  0  0  0  0
  9 21  1  0  0  0  0
 10 11  1  0  0  0  0
 10  9  2  0  0  0  0
 11 18  2  0  0  0  0
 12 11  1  0  0  0  0
 12 13  2  0  0  0  0
 14 15  1  0  0  0  0
 14 12  1  0  0  0  0
 15 40  1  0  0  0  0
 16 14  1  0  0  0  0
 17 12  2  0  0  0  0
 18 19  1  0  0  0  0
 18 20  1  0  0  0  0
 20 46  1  0  0  0  0
 21 20  2  0  0  0  0
 21 47  1  0  0  0  0
 22 59  1  0  0  0  0
 22  6  1  0  0  0  0
 23 22  1  0  0  0  0
 24 23  2  0  0  0  0
 25 23  1  0  0  0  0
 26 25  1  0  0  0  0
 27 28  1  0  0  0  0
 28 29  1  0  0  0  0
 28 30  2  0  0  0  0
 29 54  1  0  0  0  0
 29 52  1  0  0  0  0
 32 55  1  0  0  0  0
 32  2  1  0  0  0  0
 33 32  1  0  0  0  0
 35  4  1  0  0  0  0
 39 10  1  0  0  0  0
 41 15  1  0  0  0  0
 42 15  1  0  0  0  0
 43 16  1  0  0  0  0
 44 16  1  0  0  0  0
 45 16  1  0  0  0  0
 48 26  1  0  0  0  0
 49 26  1  0  0  0  0
 50 26  1  0  0  0  0
 51 27  1  0  0  0  0
 53 29  1  0  0  0  0
 56 33  1  0  0  0  0
 57 33  1  0  0  0  0
 58 33  1  0  0  0  0
M  END
