60
-1 1
O        -4.910896   -0.362771   -2.142890
C        -4.076162   -1.195960   -1.795198
C        -3.776178   -1.433644   -0.307934
C        -4.006629   -2.883187    0.170399
S        -2.761150   -4.085865   -0.422407
C         0.025441   -1.468640   -1.198616
C        -0.022943   -1.854661    0.251116
N        -0.537083   -0.823515    1.120208
C         0.148038    0.293840    1.474241
C         1.446511    0.571213    1.001297
C         2.148821    1.705628    1.419346
S         3.845049    1.790377    0.826170
O         4.311973    3.166898    0.798037
N         4.733219    0.992616    2.003386
C         4.884241    1.672783    3.277970
C         4.526471   -0.443137    2.096726
O         3.929183    0.961489   -0.369298
C         1.566831    2.609823    2.314490
Cl         2.340677    4.067103    2.901297
C         0.268375    2.350404    2.768404
C        -0.428446    1.225916    2.370700
C         1.096729   -1.592228   -1.989117
C         1.027297   -1.260002   -3.426493
O         0.055269   -0.876313   -4.030856
O         2.220555   -1.439267   -4.022635
C         2.275635   -1.134138   -5.399694
N        -4.573460   -0.467562    0.419199
C        -4.213653    0.040472    1.604239
C        -5.097603    1.141752    2.154092
O        -3.222455   -0.332019    2.233176
H        -2.716087   -1.191835   -0.146298
N        -3.328087   -1.934316   -2.626483
C        -3.422058   -1.847006   -4.060345
H        -3.988212   -2.845898    1.270415
H        -5.026885   -3.184604   -0.125506
H         0.971531   -2.196653    0.592051
H        -0.722556   -2.715921    0.307488
H        -1.475104   -0.927554    1.512478
H         1.921109   -0.081875    0.271783
H         5.059150    2.741684    3.110713
H         5.758491    1.249449    3.794526
H         3.996170    1.550505    3.927203
H         4.488040   -0.878803    1.091663
H         3.597244   -0.700281    2.640729
H         5.381269   -0.880918    2.632926
H        -0.194723    3.059629    3.456575
H        -1.439051    1.033666    2.738878
H         2.015204   -0.080737   -5.582379
H         1.578872   -1.763699   -5.973925
H         3.307070   -1.326112   -5.718543
H        -5.286615   -0.021100   -0.154990
H        -5.337953    0.908630    3.200169
H        -6.026620    1.278065    1.584440
H        -4.529140    2.083561    2.145696
H        -2.838233   -2.736274   -2.181757
H        -4.070383   -0.999604   -4.318605
H        -3.855087   -2.765455   -4.490219
H        -2.423944   -1.683132   -4.493656
H         2.061209   -1.941591   -1.610374
H        -0.909428   -1.108428   -1.644780
