-1 1
 OpenBabel05232413493D

 60 59  0  0  1  0  0  0  0  0999 V2000
   -4.9109   -0.3628   -2.1429 O   0  0  0  0  0  0  0  0  0  0  0  0
   -4.0762   -1.1960   -1.7952 C   0  0  0  0  0  0  0  0  0  0  0  0
   -3.7762   -1.4336   -0.3079 C   0  0  2  0  0  0  0  0  0  0  0  0
   -4.0066   -2.8832    0.1704 C   0  0  0  0  0  0  0  0  0  0  0  0
   -2.7612   -4.0859   -0.4224 S   0  0  0  0  0  1  0  0  0  0  0  0
    0.0254   -1.4686   -1.1986 C   0  0  0  0  0  0  0  0  0  0  0  0
   -0.0229   -1.8547    0.2511 C   0  0  0  0  0  0  0  0  0  0  0  0
   -0.5371   -0.8235    1.1202 N   0  0  0  0  0  0  0  0  0  0  0  0
    0.1480    0.2938    1.4742 C   0  0  0  0  0  0  0  0  0  0  0  0
    1.4465    0.5712    1.0013 C   0  0  0  0  0  0  0  0  0  0  0  0
    2.1488    1.7056    1.4193 C   0  0  0  0  0  0  0  0  0  0  0  0
    3.8450    1.7904    0.8262 S   0  0  0  0  0  0  0  0  0  0  0  0
    4.3120    3.1669    0.7980 O   0  0  0  0  0  0  0  0  0  0  0  0
    4.7332    0.9926    2.0034 N   0  0  0  0  0  0  0  0  0  0  0  0
    4.8842    1.6728    3.2780 C   0  0  0  0  0  0  0  0  0  0  0  0
    4.5265   -0.4431    2.0967 C   0  0  0  0  0  0  0  0  0  0  0  0
    3.9292    0.9615   -0.3693 O   0  0  0  0  0  0  0  0  0  0  0  0
    1.5668    2.6098    2.3145 C   0  0  0  0  0  0  0  0  0  0  0  0
    2.3407    4.0671    2.9013 Cl  0  0  0  0  0  0  0  0  0  0  0  0
    0.2684    2.3504    2.7684 C   0  0  0  0  0  0  0  0  0  0  0  0
   -0.4284    1.2259    2.3707 C   0  0  0  0  0  0  0  0  0  0  0  0
    1.0967   -1.5922   -1.9891 C   0  0  0  0  0  0  0  0  0  0  0  0
    1.0273   -1.2600   -3.4265 C   0  0  0  0  0  0  0  0  0  0  0  0
    0.0553   -0.8763   -4.0309 O   0  0  0  0  0  0  0  0  0  0  0  0
    2.2206   -1.4393   -4.0226 O   0  0  0  0  0  0  0  0  0  0  0  0
    2.2756   -1.1341   -5.3997 C   0  0  0  0  0  0  0  0  0  0  0  0
   -4.5735   -0.4676    0.4192 N   0  0  0  0  0  0  0  0  0  0  0  0
   -4.2137    0.0405    1.6042 C   0  0  0  0  0  0  0  0  0  0  0  0
   -5.0976    1.1418    2.1541 C   0  0  0  0  0  0  0  0  0  0  0  0
   -3.2225   -0.3320    2.2332 O   0  0  0  0  0  0  0  0  0  0  0  0
   -2.7161   -1.1918   -0.1463 H   0  0  0  0  0  0  0  0  0  0  0  0
   -3.3281   -1.9343   -2.6265 N   0  0  0  0  0  0  0  0  0  0  0  0
   -3.4221   -1.8470   -4.0603 C   0  0  0  0  0  0  0  0  0  0  0  0
   -3.9882   -2.8459    1.2704 H   0  0  0  0  0  0  0  0  0  0  0  0
   -5.0269   -3.1846   -0.1255 H   0  0  0  0  0  0  0  0  0  0  0  0
    0.9715   -2.1967    0.5921 H   0  0  0  0  0  0  0  0  0  0  0  0
   -0.7226   -2.7159    0.3075 H   0  0  0  0  0  0  0  0  0  0  0  0
   -1.4751   -0.9276    1.5125 H   0  0  0  0  0  0  0  0  0  0  0  0
    1.9211   -0.0819    0.2718 H   0  0  0  0  0  0  0  0  0  0  0  0
    5.0591    2.7417    3.1107 H   0  0  0  0  0  0  0  0  0  0  0  0
    5.7585    1.2494    3.7945 H   0  0  0  0  0  0  0  0  0  0  0  0
    3.9962    1.5505    3.9272 H   0  0  0  0  0  0  0  0  0  0  0  0
    4.4880   -0.8788    1.0917 H   0  0  0  0  0  0  0  0  0  0  0  0
    3.5972   -0.7003    2.6407 H   0  0  0  0  0  0  0  0  0  0  0  0
    5.3813   -0.8809    2.6329 H   0  0  0  0  0  0  0  0  0  0  0  0
   -0.1947    3.0596    3.4566 H   0  0  0  0  0  0  0  0  0  0  0  0
   -1.4391    1.0337    2.7389 H   0  0  0  0  0  0  0  0  0  0  0  0
    2.0152   -0.0807   -5.5824 H   0  0  0  0  0  0  0  0  0  0  0  0
    1.5789   -1.7637   -5.9739 H   0  0  0  0  0  0  0  0  0  0  0  0
    3.3071   -1.3261   -5.7185 H   0  0  0  0  0  0  0  0  0  0  0  0
   -5.2866   -0.0211   -0.1550 H   0  0  0  0  0  0  0  0  0  0  0  0
   -5.3380    0.9086    3.2002 H   0  0  0  0  0  0  0  0  0  0  0  0
   -6.0266    1.2781    1.5844 H   0  0  0  0  0  0  0  0  0  0  0  0
   -4.5291    2.0836    2.1457 H   0  0  0  0  0  0  0  0  0  0  0  0
   -2.8382   -2.7363   -2.1818 H   0  0  0  0  0  0  0  0  0  0  0  0
   -4.0704   -0.9996   -4.3186 H   0  0  0  0  0  0  0  0  0  0  0  0
   -3.8551   -2.7655   -4.4902 H   0  0  0  0  0  0  0  0  0  0  0  0
   -2.4239   -1.6831   -4.4937 H   0  0  0  0  0  0  0  0  0  0  0  0
    2.0612   -1.9416   -1.6104 H   0  0  0  0  0  0  0  0  0  0  0  0
   -0.9094   -1.1084   -1.6448 H   0  0  0  0  0  0  0  0  0  0  0  0
  1  2  2  0  0  0  0
  2  3  1  0  0  0  0
  3 31  1  1  0  0  0
  3  4  1  0  0  0  0
  3 27  1  0  0  0  0
  4 34  1  0  0  0  0
  5  4  1  0  0  0  0
  6  7  1  0  0  0  0
  7 37  1  0  0  0  0
  7 36  1  0  0  0  0
  7  8  1  0  0  0  0
  8  9  1  0  0  0  0
  8 38  1  0  0  0  0
  9 21  1  0  0  0  0
 10 11  1  0  0  0  0
 10  9  2  0  0  0  0
 11 18  2  0  0  0  0
 12 11  1  0  0  0  0
 12 14  1  0  0  0  0
 13 12  2  0  0  0  0
 14 16  1  0  0  0  0
 14 15  1  0  0  0  0
 15 41  1  0  0  0  0
 15 42  1  0  0  0  0
 16 45  1  0  0  0  0
 16 44  1  0  0  0  0
 17 12  2  0  0  0  0
 18 20  1  0  0  0  0
 18 19  1  0  0  0  0
 20 46  1  0  0  0  0
 21 47  1  0  0  0  0
 21 20  2  0  0  0  0
 22 59  1  0  0  0  0
 22  6  2  0  0  0  0
 23 22  1  0  0  0  0
 24 23  2  0  0  0  0
 25 23  1  0  0  0  0
 26 25  1  0  0  0  0
 27 28  1  0  0  0  0
 28 29  1  0  0  0  0
 28 30  2  0  0  0  0
 29 52  1  0  0  0  0
 32 55  1  0  0  0  0
 32  2  1  0  0  0  0
 33 32  1  0  0  0  0
 35  4  1  0  0  0  0
 39 10  1  0  0  0  0
 40 15  1  0  0  0  0
 43 16  1  0  0  0  0
 48 26  1  0  0  0  0
 49 26  1  0  0  0  0
 50 26  1  0  0  0  0
 51 27  1  0  0  0  0
 53 29  1  0  0  0  0
 54 29  1  0  0  0  0
 56 33  1  0  0  0  0
 57 33  1  0  0  0  0
 58 33  1  0  0  0  0
 60  6  1  0  0  0  0
M  END
