54
-1 1
O        -0.908875   -2.308335   -0.652082
C        -0.982174   -2.684146    0.513736
C         0.187465   -3.297949    1.274222
C         0.694359   -2.357025    2.390520
S         1.149080   -0.682142    1.844027
C         3.463367   -0.987556    0.163875
C         3.309191   -0.257475   -0.951787
S         2.282444   -0.828482   -2.243392
O         2.203153   -2.292580   -2.219375
N         0.718394   -0.362690   -1.872589
C         0.350490    0.936742   -1.537364
C        -0.805400    1.127973   -0.766594
C        -1.228712    2.405119   -0.399494
S        -2.731986    2.467493    0.598501
O        -3.521320    1.287227    0.257292
N        -2.254519    2.277979    2.176499
C        -2.036174    0.918279    2.669599
C        -1.324015    3.275253    2.681692
O        -3.326301    3.788982    0.467756
C        -0.470241    3.524893   -0.778677
Cl        -0.848602    5.176010   -0.343062
C         0.664987    3.333290   -1.561382
C         1.069890    2.064612   -1.952690
O         2.684204   -0.140629   -3.469167
N         1.208926   -3.691381    0.337691
C         1.970985   -4.792349    0.550673
C         3.023842   -5.061898   -0.506414
O         1.843612   -5.510965    1.530647
H        -0.162439   -4.227344    1.757598
N        -2.137838   -2.603092    1.203594
C        -3.337143   -2.040544    0.622009
H        -0.090723   -2.303346    3.168784
H         1.545710   -2.874593    2.861062
H         0.195275   -1.120062   -1.401349
H        -1.383156    0.255719   -0.461618
H        -2.862404    0.277215    2.344631
H        -2.051968    0.967297    3.768596
H        -1.066440    0.487885    2.347551
H        -1.602349    4.269493    2.310898
H        -0.280413    3.050703    2.394366
H        -1.388642    3.282657    3.779194
H         1.237908    4.206147   -1.876961
H         1.941809    1.950372   -2.596873
H         1.308504   -3.165837   -0.528944
H         4.011780   -4.873664   -0.059487
H         2.913369   -4.432036   -1.398380
H         2.983884   -6.125625   -0.777973
H        -2.130218   -2.864470    2.179410
H        -3.278219   -0.947980    0.502574
H        -4.193111   -2.278874    1.267012
H        -3.507433   -2.478200   -0.371920
H         3.655447    0.768215   -1.079015
H         3.103413   -2.011930    0.235027
H         4.060390   -0.609733    0.993656
