-1 1
 OpenBabel05232414493D

 54 53  0  0  1  0  0  0  0  0999 V2000
   -0.6634    2.3420   -2.6916 O   0  0  0  0  0  0  0  0  0  0  0  0
   -0.6885    1.9196   -1.5418 C   0  0  0  0  0  0  0  0  0  0  0  0
    0.5168    1.2955   -0.8471 C   0  0  2  0  0  0  0  0  0  0  0  0
    1.1029    2.2330    0.2331 C   0  0  0  0  0  0  0  0  0  0  0  0
    1.5096    3.9184   -0.3174 S   0  0  0  0  0  1  0  0  0  0  0  0
    3.6210    3.5978   -1.7547 C   0  0  0  0  0  3  0  0  0  0  0  0
    3.5836    4.3311   -2.9034 C   0  0  0  0  0  3  0  0  0  0  0  0
    2.6325    3.7973   -4.2370 S   0  0  0  0  0  0  0  0  0  0  0  0
    2.5305    2.3303   -4.2466 O   0  0  0  0  0  0  0  0  0  0  0  0
    1.0295    4.2495   -3.9551 N   0  0  0  0  0  0  0  0  0  0  0  0
    0.6383    5.5393   -3.6285 C   0  0  0  0  0  0  0  0  0  0  0  0
   -0.5502    5.7186   -2.9040 C   0  0  0  0  0  0  0  0  0  0  0  0
   -1.0032    6.9899   -2.5537 C   0  0  0  0  0  0  0  0  0  0  0  0
   -2.5248    7.0279   -1.5879 S   0  0  0  0  0  0  0  0  0  0  0  0
   -3.2652    5.8101   -1.9051 O   0  0  0  0  0  0  0  0  0  0  0  0
   -2.0600    6.8944    0.0038 N   0  0  0  0  0  0  0  0  0  0  0  0
   -1.7111    5.5616    0.4911 C   0  0  0  0  0  0  0  0  0  0  0  0
   -1.2302    7.9729    0.5164 C   0  0  0  0  0  0  0  0  0  0  0  0
   -3.1675    8.3226   -1.7528 O   0  0  0  0  0  0  0  0  0  0  0  0
   -0.2478    8.1202   -2.9071 C   0  0  0  0  0  0  0  0  0  0  0  0
   -0.6794    9.7678   -2.5053 Cl  0  0  0  0  0  0  0  0  0  0  0  0
    0.9240    7.9414   -3.6375 C   0  0  0  0  0  0  0  0  0  0  0  0
    1.3644    6.6778   -4.0065 C   0  0  0  0  0  0  0  0  0  0  0  0
    3.0729    4.5015   -5.4415 O   0  0  0  0  0  0  0  0  0  0  0  0
    1.4801    0.8743   -1.8308 N   0  0  0  0  0  0  0  0  0  0  0  0
    2.1722   -0.2826   -1.6781 C   0  0  0  0  0  0  0  0  0  0  0  0
    3.1740   -0.5846   -2.7740 C   0  0  0  0  0  0  0  0  0  0  0  0
    2.0181   -1.0284   -0.7220 O   0  0  0  0  0  0  0  0  0  0  0  0
    0.1893    0.3735   -0.3358 H   0  0  0  0  0  0  0  0  0  0  0  0
   -1.8149    1.9696   -0.7996 N   0  0  0  0  0  0  0  0  0  0  0  0
   -3.0527    2.5069   -1.3210 C   0  0  0  0  0  0  0  0  0  0  0  0
    0.3819    2.2898    1.0683 H   0  0  0  0  0  0  0  0  0  0  0  0
    1.9916    1.7198    0.6354 H   0  0  0  0  0  0  0  0  0  0  0  0
    0.4951    3.4927   -3.5022 H   0  0  0  0  0  0  0  0  0  0  0  0
   -1.1289    4.8389   -2.6228 H   0  0  0  0  0  0  0  0  0  0  0  0
   -2.4699    4.8431    0.1650 H   0  0  0  0  0  0  0  0  0  0  0  0
   -1.7242    5.6014    1.5902 H   0  0  0  0  0  0  0  0  0  0  0  0
   -0.7108    5.2197    0.1615 H   0  0  0  0  0  0  0  0  0  0  0  0
   -1.5967    8.9370    0.1439 H   0  0  0  0  0  0  0  0  0  0  0  0
   -0.1676    7.8502    0.2355 H   0  0  0  0  0  0  0  0  0  0  0  0
   -1.3026    7.9713    1.6136 H   0  0  0  0  0  0  0  0  0  0  0  0
    1.4980    8.8215   -3.9307 H   0  0  0  0  0  0  0  0  0  0  0  0
    2.2675    6.5724   -4.6079 H   0  0  0  0  0  0  0  0  0  0  0  0
    1.6166    1.4368   -2.6707 H   0  0  0  0  0  0  0  0  0  0  0  0
    4.1793   -0.5792   -2.3273 H   0  0  0  0  0  0  0  0  0  0  0  0
    3.1432    0.1381   -3.5991 H   0  0  0  0  0  0  0  0  0  0  0  0
    2.9876   -1.6013   -3.1473 H   0  0  0  0  0  0  0  0  0  0  0  0
   -1.7912    1.5848    0.1337 H   0  0  0  0  0  0  0  0  0  0  0  0
   -2.9383    3.5496   -1.6503 H   0  0  0  0  0  0  0  0  0  0  0  0
   -3.8142    2.4764   -0.5312 H   0  0  0  0  0  0  0  0  0  0  0  0
   -3.4084    1.9172   -2.1806 H   0  0  0  0  0  0  0  0  0  0  0  0
    3.9166    5.3655   -2.9840 H   0  0  0  0  0  0  0  0  0  0  0  0
    3.3598    2.5413   -1.7575 H   0  0  0  0  0  0  0  0  0  0  0  0
    4.2268    3.9474   -0.9196 H   0  0  0  0  0  0  0  0  0  0  0  0
  1  2  2  0  0  0  0
  2  3  1  0  0  0  0
  2 30  1  0  0  0  0
  3 29  1  1  0  0  0
  3  4  1  0  0  0  0
  4 33  1  0  0  0  0
  4 32  1  0  0  0  0
  5  4  1  0  0  0  0
  6 54  1  0  0  0  0
  7  6  1  0  0  0  0
  8 10  1  0  0  0  0
  8  7  1  0  0  0  0
  9  8  2  0  0  0  0
 10 11  1  0  0  0  0
 10 34  1  0  0  0  0
 11 12  1  0  0  0  0
 12 35  1  0  0  0  0
 12 13  2  0  0  0  0
 13 14  1  0  0  0  0
 14 16  1  0  0  0  0
 15 14  2  0  0  0  0
 16 17  1  0  0  0  0
 16 18  1  0  0  0  0
 17 37  1  0  0  0  0
 18 41  1  0  0  0  0
 19 14  2  0  0  0  0
 20 13  1  0  0  0  0
 20 21  1  0  0  0  0
 22 20  2  0  0  0  0
 23 22  1  0  0  0  0
 23 11  2  0  0  0  0
 24  8  2  0  0  0  0
 25 26  1  0  0  0  0
 25  3  1  0  0  0  0
 26 28  2  0  0  0  0
 27 45  1  0  0  0  0
 27 26  1  0  0  0  0
 30 48  1  0  0  0  0
 31 30  1  0  0  0  0
 31 50  1  0  0  0  0
 36 17  1  0  0  0  0
 38 17  1  0  0  0  0
 39 18  1  0  0  0  0
 40 18  1  0  0  0  0
 42 22  1  0  0  0  0
 43 23  1  0  0  0  0
 44 25  1  0  0  0  0
 46 27  1  0  0  0  0
 47 27  1  0  0  0  0
 49 31  1  0  0  0  0
 51 31  1  0  0  0  0
 52  7  1  0  0  0  0
 53  6  1  0  0  0  0
M  END
