-1 1
 OpenBabel05232413493D

 54 53  0  0  1  0  0  0  0  0999 V2000
   -0.9089   -2.3083   -0.6521 O   0  0  0  0  0  0  0  0  0  0  0  0
   -0.9822   -2.6841    0.5137 C   0  0  0  0  0  0  0  0  0  0  0  0
    0.1875   -3.2979    1.2742 C   0  0  2  0  0  0  0  0  0  0  0  0
    0.6944   -2.3570    2.3905 C   0  0  0  0  0  0  0  0  0  0  0  0
    1.1491   -0.6821    1.8440 S   0  0  0  0  0  1  0  0  0  0  0  0
    3.4634   -0.9876    0.1639 C   0  0  0  0  0  0  0  0  0  0  0  0
    3.3092   -0.2575   -0.9518 C   0  0  0  0  0  0  0  0  0  0  0  0
    2.2824   -0.8285   -2.2434 S   0  0  0  0  0  0  0  0  0  0  0  0
    2.2032   -2.2926   -2.2194 O   0  0  0  0  0  0  0  0  0  0  0  0
    0.7184   -0.3627   -1.8726 N   0  0  0  0  0  0  0  0  0  0  0  0
    0.3505    0.9367   -1.5374 C   0  0  0  0  0  0  0  0  0  0  0  0
   -0.8054    1.1280   -0.7666 C   0  0  0  0  0  0  0  0  0  0  0  0
   -1.2287    2.4051   -0.3995 C   0  0  0  0  0  0  0  0  0  0  0  0
   -2.7320    2.4675    0.5985 S   0  0  0  0  0  0  0  0  0  0  0  0
   -3.5213    1.2872    0.2573 O   0  0  0  0  0  0  0  0  0  0  0  0
   -2.2545    2.2780    2.1765 N   0  0  0  0  0  0  0  0  0  0  0  0
   -2.0362    0.9183    2.6696 C   0  0  0  0  0  0  0  0  0  0  0  0
   -1.3240    3.2753    2.6817 C   0  0  0  0  0  0  0  0  0  0  0  0
   -3.3263    3.7890    0.4678 O   0  0  0  0  0  0  0  0  0  0  0  0
   -0.4702    3.5249   -0.7787 C   0  0  0  0  0  0  0  0  0  0  0  0
   -0.8486    5.1760   -0.3431 Cl  0  0  0  0  0  0  0  0  0  0  0  0
    0.6650    3.3333   -1.5614 C   0  0  0  0  0  0  0  0  0  0  0  0
    1.0699    2.0646   -1.9527 C   0  0  0  0  0  0  0  0  0  0  0  0
    2.6842   -0.1406   -3.4692 O   0  0  0  0  0  0  0  0  0  0  0  0
    1.2089   -3.6914    0.3377 N   0  0  0  0  0  0  0  0  0  0  0  0
    1.9710   -4.7923    0.5507 C   0  0  0  0  0  0  0  0  0  0  0  0
    3.0238   -5.0619   -0.5064 C   0  0  0  0  0  0  0  0  0  0  0  0
    1.8436   -5.5110    1.5306 O   0  0  0  0  0  0  0  0  0  0  0  0
   -0.1624   -4.2273    1.7576 H   0  0  0  0  0  0  0  0  0  0  0  0
   -2.1378   -2.6031    1.2036 N   0  0  0  0  0  0  0  0  0  0  0  0
   -3.3371   -2.0405    0.6220 C   0  0  0  0  0  0  0  0  0  0  0  0
   -0.0907   -2.3033    3.1688 H   0  0  0  0  0  0  0  0  0  0  0  0
    1.5457   -2.8746    2.8611 H   0  0  0  0  0  0  0  0  0  0  0  0
    0.1953   -1.1201   -1.4013 H   0  0  0  0  0  0  0  0  0  0  0  0
   -1.3832    0.2557   -0.4616 H   0  0  0  0  0  0  0  0  0  0  0  0
   -2.8624    0.2772    2.3446 H   0  0  0  0  0  0  0  0  0  0  0  0
   -2.0520    0.9673    3.7686 H   0  0  0  0  0  0  0  0  0  0  0  0
   -1.0664    0.4879    2.3476 H   0  0  0  0  0  0  0  0  0  0  0  0
   -1.6023    4.2695    2.3109 H   0  0  0  0  0  0  0  0  0  0  0  0
   -0.2804    3.0507    2.3944 H   0  0  0  0  0  0  0  0  0  0  0  0
   -1.3886    3.2827    3.7792 H   0  0  0  0  0  0  0  0  0  0  0  0
    1.2379    4.2061   -1.8770 H   0  0  0  0  0  0  0  0  0  0  0  0
    1.9418    1.9504   -2.5969 H   0  0  0  0  0  0  0  0  0  0  0  0
    1.3085   -3.1658   -0.5289 H   0  0  0  0  0  0  0  0  0  0  0  0
    4.0118   -4.8737   -0.0595 H   0  0  0  0  0  0  0  0  0  0  0  0
    2.9134   -4.4320   -1.3984 H   0  0  0  0  0  0  0  0  0  0  0  0
    2.9839   -6.1256   -0.7780 H   0  0  0  0  0  0  0  0  0  0  0  0
   -2.1302   -2.8645    2.1794 H   0  0  0  0  0  0  0  0  0  0  0  0
   -3.2782   -0.9480    0.5026 H   0  0  0  0  0  0  0  0  0  0  0  0
   -4.1931   -2.2789    1.2670 H   0  0  0  0  0  0  0  0  0  0  0  0
   -3.5074   -2.4782   -0.3719 H   0  0  0  0  0  0  0  0  0  0  0  0
    3.6554    0.7682   -1.0790 H   0  0  0  0  0  0  0  0  0  0  0  0
    3.1034   -2.0119    0.2350 H   0  0  0  0  0  0  0  0  0  0  0  0
    4.0604   -0.6097    0.9937 H   0  0  0  0  0  0  0  0  0  0  0  0
  1  2  2  0  0  0  0
  2 30  1  0  0  0  0
  2  3  1  0  0  0  0
  3 29  1  1  0  0  0
  3  4  1  0  0  0  0
  4 33  1  0  0  0  0
  4 32  1  0  0  0  0
  5  4  1  0  0  0  0
  6 53  1  0  0  0  0
  6 54  1  0  0  0  0
  7  6  2  0  0  0  0
  8  9  2  0  0  0  0
  8 10  1  0  0  0  0
  8  7  1  0  0  0  0
 10 11  1  0  0  0  0
 10 34  1  0  0  0  0
 11 12  1  0  0  0  0
 12 35  1  0  0  0  0
 12 13  2  0  0  0  0
 13 14  1  0  0  0  0
 14 16  1  0  0  0  0
 15 14  2  0  0  0  0
 16 17  1  0  0  0  0
 16 18  1  0  0  0  0
 17 37  1  0  0  0  0
 18 41  1  0  0  0  0
 19 14  2  0  0  0  0
 20 13  1  0  0  0  0
 20 21  1  0  0  0  0
 22 20  2  0  0  0  0
 23 22  1  0  0  0  0
 23 11  2  0  0  0  0
 24  8  2  0  0  0  0
 25 26  1  0  0  0  0
 25  3  1  0  0  0  0
 26 28  2  0  0  0  0
 27 45  1  0  0  0  0
 27 26  1  0  0  0  0
 30 48  1  0  0  0  0
 31 30  1  0  0  0  0
 31 50  1  0  0  0  0
 36 17  1  0  0  0  0
 38 17  1  0  0  0  0
 39 18  1  0  0  0  0
 40 18  1  0  0  0  0
 42 22  1  0  0  0  0
 43 23  1  0  0  0  0
 44 25  1  0  0  0  0
 46 27  1  0  0  0  0
 47 27  1  0  0  0  0
 49 31  1  0  0  0  0
 51 31  1  0  0  0  0
 52  7  1  0  0  0  0
M  END
