-1 1
 OpenBabel05192410563D

 54 54  0  0  1  0  0  0  0  0999 V2000
   -0.9890   -2.2160   -0.5246 O   0  0  0  0  0  0  0  0  0  0  0  0
   -0.9359   -2.6590    0.6098 C   0  0  0  0  0  0  0  0  0  0  0  0
    0.3270   -3.2764    1.2125 C   0  0  2  0  0  0  0  0  0  0  0  0
    1.0073   -2.3167    2.2129 C   0  0  0  0  0  0  0  0  0  0  0  0
    1.4612   -0.6818    1.5623 S   0  0  0  0  0  0  0  0  0  0  0  0
    3.1239   -1.0193    0.6895 C   0  0  0  0  0  0  0  0  0  0  0  0
    3.3414   -0.2885   -0.5678 C   0  0  0  0  0  3  0  0  0  0  0  0
    2.5289   -0.7458   -1.9342 S   0  0  0  0  0  0  0  0  0  0  0  0
    2.3464   -2.2196   -1.9878 O   0  0  0  0  0  0  0  0  0  0  0  0
    0.8253   -0.3128   -1.8886 N   0  0  0  0  0  0  0  0  0  0  0  0
    0.3959    0.9422   -1.5482 C   0  0  0  0  0  0  0  0  0  0  0  0
   -0.8379    1.1048   -0.8890 C   0  0  0  0  0  0  0  0  0  0  0  0
   -1.3183    2.3639   -0.5334 C   0  0  0  0  0  0  0  0  0  0  0  0
   -2.8433    2.3593    0.4155 S   0  0  0  0  0  0  0  0  0  0  0  0
   -3.5074    1.0843    0.1615 O   0  0  0  0  0  0  0  0  0  0  0  0
   -2.3629    2.3164    2.0185 N   0  0  0  0  0  0  0  0  0  0  0  0
   -1.7035    1.0943    2.4576 C   0  0  0  0  0  0  0  0  0  0  0  0
   -1.7863    3.5364    2.5589 C   0  0  0  0  0  0  0  0  0  0  0  0
   -3.5748    3.6019    0.2211 O   0  0  0  0  0  0  0  0  0  0  0  0
   -0.5588    3.5103   -0.8210 C   0  0  0  0  0  0  0  0  0  0  0  0
   -1.0578    5.1470   -0.4416 Cl  0  0  0  0  0  0  0  0  0  0  0  0
    0.6633    3.3530   -1.4718 C   0  0  0  0  0  0  0  0  0  0  0  0
    1.1434    2.1018   -1.8317 C   0  0  0  0  0  0  0  0  0  0  0  0
    3.0295   -0.0374   -3.1194 O   0  0  0  0  0  0  0  0  0  0  0  0
    1.2067   -3.7394    0.1776 N   0  0  0  0  0  0  0  0  0  0  0  0
    1.8186   -4.9475    0.2842 C   0  0  0  0  0  0  0  0  0  0  0  0
    2.7289   -5.3027   -0.8714 C   0  0  0  0  0  0  0  0  0  0  0  0
    1.6375   -5.7014    1.2304 O   0  0  0  0  0  0  0  0  0  0  0  0
    0.0444   -4.1768    1.7847 H   0  0  0  0  0  0  0  0  0  0  0  0
   -1.9996   -2.6169    1.4517 N   0  0  0  0  0  0  0  0  0  0  0  0
   -3.2944   -2.1225    1.0366 C   0  0  0  0  0  0  0  0  0  0  0  0
    0.3336   -2.1326    3.0644 H   0  0  0  0  0  0  0  0  0  0  0  0
    1.8994   -2.8217    2.6142 H   0  0  0  0  0  0  0  0  0  0  0  0
    0.2607   -1.0819   -1.5195 H   0  0  0  0  0  0  0  0  0  0  0  0
   -1.4263    0.2169   -0.6574 H   0  0  0  0  0  0  0  0  0  0  0  0
   -2.2211    0.2195    2.0501 H   0  0  0  0  0  0  0  0  0  0  0  0
   -1.7605    1.0511    3.5553 H   0  0  0  0  0  0  0  0  0  0  0  0
   -0.6420    1.0511    2.1538 H   0  0  0  0  0  0  0  0  0  0  0  0
   -2.3417    4.4065    2.1910 H   0  0  0  0  0  0  0  0  0  0  0  0
   -0.7185    3.6483    2.2929 H   0  0  0  0  0  0  0  0  0  0  0  0
   -1.8720    3.4999    3.6552 H   0  0  0  0  0  0  0  0  0  0  0  0
    1.2460    4.2442   -1.7104 H   0  0  0  0  0  0  0  0  0  0  0  0
    2.0895    2.0090   -2.3658 H   0  0  0  0  0  0  0  0  0  0  0  0
    1.4262   -3.1335   -0.6225 H   0  0  0  0  0  0  0  0  0  0  0  0
    3.6278   -5.7885   -0.4693 H   0  0  0  0  0  0  0  0  0  0  0  0
    2.9984   -4.4279   -1.4782 H   0  0  0  0  0  0  0  0  0  0  0  0
    2.2115   -6.0349   -1.5098 H   0  0  0  0  0  0  0  0  0  0  0  0
   -1.9311   -3.1263    2.3218 H   0  0  0  0  0  0  0  0  0  0  0  0
   -3.1814   -1.2060    0.4433 H   0  0  0  0  0  0  0  0  0  0  0  0
   -3.8928   -1.8807    1.9249 H   0  0  0  0  0  0  0  0  0  0  0  0
   -3.8417   -2.8621    0.4283 H   0  0  0  0  0  0  0  0  0  0  0  0
    3.6958    0.7418   -0.5852 H   0  0  0  0  0  0  0  0  0  0  0  0
    3.1371   -2.1081    0.5505 H   0  0  0  0  0  0  0  0  0  0  0  0
    3.8928   -0.7541    1.4273 H   0  0  0  0  0  0  0  0  0  0  0  0
  1  2  2  0  0  0  0
  2  3  1  0  0  0  0
  2 30  1  0  0  0  0
  3 29  1  1  0  0  0
  3  4  1  0  0  0  0
  4 33  1  0  0  0  0
  4 32  1  0  0  0  0
  5  4  1  0  0  0  0
  6 54  1  0  0  0  0
  6  5  1  0  0  0  0
  7  6  1  0  0  0  0
  8 10  1  0  0  0  0
  8  7  1  0  0  0  0
  9  8  2  0  0  0  0
 10 11  1  0  0  0  0
 10 34  1  0  0  0  0
 11 12  1  0  0  0  0
 12 35  1  0  0  0  0
 12 13  2  0  0  0  0
 13 14  1  0  0  0  0
 14 16  1  0  0  0  0
 15 14  2  0  0  0  0
 16 17  1  0  0  0  0
 16 18  1  0  0  0  0
 17 37  1  0  0  0  0
 18 41  1  0  0  0  0
 19 14  2  0  0  0  0
 20 13  1  0  0  0  0
 20 21  1  0  0  0  0
 22 20  2  0  0  0  0
 23 11  2  0  0  0  0
 23 22  1  0  0  0  0
 24  8  2  0  0  0  0
 25 26  1  0  0  0  0
 25  3  1  0  0  0  0
 26 28  2  0  0  0  0
 27 45  1  0  0  0  0
 27 26  1  0  0  0  0
 30 48  1  0  0  0  0
 31 30  1  0  0  0  0
 31 50  1  0  0  0  0
 36 17  1  0  0  0  0
 38 17  1  0  0  0  0
 39 18  1  0  0  0  0
 40 18  1  0  0  0  0
 42 22  1  0  0  0  0
 43 23  1  0  0  0  0
 44 25  1  0  0  0  0
 46 27  1  0  0  0  0
 47 27  1  0  0  0  0
 49 31  1  0  0  0  0
 51 31  1  0  0  0  0
 52  7  1  0  0  0  0
 53  6  1  0  0  0  0
M  END
