53
-1 1
O         0.535494    2.985845   -2.095958
C         1.396729    2.119636   -2.109861
C         1.747466    1.304359   -0.855609
C         3.116739    1.746130   -0.280430
S         4.567770    1.066846   -1.151546
C         4.993979   -0.713200    1.419397
C         3.854724   -0.540660    2.100977
C         2.668416   -1.366571    1.777617
N         1.469129   -0.780631    2.148961
C         0.188193   -1.190440    1.771681
C        -0.839956   -0.243328    1.769652
C        -2.137243   -0.572473    1.380341
S        -3.305963    0.806808    1.355158
O        -2.767672    1.803443    2.276128
N        -3.222179    1.453200   -0.163110
C        -3.707314    0.618762   -1.256883
C        -2.022125    2.224331   -0.499353
O        -4.651469    0.288484    1.554983
C        -2.419071   -1.883657    0.977349
Cl        -3.991660   -2.431855    0.453321
C        -1.399659   -2.832471    0.999358
C        -0.110518   -2.505680    1.394117
O         2.732015   -2.447656    1.220326
N         1.789450   -0.119918   -1.083610
C         0.727830   -0.861930   -1.461202
C         1.059775   -2.299714   -1.804867
O        -0.412713   -0.418485   -1.529538
H         0.950562    1.541726   -0.132629
N         2.147215    1.812089   -3.196493
C         2.067700    2.590526   -4.403223
H         3.135897    2.846882   -0.266715
H         3.144231    1.414516    0.773728
H         1.537519    0.181819    2.454333
H        -0.640776    0.786958    2.070836
H        -4.617110    0.089316   -0.951163
H        -2.935058   -0.098385   -1.587321
H        -3.953569    1.281990   -2.098667
H        -1.209109    1.568723   -0.844667
H        -1.707044    2.823157    0.361559
H        -2.275249    2.910594   -1.318617
H        -1.628394   -3.854534    0.694863
H         0.677250   -3.254120    1.388377
H         2.744851   -0.484820   -1.166489
H         1.741577   -2.730177   -1.057512
H         1.553284   -2.333760   -2.788877
H         0.129440   -2.878330   -1.849469
H         3.026463    1.324439   -2.981895
H         2.238887    1.953279   -5.284222
H         2.805473    3.412329   -4.420312
H         1.065368    3.033623   -4.468275
H         5.074355   -1.508859    0.677597
H         5.865741   -0.080854    1.586653
H         3.745895    0.273538    2.824459
