-1 1
 OpenBabel05192410563D

 53 53  0  0  1  0  0  0  0  0999 V2000
    2.1297    3.4729   -2.9098 O   0  0  0  0  0  0  0  0  0  0  0  0
    2.1870    2.2748   -2.6934 C   0  0  0  0  0  0  0  0  0  0  0  0
    1.7362    1.7027   -1.3413 C   0  0  2  0  0  0  0  0  0  0  0  0
    2.7434    2.0931   -0.2532 C   0  0  0  0  0  0  0  0  0  0  0  0
    4.4510    1.5236   -0.4770 S   0  0  0  0  0  0  0  0  0  0  0  0
    4.6607    0.1360    0.8406 C   0  0  0  0  0  0  0  0  0  0  0  0
    3.5734   -0.0303    1.8109 C   0  0  0  0  0  3  0  0  0  0  0  0
    2.5320   -0.8913    1.5061 C   0  0  0  0  0  0  0  0  0  0  0  0
    1.4317   -0.9182    2.4383 N   0  0  0  0  0  0  0  0  0  0  0  0
    0.1879   -1.3784    2.0433 C   0  0  0  0  0  0  0  0  0  0  0  0
   -0.9462   -0.5657    2.1588 C   0  0  0  0  0  0  0  0  0  0  0  0
   -2.2018   -0.9778    1.7021 C   0  0  0  0  0  0  0  0  0  0  0  0
   -3.4521    0.3173    1.6952 S   0  0  0  0  0  0  0  0  0  0  0  0
   -3.0926    1.2540    2.7550 O   0  0  0  0  0  0  0  0  0  0  0  0
   -3.2044    1.1159    0.2551 N   0  0  0  0  0  0  0  0  0  0  0  0
   -3.5402    0.3896   -0.9638 C   0  0  0  0  0  0  0  0  0  0  0  0
   -1.9996    1.9331    0.1706 C   0  0  0  0  0  0  0  0  0  0  0  0
   -4.7841   -0.2656    1.6609 O   0  0  0  0  0  0  0  0  0  0  0  0
   -2.3435   -2.2519    1.1383 C   0  0  0  0  0  0  0  0  0  0  0  0
   -3.8486   -2.8857    0.5135 Cl  0  0  0  0  0  0  0  0  0  0  0  0
   -1.2242   -3.0838    1.0608 C   0  0  0  0  0  0  0  0  0  0  0  0
    0.0222   -2.6613    1.4935 C   0  0  0  0  0  0  0  0  0  0  0  0
    2.4297   -1.6014    0.4705 O   0  0  0  0  0  0  0  0  0  0  0  0
    1.4625    0.2850   -1.3652 N   0  0  0  0  0  0  0  0  0  0  0  0
    0.3118   -0.1757   -1.9206 C   0  0  0  0  0  0  0  0  0  0  0  0
    0.1200   -1.6749   -1.8549 C   0  0  0  0  0  0  0  0  0  0  0  0
   -0.5056    0.5580   -2.4615 O   0  0  0  0  0  0  0  0  0  0  0  0
    0.7975    2.2424   -1.1325 H   0  0  0  0  0  0  0  0  0  0  0  0
    2.6720    1.3677   -3.5733 N   0  0  0  0  0  0  0  0  0  0  0  0
    3.2416    1.7401   -4.8377 C   0  0  0  0  0  0  0  0  0  0  0  0
    2.7643    3.1893   -0.1976 H   0  0  0  0  0  0  0  0  0  0  0  0
    2.4075    1.6960    0.7205 H   0  0  0  0  0  0  0  0  0  0  0  0
    1.3997   -0.0946    3.0261 H   0  0  0  0  0  0  0  0  0  0  0  0
   -0.8528    0.4357    2.5819 H   0  0  0  0  0  0  0  0  0  0  0  0
   -4.4374   -0.2174   -0.7968 H   0  0  0  0  0  0  0  0  0  0  0  0
   -2.7060   -0.2421   -1.3143 H   0  0  0  0  0  0  0  0  0  0  0  0
   -3.7487    1.1252   -1.7532 H   0  0  0  0  0  0  0  0  0  0  0  0
   -1.0824    1.3225    0.0938 H   0  0  0  0  0  0  0  0  0  0  0  0
   -1.9374    2.5953    1.0415 H   0  0  0  0  0  0  0  0  0  0  0  0
   -2.0658    2.5388   -0.7425 H   0  0  0  0  0  0  0  0  0  0  0  0
   -1.3439   -4.0810    0.6346 H   0  0  0  0  0  0  0  0  0  0  0  0
    0.8924   -3.3072    1.3964 H   0  0  0  0  0  0  0  0  0  0  0  0
    2.0073   -0.3703   -0.7763 H   0  0  0  0  0  0  0  0  0  0  0  0
    0.8663   -2.1610   -1.2138 H   0  0  0  0  0  0  0  0  0  0  0  0
    0.1719   -2.0753   -2.8787 H   0  0  0  0  0  0  0  0  0  0  0  0
   -0.8875   -1.8851   -1.4694 H   0  0  0  0  0  0  0  0  0  0  0  0
    2.7501    0.4158   -3.2386 H   0  0  0  0  0  0  0  0  0  0  0  0
    2.7872    1.1728   -5.6658 H   0  0  0  0  0  0  0  0  0  0  0  0
    4.3328    1.5806   -4.8572 H   0  0  0  0  0  0  0  0  0  0  0  0
    3.0435    2.8094   -4.9879 H   0  0  0  0  0  0  0  0  0  0  0  0
    4.7838   -0.7760    0.2429 H   0  0  0  0  0  0  0  0  0  0  0  0
    5.6178    0.4082    1.3057 H   0  0  0  0  0  0  0  0  0  0  0  0
    3.5509    0.5750    2.7213 H   0  0  0  0  0  0  0  0  0  0  0  0
  1  2  2  0  0  0  0
  2  3  1  0  0  0  0
  3 28  1  1  0  0  0
  3  4  1  0  0  0  0
  4 31  1  0  0  0  0
  4 32  1  0  0  0  0
  5  4  1  0  0  0  0
  5  6  1  0  0  0  0
  6 52  1  0  0  0  0
  6  7  1  0  0  0  0
  7 53  1  0  0  0  0
  8  7  1  0  0  0  0
  8  9  1  0  0  0  0
  9 33  1  0  0  0  0
 10 11  1  0  0  0  0
 10  9  1  0  0  0  0
 11 34  1  0  0  0  0
 12 11  2  0  0  0  0
 13 12  1  0  0  0  0
 13 14  2  0  0  0  0
 15 13  1  0  0  0  0
 16 35  1  0  0  0  0
 16 15  1  0  0  0  0
 17 15  1  0  0  0  0
 17 39  1  0  0  0  0
 18 13  2  0  0  0  0
 19 12  1  0  0  0  0
 20 19  1  0  0  0  0
 21 19  2  0  0  0  0
 21 22  1  0  0  0  0
 22 10  2  0  0  0  0
 23  8  2  0  0  0  0
 24  3  1  0  0  0  0
 24 43  1  0  0  0  0
 25 26  1  0  0  0  0
 25 24  1  0  0  0  0
 26 46  1  0  0  0  0
 26 44  1  0  0  0  0
 27 25  2  0  0  0  0
 29 47  1  0  0  0  0
 29  2  1  0  0  0  0
 30 29  1  0  0  0  0
 36 16  1  0  0  0  0
 37 16  1  0  0  0  0
 38 17  1  0  0  0  0
 40 17  1  0  0  0  0
 41 21  1  0  0  0  0
 42 22  1  0  0  0  0
 45 26  1  0  0  0  0
 48 30  1  0  0  0  0
 49 30  1  0  0  0  0
 50 30  1  0  0  0  0
 51  6  1  0  0  0  0
M  END
