-1 1
 OpenBabel05232413493D

 54 55  0  0  1  0  0  0  0  0999 V2000
   -0.7872    0.8252    3.3944 O   0  0  0  0  0  0  0  0  0  0  0  0
   -0.7201    0.4374    2.2392 C   0  0  0  0  0  0  0  0  0  0  0  0
   -1.0593   -1.0253    1.8692 C   0  0  2  0  0  0  0  0  0  0  0  0
   -1.7909   -1.2409    0.5408 C   0  0  0  0  0  0  0  0  0  0  0  0
   -3.3158   -0.2537    0.3370 S   0  0  0  0  0  1  0  0  0  0  0  0
   -5.5102    1.0738   -3.8350 C   0  0  0  0  0  0  0  0  0  0  0  0
   -4.5138    0.8021   -2.9922 C   0  0  0  0  0  0  0  0  0  0  0  0
   -3.0974    0.9966   -3.4164 C   0  0  0  0  0  0  0  0  0  0  0  0
   -2.1811    0.7485   -2.4317 N   0  0  0  0  0  0  0  0  0  0  0  0
   -0.8308    0.8318   -2.6344 C   0  0  0  0  0  0  0  0  0  0  0  0
   -0.1090    1.2779   -4.1661 S   0  0  0  0  0  0  0  0  0  0  0  0
    1.4509    1.0840   -3.4374 C   0  0  0  0  0  0  0  0  0  0  0  0
    1.3317    0.7096   -2.1272 C   0  0  0  0  0  0  0  0  0  0  0  0
    2.4322    0.4454   -1.1751 C   0  0  0  0  0  0  0  0  0  0  0  0
    3.7365    0.9725   -1.3975 C   0  0  0  0  0  0  0  0  0  0  0  0
    4.7500    0.7489   -0.5019 C   0  0  0  0  0  0  0  0  0  0  0  0
    2.2065   -0.3033   -0.0384 C   0  0  0  0  0  0  0  0  0  0  0  0
    3.2230   -0.5213    0.9279 C   0  0  0  0  0  0  0  0  0  0  0  0
    4.5259    0.0051    0.6904 C   0  0  0  0  0  0  0  0  0  0  0  0
    5.5447   -0.2139    1.6562 C   0  0  0  0  0  0  0  0  0  0  0  0
    5.2761   -0.9103    2.8103 C   0  0  0  0  0  0  0  0  0  0  0  0
    3.9754   -1.4153    3.0553 C   0  0  0  0  0  0  0  0  0  0  0  0
    2.9702   -1.2292    2.1374 C   0  0  0  0  0  0  0  0  0  0  0  0
    0.0344    0.5772   -1.6950 N   0  0  0  0  0  0  0  0  0  0  0  0
   -2.7704    1.3428   -4.5431 O   0  0  0  0  0  0  0  0  0  0  0  0
   -1.7670   -1.6230    2.9698 N   0  0  0  0  0  0  0  0  0  0  0  0
   -1.1033   -2.1598    4.0221 C   0  0  0  0  0  0  0  0  0  0  0  0
   -1.9503   -2.3736    5.2619 C   0  0  0  0  0  0  0  0  0  0  0  0
    0.0819   -2.4541    3.9974 O   0  0  0  0  0  0  0  0  0  0  0  0
   -0.0924   -1.5529    1.8194 H   0  0  0  0  0  0  0  0  0  0  0  0
   -0.2602    1.1976    1.2227 N   0  0  0  0  0  0  0  0  0  0  0  0
    0.1283    2.5682    1.4048 C   0  0  0  0  0  0  0  0  0  0  0  0
   -1.0892   -1.0278   -0.2813 H   0  0  0  0  0  0  0  0  0  0  0  0
   -2.0156   -2.3172    0.4772 H   0  0  0  0  0  0  0  0  0  0  0  0
   -2.5348    0.4636   -1.4578 H   0  0  0  0  0  0  0  0  0  0  0  0
    2.3600    1.2285   -4.0169 H   0  0  0  0  0  0  0  0  0  0  0  0
    3.9249    1.5813   -2.2847 H   0  0  0  0  0  0  0  0  0  0  0  0
    5.7452    1.1633   -0.6851 H   0  0  0  0  0  0  0  0  0  0  0  0
    1.2207   -0.7316    0.1341 H   0  0  0  0  0  0  0  0  0  0  0  0
    6.5445    0.1880    1.4693 H   0  0  0  0  0  0  0  0  0  0  0  0
    6.0654   -1.0681    3.5496 H   0  0  0  0  0  0  0  0  0  0  0  0
    3.7597   -1.9481    3.9837 H   0  0  0  0  0  0  0  0  0  0  0  0
    1.9680   -1.6068    2.3601 H   0  0  0  0  0  0  0  0  0  0  0  0
   -2.7101   -1.2732    3.1034 H   0  0  0  0  0  0  0  0  0  0  0  0
   -2.9831   -2.6602    5.0159 H   0  0  0  0  0  0  0  0  0  0  0  0
   -1.9788   -1.4256    5.8207 H   0  0  0  0  0  0  0  0  0  0  0  0
   -1.4850   -3.1429    5.8898 H   0  0  0  0  0  0  0  0  0  0  0  0
   -0.3643    0.8706    0.2625 H   0  0  0  0  0  0  0  0  0  0  0  0
    1.0008    2.7983    0.7730 H   0  0  0  0  0  0  0  0  0  0  0  0
    0.3932    2.7230    2.4589 H   0  0  0  0  0  0  0  0  0  0  0  0
   -0.6866    3.2678    1.1482 H   0  0  0  0  0  0  0  0  0  0  0  0
   -4.6777    0.4201   -1.9781 H   0  0  0  0  0  0  0  0  0  0  0  0
   -6.5535    0.9323   -3.5440 H   0  0  0  0  0  0  0  0  0  0  0  0
   -5.2931    1.4448   -4.8410 H   0  0  0  0  0  0  0  0  0  0  0  0
  2  1  2  0  0  0  0
  3 30  1  6  0  0  0
  3  2  1  0  0  0  0
  3 26  1  0  0  0  0
  4  3  1  0  0  0  0
  5  4  1  0  0  0  0
  6 53  1  0  0  0  0
  6  7  2  0  0  0  0
  7 52  1  0  0  0  0
  8  7  1  0  0  0  0
  8  9  1  0  0  0  0
  9 35  1  0  0  0  0
 10  9  1  0  0  0  0
 10 24  2  0  0  0  0
 11 12  1  0  0  0  0
 11 10  1  0  0  0  0
 12 13  2  0  0  0  0
 13 24  1  0  0  0  0
 13 14  1  0  0  0  0
 14 17  1  0  0  0  0
 15 14  2  0  0  0  0
 15 16  1  0  0  0  0
 16 19  2  0  0  0  0
 17 39  1  0  0  0  0
 17 18  2  0  0  0  0
 18 23  1  0  0  0  0
 19 18  1  0  0  0  0
 19 20  1  0  0  0  0
 20 21  2  0  0  0  0
 21 22  1  0  0  0  0
 21 41  1  0  0  0  0
 22 42  1  0  0  0  0
 23 43  1  0  0  0  0
 23 22  2  0  0  0  0
 25  8  2  0  0  0  0
 26 44  1  0  0  0  0
 26 27  1  0  0  0  0
 27 28  1  0  0  0  0
 28 46  1  0  0  0  0
 28 47  1  0  0  0  0
 29 27  2  0  0  0  0
 31 32  1  0  0  0  0
 31  2  1  0  0  0  0
 32 50  1  0  0  0  0
 33  4  1  0  0  0  0
 34  4  1  0  0  0  0
 36 12  1  0  0  0  0
 37 15  1  0  0  0  0
 38 16  1  0  0  0  0
 40 20  1  0  0  0  0
 45 28  1  0  0  0  0
 48 31  1  0  0  0  0
 49 32  1  0  0  0  0
 51 32  1  0  0  0  0
 54  6  1  0  0  0  0
M  END
