54
-1 1
O        -0.186968    3.902346    2.000426
C         0.515097    3.070823    1.465608
C         0.028143    1.662008    1.083636
C        -0.359947    1.534107   -0.419759
S        -2.092206    1.826777   -0.837473
C        -1.724589    4.082148   -1.812317
C        -0.443301    4.497422   -1.534001
C         0.653679    4.243410   -2.427416
N         1.915156    4.380219   -1.806254
C         3.108380    4.085694   -2.382555
S         3.269060    3.727843   -4.087481
C         4.976351    3.552666   -3.830247
C         5.292220    3.748563   -2.514249
C         6.639164    3.660110   -1.914369
C         7.787088    3.372944   -2.709245
C         9.035516    3.289796   -2.151297
C         6.810272    3.855246   -0.559187
C         8.090108    3.774992    0.049252
C         9.229615    3.487294   -0.755976
C        10.508205    3.408092   -0.142209
C        10.653025    3.604635    1.210399
C         9.521238    3.890272    2.013252
C         8.272572    3.973110    1.446292
N         4.222535    4.051259   -1.704287
O         0.613980    3.933290   -3.615243
N        -1.063643    1.272956    1.923663
C        -0.901606    1.062601    3.247810
C        -2.189977    0.902193    4.033125
O         0.194316    1.016967    3.785987
H         0.873674    0.981249    1.282386
N         1.824558    3.325689    1.133743
C         2.516349    4.497631    1.621166
H         0.258270    2.253438   -0.987337
H        -0.073004    0.528956   -0.760757
H         1.923191    4.381313   -0.790756
H         5.635937    3.299753   -4.656881
H         7.672372    3.216986   -3.783451
H         9.903043    3.068576   -2.778769
H         5.933848    4.075933    0.052393
H        11.378722    3.186552   -0.765729
H        11.641430    3.540380    1.671419
H         9.645256    4.043786    3.087732
H         7.397025    4.192173    2.062702
H        -1.980662    1.433147    1.498659
H        -3.010914    0.503466    3.420774
H        -2.489232    1.891555    4.411627
H        -2.005494    0.244921    4.892208
H         2.392647    2.539474    0.844391
H         2.922671    4.349848    2.636923
H         1.803822    5.331809    1.663853
H         3.339914    4.752146    0.936834
H        -0.214721    4.897003   -0.542331
H        -2.554878    4.438290   -1.205717
H        -1.960533    3.739591   -2.821079
