-1 1
 OpenBabel05232413493D

 61 62  0  0  1  0  0  0  0  0999 V2000
   -1.4552   -3.5297   -1.0178 O   0  0  0  0  0  0  0  0  0  0  0  0
   -0.3882   -2.9695   -0.8684 C   0  0  0  0  0  0  0  0  0  0  0  0
    0.6595   -3.3673    0.1723 C   0  0  2  0  0  0  0  0  0  0  0  0
    1.8529   -4.1076   -0.4782 C   0  0  0  0  0  0  0  0  0  0  0  0
    3.0040   -4.8120    0.7509 S   0  0  0  0  0  1  0  0  0  0  0  0
    3.3571   -1.5290    1.8291 C   0  0  0  0  0  0  0  0  0  0  0  0
    2.3126   -0.6994    1.7080 C   0  0  0  0  0  0  0  0  0  0  0  0
    2.1180    0.0503    0.4485 C   0  0  0  0  0  0  0  0  0  0  0  0
    0.8684    0.6217    0.2192 N   0  0  0  0  0  0  0  0  0  0  0  0
    0.6559    1.3883   -0.9158 C   0  0  0  0  0  0  0  0  0  0  0  0
    1.8293    1.5682   -2.2005 S   0  0  0  0  0  0  0  0  0  0  0  0
    0.6784    2.5390   -3.0509 C   0  0  0  0  0  0  0  0  0  0  0  0
   -0.4774    2.6649   -2.3309 C   0  0  0  0  0  0  0  0  0  0  0  0
   -1.6845    3.4290   -2.7140 C   0  0  0  0  0  0  0  0  0  0  0  0
   -2.7262    3.5877   -1.7899 C   0  0  0  0  0  0  0  0  0  0  0  0
   -3.8695    4.3080   -2.1263 C   0  0  0  0  0  0  0  0  0  0  0  0
   -3.9951    4.8818   -3.3909 C   0  0  0  0  0  0  0  0  0  0  0  0
   -2.9655    4.7262   -4.3192 C   0  0  0  0  0  0  0  0  0  0  0  0
   -1.8225    4.0056   -3.9845 C   0  0  0  0  0  0  0  0  0  0  0  0
   -0.4665    2.0085   -1.1262 N   0  0  0  0  0  0  0  0  0  0  0  0
   -0.3011    0.3130    1.0500 C   0  0  0  0  0  0  0  0  0  0  0  0
   -0.4025    1.1242    2.3198 C   0  0  0  0  0  0  0  0  0  0  0  0
   -0.9418    0.5239    3.4639 C   0  0  0  0  0  0  0  0  0  0  0  0
   -1.0824    1.2576    4.6413 C   0  0  0  0  0  0  0  0  0  0  0  0
   -0.6818    2.5926    4.6919 C   0  0  0  0  0  0  0  0  0  0  0  0
   -0.1383    3.1920    3.5557 C   0  0  0  0  0  0  0  0  0  0  0  0
   -0.0007    2.4622    2.3762 C   0  0  0  0  0  0  0  0  0  0  0  0
    2.9966    0.1683   -0.3940 O   0  0  0  0  0  0  0  0  0  0  0  0
    0.1013   -4.1850    1.2151 N   0  0  0  0  0  0  0  0  0  0  0  0
   -0.6518   -3.6665    2.1975 C   0  0  0  0  0  0  0  0  0  0  0  0
   -0.9792   -4.6049    3.3414 C   0  0  0  0  0  0  0  0  0  0  0  0
   -1.0709   -2.5107    2.1980 O   0  0  0  0  0  0  0  0  0  0  0  0
    1.0477   -2.4434    0.6229 H   0  0  0  0  0  0  0  0  0  0  0  0
    0.0089   -1.9098   -1.6398 N   0  0  0  0  0  0  0  0  0  0  0  0
   -0.7831   -1.3934   -2.7249 C   0  0  0  0  0  0  0  0  0  0  0  0
    1.4517   -4.8984   -1.1362 H   0  0  0  0  0  0  0  0  0  0  0  0
    2.3720   -3.3861   -1.1301 H   0  0  0  0  0  0  0  0  0  0  0  0
    0.9295    2.9787   -4.0136 H   0  0  0  0  0  0  0  0  0  0  0  0
   -2.6188    3.1341   -0.8035 H   0  0  0  0  0  0  0  0  0  0  0  0
   -4.6706    4.4204   -1.3920 H   0  0  0  0  0  0  0  0  0  0  0  0
   -4.8932    5.4452   -3.6545 H   0  0  0  0  0  0  0  0  0  0  0  0
   -3.0548    5.1656   -5.3156 H   0  0  0  0  0  0  0  0  0  0  0  0
   -1.0321    3.8836   -4.7281 H   0  0  0  0  0  0  0  0  0  0  0  0
   -0.3246   -0.7614    1.2800 H   0  0  0  0  0  0  0  0  0  0  0  0
   -1.1802    0.5115    0.4245 H   0  0  0  0  0  0  0  0  0  0  0  0
   -1.2356   -0.5295    3.4144 H   0  0  0  0  0  0  0  0  0  0  0  0
   -1.5009    0.7777    5.5295 H   0  0  0  0  0  0  0  0  0  0  0  0
   -0.7872    3.1644    5.6173 H   0  0  0  0  0  0  0  0  0  0  0  0
    0.1813    4.2366    3.5868 H   0  0  0  0  0  0  0  0  0  0  0  0
    0.4228    2.9359    1.4872 H   0  0  0  0  0  0  0  0  0  0  0  0
    0.7034   -4.9888    1.4281 H   0  0  0  0  0  0  0  0  0  0  0  0
   -2.0721   -4.7005    3.4121 H   0  0  0  0  0  0  0  0  0  0  0  0
   -0.6225   -4.1529    4.2778 H   0  0  0  0  0  0  0  0  0  0  0  0
   -0.5330   -5.6011    3.2238 H   0  0  0  0  0  0  0  0  0  0  0  0
    0.9500   -1.5567   -1.5201 H   0  0  0  0  0  0  0  0  0  0  0  0
   -1.7601   -1.8919   -2.6833 H   0  0  0  0  0  0  0  0  0  0  0  0
   -0.3250   -1.5992   -3.7071 H   0  0  0  0  0  0  0  0  0  0  0  0
   -0.9329   -0.3059   -2.6293 H   0  0  0  0  0  0  0  0  0  0  0  0
    1.5738   -0.6093    2.5049 H   0  0  0  0  0  0  0  0  0  0  0  0
    3.5083   -2.1256    2.7287 H   0  0  0  0  0  0  0  0  0  0  0  0
    4.0743   -1.6577    1.0163 H   0  0  0  0  0  0  0  0  0  0  0  0
  1  2  2  0  0  0  0
  2  3  1  0  0  0  0
  3 33  1  1  0  0  0
  3 29  1  0  0  0  0
  4  3  1  0  0  0  0
  4  5  1  0  0  0  0
  6 60  1  0  0  0  0
  7  6  2  0  0  0  0
  7 59  1  0  0  0  0
  8  7  1  0  0  0  0
  9  8  1  0  0  0  0
  9 21  1  0  0  0  0
 10  9  1  0  0  0  0
 11 10  1  0  0  0  0
 12 13  2  0  0  0  0
 12 11  1  0  0  0  0
 13 20  1  0  0  0  0
 14 13  1  0  0  0  0
 14 15  1  0  0  0  0
 15 39  1  0  0  0  0
 16 15  2  0  0  0  0
 16 40  1  0  0  0  0
 17 16  1  0  0  0  0
 18 19  1  0  0  0  0
 18 17  2  0  0  0  0
 19 14  2  0  0  0  0
 20 10  2  0  0  0  0
 21 44  1  0  0  0  0
 21 22  1  0  0  0  0
 22 27  2  0  0  0  0
 22 23  1  0  0  0  0
 23 24  2  0  0  0  0
 24 25  1  0  0  0  0
 24 47  1  0  0  0  0
 25 48  1  0  0  0  0
 26 49  1  0  0  0  0
 26 25  2  0  0  0  0
 27 26  1  0  0  0  0
 28  8  2  0  0  0  0
 29 51  1  0  0  0  0
 29 30  1  0  0  0  0
 30 32  2  0  0  0  0
 30 31  1  0  0  0  0
 31 52  1  0  0  0  0
 31 53  1  0  0  0  0
 34 55  1  0  0  0  0
 34  2  1  0  0  0  0
 35 56  1  0  0  0  0
 35 58  1  0  0  0  0
 35 34  1  0  0  0  0
 36  4  1  0  0  0  0
 37  4  1  0  0  0  0
 38 12  1  0  0  0  0
 41 17  1  0  0  0  0
 42 18  1  0  0  0  0
 43 19  1  0  0  0  0
 45 21  1  0  0  0  0
 46 23  1  0  0  0  0
 50 27  1  0  0  0  0
 54 31  1  0  0  0  0
 57 35  1  0  0  0  0
 61  6  1  0  0  0  0
M  END
