-1 1
 OpenBabel05232414493D

 61 62  0  0  1  0  0  0  0  0999 V2000
   -1.3206   -1.5652   -6.6527 O   0  0  0  0  0  0  0  0  0  0  0  0
   -0.3171   -0.9310   -6.3858 C   0  0  0  0  0  0  0  0  0  0  0  0
    0.5401   -1.1968   -5.1398 C   0  0  2  0  0  0  0  0  0  0  0  0
    1.9479   -1.7142   -5.4940 C   0  0  0  0  0  0  0  0  0  0  0  0
    2.9976   -2.0050   -4.0355 S   0  0  0  0  0  1  0  0  0  0  0  0
    3.2942    0.5956   -3.5582 C   0  0  0  0  0  0  0  0  0  0  0  0
    2.1762    1.3654   -3.7357 C   0  0  0  0  0  0  0  0  0  0  0  0
    1.9112    1.9712   -5.0163 C   0  0  0  0  0  0  0  0  0  0  0  0
    0.6848    2.6504   -5.1886 N   0  0  0  0  0  0  0  0  0  0  0  0
    0.4613    3.4030   -6.3221 C   0  0  0  0  0  0  0  0  0  0  0  0
    1.6038    3.5290   -7.6465 S   0  0  0  0  0  0  0  0  0  0  0  0
    0.4816    4.5740   -8.4526 C   0  0  0  0  0  0  0  0  0  0  0  0
   -0.6467    4.7451   -7.7010 C   0  0  0  0  0  0  0  0  0  0  0  0
   -1.8248    5.5703   -8.0460 C   0  0  0  0  0  0  0  0  0  0  0  0
   -2.8263    5.7838   -7.0888 C   0  0  0  0  0  0  0  0  0  0  0  0
   -3.9407    6.5636   -7.3880 C   0  0  0  0  0  0  0  0  0  0  0  0
   -4.0782    7.1443   -8.6483 C   0  0  0  0  0  0  0  0  0  0  0  0
   -3.0891    6.9347   -9.6096 C   0  0  0  0  0  0  0  0  0  0  0  0
   -1.9753    6.1546   -9.3118 C   0  0  0  0  0  0  0  0  0  0  0  0
   -0.6363    4.0804   -6.5001 N   0  0  0  0  0  0  0  0  0  0  0  0
   -0.4485    2.4428   -4.2858 C   0  0  0  0  0  0  0  0  0  0  0  0
   -0.4357    3.2879   -3.0342 C   0  0  0  0  0  0  0  0  0  0  0  0
   -0.8952    2.7311   -1.8354 C   0  0  0  0  0  0  0  0  0  0  0  0
   -0.9343    3.4987   -0.6718 C   0  0  0  0  0  0  0  0  0  0  0  0
   -0.5089    4.8267   -0.6911 C   0  0  0  0  0  0  0  0  0  0  0  0
   -0.0432    5.3833   -1.8827 C   0  0  0  0  0  0  0  0  0  0  0  0
   -0.0080    4.6188   -3.0474 C   0  0  0  0  0  0  0  0  0  0  0  0
    2.6801    1.9315   -5.9826 O   0  0  0  0  0  0  0  0  0  0  0  0
   -0.1271   -2.0859   -4.2267 N   0  0  0  0  0  0  0  0  0  0  0  0
   -0.8777   -1.6336   -3.2031 C   0  0  0  0  0  0  0  0  0  0  0  0
   -1.2607   -2.6780   -2.1734 C   0  0  0  0  0  0  0  0  0  0  0  0
   -1.2124   -0.4624   -3.0750 O   0  0  0  0  0  0  0  0  0  0  0  0
    0.6645   -0.2409   -4.6189 H   0  0  0  0  0  0  0  0  0  0  0  0
    0.1494    0.0882   -7.1619 N   0  0  0  0  0  0  0  0  0  0  0  0
   -0.5369    0.5423   -8.3433 C   0  0  0  0  0  0  0  0  0  0  0  0
    1.8478   -2.6403   -6.0884 H   0  0  0  0  0  0  0  0  0  0  0  0
    2.4261   -0.9716   -6.1505 H   0  0  0  0  0  0  0  0  0  0  0  0
    0.7240    5.0073   -9.4205 H   0  0  0  0  0  0  0  0  0  0  0  0
   -2.7092    5.3247   -6.1060 H   0  0  0  0  0  0  0  0  0  0  0  0
   -4.7098    6.7181   -6.6274 H   0  0  0  0  0  0  0  0  0  0  0  0
   -4.9535    7.7547   -8.8828 H   0  0  0  0  0  0  0  0  0  0  0  0
   -3.1878    7.3787  -10.6032 H   0  0  0  0  0  0  0  0  0  0  0  0
   -1.2171    5.9908  -10.0805 H   0  0  0  0  0  0  0  0  0  0  0  0
   -0.5178    1.3797   -4.0175 H   0  0  0  0  0  0  0  0  0  0  0  0
   -1.3503    2.6805   -4.8646 H   0  0  0  0  0  0  0  0  0  0  0  0
   -1.2081    1.6824   -1.8284 H   0  0  0  0  0  0  0  0  0  0  0  0
   -1.2904    3.0511    0.2595 H   0  0  0  0  0  0  0  0  0  0  0  0
   -0.5335    5.4260    0.2225 H   0  0  0  0  0  0  0  0  0  0  0  0
    0.2962    6.4220   -1.9059 H   0  0  0  0  0  0  0  0  0  0  0  0
    0.3551    5.0565   -3.9803 H   0  0  0  0  0  0  0  0  0  0  0  0
    0.2423   -3.0259   -4.1653 H   0  0  0  0  0  0  0  0  0  0  0  0
   -2.2052   -2.3825   -1.7006 H   0  0  0  0  0  0  0  0  0  0  0  0
   -0.4758   -2.7092   -1.4022 H   0  0  0  0  0  0  0  0  0  0  0  0
   -1.3593   -3.6823   -2.6087 H   0  0  0  0  0  0  0  0  0  0  0  0
    1.0161    0.5500   -6.9046 H   0  0  0  0  0  0  0  0  0  0  0  0
   -1.4202   -0.0944   -8.4798 H   0  0  0  0  0  0  0  0  0  0  0  0
    0.1027    0.4657   -9.2375 H   0  0  0  0  0  0  0  0  0  0  0  0
   -0.8645    1.5906   -8.2418 H   0  0  0  0  0  0  0  0  0  0  0  0
    1.4582    1.4769   -2.9245 H   0  0  0  0  0  0  0  0  0  0  0  0
    3.5775    0.2596   -2.5632 H   0  0  0  0  0  0  0  0  0  0  0  0
    4.0566    0.5542   -4.3356 H   0  0  0  0  0  0  0  0  0  0  0  0
  1  2  2  0  0  0  0
  2  3  1  0  0  0  0
  3 33  1  1  0  0  0
  3 29  1  0  0  0  0
  4  3  1  0  0  0  0
  4  5  1  0  0  0  0
  6 60  1  0  0  0  0
  7  6  2  0  0  0  0
  7 59  1  0  0  0  0
  8  7  1  0  0  0  0
  9  8  1  0  0  0  0
  9 21  1  0  0  0  0
 10  9  1  0  0  0  0
 11 10  1  0  0  0  0
 12 13  2  0  0  0  0
 12 11  1  0  0  0  0
 13 20  1  0  0  0  0
 14 13  1  0  0  0  0
 14 15  1  0  0  0  0
 15 39  1  0  0  0  0
 16 15  2  0  0  0  0
 16 40  1  0  0  0  0
 17 16  1  0  0  0  0
 18 19  1  0  0  0  0
 18 17  2  0  0  0  0
 19 14  2  0  0  0  0
 20 10  2  0  0  0  0
 21 44  1  0  0  0  0
 21 22  1  0  0  0  0
 22 23  1  0  0  0  0
 23 46  1  0  0  0  0
 23 24  2  0  0  0  0
 24 47  1  0  0  0  0
 25 24  1  0  0  0  0
 25 48  1  0  0  0  0
 26 25  2  0  0  0  0
 27 22  2  0  0  0  0
 27 26  1  0  0  0  0
 28  8  2  0  0  0  0
 29 51  1  0  0  0  0
 29 30  1  0  0  0  0
 30 32  2  0  0  0  0
 30 31  1  0  0  0  0
 31 52  1  0  0  0  0
 31 53  1  0  0  0  0
 34 55  1  0  0  0  0
 34  2  1  0  0  0  0
 35 58  1  0  0  0  0
 35 34  1  0  0  0  0
 36  4  1  0  0  0  0
 37  4  1  0  0  0  0
 38 12  1  0  0  0  0
 41 17  1  0  0  0  0
 42 18  1  0  0  0  0
 43 19  1  0  0  0  0
 45 21  1  0  0  0  0
 49 26  1  0  0  0  0
 50 27  1  0  0  0  0
 54 31  1  0  0  0  0
 56 35  1  0  0  0  0
 57 35  1  0  0  0  0
 61  6  1  0  0  0  0
M  END
