61
-1 1
O        -1.455157   -3.529735   -1.017848
C        -0.388206   -2.969450   -0.868448
C         0.659542   -3.367302    0.172268
C         1.852885   -4.107606   -0.478175
S         3.003994   -4.812009    0.750869
C         3.357130   -1.529005    1.829122
C         2.312572   -0.699390    1.707980
C         2.118002    0.050316    0.448517
N         0.868416    0.621650    0.219249
C         0.655879    1.388289   -0.915840
S         1.829270    1.568232   -2.200544
C         0.678400    2.539032   -3.050931
C        -0.477379    2.664916   -2.330907
C        -1.684484    3.428952   -2.714040
C        -2.726150    3.587720   -1.789901
C        -3.869514    4.307984   -2.126316
C        -3.995121    4.881810   -3.390864
C        -2.965483    4.726216   -4.319183
C        -1.822535    4.005619   -3.984458
N        -0.466473    2.008479   -1.126170
C        -0.301101    0.313047    1.049966
C        -0.402471    1.124193    2.319788
C        -0.941767    0.523890    3.463876
C        -1.082410    1.257625    4.641253
C        -0.681763    2.592606    4.691949
C        -0.138298    3.191994    3.555717
C        -0.000688    2.462194    2.376170
O         2.996551    0.168309   -0.393971
N         0.101278   -4.184998    1.215055
C        -0.651815   -3.666537    2.197463
C        -0.979235   -4.604908    3.341445
O        -1.070901   -2.510735    2.198040
H         1.047734   -2.443390    0.622947
N         0.008859   -1.909754   -1.639799
C        -0.783096   -1.393410   -2.724870
H         1.451740   -4.898386   -1.136167
H         2.371986   -3.386055   -1.130119
H         0.929454    2.978722   -4.013606
H        -2.618760    3.134148   -0.803499
H        -4.670648    4.420417   -1.392014
H        -4.893213    5.445236   -3.654540
H        -3.054843    5.165605   -5.315585
H        -1.032097    3.883600   -4.728072
H        -0.324649   -0.761425    1.280038
H        -1.180151    0.511486    0.424546
H        -1.235611   -0.529454    3.414433
H        -1.500913    0.777746    5.529481
H        -0.787198    3.164355    5.617339
H         0.181296    4.236624    3.586844
H         0.422776    2.935867    1.487212
H         0.703364   -4.988824    1.428148
H        -2.072114   -4.700527    3.412073
H        -0.622454   -4.152896    4.277813
H        -0.533004   -5.601098    3.223756
H         0.950038   -1.556694   -1.520079
H        -1.760092   -1.891915   -2.683290
H        -0.324979   -1.599209   -3.707096
H        -0.932904   -0.305885   -2.629338
H         1.573819   -0.609299    2.504911
H         3.508276   -2.125560    2.728693
H         4.074306   -1.657704    1.016251
