61
-1 1
O        -0.496647   -4.501144   -1.586559
C         0.167351   -3.536484   -1.219350
C         0.626092   -3.414005    0.241822
C         2.126065   -3.748559    0.332541
S         2.897806   -3.418841    1.940893
C         3.295147   -1.607288    1.723964
C         2.140121   -0.694851    1.548874
C         1.722096   -0.323469    0.297149
N         0.505454    0.455546    0.189087
C         0.236531    1.189348   -0.924577
S         1.248625    1.158640   -2.366281
C         0.171629    2.319593   -3.087517
C        -0.850948    2.621789   -2.235675
C        -1.959141    3.567848   -2.487904
C        -2.832219    3.906867   -1.443889
C        -3.878049    4.802729   -1.652129
C        -4.076705    5.378326   -2.906859
C        -3.216988    5.044915   -3.954177
C        -2.171943    4.148802   -3.747058
N        -0.797694    1.984166   -1.019701
C        -0.520081    0.374009    1.219093
C        -0.356184    1.315554    2.392300
C        -0.614852    0.847125    3.684817
C        -0.513204    1.700058    4.783615
C        -0.143871    3.032467    4.603927
C         0.122859    3.504063    3.317747
C         0.016465    2.652808    2.219610
O         2.259849   -0.627300   -0.819081
N        -0.187099   -4.281086    1.054692
C        -0.925268   -3.849417    2.108442
C        -1.761924   -4.926111    2.777792
O        -0.909489   -2.709861    2.538892
H         0.478848   -2.388177    0.597644
N         0.586352   -2.540463   -2.017546
C         0.297665   -2.510663   -3.427277
H         2.272575   -4.817171    0.109291
H         2.670866   -3.163529   -0.421839
H         0.363549    2.713105   -4.083529
H        -2.665942    3.449905   -0.467094
H        -4.545101    5.053848   -0.823520
H        -4.897987    6.080556   -3.069755
H        -3.364177    5.483695   -4.944408
H        -1.516215    3.890122   -4.581301
H        -0.554282   -0.659866    1.591516
H        -1.481386    0.593229    0.731721
H        -0.881209   -0.205420    3.820155
H        -0.712513    1.316802    5.787799
H        -0.057188    3.701154    5.464327
H         0.417045    4.546112    3.167557
H         0.217904    3.023508    1.212445
H        -0.449125   -5.148601    0.598511
H        -2.712563   -4.483595    3.101588
H        -1.226305   -5.272136    3.674481
H        -1.955716   -5.792451    2.129630
H         1.195193   -1.797557   -1.620058
H        -0.513435   -3.219422   -3.640317
H         1.175770   -2.795669   -4.032454
H        -0.009855   -1.497821   -3.727224
H         1.596858   -0.380505    2.437923
H         3.869118   -1.382514    2.636399
H         3.978191   -1.548563    0.864032
