57
-1 1
O         5.188127    0.926184    2.037992
C         4.117395    1.374050    2.404912
C         2.838280    1.144145    1.590269
C         2.642515    2.288891    0.575304
S         2.109040    3.877137    1.297637
C         0.258362    3.925994    0.873069
C        -0.464704    2.635967    0.860450
C        -0.628805    2.003715   -0.376972
N        -1.300474    0.723426   -0.430249
C        -1.594398    0.140240   -1.636175
S        -1.321085    0.913454   -3.182004
C        -2.030976   -0.477209   -3.943480
C        -2.374456   -1.416472   -3.013568
C        -2.955228   -2.749934   -3.276597
C        -3.064965   -3.679291   -2.231841
C        -3.599247   -4.945562   -2.456456
C        -4.038255   -5.312080   -3.728514
C        -3.938289   -4.394338   -4.774775
C        -3.405095   -3.128102   -4.550584
N        -2.121924   -1.051615   -1.712859
C        -1.315425   -0.175585    0.690424
C        -0.103356   -1.097345    0.682801
O        -0.245554   -2.072828    1.589394
C         0.854435   -2.964648    1.734150
O         0.862707   -0.973591   -0.017517
O        -0.231636    2.442691   -1.473522
N         1.652426    1.022268    2.403954
C         1.509453    0.093491    3.373823
C         0.161033    0.094734    4.073044
O         2.386149   -0.700784    3.681954
H         3.017932    0.216715    1.023246
N         3.964407    2.170015    3.494085
C         5.064406    2.567296    4.326871
H         3.593651    2.455788    0.052044
H         1.897824    1.995080   -0.177520
H        -2.107743   -0.538454   -5.027110
H        -2.717027   -3.381708   -1.241543
H        -3.671989   -5.654757   -1.627912
H        -4.457555   -6.305719   -3.904295
H        -4.282861   -4.665707   -5.775932
H        -3.345753   -2.418497   -5.378667
H        -2.220535   -0.796719    0.680247
H        -1.307841    0.386911    1.630138
H         0.499284   -3.782151    2.372570
H         1.700009   -2.452588    2.216350
H         1.165912   -3.352203    0.754284
H         0.838867    1.549359    2.060336
H        -0.419672    1.008800    3.884166
H         0.327594   -0.019355    5.152392
H        -0.412598   -0.776301    3.723815
H         3.051082    2.589499    3.625060
H         5.957559    2.038470    3.969313
H         4.890839    2.297370    5.381531
H         5.251533    3.652690    4.268261
H        -1.032367    2.333820    1.742570
H        -0.122949    4.624991    1.632077
H         0.210644    4.403339   -0.114079
