-1 1
 OpenBabel05192410563D

 57 58  0  0  1  0  0  0  0  0999 V2000
    5.1881    0.9262    2.0380 O   0  0  0  0  0  0  0  0  0  0  0  0
    4.1174    1.3740    2.4049 C   0  0  0  0  0  0  0  0  0  0  0  0
    2.8383    1.1441    1.5903 C   0  0  2  0  0  0  0  0  0  0  0  0
    2.6425    2.2889    0.5753 C   0  0  0  0  0  0  0  0  0  0  0  0
    2.1090    3.8771    1.2976 S   0  0  0  0  0  0  0  0  0  0  0  0
    0.2584    3.9260    0.8731 C   0  0  0  0  0  0  0  0  0  0  0  0
   -0.4647    2.6360    0.8605 C   0  0  0  0  0  3  0  0  0  0  0  0
   -0.6288    2.0037   -0.3770 C   0  0  0  0  0  0  0  0  0  0  0  0
   -1.3005    0.7234   -0.4302 N   0  0  0  0  0  0  0  0  0  0  0  0
   -1.5944    0.1402   -1.6362 C   0  0  0  0  0  0  0  0  0  0  0  0
   -1.3211    0.9135   -3.1820 S   0  0  0  0  0  0  0  0  0  0  0  0
   -2.0310   -0.4772   -3.9435 C   0  0  0  0  0  0  0  0  0  0  0  0
   -2.3745   -1.4165   -3.0136 C   0  0  0  0  0  0  0  0  0  0  0  0
   -2.9552   -2.7499   -3.2766 C   0  0  0  0  0  0  0  0  0  0  0  0
   -3.0650   -3.6793   -2.2318 C   0  0  0  0  0  0  0  0  0  0  0  0
   -3.5992   -4.9456   -2.4565 C   0  0  0  0  0  0  0  0  0  0  0  0
   -4.0383   -5.3121   -3.7285 C   0  0  0  0  0  0  0  0  0  0  0  0
   -3.9383   -4.3943   -4.7748 C   0  0  0  0  0  0  0  0  0  0  0  0
   -3.4051   -3.1281   -4.5506 C   0  0  0  0  0  0  0  0  0  0  0  0
   -2.1219   -1.0516   -1.7129 N   0  0  0  0  0  0  0  0  0  0  0  0
   -1.3154   -0.1756    0.6904 C   0  0  0  0  0  0  0  0  0  0  0  0
   -0.1034   -1.0973    0.6828 C   0  0  0  0  0  0  0  0  0  0  0  0
   -0.2456   -2.0728    1.5894 O   0  0  0  0  0  0  0  0  0  0  0  0
    0.8544   -2.9646    1.7342 C   0  0  0  0  0  0  0  0  0  0  0  0
    0.8627   -0.9736   -0.0175 O   0  0  0  0  0  0  0  0  0  0  0  0
   -0.2316    2.4427   -1.4735 O   0  0  0  0  0  0  0  0  0  0  0  0
    1.6524    1.0223    2.4040 N   0  0  0  0  0  0  0  0  0  0  0  0
    1.5095    0.0935    3.3738 C   0  0  0  0  0  0  0  0  0  0  0  0
    0.1610    0.0947    4.0730 C   0  0  0  0  0  0  0  0  0  0  0  0
    2.3861   -0.7008    3.6820 O   0  0  0  0  0  0  0  0  0  0  0  0
    3.0179    0.2167    1.0232 H   0  0  0  0  0  0  0  0  0  0  0  0
    3.9644    2.1700    3.4941 N   0  0  0  0  0  0  0  0  0  0  0  0
    5.0644    2.5673    4.3269 C   0  0  0  0  0  0  0  0  0  0  0  0
    3.5937    2.4558    0.0520 H   0  0  0  0  0  0  0  0  0  0  0  0
    1.8978    1.9951   -0.1775 H   0  0  0  0  0  0  0  0  0  0  0  0
   -2.1077   -0.5385   -5.0271 H   0  0  0  0  0  0  0  0  0  0  0  0
   -2.7170   -3.3817   -1.2415 H   0  0  0  0  0  0  0  0  0  0  0  0
   -3.6720   -5.6548   -1.6279 H   0  0  0  0  0  0  0  0  0  0  0  0
   -4.4576   -6.3057   -3.9043 H   0  0  0  0  0  0  0  0  0  0  0  0
   -4.2829   -4.6657   -5.7759 H   0  0  0  0  0  0  0  0  0  0  0  0
   -3.3458   -2.4185   -5.3787 H   0  0  0  0  0  0  0  0  0  0  0  0
   -2.2205   -0.7967    0.6802 H   0  0  0  0  0  0  0  0  0  0  0  0
   -1.3078    0.3869    1.6301 H   0  0  0  0  0  0  0  0  0  0  0  0
    0.4993   -3.7822    2.3726 H   0  0  0  0  0  0  0  0  0  0  0  0
    1.7000   -2.4526    2.2163 H   0  0  0  0  0  0  0  0  0  0  0  0
    1.1659   -3.3522    0.7543 H   0  0  0  0  0  0  0  0  0  0  0  0
    0.8389    1.5494    2.0603 H   0  0  0  0  0  0  0  0  0  0  0  0
   -0.4197    1.0088    3.8842 H   0  0  0  0  0  0  0  0  0  0  0  0
    0.3276   -0.0194    5.1524 H   0  0  0  0  0  0  0  0  0  0  0  0
   -0.4126   -0.7763    3.7238 H   0  0  0  0  0  0  0  0  0  0  0  0
    3.0511    2.5895    3.6251 H   0  0  0  0  0  0  0  0  0  0  0  0
    5.9576    2.0385    3.9693 H   0  0  0  0  0  0  0  0  0  0  0  0
    4.8908    2.2974    5.3815 H   0  0  0  0  0  0  0  0  0  0  0  0
    5.2515    3.6527    4.2683 H   0  0  0  0  0  0  0  0  0  0  0  0
   -1.0324    2.3338    1.7426 H   0  0  0  0  0  0  0  0  0  0  0  0
   -0.1229    4.6250    1.6321 H   0  0  0  0  0  0  0  0  0  0  0  0
    0.2106    4.4033   -0.1141 H   0  0  0  0  0  0  0  0  0  0  0  0
  1  2  2  0  0  0  0
  2 32  1  0  0  0  0
  3 31  1  6  0  0  0
  3 27  1  0  0  0  0
  3  2  1  0  0  0  0
  4  5  1  0  0  0  0
  4  3  1  0  0  0  0
  6  5  1  0  0  0  0
  6 56  1  0  0  0  0
  7  6  1  0  0  0  0
  7 55  1  0  0  0  0
  8  7  1  0  0  0  0
  9  8  1  0  0  0  0
  9 21  1  0  0  0  0
 10  9  1  0  0  0  0
 11 10  1  0  0  0  0
 12 11  1  0  0  0  0
 12 13  2  0  0  0  0
 13 20  1  0  0  0  0
 14 13  1  0  0  0  0
 14 15  1  0  0  0  0
 15 37  1  0  0  0  0
 16 15  2  0  0  0  0
 16 38  1  0  0  0  0
 17 16  1  0  0  0  0
 18 19  1  0  0  0  0
 18 17  2  0  0  0  0
 19 14  2  0  0  0  0
 20 10  2  0  0  0  0
 21 43  1  0  0  0  0
 22 21  1  0  0  0  0
 22 23  1  0  0  0  0
 23 24  1  0  0  0  0
 24 45  1  0  0  0  0
 24 44  1  0  0  0  0
 25 22  2  0  0  0  0
 26  8  2  0  0  0  0
 27 28  1  0  0  0  0
 28 30  2  0  0  0  0
 28 29  1  0  0  0  0
 29 49  1  0  0  0  0
 32 51  1  0  0  0  0
 32 33  1  0  0  0  0
 33 53  1  0  0  0  0
 34  4  1  0  0  0  0
 35  4  1  0  0  0  0
 36 12  1  0  0  0  0
 39 17  1  0  0  0  0
 40 18  1  0  0  0  0
 41 19  1  0  0  0  0
 42 21  1  0  0  0  0
 46 24  1  0  0  0  0
 47 27  1  0  0  0  0
 48 29  1  0  0  0  0
 50 29  1  0  0  0  0
 52 33  1  0  0  0  0
 54 33  1  0  0  0  0
 57  6  1  0  0  0  0
M  END
