57
-1 1
O         4.336553    0.478154    0.401394
C         3.562187    1.380473    0.665133
C         2.098275    1.353979    0.202431
C         1.835811    2.350279   -0.950495
S         1.683204    4.089117   -0.444719
C        -0.898583    4.069781   -0.482169
C        -1.373106    2.799631   -0.678475
C        -1.689082    2.349075   -2.015928
N        -2.163416    1.024414   -2.181460
C        -2.400280    0.517678   -3.444874
S        -2.260988    1.460057   -4.909415
C        -2.736901    0.052382   -5.799392
C        -2.959519   -1.001991   -4.959027
C        -3.361059   -2.371506   -5.345494
C        -3.330193   -3.400510   -4.393876
C        -3.695316   -4.699666   -4.737531
C        -4.100789   -4.998325   -6.037926
C        -4.139679   -3.981236   -6.992060
C        -3.775947   -2.682083   -6.648727
N        -2.762584   -0.718984   -3.629715
C        -2.240222    0.071216   -1.102291
C        -0.936930   -0.688089   -0.906543
O        -1.062629   -1.568860    0.082866
C         0.080185   -2.373463    0.374376
O         0.054567   -0.535194   -1.565629
O        -1.607165    3.051093   -3.018992
N         1.159165    1.654293    1.260568
C         0.848252    0.835140    2.281726
C        -0.172050    1.391395    3.261557
O         1.300699   -0.292470    2.419551
H         1.927135    0.333690   -0.166518
N         3.910705    2.499013    1.359407
C         5.277044    2.762287    1.721463
H         2.622205    2.231864   -1.709197
H         0.885504    2.041809   -1.421852
H        -2.798307    0.077614   -6.885234
H        -3.009003   -3.157086   -3.380197
H        -3.659989   -5.487570   -3.981126
H        -4.386784   -6.017848   -6.307230
H        -4.460627   -4.200299   -8.013460
H        -3.825600   -1.895667   -7.404907
H        -3.018784   -0.666863   -1.334749
H        -2.525583    0.562874   -0.165809
H        -0.280301   -3.180634    1.022753
H         0.834310   -1.776940    0.907468
H         0.503123   -2.784553   -0.552663
H         0.845151    2.626870    1.248811
H        -0.351541    2.469079    3.142422
H         0.170956    1.183539    4.283967
H        -1.120929    0.853798    3.114048
H         3.268673    3.289188    1.259687
H         5.822952    1.809832    1.708824
H         5.339667    3.200342    2.730337
H         5.771550    3.450422    1.013209
H        -1.425092    2.116888    0.167230
H        -0.839296    4.488826    0.520491
H        -0.893809    4.771653   -1.316085
