54
-1 1
O         1.428771   -1.260234   -0.994685
C         0.395528   -1.578979   -1.565793
C         0.147119   -1.293061   -3.065542
C         1.156373   -0.273791   -3.661978
S         0.540388    1.448481   -3.816759
C         4.901009   -0.077989    0.344573
C         3.660577    0.213841    0.738968
C         3.462011    1.164889    1.871810
N         2.169416    1.659222    2.057809
C         1.100849    1.431674    1.180687
S         1.068703    1.928616   -0.473100
C        -0.534762    1.340986   -0.581484
C        -0.949893    0.813852    0.613263
C        -2.240411    0.149357    0.875468
C        -2.668948   -0.084117    2.188484
C        -3.859773   -0.764943    2.432143
C        -4.637033   -1.226439    1.370285
C        -4.217935   -0.994410    0.059493
C        -3.032783   -0.308886   -0.185766
N        -0.001147    0.877807    1.604940
C         1.895439    2.429954    3.262649
C         1.358174    1.644189    4.471585
O         0.561428    0.616422    4.228449
O         1.631254    1.995076    5.588995
O         4.355483    1.494547    2.624563
N        -1.197167   -0.844898   -3.369526
C        -2.299311   -1.597372   -3.469013
C        -3.522255   -0.884788   -4.013287
O        -2.364947   -2.777170   -3.116211
H         0.293704   -2.276513   -3.550728
N        -0.588574   -2.273977   -0.956728
C        -0.501954   -2.663221    0.426789
H         2.050669   -0.305678   -3.025501
H         1.445559   -0.635275   -4.660561
H        -1.022025    1.380906   -1.553821
H        -2.055901    0.262551    3.022332
H        -4.177715   -0.941982    3.462293
H        -5.563918   -1.771860    1.562633
H        -4.806289   -1.370385   -0.780648
H        -2.688142   -0.164304   -1.210286
H         1.165056    3.218117    3.021733
H         2.829136    2.901718    3.587685
H         0.308751    0.557678    3.267349
H        -1.167102    0.146996   -3.687970
H        -4.269183   -0.799873   -3.209768
H        -3.963365   -1.503865   -4.806427
H        -3.298095    0.116076   -4.405721
H        -1.340295   -2.640096   -1.546505
H        -0.003812   -1.871774    1.003553
H         0.073908   -3.595162    0.566498
H        -1.514457   -2.805015    0.830022
H         2.799884   -0.253230    0.249472
H         5.764118    0.383835    0.832448
H         5.073275   -0.781542   -0.472694
