-1 1
 OpenBabel05192410563D

 71 73  0  0  1  0  0  0  0  0999 V2000
   -1.2319    3.6106    4.8177 O   0  0  0  0  0  0  0  0  0  0  0  0
   -0.7361    3.0536    3.8432 C   0  0  0  0  0  0  0  0  0  0  0  0
    0.7360    2.6265    3.8465 C   0  0  2  0  0  0  0  0  0  0  0  0
    0.8170    1.1412    4.2425 C   0  0  0  0  0  0  0  0  0  0  0  0
    2.4703    0.4187    4.1380 S   0  0  0  0  0  0  0  0  0  0  0  0
    2.6925    0.4524    2.2904 C   0  0  0  0  0  0  0  0  0  0  0  0
    1.6760   -0.3038    1.5153 C   0  0  0  0  0  3  0  0  0  0  0  0
    0.5930    0.3266    0.9455 C   0  0  0  0  0  0  0  0  0  0  0  0
   -0.4035   -0.4850    0.2708 N   0  0  0  0  0  0  0  0  0  0  0  0
   -1.1616    0.0373   -0.7401 C   0  0  0  0  0  0  0  0  0  0  0  0
   -1.2606    1.7481   -1.1149 S   0  0  0  0  0  0  0  0  0  0  0  0
   -2.3226    1.3446   -2.4324 C   0  0  0  0  0  0  0  0  0  0  0  0
   -2.5244   -0.0043   -2.4945 C   0  0  0  0  0  0  0  0  0  0  0  0
   -3.3100   -0.7467   -3.5033 C   0  0  0  0  0  0  0  0  0  0  0  0
   -3.2704   -2.1487   -3.5076 C   0  0  0  0  0  0  0  0  0  0  0  0
   -3.9736   -2.8762   -4.4645 C   0  0  0  0  0  0  0  0  0  0  0  0
   -4.7356   -2.2202   -5.4310 C   0  0  0  0  0  0  0  0  0  0  0  0
   -4.7889   -0.8257   -5.4296 C   0  0  0  0  0  0  0  0  0  0  0  0
   -4.0837   -0.0970   -4.4757 C   0  0  0  0  0  0  0  0  0  0  0  0
   -1.8672   -0.7263   -1.5278 N   0  0  0  0  0  0  0  0  0  0  0  0
   -0.5374   -1.9103    0.4717 C   0  0  0  0  0  0  0  0  0  0  0  0
    0.0579   -2.7895   -0.6341 C   0  0  0  0  0  0  0  0  0  0  0  0
    1.0726   -2.2146   -1.3194 N   0  0  0  0  0  0  0  0  0  0  0  0
    1.6650   -2.6110   -2.5955 C   0  0  0  0  0  0  0  0  0  0  0  0
    2.5067   -3.9004   -2.5532 C   0  0  0  0  0  0  0  0  0  0  0  0
    1.7151   -5.1951   -2.7439 C   0  0  0  0  0  0  0  0  0  0  0  0
    0.8454   -5.1301   -4.0005 C   0  0  0  0  0  0  0  0  0  0  0  0
   -0.1038   -3.9324   -3.9470 C   0  0  0  0  0  0  0  0  0  0  0  0
    0.6629   -2.6202   -3.7690 C   0  0  0  0  0  0  0  0  0  0  0  0
   -0.3814   -3.9131   -0.8167 O   0  0  0  0  0  0  0  0  0  0  0  0
    0.3595    1.5732    0.9010 O   0  0  0  0  0  0  0  0  0  0  0  0
    1.4572    3.4843    4.7482 N   0  0  0  0  0  0  0  0  0  0  0  0
    2.6516    4.0524    4.4449 C   0  0  0  0  0  0  0  0  0  0  0  0
    3.2307    4.9276    5.5445 C   0  0  0  0  0  0  0  0  0  0  0  0
    3.2499    3.8638    3.4024 O   0  0  0  0  0  0  0  0  0  0  0  0
    1.1479    2.7448    2.8346 H   0  0  0  0  0  0  0  0  0  0  0  0
   -1.3945    2.7125    2.7231 N   0  0  0  0  0  0  0  0  0  0  0  0
   -2.8014    2.9479    2.5415 C   0  0  0  0  0  0  0  0  0  0  0  0
    0.4810    1.0179    5.2838 H   0  0  0  0  0  0  0  0  0  0  0  0
    0.1459    0.5517    3.5994 H   0  0  0  0  0  0  0  0  0  0  0  0
   -2.7060    2.1190   -3.0934 H   0  0  0  0  0  0  0  0  0  0  0  0
   -2.6712   -2.6517   -2.7466 H   0  0  0  0  0  0  0  0  0  0  0  0
   -3.9215   -3.9677   -4.4534 H   0  0  0  0  0  0  0  0  0  0  0  0
   -5.2870   -2.7916   -6.1817 H   0  0  0  0  0  0  0  0  0  0  0  0
   -5.3860   -0.2998   -6.1789 H   0  0  0  0  0  0  0  0  0  0  0  0
   -4.1391    0.9939   -4.4869 H   0  0  0  0  0  0  0  0  0  0  0  0
   -1.6001   -2.1849    0.5083 H   0  0  0  0  0  0  0  0  0  0  0  0
   -0.0808   -2.1721    1.4351 H   0  0  0  0  0  0  0  0  0  0  0  0
    1.3221   -1.2851   -0.9981 H   0  0  0  0  0  0  0  0  0  0  0  0
    2.3716   -1.7917   -2.7968 H   0  0  0  0  0  0  0  0  0  0  0  0
    3.0763   -3.9210   -1.6111 H   0  0  0  0  0  0  0  0  0  0  0  0
    3.2485   -3.8227   -3.3691 H   0  0  0  0  0  0  0  0  0  0  0  0
    1.0659   -5.3526   -1.8713 H   0  0  0  0  0  0  0  0  0  0  0  0
    2.4160   -6.0445   -2.8051 H   0  0  0  0  0  0  0  0  0  0  0  0
    0.2717   -6.0645   -4.1133 H   0  0  0  0  0  0  0  0  0  0  0  0
    1.4928   -5.0496   -4.8952 H   0  0  0  0  0  0  0  0  0  0  0  0
   -0.7953   -4.0690   -3.1042 H   0  0  0  0  0  0  0  0  0  0  0  0
   -0.7102   -3.8745   -4.8658 H   0  0  0  0  0  0  0  0  0  0  0  0
   -0.0350   -1.7773   -3.6460 H   0  0  0  0  0  0  0  0  0  0  0  0
    1.2410   -2.4266   -4.6910 H   0  0  0  0  0  0  0  0  0  0  0  0
    0.9196    3.8050    5.5461 H   0  0  0  0  0  0  0  0  0  0  0  0
    3.7885    5.7519    5.0826 H   0  0  0  0  0  0  0  0  0  0  0  0
    3.9391    4.3236    6.1315 H   0  0  0  0  0  0  0  0  0  0  0  0
    2.4668    5.3294    6.2257 H   0  0  0  0  0  0  0  0  0  0  0  0
   -0.8405    2.2800    1.9613 H   0  0  0  0  0  0  0  0  0  0  0  0
   -3.2146    3.3441    3.4785 H   0  0  0  0  0  0  0  0  0  0  0  0
   -3.3267    2.0157    2.2796 H   0  0  0  0  0  0  0  0  0  0  0  0
   -2.9873    3.6775    1.7361 H   0  0  0  0  0  0  0  0  0  0  0  0
    1.7892   -1.3867    1.4610 H   0  0  0  0  0  0  0  0  0  0  0  0
    3.7024    0.0330    2.1671 H   0  0  0  0  0  0  0  0  0  0  0  0
    2.7362    1.5117    2.0000 H   0  0  0  0  0  0  0  0  0  0  0  0
  2  3  1  0  0  0  0
  2  1  2  0  0  0  0
  3 36  1  6  0  0  0
  3  4  1  0  0  0  0
  3 32  1  0  0  0  0
  4 39  1  0  0  0  0
  5  4  1  0  0  0  0
  6  5  1  0  0  0  0
  7  6  1  0  0  0  0
  8  7  1  0  0  0  0
  9 21  1  0  0  0  0
  9  8  1  0  0  0  0
 10  9  1  0  0  0  0
 11 10  1  0  0  0  0
 12 11  1  0  0  0  0
 13 12  2  0  0  0  0
 13 20  1  0  0  0  0
 14 13  1  0  0  0  0
 15 14  1  0  0  0  0
 15 42  1  0  0  0  0
 16 43  1  0  0  0  0
 16 15  2  0  0  0  0
 17 18  2  0  0  0  0
 17 16  1  0  0  0  0
 18 19  1  0  0  0  0
 19 14  2  0  0  0  0
 20 10  2  0  0  0  0
 21 47  1  0  0  0  0
 21 48  1  0  0  0  0
 22 21  1  0  0  0  0
 23 49  1  0  0  0  0
 23 22  1  0  0  0  0
 24 25  1  0  0  0  0
 24 23  1  0  0  0  0
 25 51  1  0  0  0  0
 26 25  1  0  0  0  0
 26 53  1  0  0  0  0
 27 28  1  0  0  0  0
 27 26  1  0  0  0  0
 28 29  1  0  0  0  0
 28 57  1  0  0  0  0
 29 59  1  0  0  0  0
 29 24  1  0  0  0  0
 30 22  2  0  0  0  0
 31  8  2  0  0  0  0
 32 61  1  0  0  0  0
 33 32  1  0  0  0  0
 33 34  1  0  0  0  0
 34 63  1  0  0  0  0
 34 64  1  0  0  0  0
 35 33  2  0  0  0  0
 37  2  1  0  0  0  0
 38 37  1  0  0  0  0
 38 66  1  0  0  0  0
 40  4  1  0  0  0  0
 41 12  1  0  0  0  0
 44 17  1  0  0  0  0
 45 18  1  0  0  0  0
 46 19  1  0  0  0  0
 50 24  1  0  0  0  0
 52 25  1  0  0  0  0
 54 26  1  0  0  0  0
 55 27  1  0  0  0  0
 56 27  1  0  0  0  0
 58 28  1  0  0  0  0
 60 29  1  0  0  0  0
 62 34  1  0  0  0  0
 65 37  1  0  0  0  0
 67 38  1  0  0  0  0
 68 38  1  0  0  0  0
 69  7  1  0  0  0  0
 70  6  1  0  0  0  0
 71  6  1  0  0  0  0
M  END
