-1 1
 OpenBabel05232414493D

 71 72  0  0  1  0  0  0  0  0999 V2000
   -4.8305    2.4479   -2.5579 O   0  0  0  0  0  0  0  0  0  0  0  0
   -4.5911    3.6140   -2.8418 C   0  0  0  0  0  0  0  0  0  0  0  0
   -3.2999    4.3226   -2.3764 C   0  0  2  0  0  0  0  0  0  0  0  0
   -2.4539    3.3737   -1.5195 C   0  0  0  0  0  0  0  0  0  0  0  0
   -0.9218    4.0873   -0.8789 S   0  0  0  0  0  1  0  0  0  0  0  0
    0.4356    3.1967   -2.8944 C   0  0  0  0  0  0  0  0  0  0  0  0
   -0.3871    2.4203   -3.6717 C   0  0  0  0  0  0  0  0  0  0  0  0
   -1.2273    3.0818   -4.6413 C   0  0  0  0  0  0  0  0  0  0  0  0
   -2.3675    2.4142   -5.1598 N   0  0  0  0  0  0  0  0  0  0  0  0
   -3.2613    3.1066   -5.9627 C   0  0  0  0  0  0  0  0  0  0  0  0
   -3.0930    4.7793   -6.4284 S   0  0  0  0  0  0  0  0  0  0  0  0
   -4.5899    4.6373   -7.2863 C   0  0  0  0  0  0  0  0  0  0  0  0
   -5.0968    3.3726   -7.1741 C   0  0  0  0  0  0  0  0  0  0  0  0
   -6.3452    2.8451   -7.7628 C   0  0  0  0  0  0  0  0  0  0  0  0
   -6.7133    1.5153   -7.5134 C   0  0  0  0  0  0  0  0  0  0  0  0
   -7.8786    0.9867   -8.0627 C   0  0  0  0  0  0  0  0  0  0  0  0
   -8.7010    1.7755   -8.8663 C   0  0  0  0  0  0  0  0  0  0  0  0
   -8.3462    3.1018   -9.1156 C   0  0  0  0  0  0  0  0  0  0  0  0
   -7.1797    3.6309   -8.5701 C   0  0  0  0  0  0  0  0  0  0  0  0
   -4.3285    2.5226   -6.4214 N   0  0  0  0  0  0  0  0  0  0  0  0
   -2.8270    1.0967   -4.7432 C   0  0  0  0  0  0  0  0  0  0  0  0
   -2.9048    0.0585   -5.8618 C   0  0  0  0  0  0  0  0  0  0  0  0
   -2.1133    0.3106   -6.9340 N   0  0  0  0  0  0  0  0  0  0  0  0
   -2.1673   -0.2844   -8.2700 C   0  0  0  0  0  0  0  0  0  0  0  0
   -1.7086   -1.7527   -8.3472 C   0  0  0  0  0  0  0  0  0  0  0  0
   -2.7988   -2.7895   -8.0711 C   0  0  0  0  0  0  0  0  0  0  0  0
   -4.0359   -2.5338   -8.9335 C   0  0  0  0  0  0  0  0  0  0  0  0
   -4.5759   -1.1211   -8.7084 C   0  0  0  0  0  0  0  0  0  0  0  0
   -3.5091   -0.0639   -8.9995 C   0  0  0  0  0  0  0  0  0  0  0  0
   -3.6085   -0.9254   -5.7180 O   0  0  0  0  0  0  0  0  0  0  0  0
   -1.0424    4.2358   -5.0238 O   0  0  0  0  0  0  0  0  0  0  0  0
   -3.5329    5.5520   -1.6218 N   0  0  0  0  0  0  0  0  0  0  0  0
   -3.8296    6.7439   -2.1809 C   0  0  0  0  0  0  0  0  0  0  0  0
   -3.5397    7.9502   -1.3100 C   0  0  0  0  0  0  0  0  0  0  0  0
   -4.2887    6.8814   -3.3116 O   0  0  0  0  0  0  0  0  0  0  0  0
   -2.7346    4.5961   -3.2844 H   0  0  0  0  0  0  0  0  0  0  0  0
   -5.3957    4.3447   -3.6415 N   0  0  0  0  0  0  0  0  0  0  0  0
   -6.6079    3.7909   -4.1861 C   0  0  0  0  0  0  0  0  0  0  0  0
   -3.0765    2.9861   -0.6992 H   0  0  0  0  0  0  0  0  0  0  0  0
   -2.2139    2.5006   -2.1478 H   0  0  0  0  0  0  0  0  0  0  0  0
   -5.0049    5.4905   -7.8185 H   0  0  0  0  0  0  0  0  0  0  0  0
   -6.0649    0.9060   -6.8815 H   0  0  0  0  0  0  0  0  0  0  0  0
   -8.1435   -0.0534   -7.8583 H   0  0  0  0  0  0  0  0  0  0  0  0
   -9.6157    1.3604   -9.2962 H   0  0  0  0  0  0  0  0  0  0  0  0
   -8.9833    3.7308   -9.7424 H   0  0  0  0  0  0  0  0  0  0  0  0
   -6.9153    4.6698   -8.7788 H   0  0  0  0  0  0  0  0  0  0  0  0
   -3.8295    1.1708   -4.2993 H   0  0  0  0  0  0  0  0  0  0  0  0
   -2.1664    0.7124   -3.9608 H   0  0  0  0  0  0  0  0  0  0  0  0
   -1.6507    1.2100   -6.8941 H   0  0  0  0  0  0  0  0  0  0  0  0
   -1.4137    0.2978   -8.8223 H   0  0  0  0  0  0  0  0  0  0  0  0
   -0.8513   -1.8925   -7.6703 H   0  0  0  0  0  0  0  0  0  0  0  0
   -1.3301   -1.9119   -9.3734 H   0  0  0  0  0  0  0  0  0  0  0  0
   -3.0873   -2.7359   -7.0123 H   0  0  0  0  0  0  0  0  0  0  0  0
   -2.3972   -3.7983   -8.2645 H   0  0  0  0  0  0  0  0  0  0  0  0
   -4.8157   -3.2790   -8.7072 H   0  0  0  0  0  0  0  0  0  0  0  0
   -3.7770   -2.6648  -10.0021 H   0  0  0  0  0  0  0  0  0  0  0  0
   -4.9048   -1.0319   -7.6639 H   0  0  0  0  0  0  0  0  0  0  0  0
   -5.4542   -0.9325   -9.3473 H   0  0  0  0  0  0  0  0  0  0  0  0
   -3.8849    0.9422   -8.7562 H   0  0  0  0  0  0  0  0  0  0  0  0
   -3.2952   -0.0733  -10.0838 H   0  0  0  0  0  0  0  0  0  0  0  0
   -2.9296    5.5854   -0.7976 H   0  0  0  0  0  0  0  0  0  0  0  0
   -4.2097    8.7694   -1.5979 H   0  0  0  0  0  0  0  0  0  0  0  0
   -2.5007    8.2664   -1.4901 H   0  0  0  0  0  0  0  0  0  0  0  0
   -3.6490    7.7296   -0.2391 H   0  0  0  0  0  0  0  0  0  0  0  0
   -5.1315    5.3198   -3.8074 H   0  0  0  0  0  0  0  0  0  0  0  0
   -6.4187    2.7855   -4.5901 H   0  0  0  0  0  0  0  0  0  0  0  0
   -6.9632    4.4328   -5.0029 H   0  0  0  0  0  0  0  0  0  0  0  0
   -7.4047    3.7038   -3.4266 H   0  0  0  0  0  0  0  0  0  0  0  0
   -0.5023    1.3618   -3.4464 H   0  0  0  0  0  0  0  0  0  0  0  0
    1.1352    2.7345   -2.1997 H   0  0  0  0  0  0  0  0  0  0  0  0
    0.6213    4.2306   -3.1800 H   0  0  0  0  0  0  0  0  0  0  0  0
  2  1  2  0  0  0  0
  2  3  1  0  0  0  0
  3 36  1  6  0  0  0
  3 32  1  0  0  0  0
  3  4  1  0  0  0  0
  4  5  1  0  0  0  0
  4 39  1  0  0  0  0
  6 70  1  0  0  0  0
  7 69  1  0  0  0  0
  7  6  2  0  0  0  0
  8  7  1  0  0  0  0
  9 21  1  0  0  0  0
  9  8  1  0  0  0  0
 10  9  1  0  0  0  0
 11 10  1  0  0  0  0
 12 13  2  0  0  0  0
 12 11  1  0  0  0  0
 13 20  1  0  0  0  0
 14 15  1  0  0  0  0
 14 13  1  0  0  0  0
 15 42  1  0  0  0  0
 16 43  1  0  0  0  0
 16 15  2  0  0  0  0
 17 16  1  0  0  0  0
 18 17  2  0  0  0  0
 18 19  1  0  0  0  0
 19 14  2  0  0  0  0
 20 10  2  0  0  0  0
 21 47  1  0  0  0  0
 21 48  1  0  0  0  0
 22 30  2  0  0  0  0
 22 21  1  0  0  0  0
 23 49  1  0  0  0  0
 23 22  1  0  0  0  0
 24 23  1  0  0  0  0
 25 24  1  0  0  0  0
 25 26  1  0  0  0  0
 25 51  1  0  0  0  0
 26 53  1  0  0  0  0
 27 28  1  0  0  0  0
 27 55  1  0  0  0  0
 27 26  1  0  0  0  0
 28 57  1  0  0  0  0
 29 59  1  0  0  0  0
 29 28  1  0  0  0  0
 29 24  1  0  0  0  0
 31  8  2  0  0  0  0
 32 61  1  0  0  0  0
 33 32  1  0  0  0  0
 33 34  1  0  0  0  0
 34 64  1  0  0  0  0
 35 33  2  0  0  0  0
 37  2  1  0  0  0  0
 38 37  1  0  0  0  0
 38 68  1  0  0  0  0
 40  4  1  0  0  0  0
 41 12  1  0  0  0  0
 44 17  1  0  0  0  0
 45 18  1  0  0  0  0
 46 19  1  0  0  0  0
 50 24  1  0  0  0  0
 52 25  1  0  0  0  0
 54 26  1  0  0  0  0
 56 27  1  0  0  0  0
 58 28  1  0  0  0  0
 60 29  1  0  0  0  0
 62 34  1  0  0  0  0
 63 34  1  0  0  0  0
 65 37  1  0  0  0  0
 66 38  1  0  0  0  0
 67 38  1  0  0  0  0
 71  6  1  0  0  0  0
M  END
