63
-1 1
O        -2.984257    0.255518   -1.471315
C        -1.763113    0.342065   -1.600837
C        -1.041254   -0.382299   -2.751127
C        -0.029311    0.486932   -3.524056
S         1.548793    0.823489   -2.650198
C         1.634123   -2.784826   -2.691094
C         1.808574   -2.942925   -1.378158
C         2.645382   -1.994715   -0.590388
N         2.077321   -1.408195    0.557676
C         0.748257   -1.428786    0.955940
S        -0.564434   -2.308555    0.201986
C        -1.640500   -1.661812    1.384818
C        -0.962651   -0.853838    2.252232
C        -1.521469   -0.061128    3.366912
C        -0.672667    0.776738    4.105229
C        -1.180044    1.557700    5.140875
C        -2.536946    1.514635    5.458932
C        -3.386946    0.682642    4.729660
C        -2.883815   -0.097572    3.692565
N         0.380185   -0.749495    1.997399
C         2.969638   -0.681645    1.450602
C         2.768880    0.822867    1.595496
N         2.309767    1.522343    0.537376
C         2.304877    2.959014    0.640363
C         1.476355    3.742136   -0.387439
O         0.694732    4.356065    0.643650
C         1.347912    3.594536    1.660825
O         3.101522    1.362316    2.642012
O         3.800401   -1.771560   -0.869700
N        -2.095083   -0.910622   -3.593161
C        -1.950618   -1.980844   -4.400713
C        -3.224407   -2.442597   -5.093197
O        -0.889949   -2.552960   -4.600269
H        -0.475541   -1.223122   -2.318688
N        -0.964248    1.035934   -0.780465
C        -1.446615    1.830130    0.320498
H         0.200420   -0.066773   -4.445838
H        -0.522459    1.428152   -3.822373
H        -2.704805   -1.874122    1.326517
H         0.387825    0.813554    3.845715
H        -0.505535    2.209923    5.700410
H        -2.933337    2.131006    6.269307
H        -4.452929    0.644428    4.966499
H        -3.563977   -0.737010    3.126054
H         3.984618   -0.840871    1.065525
H         2.892681   -1.087837    2.467089
H         2.072298    1.082368   -0.363824
H         3.335455    3.332471    0.752486
H         0.887934    3.119593   -1.079138
H         2.040052    4.480038   -0.981579
H         0.674421    2.874009    2.153966
H         1.819589    4.228815    2.429223
H        -3.021711   -0.603689   -3.306059
H        -4.116673   -1.869015   -4.806702
H        -3.382682   -3.505397   -4.861670
H        -3.078250   -2.362402   -6.179969
H         0.025940    1.085820   -1.071597
H        -1.353230    2.908980    0.118736
H        -0.863510    1.609968    1.224978
H        -2.498776    1.579589    0.505500
H         2.038016   -1.898103   -3.190776
H         1.022140   -3.470212   -3.279728
H         1.374682   -3.793442   -0.841534
