-1 1
 OpenBabel05232413493D

 63 64  0  0  1  0  0  0  0  0999 V2000
   -2.9843    0.2555   -1.4713 O   0  0  0  0  0  0  0  0  0  0  0  0
   -1.7631    0.3421   -1.6008 C   0  0  0  0  0  0  0  0  0  0  0  0
   -1.0413   -0.3823   -2.7511 C   0  0  2  0  0  0  0  0  0  0  0  0
   -0.0293    0.4869   -3.5241 C   0  0  0  0  0  0  0  0  0  0  0  0
    1.5488    0.8235   -2.6502 S   0  0  0  0  0  1  0  0  0  0  0  0
    1.6341   -2.7848   -2.6911 C   0  0  0  0  0  0  0  0  0  0  0  0
    1.8086   -2.9429   -1.3782 C   0  0  0  0  0  0  0  0  0  0  0  0
    2.6454   -1.9947   -0.5904 C   0  0  0  0  0  0  0  0  0  0  0  0
    2.0773   -1.4082    0.5577 N   0  0  0  0  0  0  0  0  0  0  0  0
    0.7483   -1.4288    0.9559 C   0  0  0  0  0  0  0  0  0  0  0  0
   -0.5644   -2.3086    0.2020 S   0  0  0  0  0  0  0  0  0  0  0  0
   -1.6405   -1.6618    1.3848 C   0  0  0  0  0  0  0  0  0  0  0  0
   -0.9627   -0.8538    2.2522 C   0  0  0  0  0  0  0  0  0  0  0  0
   -1.5215   -0.0611    3.3669 C   0  0  0  0  0  0  0  0  0  0  0  0
   -0.6727    0.7767    4.1052 C   0  0  0  0  0  0  0  0  0  0  0  0
   -1.1800    1.5577    5.1409 C   0  0  0  0  0  0  0  0  0  0  0  0
   -2.5369    1.5146    5.4589 C   0  0  0  0  0  0  0  0  0  0  0  0
   -3.3869    0.6826    4.7297 C   0  0  0  0  0  0  0  0  0  0  0  0
   -2.8838   -0.0976    3.6926 C   0  0  0  0  0  0  0  0  0  0  0  0
    0.3802   -0.7495    1.9974 N   0  0  0  0  0  0  0  0  0  0  0  0
    2.9696   -0.6816    1.4506 C   0  0  0  0  0  0  0  0  0  0  0  0
    2.7689    0.8229    1.5955 C   0  0  0  0  0  0  0  0  0  0  0  0
    2.3098    1.5223    0.5374 N   0  0  0  0  0  0  0  0  0  0  0  0
    2.3049    2.9590    0.6404 C   0  0  0  0  0  0  0  0  0  0  0  0
    1.4764    3.7421   -0.3874 C   0  0  0  0  0  0  0  0  0  0  0  0
    0.6947    4.3561    0.6437 O   0  0  0  0  0  0  0  0  0  0  0  0
    1.3479    3.5945    1.6608 C   0  0  0  0  0  0  0  0  0  0  0  0
    3.1015    1.3623    2.6420 O   0  0  0  0  0  0  0  0  0  0  0  0
    3.8004   -1.7716   -0.8697 O   0  0  0  0  0  0  0  0  0  0  0  0
   -2.0951   -0.9106   -3.5932 N   0  0  0  0  0  0  0  0  0  0  0  0
   -1.9506   -1.9808   -4.4007 C   0  0  0  0  0  0  0  0  0  0  0  0
   -3.2244   -2.4426   -5.0932 C   0  0  0  0  0  0  0  0  0  0  0  0
   -0.8899   -2.5530   -4.6003 O   0  0  0  0  0  0  0  0  0  0  0  0
   -0.4755   -1.2231   -2.3187 H   0  0  0  0  0  0  0  0  0  0  0  0
   -0.9642    1.0359   -0.7805 N   0  0  0  0  0  0  0  0  0  0  0  0
   -1.4466    1.8301    0.3205 C   0  0  0  0  0  0  0  0  0  0  0  0
    0.2004   -0.0668   -4.4458 H   0  0  0  0  0  0  0  0  0  0  0  0
   -0.5225    1.4282   -3.8224 H   0  0  0  0  0  0  0  0  0  0  0  0
   -2.7048   -1.8741    1.3265 H   0  0  0  0  0  0  0  0  0  0  0  0
    0.3878    0.8136    3.8457 H   0  0  0  0  0  0  0  0  0  0  0  0
   -0.5055    2.2099    5.7004 H   0  0  0  0  0  0  0  0  0  0  0  0
   -2.9333    2.1310    6.2693 H   0  0  0  0  0  0  0  0  0  0  0  0
   -4.4529    0.6444    4.9665 H   0  0  0  0  0  0  0  0  0  0  0  0
   -3.5640   -0.7370    3.1261 H   0  0  0  0  0  0  0  0  0  0  0  0
    3.9846   -0.8409    1.0655 H   0  0  0  0  0  0  0  0  0  0  0  0
    2.8927   -1.0878    2.4671 H   0  0  0  0  0  0  0  0  0  0  0  0
    2.0723    1.0824   -0.3638 H   0  0  0  0  0  0  0  0  0  0  0  0
    3.3355    3.3325    0.7525 H   0  0  0  0  0  0  0  0  0  0  0  0
    0.8879    3.1196   -1.0791 H   0  0  0  0  0  0  0  0  0  0  0  0
    2.0401    4.4800   -0.9816 H   0  0  0  0  0  0  0  0  0  0  0  0
    0.6744    2.8740    2.1540 H   0  0  0  0  0  0  0  0  0  0  0  0
    1.8196    4.2288    2.4292 H   0  0  0  0  0  0  0  0  0  0  0  0
   -3.0217   -0.6037   -3.3061 H   0  0  0  0  0  0  0  0  0  0  0  0
   -4.1167   -1.8690   -4.8067 H   0  0  0  0  0  0  0  0  0  0  0  0
   -3.3827   -3.5054   -4.8617 H   0  0  0  0  0  0  0  0  0  0  0  0
   -3.0783   -2.3624   -6.1800 H   0  0  0  0  0  0  0  0  0  0  0  0
    0.0259    1.0858   -1.0716 H   0  0  0  0  0  0  0  0  0  0  0  0
   -1.3532    2.9090    0.1187 H   0  0  0  0  0  0  0  0  0  0  0  0
   -0.8635    1.6100    1.2250 H   0  0  0  0  0  0  0  0  0  0  0  0
   -2.4988    1.5796    0.5055 H   0  0  0  0  0  0  0  0  0  0  0  0
    2.0380   -1.8981   -3.1908 H   0  0  0  0  0  0  0  0  0  0  0  0
    1.0221   -3.4702   -3.2797 H   0  0  0  0  0  0  0  0  0  0  0  0
    1.3747   -3.7934   -0.8415 H   0  0  0  0  0  0  0  0  0  0  0  0
  2  1  2  0  0  0  0
  2 35  1  0  0  0  0
  3 34  1  1  0  0  0
  3  2  1  0  0  0  0
  4  3  1  0  0  0  0
  4  5  1  0  0  0  0
  6  7  2  0  0  0  0
  7 63  1  0  0  0  0
  7  8  1  0  0  0  0
  8  9  1  0  0  0  0
  9 10  1  0  0  0  0
  9 21  1  0  0  0  0
 10 20  2  0  0  0  0
 11 10  1  0  0  0  0
 11 12  1  0  0  0  0
 12 13  2  0  0  0  0
 13 14  1  0  0  0  0
 14 19  2  0  0  0  0
 14 15  1  0  0  0  0
 15 16  2  0  0  0  0
 16 17  1  0  0  0  0
 16 41  1  0  0  0  0
 17 42  1  0  0  0  0
 18 43  1  0  0  0  0
 18 17  2  0  0  0  0
 19 18  1  0  0  0  0
 20 13  1  0  0  0  0
 21 22  1  0  0  0  0
 21 46  1  0  0  0  0
 22 28  2  0  0  0  0
 23 24  1  0  0  0  0
 23 22  1  0  0  0  0
 24 48  1  0  0  0  0
 24 27  1  0  0  0  0
 25 24  1  0  0  0  0
 25 26  1  0  0  0  0
 26 27  1  0  0  0  0
 27 51  1  0  0  0  0
 27 52  1  0  0  0  0
 29  8  2  0  0  0  0
 30 53  1  0  0  0  0
 30  3  1  0  0  0  0
 31 30  1  0  0  0  0
 32 55  1  0  0  0  0
 32 54  1  0  0  0  0
 32 31  1  0  0  0  0
 33 31  2  0  0  0  0
 35 36  1  0  0  0  0
 36 60  1  0  0  0  0
 36 59  1  0  0  0  0
 37  4  1  0  0  0  0
 38  4  1  0  0  0  0
 39 12  1  0  0  0  0
 40 15  1  0  0  0  0
 44 19  1  0  0  0  0
 45 21  1  0  0  0  0
 47 23  1  0  0  0  0
 49 25  1  0  0  0  0
 50 25  1  0  0  0  0
 56 32  1  0  0  0  0
 57 35  1  0  0  0  0
 58 36  1  0  0  0  0
 61  6  1  0  0  0  0
 62  6  1  0  0  0  0
M  END
