-1 1
 OpenBabel05232413493D

 74 75  0  0  1  0  0  0  0  0999 V2000
    0.2730    1.8240   -2.6458 O   0  0  0  0  0  0  0  0  0  0  0  0
    0.7039    2.7180   -1.9327 C   0  0  0  0  0  0  0  0  0  0  0  0
    2.2145    2.9983   -1.7480 C   0  0  2  0  0  0  0  0  0  0  0  0
    3.0624    2.0645   -2.6362 C   0  0  0  0  0  0  0  0  0  0  0  0
    4.8175    1.9603   -2.1492 S   0  0  0  0  0  1  0  0  0  0  0  0
    3.9999   -0.6660   -0.7186 C   0  0  0  0  0  0  0  0  0  0  0  0
    2.8059   -0.5256   -0.1190 C   0  0  0  0  0  0  0  0  0  0  0  0
    1.5727   -0.8155   -0.8661 C   0  0  0  0  0  0  0  0  0  0  0  0
    0.3767   -0.2721   -0.3691 N   0  0  0  0  0  0  0  0  0  0  0  0
   -0.8260   -0.5886   -0.9639 C   0  0  0  0  0  0  0  0  0  0  0  0
   -0.9788   -1.4530   -2.4632 S   0  0  0  0  0  0  0  0  0  0  0  0
   -2.6951   -1.2802   -2.3364 C   0  0  0  0  0  0  0  0  0  0  0  0
   -3.0363   -0.6081   -1.1969 C   0  0  0  0  0  0  0  0  0  0  0  0
   -4.3964   -0.2626   -0.7346 C   0  0  0  0  0  0  0  0  0  0  0  0
   -5.5404   -0.8116   -1.3318 C   0  0  0  0  0  0  0  0  0  0  0  0
   -6.8132   -0.4666   -0.8865 C   0  0  0  0  0  0  0  0  0  0  0  0
   -6.9703    0.4316    0.1694 C   0  0  0  0  0  0  0  0  0  0  0  0
   -5.8401    0.9800    0.7741 C   0  0  0  0  0  0  0  0  0  0  0  0
   -4.5662    0.6372    0.3276 C   0  0  0  0  0  0  0  0  0  0  0  0
   -1.9623   -0.2319   -0.4271 N   0  0  0  0  0  0  0  0  0  0  0  0
    0.3592    0.7292    0.6950 C   0  0  0  0  0  0  0  0  0  0  0  0
    0.2233    0.1252    2.0920 C   0  0  0  0  0  0  0  0  0  0  0  0
   -0.9707   -0.4707    2.3188 N   0  0  0  0  0  0  0  0  0  0  0  0
   -1.2374   -1.2955    3.4703 C   0  0  0  0  0  0  0  0  0  0  0  0
   -1.2415   -2.8045    3.1655 C   0  0  0  0  0  0  0  0  0  0  0  0
    0.0034   -3.4274    2.7840 N   0  0  0  0  0  0  0  0  0  0  0  0
    1.0892   -3.3051    3.7378 C   0  0  0  0  0  0  0  0  0  0  0  0
    2.1905   -4.2902    3.3653 C   0  0  0  0  0  0  0  0  0  0  0  0
    2.6414   -4.0946    2.0532 O   0  0  0  0  0  0  0  0  0  0  0  0
    1.5974   -4.1891    1.1150 C   0  0  0  0  0  0  0  0  0  0  0  0
    0.4866   -3.2000    1.4322 C   0  0  0  0  0  0  0  0  0  0  0  0
    1.1345    0.1697    2.9053 O   0  0  0  0  0  0  0  0  0  0  0  0
    1.5289   -1.5269   -1.8569 O   0  0  0  0  0  0  0  0  0  0  0  0
    2.6498    2.8217   -0.3699 N   0  0  0  0  0  0  0  0  0  0  0  0
    2.4256    3.6732    0.6495 C   0  0  0  0  0  0  0  0  0  0  0  0
    3.1828    3.3356    1.9166 C   0  0  0  0  0  0  0  0  0  0  0  0
    1.6218    4.6059    0.6130 O   0  0  0  0  0  0  0  0  0  0  0  0
    2.3872    4.0517   -2.0380 H   0  0  0  0  0  0  0  0  0  0  0  0
   -0.1174    3.5608   -1.2646 N   0  0  0  0  0  0  0  0  0  0  0  0
   -1.5475    3.4021   -1.3273 C   0  0  0  0  0  0  0  0  0  0  0  0
    2.5995    1.0666   -2.6028 H   0  0  0  0  0  0  0  0  0  0  0  0
    2.9579    2.4093   -3.6749 H   0  0  0  0  0  0  0  0  0  0  0  0
   -3.3500   -1.6742   -3.1103 H   0  0  0  0  0  0  0  0  0  0  0  0
   -5.4354   -1.5275   -2.1496 H   0  0  0  0  0  0  0  0  0  0  0  0
   -7.6907   -0.9075   -1.3656 H   0  0  0  0  0  0  0  0  0  0  0  0
   -7.9695    0.7012    0.5193 H   0  0  0  0  0  0  0  0  0  0  0  0
   -5.9494    1.6859    1.6008 H   0  0  0  0  0  0  0  0  0  0  0  0
   -3.6799    1.0694    0.7949 H   0  0  0  0  0  0  0  0  0  0  0  0
   -0.4751    1.4135    0.4980 H   0  0  0  0  0  0  0  0  0  0  0  0
    1.2842    1.3070    0.6418 H   0  0  0  0  0  0  0  0  0  0  0  0
   -1.6281   -0.4659    1.5353 H   0  0  0  0  0  0  0  0  0  0  0  0
   -2.2201   -1.0265    3.8941 H   0  0  0  0  0  0  0  0  0  0  0  0
   -0.4779   -1.0555    4.2280 H   0  0  0  0  0  0  0  0  0  0  0  0
   -1.9795   -3.0024    2.3688 H   0  0  0  0  0  0  0  0  0  0  0  0
   -1.6181   -3.3162    4.0710 H   0  0  0  0  0  0  0  0  0  0  0  0
    0.7172   -3.5411    4.7496 H   0  0  0  0  0  0  0  0  0  0  0  0
    1.5116   -2.2779    3.7587 H   0  0  0  0  0  0  0  0  0  0  0  0
    1.8012   -5.3230    3.4887 H   0  0  0  0  0  0  0  0  0  0  0  0
    3.0603   -4.1634    4.0268 H   0  0  0  0  0  0  0  0  0  0  0  0
    1.1833   -5.2189    1.1071 H   0  0  0  0  0  0  0  0  0  0  0  0
    2.0277   -3.9671    0.1283 H   0  0  0  0  0  0  0  0  0  0  0  0
   -0.3384   -3.3169    0.7113 H   0  0  0  0  0  0  0  0  0  0  0  0
    0.9065   -2.1867    1.3032 H   0  0  0  0  0  0  0  0  0  0  0  0
    3.5548    2.3098   -0.3793 H   0  0  0  0  0  0  0  0  0  0  0  0
    4.2067    2.9987    1.6994 H   0  0  0  0  0  0  0  0  0  0  0  0
    2.6588    2.5169    2.4377 H   0  0  0  0  0  0  0  0  0  0  0  0
    3.2032    4.2161    2.5699 H   0  0  0  0  0  0  0  0  0  0  0  0
    0.3216    4.2052   -0.5985 H   0  0  0  0  0  0  0  0  0  0  0  0
   -1.9136    3.4920   -2.3624 H   0  0  0  0  0  0  0  0  0  0  0  0
   -2.0223    4.1810   -0.7156 H   0  0  0  0  0  0  0  0  0  0  0  0
   -1.8734    2.4132   -0.9597 H   0  0  0  0  0  0  0  0  0  0  0  0
    4.0758   -0.9943   -1.7560 H   0  0  0  0  0  0  0  0  0  0  0  0
    4.9288   -0.4863   -0.1794 H   0  0  0  0  0  0  0  0  0  0  0  0
    2.7361   -0.1863    0.9160 H   0  0  0  0  0  0  0  0  0  0  0  0
  1  2  2  0  0  0  0
  2  3  1  0  0  0  0
  2 39  1  0  0  0  0
  3 38  1  6  0  0  0
  3 34  1  0  0  0  0
  4 41  1  0  0  0  0
  4  5  1  0  0  0  0
  4  3  1  0  0  0  0
  6 73  1  0  0  0  0
  6  7  2  0  0  0  0
  7 74  1  0  0  0  0
  8  9  1  0  0  0  0
  8  7  1  0  0  0  0
  9 21  1  0  0  0  0
 10 20  2  0  0  0  0
 10  9  1  0  0  0  0
 11 12  1  0  0  0  0
 11 10  1  0  0  0  0
 12 13  2  0  0  0  0
 13 14  1  0  0  0  0
 13 20  1  0  0  0  0
 14 19  1  0  0  0  0
 15 16  1  0  0  0  0
 15 14  2  0  0  0  0
 16 17  2  0  0  0  0
 17 46  1  0  0  0  0
 17 18  1  0  0  0  0
 18 47  1  0  0  0  0
 19 18  2  0  0  0  0
 19 48  1  0  0  0  0
 21 22  1  0  0  0  0
 22 23  1  0  0  0  0
 22 32  2  0  0  0  0
 23 24  1  0  0  0  0
 24 52  1  0  0  0  0
 24 53  1  0  0  0  0
 25 24  1  0  0  0  0
 25 55  1  0  0  0  0
 26 25  1  0  0  0  0
 26 27  1  0  0  0  0
 27 57  1  0  0  0  0
 27 56  1  0  0  0  0
 28 58  1  0  0  0  0
 28 27  1  0  0  0  0
 28 59  1  0  0  0  0
 29 28  1  0  0  0  0
 30 31  1  0  0  0  0
 30 29  1  0  0  0  0
 31 26  1  0  0  0  0
 33  8  2  0  0  0  0
 34 35  1  0  0  0  0
 35 36  1  0  0  0  0
 36 66  1  0  0  0  0
 36 67  1  0  0  0  0
 37 35  2  0  0  0  0
 39 68  1  0  0  0  0
 40 39  1  0  0  0  0
 40 71  1  0  0  0  0
 40 70  1  0  0  0  0
 42  4  1  0  0  0  0
 43 12  1  0  0  0  0
 44 15  1  0  0  0  0
 45 16  1  0  0  0  0
 49 21  1  0  0  0  0
 50 21  1  0  0  0  0
 51 23  1  0  0  0  0
 54 25  1  0  0  0  0
 60 30  1  0  0  0  0
 61 30  1  0  0  0  0
 62 31  1  0  0  0  0
 63 31  1  0  0  0  0
 64 34  1  0  0  0  0
 65 36  1  0  0  0  0
 69 40  1  0  0  0  0
 72  6  1  0  0  0  0
M  END
