74
-1 1
O         1.976435    3.558521   -3.568021
C         2.393423    3.925389   -2.483760
C         3.245793    3.020745   -1.568528
C         3.520357    1.672724   -2.235944
S         4.557641    0.569861   -1.226670
C         3.302601   -0.687526   -0.638592
C         2.006805   -0.178813   -0.118686
C         0.876514   -0.359983   -0.906908
N        -0.417245   -0.011954   -0.332726
C        -1.548982   -0.576280   -0.835241
S        -1.605173   -1.420656   -2.367591
C        -3.298074   -1.711938   -2.084550
C        -3.697526   -1.174066   -0.896897
C        -5.049023   -1.229111   -0.301871
C        -6.079767   -1.990583   -0.873513
C        -7.345558   -2.029471   -0.296496
C        -7.611404   -1.310315    0.869484
C        -6.594905   -0.552341    1.448957
C        -5.328488   -0.511012    0.870321
N        -2.695386   -0.537831   -0.197819
C        -0.540559    0.878639    0.805643
C        -0.451038    0.194491    2.175249
N        -1.426455   -0.716129    2.400112
C        -1.428198   -1.608365    3.531705
C        -1.141955   -3.079509    3.175917
N         0.141398   -3.404196    2.599528
C         1.293207   -2.950876    3.356563
C         2.550007   -3.600593    2.794827
O         2.709951   -3.323901    1.431662
C         1.601174   -3.742060    0.671821
C         0.306708   -3.125758    1.179296
O         0.432435    0.462059    2.977395
O         0.820484   -0.827179   -2.064591
N         2.640027    2.821078   -0.262676
C         2.828122    3.671240    0.765216
C         2.488280    3.151224    2.142637
O         3.274253    4.809853    0.612094
H         4.199593    3.554830   -1.406586
N         2.191893    5.165679   -1.972820
C         1.386764    6.150949   -2.639939
H         2.576110    1.156249   -2.463743
H         4.021079    1.848936   -3.196158
H        -3.893849   -2.263613   -2.808823
H        -5.887554   -2.568865   -1.779622
H        -8.131565   -2.630925   -0.759884
H        -8.604706   -1.342765    1.323288
H        -6.788974    0.016266    2.361828
H        -4.531392    0.084200    1.318430
H        -1.512871    1.389101    0.732453
H         0.255006    1.628570    0.748425
H        -2.106436   -0.842256    1.643631
H        -2.408478   -1.565608    4.038595
H        -0.678995   -1.229121    4.241130
H        -1.923796   -3.438037    2.484381
H        -1.264519   -3.659938    4.110550
H         1.173210   -3.245993    4.413692
H         1.413904   -1.847533    3.325417
H         2.491515   -4.697715    2.959889
H         3.443603   -3.216632    3.308694
H         1.524329   -4.849394    0.701862
H         1.781450   -3.418439   -0.362796
H        -0.542720   -3.549359    0.619133
H         0.347271   -2.047250    0.960818
H         2.325235    1.855952   -0.080249
H         3.437684    2.933941    2.655337
H         1.879789    2.236693    2.159607
H         1.983096    3.946132    2.707139
H         2.594839    5.352822   -1.049902
H         1.963677    7.063886   -2.864853
H         0.511013    6.439178   -2.034446
H         1.033521    5.717209   -3.584803
H         3.124961   -1.352509   -1.494647
H         3.857993   -1.248389    0.127639
H         1.915638    0.024009    0.949614
