-1 1
 OpenBabel05232414493D

 74 75  0  0  1  0  0  0  0  0999 V2000
   -3.1303    5.3902   -0.6550 O   0  0  0  0  0  0  0  0  0  0  0  0
   -2.6027    6.2007    0.0889 C   0  0  0  0  0  0  0  0  0  0  0  0
   -1.0681    6.2707    0.3064 C   0  0  2  0  0  0  0  0  0  0  0  0
   -0.3679    5.2027   -0.5625 C   0  0  0  0  0  0  0  0  0  0  0  0
    1.2847    4.6913   -0.0139 S   0  0  0  0  0  1  0  0  0  0  0  0
    0.4249    2.5909    1.0958 C   0  0  0  0  0  3  0  0  0  0  0  0
   -0.8072    2.8010    1.6727 C   0  0  0  0  0  3  0  0  0  0  0  0
   -2.0104    2.5337    0.9330 C   0  0  0  0  0  0  0  0  0  0  0  0
   -3.2293    3.0446    1.4653 N   0  0  0  0  0  0  0  0  0  0  0  0
   -4.4265    2.6997    0.8948 C   0  0  0  0  0  0  0  0  0  0  0  0
   -4.5784    1.8197   -0.6016 S   0  0  0  0  0  0  0  0  0  0  0  0
   -6.3013    1.9341   -0.4396 C   0  0  0  0  0  0  0  0  0  0  0  0
   -6.6424    2.6040    0.6999 C   0  0  0  0  0  0  0  0  0  0  0  0
   -8.0049    2.8994    1.1897 C   0  0  0  0  0  0  0  0  0  0  0  0
   -9.1433    2.3355    0.5948 C   0  0  0  0  0  0  0  0  0  0  0  0
  -10.4181    2.6305    1.0691 C   0  0  0  0  0  0  0  0  0  0  0  0
  -10.5844    3.4932    2.1530 C   0  0  0  0  0  0  0  0  0  0  0  0
   -9.4603    4.0565    2.7554 C   0  0  0  0  0  0  0  0  0  0  0  0
   -8.1844    3.7638    2.2796 C   0  0  0  0  0  0  0  0  0  0  0  0
   -5.5678    3.0244    1.4478 N   0  0  0  0  0  0  0  0  0  0  0  0
   -3.2524    4.0665    2.5049 C   0  0  0  0  0  0  0  0  0  0  0  0
   -3.3576    3.5082    3.9238 C   0  0  0  0  0  0  0  0  0  0  0  0
   -4.5077    2.8367    4.1658 N   0  0  0  0  0  0  0  0  0  0  0  0
   -4.7263    2.0403    5.3463 C   0  0  0  0  0  0  0  0  0  0  0  0
   -4.6288    0.5239    5.0988 C   0  0  0  0  0  0  0  0  0  0  0  0
   -3.3451   -0.0280    4.7381 N   0  0  0  0  0  0  0  0  0  0  0  0
   -2.2704    0.2066    5.6830 C   0  0  0  0  0  0  0  0  0  0  0  0
   -1.1043   -0.7141    5.3452 C   0  0  0  0  0  0  0  0  0  0  0  0
   -0.6654   -0.5362    4.0274 O   0  0  0  0  0  0  0  0  0  0  0  0
   -1.6990   -0.7324    3.0924 C   0  0  0  0  0  0  0  0  0  0  0  0
   -2.8785    0.1841    3.3765 C   0  0  0  0  0  0  0  0  0  0  0  0
   -2.4651    3.6563    4.7467 O   0  0  0  0  0  0  0  0  0  0  0  0
   -2.0846    1.8627   -0.0956 O   0  0  0  0  0  0  0  0  0  0  0  0
   -0.7000    6.0604    1.6967 N   0  0  0  0  0  0  0  0  0  0  0  0
   -0.8345    6.9373    2.7112 C   0  0  0  0  0  0  0  0  0  0  0  0
   -0.2181    6.4739    4.0132 C   0  0  0  0  0  0  0  0  0  0  0  0
   -1.4623    7.9932    2.6306 O   0  0  0  0  0  0  0  0  0  0  0  0
   -0.7438    7.2848    0.0072 H   0  0  0  0  0  0  0  0  0  0  0  0
   -3.3180    7.1188    0.7776 N   0  0  0  0  0  0  0  0  0  0  0  0
   -4.7565    7.1231    0.7180 C   0  0  0  0  0  0  0  0  0  0  0  0
   -1.0209    4.3189   -0.5850 H   0  0  0  0  0  0  0  0  0  0  0  0
   -0.3301    5.5739   -1.5957 H   0  0  0  0  0  0  0  0  0  0  0  0
   -6.9582    1.5073   -1.1943 H   0  0  0  0  0  0  0  0  0  0  0  0
   -9.0316    1.6478   -0.2460 H   0  0  0  0  0  0  0  0  0  0  0  0
  -11.2901    2.1783    0.5904 H   0  0  0  0  0  0  0  0  0  0  0  0
  -11.5851    3.7233    2.5261 H   0  0  0  0  0  0  0  0  0  0  0  0
   -9.5762    4.7347    3.6043 H   0  0  0  0  0  0  0  0  0  0  0  0
   -7.3026    4.2064    2.7456 H   0  0  0  0  0  0  0  0  0  0  0  0
   -4.1081    4.7263    2.3088 H   0  0  0  0  0  0  0  0  0  0  0  0
   -2.3378    4.6597    2.4356 H   0  0  0  0  0  0  0  0  0  0  0  0
   -5.1638    2.7781    3.3824 H   0  0  0  0  0  0  0  0  0  0  0  0
   -5.7272    2.2588    5.7573 H   0  0  0  0  0  0  0  0  0  0  0  0
   -3.9883    2.3584    6.0967 H   0  0  0  0  0  0  0  0  0  0  0  0
   -5.3514    0.2476    4.3111 H   0  0  0  0  0  0  0  0  0  0  0  0
   -4.9712    0.0228    6.0238 H   0  0  0  0  0  0  0  0  0  0  0  0
   -2.6247   -0.0149    6.7046 H   0  0  0  0  0  0  0  0  0  0  0  0
   -1.9191    1.2603    5.6627 H   0  0  0  0  0  0  0  0  0  0  0  0
   -1.4238   -1.7658    5.5070 H   0  0  0  0  0  0  0  0  0  0  0  0
   -0.2462   -0.5051    6.0016 H   0  0  0  0  0  0  0  0  0  0  0  0
   -2.0369   -1.7897    3.1165 H   0  0  0  0  0  0  0  0  0  0  0  0
   -1.2836   -0.5078    2.1002 H   0  0  0  0  0  0  0  0  0  0  0  0
   -3.6926   -0.0213    2.6631 H   0  0  0  0  0  0  0  0  0  0  0  0
   -2.5331    1.2181    3.2051 H   0  0  0  0  0  0  0  0  0  0  0  0
    0.0538    5.3633    1.7641 H   0  0  0  0  0  0  0  0  0  0  0  0
    0.7814    6.0427    3.8560 H   0  0  0  0  0  0  0  0  0  0  0  0
   -0.8587    5.6887    4.4493 H   0  0  0  0  0  0  0  0  0  0  0  0
   -0.1588    7.3217    4.7057 H   0  0  0  0  0  0  0  0  0  0  0  0
   -2.8086    7.7132    1.4389 H   0  0  0  0  0  0  0  0  0  0  0  0
   -5.1261    7.4536   -0.2672 H   0  0  0  0  0  0  0  0  0  0  0  0
   -5.1465    7.8044    1.4861 H   0  0  0  0  0  0  0  0  0  0  0  0
   -5.1688    6.1144    0.8903 H   0  0  0  0  0  0  0  0  0  0  0  0
    0.4825    2.0740    0.1378 H   0  0  0  0  0  0  0  0  0  0  0  0
    1.3220    2.5796    1.7131 H   0  0  0  0  0  0  0  0  0  0  0  0
   -0.8726    3.2093    2.6814 H   0  0  0  0  0  0  0  0  0  0  0  0
  1  2  2  0  0  0  0
  2  3  1  0  0  0  0
  2 39  1  0  0  0  0
  3 38  1  6  0  0  0
  3 34  1  0  0  0  0
  4  5  1  0  0  0  0
  4  3  1  0  0  0  0
  6  7  1  0  0  0  0
  6 73  1  0  0  0  0
  7 74  1  0  0  0  0
  8  9  1  0  0  0  0
  8  7  1  0  0  0  0
  9 21  1  0  0  0  0
 10 20  2  0  0  0  0
 10  9  1  0  0  0  0
 11 12  1  0  0  0  0
 11 10  1  0  0  0  0
 12 13  2  0  0  0  0
 13 14  1  0  0  0  0
 13 20  1  0  0  0  0
 14 19  1  0  0  0  0
 15 16  1  0  0  0  0
 15 14  2  0  0  0  0
 16 17  2  0  0  0  0
 17 46  1  0  0  0  0
 17 18  1  0  0  0  0
 18 47  1  0  0  0  0
 19 48  1  0  0  0  0
 19 18  2  0  0  0  0
 21 22  1  0  0  0  0
 22 23  1  0  0  0  0
 22 32  2  0  0  0  0
 23 24  1  0  0  0  0
 24 52  1  0  0  0  0
 24 53  1  0  0  0  0
 25 24  1  0  0  0  0
 25 55  1  0  0  0  0
 26 25  1  0  0  0  0
 26 27  1  0  0  0  0
 27 56  1  0  0  0  0
 28 58  1  0  0  0  0
 28 27  1  0  0  0  0
 28 59  1  0  0  0  0
 29 28  1  0  0  0  0
 30 60  1  0  0  0  0
 30 31  1  0  0  0  0
 30 29  1  0  0  0  0
 31 26  1  0  0  0  0
 33  8  2  0  0  0  0
 34 64  1  0  0  0  0
 34 35  1  0  0  0  0
 35 36  1  0  0  0  0
 36 66  1  0  0  0  0
 36 67  1  0  0  0  0
 37 35  2  0  0  0  0
 39 68  1  0  0  0  0
 40 39  1  0  0  0  0
 40 71  1  0  0  0  0
 40 70  1  0  0  0  0
 41  4  1  0  0  0  0
 42  4  1  0  0  0  0
 43 12  1  0  0  0  0
 44 15  1  0  0  0  0
 45 16  1  0  0  0  0
 49 21  1  0  0  0  0
 50 21  1  0  0  0  0
 51 23  1  0  0  0  0
 54 25  1  0  0  0  0
 57 27  1  0  0  0  0
 61 30  1  0  0  0  0
 62 31  1  0  0  0  0
 63 31  1  0  0  0  0
 65 36  1  0  0  0  0
 69 40  1  0  0  0  0
 72  6  1  0  0  0  0
M  END
