60
-1 1
O         0.712141   -3.506790    3.312907
C         1.478097   -3.018676    2.501033
C         1.322871   -3.220842    0.977551
C        -0.099924   -3.679692    0.654432
S        -0.342329   -4.338785   -1.008452
C         0.082161   -2.828529   -2.078719
C        -0.207774   -1.497647   -1.512644
C        -1.481453   -0.961039   -1.633755
N        -1.696903    0.389951   -1.061259
C        -1.121509    0.918095    0.042193
S        -0.126556   -0.016418    1.162753
C        -0.031989    1.373335    2.195002
C        -0.710636    2.419616    1.640475
C        -0.844883    3.773592    2.220546
C        -1.743733    4.688121    1.652993
C        -1.893544    5.966722    2.184781
C        -1.147923    6.361126    3.295110
C        -0.247710    5.461056    3.866718
C        -0.096839    4.183792    3.334420
N        -1.312179    2.156144    0.434275
C        -2.685281    1.199015   -1.759126
C        -2.073817    1.983366   -2.896033
C        -1.983454    1.417890   -4.175012
N        -1.443808    2.033865   -5.226012
C        -0.950743    3.256696   -5.039072
C        -0.968457    3.911670   -3.808924
C        -1.539407    3.260756   -2.717851
O        -2.467011   -1.452952   -2.202544
N         2.303120   -4.166630    0.461109
C         3.566118   -3.803438    0.142981
C         4.324253   -4.782214   -0.730079
O         4.078305   -2.751270    0.506860
H         1.503071   -2.248006    0.493185
N         2.530372   -2.229249    2.832558
C         2.900089   -1.977136    4.199229
H        -0.405572   -4.467402    1.357272
H        -0.775652   -2.824838    0.794218
H         0.524455    1.329669    3.127794
H        -2.324613    4.368107    0.786813
H        -2.601850    6.661859    1.726898
H        -1.264467    7.364423    3.711962
H         0.347841    5.758350    4.733568
H         0.623266    3.498345    3.786115
H        -3.160761    1.876647   -1.039706
H        -3.423589    0.485685   -2.146939
H        -2.367922    0.402645   -4.330107
H        -0.511542    3.746049   -5.917127
H        -0.538629    4.910890   -3.708804
H        -1.559157    3.715655   -1.724488
H         1.883670   -4.930939   -0.067419
H         3.928003   -5.804869   -0.668915
H         5.382594   -4.771846   -0.441198
H         4.253371   -4.442249   -1.774495
H         3.190307   -2.027293    2.079346
H         2.069169   -2.294692    4.842362
H         3.091765   -0.905281    4.363324
H         3.803094   -2.539047    4.494619
H         1.147495   -2.936780   -2.328881
H        -0.521238   -3.031021   -2.976784
H         0.623794   -0.894086   -1.150876
