-1 1
 OpenBabel05192410563D

 60 62  0  0  1  0  0  0  0  0999 V2000
    0.7121   -3.5068    3.3129 O   0  0  0  0  0  0  0  0  0  0  0  0
    1.4781   -3.0187    2.5010 C   0  0  0  0  0  0  0  0  0  0  0  0
    1.3229   -3.2208    0.9776 C   0  0  2  0  0  0  0  0  0  0  0  0
   -0.0999   -3.6797    0.6544 C   0  0  0  0  0  0  0  0  0  0  0  0
   -0.3423   -4.3388   -1.0085 S   0  0  0  0  0  0  0  0  0  0  0  0
    0.0822   -2.8285   -2.0787 C   0  0  0  0  0  0  0  0  0  0  0  0
   -0.2078   -1.4976   -1.5126 C   0  0  0  0  0  3  0  0  0  0  0  0
   -1.4815   -0.9610   -1.6338 C   0  0  0  0  0  0  0  0  0  0  0  0
   -1.6969    0.3900   -1.0613 N   0  0  0  0  0  0  0  0  0  0  0  0
   -1.1215    0.9181    0.0422 C   0  0  0  0  0  0  0  0  0  0  0  0
   -0.1266   -0.0164    1.1628 S   0  0  0  0  0  0  0  0  0  0  0  0
   -0.0320    1.3733    2.1950 C   0  0  0  0  0  0  0  0  0  0  0  0
   -0.7106    2.4196    1.6405 C   0  0  0  0  0  0  0  0  0  0  0  0
   -0.8449    3.7736    2.2205 C   0  0  0  0  0  0  0  0  0  0  0  0
   -1.7437    4.6881    1.6530 C   0  0  0  0  0  0  0  0  0  0  0  0
   -1.8935    5.9667    2.1848 C   0  0  0  0  0  0  0  0  0  0  0  0
   -1.1479    6.3611    3.2951 C   0  0  0  0  0  0  0  0  0  0  0  0
   -0.2477    5.4611    3.8667 C   0  0  0  0  0  0  0  0  0  0  0  0
   -0.0968    4.1838    3.3344 C   0  0  0  0  0  0  0  0  0  0  0  0
   -1.3122    2.1561    0.4343 N   0  0  0  0  0  0  0  0  0  0  0  0
   -2.6853    1.1990   -1.7591 C   0  0  0  0  0  0  0  0  0  0  0  0
   -2.0738    1.9834   -2.8960 C   0  0  0  0  0  0  0  0  0  0  0  0
   -1.9835    1.4179   -4.1750 C   0  0  0  0  0  0  0  0  0  0  0  0
   -1.4438    2.0339   -5.2260 N   0  0  0  0  0  0  0  0  0  0  0  0
   -0.9507    3.2567   -5.0391 C   0  0  0  0  0  0  0  0  0  0  0  0
   -0.9685    3.9117   -3.8089 C   0  0  0  0  0  0  0  0  0  0  0  0
   -1.5394    3.2608   -2.7179 C   0  0  0  0  0  0  0  0  0  0  0  0
   -2.4670   -1.4530   -2.2025 O   0  0  0  0  0  0  0  0  0  0  0  0
    2.3031   -4.1666    0.4611 N   0  0  0  0  0  0  0  0  0  0  0  0
    3.5661   -3.8034    0.1430 C   0  0  0  0  0  0  0  0  0  0  0  0
    4.3243   -4.7822   -0.7301 C   0  0  0  0  0  0  0  0  0  0  0  0
    4.0783   -2.7513    0.5069 O   0  0  0  0  0  0  0  0  0  0  0  0
    1.5031   -2.2480    0.4932 H   0  0  0  0  0  0  0  0  0  0  0  0
    2.5304   -2.2292    2.8326 N   0  0  0  0  0  0  0  0  0  0  0  0
    2.9001   -1.9771    4.1992 C   0  0  0  0  0  0  0  0  0  0  0  0
   -0.4056   -4.4674    1.3573 H   0  0  0  0  0  0  0  0  0  0  0  0
   -0.7757   -2.8248    0.7942 H   0  0  0  0  0  0  0  0  0  0  0  0
    0.5245    1.3297    3.1278 H   0  0  0  0  0  0  0  0  0  0  0  0
   -2.3246    4.3681    0.7868 H   0  0  0  0  0  0  0  0  0  0  0  0
   -2.6019    6.6619    1.7269 H   0  0  0  0  0  0  0  0  0  0  0  0
   -1.2645    7.3644    3.7120 H   0  0  0  0  0  0  0  0  0  0  0  0
    0.3478    5.7584    4.7336 H   0  0  0  0  0  0  0  0  0  0  0  0
    0.6233    3.4983    3.7861 H   0  0  0  0  0  0  0  0  0  0  0  0
   -3.1608    1.8766   -1.0397 H   0  0  0  0  0  0  0  0  0  0  0  0
   -3.4236    0.4857   -2.1469 H   0  0  0  0  0  0  0  0  0  0  0  0
   -2.3679    0.4026   -4.3301 H   0  0  0  0  0  0  0  0  0  0  0  0
   -0.5115    3.7460   -5.9171 H   0  0  0  0  0  0  0  0  0  0  0  0
   -0.5386    4.9109   -3.7088 H   0  0  0  0  0  0  0  0  0  0  0  0
   -1.5592    3.7157   -1.7245 H   0  0  0  0  0  0  0  0  0  0  0  0
    1.8837   -4.9309   -0.0674 H   0  0  0  0  0  0  0  0  0  0  0  0
    3.9280   -5.8049   -0.6689 H   0  0  0  0  0  0  0  0  0  0  0  0
    5.3826   -4.7718   -0.4412 H   0  0  0  0  0  0  0  0  0  0  0  0
    4.2534   -4.4422   -1.7745 H   0  0  0  0  0  0  0  0  0  0  0  0
    3.1903   -2.0273    2.0793 H   0  0  0  0  0  0  0  0  0  0  0  0
    2.0692   -2.2947    4.8424 H   0  0  0  0  0  0  0  0  0  0  0  0
    3.0918   -0.9053    4.3633 H   0  0  0  0  0  0  0  0  0  0  0  0
    3.8031   -2.5390    4.4946 H   0  0  0  0  0  0  0  0  0  0  0  0
    1.1475   -2.9368   -2.3289 H   0  0  0  0  0  0  0  0  0  0  0  0
   -0.5212   -3.0310   -2.9768 H   0  0  0  0  0  0  0  0  0  0  0  0
    0.6238   -0.8941   -1.1509 H   0  0  0  0  0  0  0  0  0  0  0  0
  2 34  1  0  0  0  0
  2  1  2  0  0  0  0
  3 33  1  6  0  0  0
  3  2  1  0  0  0  0
  4 37  1  0  0  0  0
  4  3  1  0  0  0  0
  4 36  1  0  0  0  0
  5  4  1  0  0  0  0
  6  7  1  0  0  0  0
  6  5  1  0  0  0  0
  7 60  1  0  0  0  0
  8  7  1  0  0  0  0
  8  9  1  0  0  0  0
  9 10  1  0  0  0  0
 10 20  2  0  0  0  0
 10 11  1  0  0  0  0
 11 12  1  0  0  0  0
 12 38  1  0  0  0  0
 13 12  2  0  0  0  0
 13 14  1  0  0  0  0
 14 19  1  0  0  0  0
 15 16  1  0  0  0  0
 15 14  2  0  0  0  0
 16 17  2  0  0  0  0
 17 41  1  0  0  0  0
 17 18  1  0  0  0  0
 18 42  1  0  0  0  0
 19 43  1  0  0  0  0
 19 18  2  0  0  0  0
 20 13  1  0  0  0  0
 21  9  1  0  0  0  0
 21 44  1  0  0  0  0
 22 27  1  0  0  0  0
 22 21  1  0  0  0  0
 23 22  2  0  0  0  0
 24 25  2  0  0  0  0
 24 23  1  0  0  0  0
 25 26  1  0  0  0  0
 26 48  1  0  0  0  0
 26 27  2  0  0  0  0
 27 49  1  0  0  0  0
 28  8  2  0  0  0  0
 29  3  1  0  0  0  0
 30 29  1  0  0  0  0
 30 32  2  0  0  0  0
 31 51  1  0  0  0  0
 31 52  1  0  0  0  0
 31 30  1  0  0  0  0
 34 35  1  0  0  0  0
 35 56  1  0  0  0  0
 35 57  1  0  0  0  0
 35 55  1  0  0  0  0
 39 15  1  0  0  0  0
 40 16  1  0  0  0  0
 45 21  1  0  0  0  0
 46 23  1  0  0  0  0
 47 25  1  0  0  0  0
 50 29  1  0  0  0  0
 53 31  1  0  0  0  0
 54 34  1  0  0  0  0
 58  6  1  0  0  0  0
 59  6  1  0  0  0  0
M  END
