68
-1 1
O        -1.383363    4.354823   -2.739859
C        -2.483413    3.918631   -2.392299
C        -2.863277    2.447590   -2.658612
C        -3.265958    1.652000   -1.397676
S        -4.855065    2.097664   -0.657973
C        -4.103396    2.601626    1.471698
C        -2.709769    2.587494    1.553869
C        -1.978115    3.789710    1.298080
N        -0.585810    3.707305    0.958298
C         0.057169    2.574470    0.472536
C         0.575642    2.554551   -0.831787
C         1.108395    1.385915   -1.362196
C         1.138991    0.231085   -0.583511
S         1.634568   -1.309585   -1.296020
O         2.656140   -1.968951   -0.482782
N         0.240880   -2.206381   -1.095990
C        -0.943977   -1.784264   -1.844426
C        -1.088664   -2.552159   -3.155287
N        -1.018108   -3.982345   -2.891852
C         0.182313   -4.417294   -2.203476
C         0.344081   -3.647396   -0.893476
C        -2.031670   -4.864393   -3.101443
O        -3.082838   -4.279843   -3.702993
C        -4.241707   -5.077552   -3.898546
C        -5.097433   -5.136824   -2.647788
O        -2.002593   -6.040235   -2.797629
O         1.924477   -1.069679   -2.715003
C         0.699784    0.250378    0.742992
C         0.183834    1.420884    1.270646
O        -2.448291    4.926833    1.299868
N        -1.714272    1.877032   -3.328920
C        -1.734900    0.762838   -4.091632
C        -0.433785    0.477909   -4.821981
O        -2.698335    0.012642   -4.163604
H        -3.724089    2.436664   -3.349741
N        -3.432497    4.662324   -1.816116
C        -3.225734    6.049033   -1.470277
H        -3.283404    0.593912   -1.691917
H        -2.484014    1.783897   -0.622619
H        -0.335370    4.570835    0.487220
H         0.456642    3.439319   -1.461456
H         1.454706    1.348354   -2.396198
H        -0.907691   -0.700239   -2.018667
H        -1.824136   -1.968326   -1.206190
H        -0.262280   -2.278525   -3.831638
H        -2.031372   -2.286542   -3.643009
H         1.059115   -4.234089   -2.849728
H         0.101571   -5.494723   -2.015688
H         1.306504   -3.871752   -0.416259
H        -0.461520   -3.937546   -0.197587
H        -3.939050   -6.087482   -4.212613
H        -4.780651   -4.591663   -4.723450
H        -4.556617   -5.650138   -1.840218
H        -6.025154   -5.693323   -2.849900
H        -5.365569   -4.124301   -2.312501
H         0.753161   -0.655709    1.349311
H        -0.154151    1.456850    2.306317
H        -0.945387    2.539973   -3.404347
H         0.281644   -0.021216   -4.148569
H         0.040577    1.398308   -5.193143
H        -0.642635   -0.193456   -5.663710
H        -4.211867    4.139980   -1.391592
H        -2.464489    6.469930   -2.140083
H        -2.887715    6.138558   -0.426416
H        -4.166897    6.603766   -1.600819
H        -2.198544    1.630474    1.628614
H        -4.593231    3.576098    1.529096
H        -4.664864    1.773402    1.905049
