-1 1
 OpenBabel05232414493D

 61 62  0  0  1  0  0  0  0  0999 V2000
    4.1261   -6.4326    8.4453 O   0  0  0  0  0  0  0  0  0  0  0  0
    4.5501   -5.6939    7.5671 C   0  0  0  0  0  0  0  0  0  0  0  0
    5.6698   -4.6779    7.8570 C   0  0  2  0  0  0  0  0  0  0  0  0
    5.2531   -3.2200    7.5772 C   0  0  0  0  0  0  0  0  0  0  0  0
    5.2865   -2.7385    5.8140 S   0  0  0  0  0  1  0  0  0  0  0  0
    3.1624   -1.3551    5.9775 C   0  0  0  0  0  0  0  0  0  0  0  0
    2.0743   -2.0431    6.4551 C   0  0  0  0  0  0  0  0  0  0  0  0
    1.1973   -2.6942    5.5160 C   0  0  0  0  0  0  0  0  0  0  0  0
    0.1697   -3.5672    6.0219 N   0  0  0  0  0  0  0  0  0  0  0  0
    0.2987   -4.4435    7.0790 C   0  0  0  0  0  0  0  0  0  0  0  0
    1.6065   -4.4523    8.2283 S   0  0  0  0  0  0  0  0  0  0  0  0
    0.9391   -5.8594    8.9626 C   0  0  0  0  0  0  0  0  0  0  0  0
   -0.2066   -6.2355    8.3246 C   0  0  0  0  0  0  0  0  0  0  0  0
   -1.0654   -7.3913    8.6521 C   0  0  0  0  0  0  0  0  0  0  0  0
   -2.3124   -7.5879    8.0046 C   0  0  0  0  0  0  0  0  0  0  0  0
   -2.7772   -6.7846    7.0534 O   0  0  0  0  0  0  0  0  0  0  0  0
   -3.1213   -8.6762    8.3727 C   0  0  0  0  0  0  0  0  0  0  0  0
   -2.6949   -9.5550    9.3530 C   0  0  0  0  0  0  0  0  0  0  0  0
   -3.7249  -10.9064    9.7937 Cl  0  0  0  0  0  0  0  0  0  0  0  0
   -1.4667   -9.3991    9.9937 C   0  0  0  0  0  0  0  0  0  0  0  0
   -0.6751   -8.3185    9.6275 C   0  0  0  0  0  0  0  0  0  0  0  0
   -0.5534   -5.4186    7.2650 N   0  0  0  0  0  0  0  0  0  0  0  0
   -0.9108   -3.8577    5.0857 C   0  0  0  0  0  0  0  0  0  0  0  0
   -0.6503   -5.0616    4.2334 C   0  0  0  0  0  0  0  0  0  0  0  0
   -1.5663   -6.0344    4.2360 O   0  0  0  0  0  0  0  0  0  0  0  0
   -1.1598   -7.0585    3.4301 N   0  0  0  0  0  0  0  0  0  0  0  0
    0.0043   -6.7010    2.9448 C   0  0  0  0  0  0  0  0  0  0  0  0
    0.7564   -7.6067    2.0263 C   0  0  0  0  0  0  0  0  0  0  0  0
    0.3833   -5.4113    3.4201 C   0  0  0  0  0  0  0  0  0  0  0  0
    1.2215   -2.5251    4.3053 O   0  0  0  0  0  0  0  0  0  0  0  0
    6.8848   -4.9936    7.1366 N   0  0  0  0  0  0  0  0  0  0  0  0
    7.9818   -5.5510    7.7054 C   0  0  0  0  0  0  0  0  0  0  0  0
    9.1638   -5.7222    6.7640 C   0  0  0  0  0  0  0  0  0  0  0  0
    8.0388   -5.9177    8.8653 O   0  0  0  0  0  0  0  0  0  0  0  0
    5.8872   -4.8096    8.9256 H   0  0  0  0  0  0  0  0  0  0  0  0
    4.0869   -5.6896    6.2950 N   0  0  0  0  0  0  0  0  0  0  0  0
    3.0075   -6.5362    5.8568 C   0  0  0  0  0  0  0  0  0  0  0  0
    4.2339   -3.0694    7.9734 H   0  0  0  0  0  0  0  0  0  0  0  0
    5.9289   -2.5647    8.1482 H   0  0  0  0  0  0  0  0  0  0  0  0
    1.4667   -6.3304    9.7866 H   0  0  0  0  0  0  0  0  0  0  0  0
   -2.0707   -6.1314    6.8303 H   0  0  0  0  0  0  0  0  0  0  0  0
   -4.0755   -8.8064    7.8628 H   0  0  0  0  0  0  0  0  0  0  0  0
   -1.1392  -10.1070   10.7546 H   0  0  0  0  0  0  0  0  0  0  0  0
    0.2919   -8.1940   10.1183 H   0  0  0  0  0  0  0  0  0  0  0  0
   -1.0082   -2.9786    4.4389 H   0  0  0  0  0  0  0  0  0  0  0  0
   -1.8457   -4.0066    5.6403 H   0  0  0  0  0  0  0  0  0  0  0  0
    0.1781   -8.5220    1.8456 H   0  0  0  0  0  0  0  0  0  0  0  0
    1.7268   -7.8815    2.4658 H   0  0  0  0  0  0  0  0  0  0  0  0
    0.9544   -7.1121    1.0639 H   0  0  0  0  0  0  0  0  0  0  0  0
    1.2679   -4.8185    3.2074 H   0  0  0  0  0  0  0  0  0  0  0  0
    6.9374   -4.5914    6.2030 H   0  0  0  0  0  0  0  0  0  0  0  0
    9.0691   -5.1491    5.8311 H   0  0  0  0  0  0  0  0  0  0  0  0
    9.2625   -6.7899    6.5170 H   0  0  0  0  0  0  0  0  0  0  0  0
   10.0771   -5.4186    7.2926 H   0  0  0  0  0  0  0  0  0  0  0  0
    4.3798   -4.8975    5.7107 H   0  0  0  0  0  0  0  0  0  0  0  0
    3.3299   -7.2187    5.0524 H   0  0  0  0  0  0  0  0  0  0  0  0
    2.1588   -5.9443    5.4800 H   0  0  0  0  0  0  0  0  0  0  0  0
    2.6648   -7.1365    6.7098 H   0  0  0  0  0  0  0  0  0  0  0  0
    1.8635   -2.0738    7.5237 H   0  0  0  0  0  0  0  0  0  0  0  0
    3.7276   -0.6931    6.6319 H   0  0  0  0  0  0  0  0  0  0  0  0
    3.2514   -1.1810    4.9058 H   0  0  0  0  0  0  0  0  0  0  0  0
  2  3  1  0  0  0  0
  2  1  2  0  0  0  0
  3 35  1  1  0  0  0
  4  3  1  0  0  0  0
  4 38  1  0  0  0  0
  4 39  1  0  0  0  0
  5  4  1  0  0  0  0
  6  7  2  0  0  0  0
  6 60  1  0  0  0  0
  7 59  1  0  0  0  0
  8  9  1  0  0  0  0
  8  7  1  0  0  0  0
  9 10  1  0  0  0  0
 10 22  2  0  0  0  0
 10 11  1  0  0  0  0
 11 12  1  0  0  0  0
 12 40  1  0  0  0  0
 13 14  1  0  0  0  0
 13 12  2  0  0  0  0
 14 21  1  0  0  0  0
 15 17  1  0  0  0  0
 15 14  2  0  0  0  0
 16 15  1  0  0  0  0
 17 18  2  0  0  0  0
 18 19  1  0  0  0  0
 18 20  1  0  0  0  0
 20 43  1  0  0  0  0
 21 20  2  0  0  0  0
 21 44  1  0  0  0  0
 22 13  1  0  0  0  0
 23 46  1  0  0  0  0
 23  9  1  0  0  0  0
 24 25  1  0  0  0  0
 24 23  1  0  0  0  0
 26 25  1  0  0  0  0
 27 29  1  0  0  0  0
 27 26  2  0  0  0  0
 28 48  1  0  0  0  0
 28 27  1  0  0  0  0
 29 24  2  0  0  0  0
 30  8  2  0  0  0  0
 31 32  1  0  0  0  0
 31  3  1  0  0  0  0
 32 34  2  0  0  0  0
 33 54  1  0  0  0  0
 33 32  1  0  0  0  0
 36  2  1  0  0  0  0
 37 36  1  0  0  0  0
 37 58  1  0  0  0  0
 41 16  1  0  0  0  0
 42 17  1  0  0  0  0
 45 23  1  0  0  0  0
 47 28  1  0  0  0  0
 49 28  1  0  0  0  0
 50 29  1  0  0  0  0
 51 31  1  0  0  0  0
 52 33  1  0  0  0  0
 53 33  1  0  0  0  0
 55 36  1  0  0  0  0
 56 37  1  0  0  0  0
 57 37  1  0  0  0  0
 61  6  1  0  0  0  0
M  END
