-1 1
 OpenBabel05192410563D

 61 63  0  0  1  0  0  0  0  0999 V2000
    3.1352   -1.2012    1.0909 O   0  0  0  0  0  0  0  0  0  0  0  0
    3.2942   -0.1778    0.4460 C   0  0  0  0  0  0  0  0  0  0  0  0
    4.3161    0.8775    0.9019 C   0  0  2  0  0  0  0  0  0  0  0  0
    3.7972    2.3223    0.9868 C   0  0  0  0  0  0  0  0  0  0  0  0
    3.7664    3.1564   -0.6312 S   0  0  0  0  0  0  0  0  0  0  0  0
    2.1622    4.1065   -0.5301 C   0  0  0  0  0  0  0  0  0  0  0  0
    0.9403    3.3390   -0.1922 C   0  0  0  0  0  3  0  0  0  0  0  0
    0.3753    2.5172   -1.1443 C   0  0  0  0  0  0  0  0  0  0  0  0
   -0.8651    1.8102   -0.7568 N   0  0  0  0  0  0  0  0  0  0  0  0
   -0.9690    0.9719    0.2988 C   0  0  0  0  0  0  0  0  0  0  0  0
    0.2238    0.8866    1.5785 S   0  0  0  0  0  0  0  0  0  0  0  0
   -0.6891   -0.3897    2.3151 C   0  0  0  0  0  0  0  0  0  0  0  0
   -1.8166   -0.6509    1.5936 C   0  0  0  0  0  0  0  0  0  0  0  0
   -2.8571   -1.6516    1.9075 C   0  0  0  0  0  0  0  0  0  0  0  0
   -4.0381   -1.7513    1.1253 C   0  0  0  0  0  0  0  0  0  0  0  0
   -4.2792   -0.9921    0.0648 O   0  0  0  0  0  0  0  0  0  0  0  0
   -5.0225   -2.6930    1.4743 C   0  0  0  0  0  0  0  0  0  0  0  0
   -4.8342   -3.5202    2.5675 C   0  0  0  0  0  0  0  0  0  0  0  0
   -6.0809   -4.6876    2.9803 Cl  0  0  0  0  0  0  0  0  0  0  0  0
   -3.6801   -3.4554    3.3462 C   0  0  0  0  0  0  0  0  0  0  0  0
   -2.7140   -2.5203    2.9971 C   0  0  0  0  0  0  0  0  0  0  0  0
   -1.9624    0.1281    0.4606 N   0  0  0  0  0  0  0  0  0  0  0  0
   -1.9093    1.7695   -1.7636 C   0  0  0  0  0  0  0  0  0  0  0  0
   -1.8804    0.5788   -2.6759 C   0  0  0  0  0  0  0  0  0  0  0  0
   -2.9406   -0.2370   -2.6616 O   0  0  0  0  0  0  0  0  0  0  0  0
   -2.7612   -1.2509   -3.5563 N   0  0  0  0  0  0  0  0  0  0  0  0
   -1.5909   -1.0440   -4.1113 C   0  0  0  0  0  0  0  0  0  0  0  0
   -1.0646   -1.9872   -5.1429 C   0  0  0  0  0  0  0  0  0  0  0  0
   -0.9760    0.1300   -3.5887 C   0  0  0  0  0  0  0  0  0  0  0  0
    0.7651    2.3001   -2.3093 O   0  0  0  0  0  0  0  0  0  0  0  0
    5.5063    0.7681    0.0749 N   0  0  0  0  0  0  0  0  0  0  0  0
    6.7491    1.0541    0.5502 C   0  0  0  0  0  0  0  0  0  0  0  0
    7.8372    1.0963   -0.5071 C   0  0  0  0  0  0  0  0  0  0  0  0
    6.9748    1.2831    1.7231 O   0  0  0  0  0  0  0  0  0  0  0  0
    4.6084    0.5631    1.9118 H   0  0  0  0  0  0  0  0  0  0  0  0
    2.6430    0.0792   -0.7104 N   0  0  0  0  0  0  0  0  0  0  0  0
    1.6269   -0.8194   -1.2056 C   0  0  0  0  0  0  0  0  0  0  0  0
    2.7675    2.3256    1.3771 H   0  0  0  0  0  0  0  0  0  0  0  0
    4.4427    2.8830    1.6776 H   0  0  0  0  0  0  0  0  0  0  0  0
   -0.3307   -0.8608    3.2259 H   0  0  0  0  0  0  0  0  0  0  0  0
   -3.4785   -0.4311   -0.1051 H   0  0  0  0  0  0  0  0  0  0  0  0
   -5.9206   -2.7514    0.8598 H   0  0  0  0  0  0  0  0  0  0  0  0
   -3.5427   -4.1201    4.1987 H   0  0  0  0  0  0  0  0  0  0  0  0
   -1.8050   -2.4664    3.5989 H   0  0  0  0  0  0  0  0  0  0  0  0
   -1.7915    2.6734   -2.3746 H   0  0  0  0  0  0  0  0  0  0  0  0
   -2.8927    1.8018   -1.2726 H   0  0  0  0  0  0  0  0  0  0  0  0
   -1.7963   -2.7838   -5.3306 H   0  0  0  0  0  0  0  0  0  0  0  0
   -0.1227   -2.4442   -4.8041 H   0  0  0  0  0  0  0  0  0  0  0  0
   -0.8588   -1.4612   -6.0871 H   0  0  0  0  0  0  0  0  0  0  0  0
   -0.0220    0.5991   -3.8107 H   0  0  0  0  0  0  0  0  0  0  0  0
    5.3653    0.7017   -0.9256 H   0  0  0  0  0  0  0  0  0  0  0  0
    7.6476    0.4027   -1.3387 H   0  0  0  0  0  0  0  0  0  0  0  0
    8.7981    0.8585   -0.0353 H   0  0  0  0  0  0  0  0  0  0  0  0
    7.8934    2.1177   -0.9140 H   0  0  0  0  0  0  0  0  0  0  0  0
    2.6939    1.0168   -1.1140 H   0  0  0  0  0  0  0  0  0  0  0  0
    2.0662   -1.6714   -1.7512 H   0  0  0  0  0  0  0  0  0  0  0  0
    0.9691   -0.2575   -1.8775 H   0  0  0  0  0  0  0  0  0  0  0  0
    1.0345   -1.2266   -0.3723 H   0  0  0  0  0  0  0  0  0  0  0  0
    0.4345    3.5266    0.7558 H   0  0  0  0  0  0  0  0  0  0  0  0
    2.3296    4.9322    0.1762 H   0  0  0  0  0  0  0  0  0  0  0  0
    2.1163    4.5289   -1.5471 H   0  0  0  0  0  0  0  0  0  0  0  0
  2  3  1  0  0  0  0
  2  1  2  0  0  0  0
  3  4  1  0  0  0  0
  3 35  1  1  0  0  0
  4 38  1  0  0  0  0
  4 39  1  0  0  0  0
  5  6  1  0  0  0  0
  5  4  1  0  0  0  0
  6  7  1  0  0  0  0
  6 60  1  0  0  0  0
  7 59  1  0  0  0  0
  8  9  1  0  0  0  0
  8  7  1  0  0  0  0
  9 10  1  0  0  0  0
 10 22  2  0  0  0  0
 10 11  1  0  0  0  0
 11 12  1  0  0  0  0
 12 40  1  0  0  0  0
 13 14  1  0  0  0  0
 13 12  2  0  0  0  0
 14 21  1  0  0  0  0
 15 17  1  0  0  0  0
 15 14  2  0  0  0  0
 16 15  1  0  0  0  0
 17 18  2  0  0  0  0
 18 19  1  0  0  0  0
 18 20  1  0  0  0  0
 20 43  1  0  0  0  0
 21 20  2  0  0  0  0
 21 44  1  0  0  0  0
 22 13  1  0  0  0  0
 23 46  1  0  0  0  0
 23  9  1  0  0  0  0
 24 25  1  0  0  0  0
 24 23  1  0  0  0  0
 26 25  1  0  0  0  0
 27 29  1  0  0  0  0
 27 26  2  0  0  0  0
 28 48  1  0  0  0  0
 28 27  1  0  0  0  0
 29 24  2  0  0  0  0
 30  8  2  0  0  0  0
 31 32  1  0  0  0  0
 31  3  1  0  0  0  0
 32 34  2  0  0  0  0
 33 53  1  0  0  0  0
 33 32  1  0  0  0  0
 36  2  1  0  0  0  0
 37 36  1  0  0  0  0
 37 58  1  0  0  0  0
 41 16  1  0  0  0  0
 42 17  1  0  0  0  0
 45 23  1  0  0  0  0
 47 28  1  0  0  0  0
 49 28  1  0  0  0  0
 50 29  1  0  0  0  0
 51 31  1  0  0  0  0
 52 33  1  0  0  0  0
 54 33  1  0  0  0  0
 55 36  1  0  0  0  0
 56 37  1  0  0  0  0
 57 37  1  0  0  0  0
 61  6  1  0  0  0  0
M  END
