-1 1
 OpenBabel05192410563D

 61 63  0  0  1  0  0  0  0  0999 V2000
   -0.2186   -0.0173   -3.5140 O   0  0  0  0  0  0  0  0  0  0  0  0
    0.4106   -1.0115   -3.8347 C   0  0  0  0  0  0  0  0  0  0  0  0
   -0.3338   -2.2363   -4.3833 C   0  0  2  0  0  0  0  0  0  0  0  0
   -1.2501   -2.8457   -3.2902 C   0  0  0  0  0  0  0  0  0  0  0  0
   -0.6081   -4.2765   -2.3869 S   0  0  0  0  0  0  0  0  0  0  0  0
    0.5782   -3.4905   -1.1006 C   0  0  0  0  0  0  0  0  0  0  0  0
    0.3258   -2.0969   -0.7304 C   0  0  0  0  0  3  0  0  0  0  0  0
   -0.4937   -1.7925    0.3482 C   0  0  0  0  0  0  0  0  0  0  0  0
   -0.6921   -0.3797    0.6508 N   0  0  0  0  0  0  0  0  0  0  0  0
   -1.1638   -0.0038    1.8696 C   0  0  0  0  0  0  0  0  0  0  0  0
   -1.7908   -1.1284    3.0520 S   0  0  0  0  0  0  0  0  0  0  0  0
   -2.0926    0.2200    4.1137 C   0  0  0  0  0  0  0  0  0  0  0  0
   -1.7290    1.3961    3.5285 C   0  0  0  0  0  0  0  0  0  0  0  0
   -1.8159    2.7577    4.0955 C   0  0  0  0  0  0  0  0  0  0  0  0
   -1.2063    3.8611    3.4366 C   0  0  0  0  0  0  0  0  0  0  0  0
   -0.5528    3.7442    2.2865 O   0  0  0  0  0  0  0  0  0  0  0  0
   -1.2823    5.1399    4.0132 C   0  0  0  0  0  0  0  0  0  0  0  0
   -1.9525    5.3170    5.2092 C   0  0  0  0  0  0  0  0  0  0  0  0
   -2.0144    6.5463    5.7409 F   0  0  0  0  0  0  0  0  0  0  0  0
   -2.5688    4.2630    5.8753 C   0  0  0  0  0  0  0  0  0  0  0  0
   -2.4884    2.9997    5.2992 C   0  0  0  0  0  0  0  0  0  0  0  0
   -1.1996    1.2489    2.2600 N   0  0  0  0  0  0  0  0  0  0  0  0
   -0.3376    0.6672   -0.2819 C   0  0  0  0  0  0  0  0  0  0  0  0
    1.0786    1.1237   -0.1268 C   0  0  0  0  0  0  0  0  0  0  0  0
    1.4730    2.1691   -0.8572 O   0  0  0  0  0  0  0  0  0  0  0  0
    2.8005    2.4235   -0.6301 N   0  0  0  0  0  0  0  0  0  0  0  0
    3.1940    1.5315    0.2456 C   0  0  0  0  0  0  0  0  0  0  0  0
    4.6072    1.5177    0.7286 C   0  0  0  0  0  0  0  0  0  0  0  0
    2.1258    0.6612    0.6090 C   0  0  0  0  0  0  0  0  0  0  0  0
   -1.0634   -2.5843    1.1246 O   0  0  0  0  0  0  0  0  0  0  0  0
    0.5151   -3.2468   -4.9649 N   0  0  0  0  0  0  0  0  0  0  0  0
    0.8720   -3.2482   -6.2787 C   0  0  0  0  0  0  0  0  0  0  0  0
    1.6198   -4.4878   -6.7376 C   0  0  0  0  0  0  0  0  0  0  0  0
    0.6167   -2.3354   -7.0399 O   0  0  0  0  0  0  0  0  0  0  0  0
   -0.9698   -1.8160   -5.1775 H   0  0  0  0  0  0  0  0  0  0  0  0
    1.7518   -1.1262   -3.7254 N   0  0  0  0  0  0  0  0  0  0  0  0
    2.5793   -0.1037   -3.1351 C   0  0  0  0  0  0  0  0  0  0  0  0
   -1.5058   -2.0650   -2.5581 H   0  0  0  0  0  0  0  0  0  0  0  0
   -2.1823   -3.2000   -3.7509 H   0  0  0  0  0  0  0  0  0  0  0  0
   -2.5025    0.0596    5.1083 H   0  0  0  0  0  0  0  0  0  0  0  0
   -0.6283    2.7932    1.9961 H   0  0  0  0  0  0  0  0  0  0  0  0
   -0.8106    5.9814    3.5056 H   0  0  0  0  0  0  0  0  0  0  0  0
   -3.0974    4.4398    6.8123 H   0  0  0  0  0  0  0  0  0  0  0  0
   -2.9766    2.1635    5.8040 H   0  0  0  0  0  0  0  0  0  0  0  0
   -1.0070    1.5272   -0.1350 H   0  0  0  0  0  0  0  0  0  0  0  0
   -0.4859    0.3112   -1.3133 H   0  0  0  0  0  0  0  0  0  0  0  0
    5.1791    2.3149    0.2361 H   0  0  0  0  0  0  0  0  0  0  0  0
    5.0845    0.5502    0.5120 H   0  0  0  0  0  0  0  0  0  0  0  0
    4.6473    1.6732    1.8170 H   0  0  0  0  0  0  0  0  0  0  0  0
    2.1248   -0.1895    1.2836 H   0  0  0  0  0  0  0  0  0  0  0  0
    0.6166   -4.0869   -4.3910 H   0  0  0  0  0  0  0  0  0  0  0  0
    2.4996   -4.1730   -7.3148 H   0  0  0  0  0  0  0  0  0  0  0  0
    0.9680   -5.0580   -7.4156 H   0  0  0  0  0  0  0  0  0  0  0  0
    1.9333   -5.1419   -5.9125 H   0  0  0  0  0  0  0  0  0  0  0  0
    2.1547   -2.0138   -3.9942 H   0  0  0  0  0  0  0  0  0  0  0  0
    1.9711    0.8004   -3.0080 H   0  0  0  0  0  0  0  0  0  0  0  0
    3.4381    0.1332   -3.7811 H   0  0  0  0  0  0  0  0  0  0  0  0
    2.9489   -0.4055   -2.1408 H   0  0  0  0  0  0  0  0  0  0  0  0
    1.5802   -3.6355   -1.5288 H   0  0  0  0  0  0  0  0  0  0  0  0
    0.4413   -4.1689   -0.2466 H   0  0  0  0  0  0  0  0  0  0  0  0
    0.8331   -1.3164   -1.2876 H   0  0  0  0  0  0  0  0  0  0  0  0
  2 36  1  0  0  0  0
  2  1  2  0  0  0  0
  3 35  1  6  0  0  0
  3  2  1  0  0  0  0
  3  4  1  0  0  0  0
  4 38  1  0  0  0  0
  4  5  1  0  0  0  0
  5  6  1  0  0  0  0
  6  7  1  0  0  0  0
  6 60  1  0  0  0  0
  7  8  1  0  0  0  0
  8  9  1  0  0  0  0
  8 30  2  0  0  0  0
  9 10  1  0  0  0  0
 10 22  2  0  0  0  0
 10 11  1  0  0  0  0
 11 12  1  0  0  0  0
 12 40  1  0  0  0  0
 13 14  1  0  0  0  0
 13 12  2  0  0  0  0
 14 21  1  0  0  0  0
 15 17  1  0  0  0  0
 15 14  2  0  0  0  0
 16 15  1  0  0  0  0
 17 18  2  0  0  0  0
 18 19  1  0  0  0  0
 18 20  1  0  0  0  0
 20 43  1  0  0  0  0
 21 44  1  0  0  0  0
 21 20  2  0  0  0  0
 22 13  1  0  0  0  0
 23 45  1  0  0  0  0
 23 24  1  0  0  0  0
 23  9  1  0  0  0  0
 24 29  2  0  0  0  0
 25 26  1  0  0  0  0
 25 24  1  0  0  0  0
 26 27  2  0  0  0  0
 27 29  1  0  0  0  0
 27 28  1  0  0  0  0
 28 49  1  0  0  0  0
 29 50  1  0  0  0  0
 31 51  1  0  0  0  0
 31  3  1  0  0  0  0
 32 31  1  0  0  0  0
 33 32  1  0  0  0  0
 33 54  1  0  0  0  0
 34 32  2  0  0  0  0
 36 37  1  0  0  0  0
 37 56  1  0  0  0  0
 37 58  1  0  0  0  0
 39  4  1  0  0  0  0
 41 16  1  0  0  0  0
 42 17  1  0  0  0  0
 46 23  1  0  0  0  0
 47 28  1  0  0  0  0
 48 28  1  0  0  0  0
 52 33  1  0  0  0  0
 53 33  1  0  0  0  0
 55 36  1  0  0  0  0
 57 37  1  0  0  0  0
 59  6  1  0  0  0  0
 61  7  1  0  0  0  0
M  END
