-1 1
 OpenBabel05232413493D

 61 62  0  0  1  0  0  0  0  0999 V2000
    1.1735   -0.3988   -3.0449 O   0  0  0  0  0  0  0  0  0  0  0  0
    0.9602   -1.4819   -3.5791 C   0  0  0  0  0  0  0  0  0  0  0  0
   -0.4647   -1.9667   -3.8653 C   0  0  2  0  0  0  0  0  0  0  0  0
   -0.9281   -2.9353   -2.7510 C   0  0  0  0  0  0  0  0  0  0  0  0
   -0.2225   -4.6105   -2.8814 S   0  0  0  0  0  1  0  0  0  0  0  0
    1.6258   -3.7980   -0.6273 C   0  0  0  0  0  0  0  0  0  0  0  0
    1.4395   -2.4957   -0.3449 C   0  0  0  0  0  0  0  0  0  0  0  0
    0.5181   -2.1187    0.7325 C   0  0  0  0  0  0  0  0  0  0  0  0
    0.1682   -0.7596    0.8674 N   0  0  0  0  0  0  0  0  0  0  0  0
   -0.5735   -0.3511    1.9562 C   0  0  0  0  0  0  0  0  0  0  0  0
   -1.1767   -1.4200    3.1906 S   0  0  0  0  0  0  0  0  0  0  0  0
   -1.8578   -0.0488    4.0003 C   0  0  0  0  0  0  0  0  0  0  0  0
   -1.6061    1.1028    3.3109 C   0  0  0  0  0  0  0  0  0  0  0  0
   -2.0019    2.4812    3.6664 C   0  0  0  0  0  0  0  0  0  0  0  0
   -1.6909    3.5744    2.8146 C   0  0  0  0  0  0  0  0  0  0  0  0
   -1.0447    3.4267    1.6582 O   0  0  0  0  0  0  0  0  0  0  0  0
   -2.0738    4.8736    3.1802 C   0  0  0  0  0  0  0  0  0  0  0  0
   -2.7514    5.0800    4.3673 C   0  0  0  0  0  0  0  0  0  0  0  0
   -3.1079    6.3254    4.7000 F   0  0  0  0  0  0  0  0  0  0  0  0
   -3.0732    4.0338    5.2263 C   0  0  0  0  0  0  0  0  0  0  0  0
   -2.6895    2.7508    4.8568 C   0  0  0  0  0  0  0  0  0  0  0  0
   -0.8816    0.9038    2.1537 N   0  0  0  0  0  0  0  0  0  0  0  0
    0.5862    0.2816   -0.0739 C   0  0  0  0  0  0  0  0  0  0  0  0
    1.8131    1.0105    0.3704 C   0  0  0  0  0  0  0  0  0  0  0  0
    2.9746    0.3487    0.3136 O   0  0  0  0  0  0  0  0  0  0  0  0
    3.9884    1.1444    0.7596 N   0  0  0  0  0  0  0  0  0  0  0  0
    3.4410    2.2897    1.0825 C   0  0  0  0  0  0  0  0  0  0  0  0
    4.2738    3.4092    1.6145 C   0  0  0  0  0  0  0  0  0  0  0  0
    2.0330    2.2632    0.8556 C   0  0  0  0  0  0  0  0  0  0  0  0
    0.0512   -2.9138    1.5327 O   0  0  0  0  0  0  0  0  0  0  0  0
   -0.6054   -2.6319   -5.1368 N   0  0  0  0  0  0  0  0  0  0  0  0
   -0.4681   -2.0029   -6.3250 C   0  0  0  0  0  0  0  0  0  0  0  0
   -0.4784   -2.9217   -7.5366 C   0  0  0  0  0  0  0  0  0  0  0  0
   -0.3263   -0.7971   -6.4373 O   0  0  0  0  0  0  0  0  0  0  0  0
   -1.0770   -1.0526   -3.8537 H   0  0  0  0  0  0  0  0  0  0  0  0
    1.9396   -2.3557   -3.9046 N   0  0  0  0  0  0  0  0  0  0  0  0
    3.3141   -2.1001   -3.5635 C   0  0  0  0  0  0  0  0  0  0  0  0
   -0.6604   -2.4756   -1.7824 H   0  0  0  0  0  0  0  0  0  0  0  0
   -2.0278   -2.9863   -2.7851 H   0  0  0  0  0  0  0  0  0  0  0  0
   -2.4061   -0.1769    4.9303 H   0  0  0  0  0  0  0  0  0  0  0  0
   -0.8447    2.4571    1.5577 H   0  0  0  0  0  0  0  0  0  0  0  0
   -1.8337    5.7072    2.5203 H   0  0  0  0  0  0  0  0  0  0  0  0
   -3.6074    4.2324    6.1555 H   0  0  0  0  0  0  0  0  0  0  0  0
   -2.9328    1.9227    5.5252 H   0  0  0  0  0  0  0  0  0  0  0  0
   -0.2325    1.0020   -0.1751 H   0  0  0  0  0  0  0  0  0  0  0  0
    0.7434   -0.1470   -1.0742 H   0  0  0  0  0  0  0  0  0  0  0  0
    5.3236    3.0953    1.6803 H   0  0  0  0  0  0  0  0  0  0  0  0
    3.9286    3.7103    2.6147 H   0  0  0  0  0  0  0  0  0  0  0  0
    4.2070    4.2900    0.9587 H   0  0  0  0  0  0  0  0  0  0  0  0
    1.3009    3.0440    1.0431 H   0  0  0  0  0  0  0  0  0  0  0  0
   -0.5999   -3.6525   -5.0611 H   0  0  0  0  0  0  0  0  0  0  0  0
    0.5622   -3.1008   -7.8481 H   0  0  0  0  0  0  0  0  0  0  0  0
   -0.9934   -2.4128   -8.3617 H   0  0  0  0  0  0  0  0  0  0  0  0
   -0.9557   -3.8915   -7.3380 H   0  0  0  0  0  0  0  0  0  0  0  0
    1.6207   -3.3253   -4.0010 H   0  0  0  0  0  0  0  0  0  0  0  0
    3.4804   -1.0153   -3.5651 H   0  0  0  0  0  0  0  0  0  0  0  0
    3.9836   -2.5709   -4.2984 H   0  0  0  0  0  0  0  0  0  0  0  0
    3.5802   -2.4761   -2.5591 H   0  0  0  0  0  0  0  0  0  0  0  0
    2.3349   -4.1148   -1.3901 H   0  0  0  0  0  0  0  0  0  0  0  0
    1.1072   -4.5739   -0.0631 H   0  0  0  0  0  0  0  0  0  0  0  0
    1.9652   -1.7243   -0.9053 H   0  0  0  0  0  0  0  0  0  0  0  0
  2  1  2  0  0  0  0
  3 35  1  1  0  0  0
  3  2  1  0  0  0  0
  3  4  1  0  0  0  0
  4 38  1  0  0  0  0
  5  4  1  0  0  0  0
  6  7  2  0  0  0  0
  6 60  1  0  0  0  0
  7  8  1  0  0  0  0
  8  9  1  0  0  0  0
  8 30  2  0  0  0  0
  9 10  1  0  0  0  0
 10 22  2  0  0  0  0
 10 11  1  0  0  0  0
 11 12  1  0  0  0  0
 12 40  1  0  0  0  0
 13 14  1  0  0  0  0
 13 12  2  0  0  0  0
 14 21  1  0  0  0  0
 15 17  1  0  0  0  0
 15 14  2  0  0  0  0
 16 15  1  0  0  0  0
 17 18  2  0  0  0  0
 18 19  1  0  0  0  0
 18 20  1  0  0  0  0
 20 43  1  0  0  0  0
 21 20  2  0  0  0  0
 21 44  1  0  0  0  0
 22 13  1  0  0  0  0
 23 24  1  0  0  0  0
 23  9  1  0  0  0  0
 24 29  2  0  0  0  0
 25 24  1  0  0  0  0
 25 26  1  0  0  0  0
 26 27  2  0  0  0  0
 27 28  1  0  0  0  0
 28 47  1  0  0  0  0
 28 48  1  0  0  0  0
 29 50  1  0  0  0  0
 29 27  1  0  0  0  0
 31 51  1  0  0  0  0
 31  3  1  0  0  0  0
 32 31  1  0  0  0  0
 33 54  1  0  0  0  0
 33 32  1  0  0  0  0
 34 32  2  0  0  0  0
 36  2  1  0  0  0  0
 36 37  1  0  0  0  0
 37 58  1  0  0  0  0
 39  4  1  0  0  0  0
 41 16  1  0  0  0  0
 42 17  1  0  0  0  0
 45 23  1  0  0  0  0
 46 23  1  0  0  0  0
 49 28  1  0  0  0  0
 52 33  1  0  0  0  0
 53 33  1  0  0  0  0
 55 36  1  0  0  0  0
 56 37  1  0  0  0  0
 57 37  1  0  0  0  0
 59  6  1  0  0  0  0
 61  7  1  0  0  0  0
M  END
