61
-1 1
O        -0.218607   -0.017334   -3.513953
C         0.410606   -1.011524   -3.834680
C        -0.333766   -2.236306   -4.383293
C        -1.250121   -2.845666   -3.290171
S        -0.608074   -4.276523   -2.386866
C         0.578176   -3.490491   -1.100622
C         0.325759   -2.096937   -0.730411
C        -0.493721   -1.792481    0.348247
N        -0.692089   -0.379663    0.650803
C        -1.163759   -0.003795    1.869559
S        -1.790753   -1.128438    3.052015
C        -2.092603    0.220001    4.113718
C        -1.729027    1.396070    3.528513
C        -1.815870    2.757716    4.095511
C        -1.206268    3.861124    3.436608
O        -0.552838    3.744223    2.286473
C        -1.282288    5.139945    4.013208
C        -1.952518    5.316967    5.209240
F        -2.014362    6.546299    5.740851
C        -2.568789    4.263032    5.875256
C        -2.488409    2.999684    5.299207
N        -1.199574    1.248948    2.259997
C        -0.337646    0.667245   -0.281867
C         1.078603    1.123687   -0.126820
O         1.472960    2.169062   -0.857238
N         2.800544    2.423502   -0.630096
C         3.193988    1.531549    0.245596
C         4.607206    1.517700    0.728646
C         2.125797    0.661211    0.609023
O        -1.063395   -2.584293    1.124567
N         0.515113   -3.246750   -4.964919
C         0.871997   -3.248219   -6.278736
C         1.619836   -4.487773   -6.737620
O         0.616660   -2.335353   -7.039889
H        -0.969846   -1.816008   -5.177505
N         1.751850   -1.126242   -3.725362
C         2.579314   -0.103720   -3.135113
H        -1.505760   -2.064987   -2.558123
H        -2.182294   -3.200036   -3.750881
H        -2.502510    0.059574    5.108275
H        -0.628258    2.793172    1.996082
H        -0.810643    5.981434    3.505585
H        -3.097371    4.439773    6.812283
H        -2.976646    2.163495    5.804027
H        -1.006994    1.527172   -0.134996
H        -0.485928    0.311184   -1.313311
H         5.179073    2.314868    0.236051
H         5.084466    0.550216    0.511984
H         4.647330    1.673204    1.817027
H         2.124814   -0.189509    1.283647
H         0.616591   -4.086855   -4.391050
H         2.499617   -4.173025   -7.314847
H         0.967980   -5.058046   -7.415637
H         1.933288   -5.141919   -5.912453
H         2.154668   -2.013805   -3.994215
H         1.971149    0.800426   -3.007994
H         3.438118    0.133173   -3.781067
H         2.948937   -0.405516   -2.140764
H         1.580228   -3.635497   -1.528763
H         0.441349   -4.168912   -0.246626
H         0.833086   -1.316418   -1.287591
