-1 1
 OpenBabel05232414493D

 61 62  0  0  1  0  0  0  0  0999 V2000
   -3.0811    3.8985    0.1264 O   0  0  0  0  0  0  0  0  0  0  0  0
   -3.0363    2.7617   -0.3226 C   0  0  0  0  0  0  0  0  0  0  0  0
   -4.3210    1.9885   -0.6394 C   0  0  2  0  0  0  0  0  0  0  0  0
   -4.7245    1.1256    0.5788 C   0  0  0  0  0  0  0  0  0  0  0  0
   -3.8024   -0.4237    0.7429 S   0  0  0  0  0  1  0  0  0  0  0  0
   -2.3136    0.4258    2.5877 C   0  0  0  0  0  0  0  0  0  0  0  0
   -2.5618    1.7483    2.8701 C   0  0  0  0  0  0  0  0  0  0  0  0
   -3.4984    2.0920    3.9041 C   0  0  0  0  0  0  0  0  0  0  0  0
   -3.7815    3.4749    4.1206 N   0  0  0  0  0  0  0  0  0  0  0  0
   -4.4985    3.8567    5.2255 C   0  0  0  0  0  0  0  0  0  0  0  0
   -5.1839    2.7388    6.3758 S   0  0  0  0  0  0  0  0  0  0  0  0
   -5.7819    4.0912    7.2837 C   0  0  0  0  0  0  0  0  0  0  0  0
   -5.4519    5.2702    6.6824 C   0  0  0  0  0  0  0  0  0  0  0  0
   -5.7624    6.6404    7.1403 C   0  0  0  0  0  0  0  0  0  0  0  0
   -5.3525    7.7730    6.3879 C   0  0  0  0  0  0  0  0  0  0  0  0
   -4.6868    7.6697    5.2373 O   0  0  0  0  0  0  0  0  0  0  0  0
   -5.6508    9.0635    6.8503 C   0  0  0  0  0  0  0  0  0  0  0  0
   -6.3434    9.2236    8.0361 C   0  0  0  0  0  0  0  0  0  0  0  0
   -6.6190   10.4621    8.4622 F   0  0  0  0  0  0  0  0  0  0  0  0
   -6.7627    8.1384    8.7987 C   0  0  0  0  0  0  0  0  0  0  0  0
   -6.4618    6.8640    8.3331 C   0  0  0  0  0  0  0  0  0  0  0  0
   -4.7292    5.1135    5.5154 N   0  0  0  0  0  0  0  0  0  0  0  0
   -3.3214    4.5336    3.2233 C   0  0  0  0  0  0  0  0  0  0  0  0
   -2.0217    5.1515    3.6364 C   0  0  0  0  0  0  0  0  0  0  0  0
   -0.8944    4.5702    3.2070 O   0  0  0  0  0  0  0  0  0  0  0  0
    0.1915    5.2470    3.6760 N   0  0  0  0  0  0  0  0  0  0  0  0
   -0.2762    6.2416    4.3892 C   0  0  0  0  0  0  0  0  0  0  0  0
    0.6515    7.2009    5.0594 C   0  0  0  0  0  0  0  0  0  0  0  0
   -1.7017    6.2329    4.4010 C   0  0  0  0  0  0  0  0  0  0  0  0
   -4.0594    1.2892    4.6462 O   0  0  0  0  0  0  0  0  0  0  0  0
   -4.2250    1.1480   -1.8075 N   0  0  0  0  0  0  0  0  0  0  0  0
   -4.1498    1.6318   -3.0693 C   0  0  0  0  0  0  0  0  0  0  0  0
   -3.9215    0.5818   -4.1449 C   0  0  0  0  0  0  0  0  0  0  0  0
   -4.2393    2.8158   -3.3410 O   0  0  0  0  0  0  0  0  0  0  0  0
   -5.0760    2.7699   -0.8095 H   0  0  0  0  0  0  0  0  0  0  0  0
   -1.8852    2.0759   -0.5166 N   0  0  0  0  0  0  0  0  0  0  0  0
   -0.6066    2.5881   -0.0954 C   0  0  0  0  0  0  0  0  0  0  0  0
   -4.5621    1.7360    1.4878 H   0  0  0  0  0  0  0  0  0  0  0  0
   -5.8023    0.9124    0.5198 H   0  0  0  0  0  0  0  0  0  0  0  0
   -6.3420    3.9327    8.2021 H   0  0  0  0  0  0  0  0  0  0  0  0
   -4.5746    6.6957    5.0532 H   0  0  0  0  0  0  0  0  0  0  0  0
   -5.3342    9.9271    6.2655 H   0  0  0  0  0  0  0  0  0  0  0  0
   -7.3072    8.3002    9.7292 H   0  0  0  0  0  0  0  0  0  0  0  0
   -6.7830    6.0046    8.9247 H   0  0  0  0  0  0  0  0  0  0  0  0
   -4.0872    5.3171    3.2022 H   0  0  0  0  0  0  0  0  0  0  0  0
   -3.2424    4.1472    2.1982 H   0  0  0  0  0  0  0  0  0  0  0  0
    1.6925    6.9241    4.8479 H   0  0  0  0  0  0  0  0  0  0  0  0
    0.4966    7.1963    6.1486 H   0  0  0  0  0  0  0  0  0  0  0  0
    0.4765    8.2266    4.7021 H   0  0  0  0  0  0  0  0  0  0  0  0
   -2.3807    6.9221    4.8950 H   0  0  0  0  0  0  0  0  0  0  0  0
   -4.0625    0.1619   -1.6008 H   0  0  0  0  0  0  0  0  0  0  0  0
   -2.8739    0.6443   -4.4764 H   0  0  0  0  0  0  0  0  0  0  0  0
   -4.5572    0.8188   -5.0081 H   0  0  0  0  0  0  0  0  0  0  0  0
   -4.1242   -0.4431   -3.8045 H   0  0  0  0  0  0  0  0  0  0  0  0
   -1.9958    1.0731   -0.6483 H   0  0  0  0  0  0  0  0  0  0  0  0
   -0.7261    3.6534    0.1378 H   0  0  0  0  0  0  0  0  0  0  0  0
    0.1479    2.4746   -0.8896 H   0  0  0  0  0  0  0  0  0  0  0  0
   -0.2407    2.0815    0.8134 H   0  0  0  0  0  0  0  0  0  0  0  0
   -1.4529    0.1557    1.9780 H   0  0  0  0  0  0  0  0  0  0  0  0
   -2.7136   -0.3432    3.2482 H   0  0  0  0  0  0  0  0  0  0  0  0
   -2.0406    2.5287    2.3222 H   0  0  0  0  0  0  0  0  0  0  0  0
  2  1  2  0  0  0  0
  3 35  1  6  0  0  0
  3  2  1  0  0  0  0
  3  4  1  0  0  0  0
  4  5  1  0  0  0  0
  4 38  1  0  0  0  0
  6  7  2  0  0  0  0
  6 60  1  0  0  0  0
  7  8  1  0  0  0  0
  8  9  1  0  0  0  0
  8 30  2  0  0  0  0
  9 10  1  0  0  0  0
 10 22  2  0  0  0  0
 10 11  1  0  0  0  0
 11 12  1  0  0  0  0
 12 40  1  0  0  0  0
 13 14  1  0  0  0  0
 13 12  2  0  0  0  0
 14 21  1  0  0  0  0
 15 17  1  0  0  0  0
 15 14  2  0  0  0  0
 16 15  1  0  0  0  0
 17 18  2  0  0  0  0
 18 19  1  0  0  0  0
 18 20  1  0  0  0  0
 20 43  1  0  0  0  0
 21 20  2  0  0  0  0
 21 44  1  0  0  0  0
 22 13  1  0  0  0  0
 23 24  1  0  0  0  0
 23  9  1  0  0  0  0
 24 29  2  0  0  0  0
 25 24  1  0  0  0  0
 25 26  1  0  0  0  0
 26 27  2  0  0  0  0
 27 29  1  0  0  0  0
 27 28  1  0  0  0  0
 28 48  1  0  0  0  0
 29 50  1  0  0  0  0
 31 51  1  0  0  0  0
 31  3  1  0  0  0  0
 32 31  1  0  0  0  0
 33 54  1  0  0  0  0
 33 32  1  0  0  0  0
 34 32  2  0  0  0  0
 36  2  1  0  0  0  0
 36 37  1  0  0  0  0
 37 56  1  0  0  0  0
 37 58  1  0  0  0  0
 39  4  1  0  0  0  0
 41 16  1  0  0  0  0
 42 17  1  0  0  0  0
 45 23  1  0  0  0  0
 46 23  1  0  0  0  0
 47 28  1  0  0  0  0
 49 28  1  0  0  0  0
 52 33  1  0  0  0  0
 53 33  1  0  0  0  0
 55 36  1  0  0  0  0
 57 37  1  0  0  0  0
 59  6  1  0  0  0  0
 61  7  1  0  0  0  0
M  END
