-1 1
 OpenBabel05232414493D

 62 63  0  0  1  0  0  0  0  0999 V2000
   -4.0890   -1.9543   -8.1599 O   0  0  0  0  0  0  0  0  0  0  0  0
   -3.2822   -1.1227   -7.7817 C   0  0  0  0  0  0  0  0  0  0  0  0
   -2.2806   -1.3878   -6.6464 C   0  0  2  0  0  0  0  0  0  0  0  0
   -0.9077   -1.7766   -7.2209 C   0  0  0  0  0  0  0  0  0  0  0  0
    0.3808   -2.0726   -5.9656 S   0  0  0  0  0  1  0  0  0  0  0  0
    0.8213    0.4257   -5.5607 C   0  0  0  0  0  3  0  0  0  0  0  0
   -0.2016    1.0978   -4.9369 C   0  0  0  0  0  3  0  0  0  0  0  0
   -1.2932    1.6149   -5.7260 C   0  0  0  0  0  0  0  0  0  0  0  0
   -2.5208    1.8599   -5.0622 N   0  0  0  0  0  0  0  0  0  0  0  0
   -3.5704    2.4617   -5.7620 C   0  0  0  0  0  0  0  0  0  0  0  0
   -5.1249    1.6882   -5.9203 S   0  0  0  0  0  0  0  0  0  0  0  0
   -5.7204    2.9822   -6.8776 C   0  0  0  0  0  0  0  0  0  0  0  0
   -4.7689    3.9419   -7.1238 C   0  0  0  0  0  0  0  0  0  0  0  0
   -5.0096    5.1700   -7.9156 C   0  0  0  0  0  0  0  0  0  0  0  0
   -4.7416    6.4325   -7.3469 C   0  0  0  0  0  0  0  0  0  0  0  0
   -4.2742    6.5645   -6.0886 O   0  0  0  0  0  0  0  0  0  0  0  0
   -4.9775    7.5973   -8.0826 C   0  0  0  0  0  0  0  0  0  0  0  0
   -5.4853    7.5180   -9.3760 C   0  0  0  0  0  0  0  0  0  0  0  0
   -5.7662    6.2775   -9.9484 C   0  0  0  0  0  0  0  0  0  0  0  0
   -5.5249    5.1179   -9.2147 C   0  0  0  0  0  0  0  0  0  0  0  0
   -3.5322    3.6357   -6.4700 C   0  0  0  0  0  0  0  0  0  0  0  0
   -2.7821    1.4213   -3.7063 C   0  0  0  0  0  0  0  0  0  0  0  0
   -2.5386    2.5175   -2.7188 C   0  0  0  0  0  0  0  0  0  0  0  0
   -2.9755    2.3433   -1.4695 O   0  0  0  0  0  0  0  0  0  0  0  0
   -2.6622    3.4388   -0.7084 N   0  0  0  0  0  0  0  0  0  0  0  0
   -2.0387    4.2694   -1.5064 C   0  0  0  0  0  0  0  0  0  0  0  0
   -1.5497    5.5866   -1.0002 C   0  0  0  0  0  0  0  0  0  0  0  0
   -1.9275    3.7299   -2.8223 C   0  0  0  0  0  0  0  0  0  0  0  0
   -1.2360    1.8100   -6.9418 O   0  0  0  0  0  0  0  0  0  0  0  0
   -2.7665   -2.4021   -5.7479 N   0  0  0  0  0  0  0  0  0  0  0  0
   -3.7192   -2.1397   -4.8363 C   0  0  0  0  0  0  0  0  0  0  0  0
   -4.0734   -3.2793   -3.9012 C   0  0  0  0  0  0  0  0  0  0  0  0
   -4.2967   -1.0604   -4.7615 O   0  0  0  0  0  0  0  0  0  0  0  0
   -2.1749   -0.4613   -6.0736 H   0  0  0  0  0  0  0  0  0  0  0  0
   -3.1360    0.1062   -8.3387 N   0  0  0  0  0  0  0  0  0  0  0  0
   -3.9836    0.5788   -9.3982 C   0  0  0  0  0  0  0  0  0  0  0  0
   -1.0390   -2.6772   -7.8455 H   0  0  0  0  0  0  0  0  0  0  0  0
   -0.5985   -0.9660   -7.8979 H   0  0  0  0  0  0  0  0  0  0  0  0
   -6.7602    2.9922   -7.2013 H   0  0  0  0  0  0  0  0  0  0  0  0
   -4.2008    5.6887   -5.6837 H   0  0  0  0  0  0  0  0  0  0  0  0
   -4.7619    8.5587   -7.6127 H   0  0  0  0  0  0  0  0  0  0  0  0
   -5.6636    8.4366   -9.9403 H   0  0  0  0  0  0  0  0  0  0  0  0
   -6.1622    6.2118  -10.9637 H   0  0  0  0  0  0  0  0  0  0  0  0
   -5.7213    4.1363   -9.6529 H   0  0  0  0  0  0  0  0  0  0  0  0
   -2.6197    4.2237   -6.5691 H   0  0  0  0  0  0  0  0  0  0  0  0
   -2.1594    0.5467   -3.4740 H   0  0  0  0  0  0  0  0  0  0  0  0
   -3.8158    1.0567   -3.6196 H   0  0  0  0  0  0  0  0  0  0  0  0
   -2.0142    6.4144   -1.5566 H   0  0  0  0  0  0  0  0  0  0  0  0
   -0.4598    5.6712   -1.1243 H   0  0  0  0  0  0  0  0  0  0  0  0
   -1.7950    5.6931    0.0644 H   0  0  0  0  0  0  0  0  0  0  0  0
   -1.4628    4.1593   -3.7047 H   0  0  0  0  0  0  0  0  0  0  0  0
   -2.1839   -3.2239   -5.6403 H   0  0  0  0  0  0  0  0  0  0  0  0
   -3.3504   -4.1060   -3.9294 H   0  0  0  0  0  0  0  0  0  0  0  0
   -5.0653   -3.6630   -4.1816 H   0  0  0  0  0  0  0  0  0  0  0  0
   -4.1430   -2.8855   -2.8785 H   0  0  0  0  0  0  0  0  0  0  0  0
   -2.4701    0.7630   -7.9211 H   0  0  0  0  0  0  0  0  0  0  0  0
   -4.6846   -0.2251   -9.6586 H   0  0  0  0  0  0  0  0  0  0  0  0
   -3.4016    0.8482  -10.2955 H   0  0  0  0  0  0  0  0  0  0  0  0
   -4.5590    1.4650   -9.0803 H   0  0  0  0  0  0  0  0  0  0  0  0
   -0.2500    1.1083   -3.8485 H   0  0  0  0  0  0  0  0  0  0  0  0
    1.7058    0.1241   -5.0017 H   0  0  0  0  0  0  0  0  0  0  0  0
    0.9317    0.5032   -6.6427 H   0  0  0  0  0  0  0  0  0  0  0  0
  1  2  2  0  0  0  0
  2  3  1  0  0  0  0
  3 34  1  1  0  0  0
  3 30  1  0  0  0  0
  4  3  1  0  0  0  0
  4  5  1  0  0  0  0
  6 61  1  0  0  0  0
  6  7  1  0  0  0  0
  7 60  1  0  0  0  0
  8  9  1  0  0  0  0
  8  7  1  0  0  0  0
  9 22  1  0  0  0  0
 10  9  1  0  0  0  0
 11 10  1  0  0  0  0
 12 11  1  0  0  0  0
 13 12  2  0  0  0  0
 13 21  1  0  0  0  0
 14 15  1  0  0  0  0
 14 13  1  0  0  0  0
 15 16  1  0  0  0  0
 16 40  1  0  0  0  0
 17 41  1  0  0  0  0
 17 15  2  0  0  0  0
 18 17  1  0  0  0  0
 19 18  2  0  0  0  0
 19 20  1  0  0  0  0
 20 14  2  0  0  0  0
 21 10  2  0  0  0  0
 22 47  1  0  0  0  0
 22 46  1  0  0  0  0
 22 23  1  0  0  0  0
 23 24  1  0  0  0  0
 24 25  1  0  0  0  0
 26 27  1  0  0  0  0
 26 25  2  0  0  0  0
 27 50  1  0  0  0  0
 28 23  2  0  0  0  0
 28 26  1  0  0  0  0
 29  8  2  0  0  0  0
 30 52  1  0  0  0  0
 30 31  1  0  0  0  0
 31 33  2  0  0  0  0
 31 32  1  0  0  0  0
 32 55  1  0  0  0  0
 35 56  1  0  0  0  0
 35  2  1  0  0  0  0
 36 59  1  0  0  0  0
 36 35  1  0  0  0  0
 37  4  1  0  0  0  0
 38  4  1  0  0  0  0
 39 12  1  0  0  0  0
 42 18  1  0  0  0  0
 43 19  1  0  0  0  0
 44 20  1  0  0  0  0
 45 21  1  0  0  0  0
 48 27  1  0  0  0  0
 49 27  1  0  0  0  0
 51 28  1  0  0  0  0
 53 32  1  0  0  0  0
 54 32  1  0  0  0  0
 57 36  1  0  0  0  0
 58 36  1  0  0  0  0
 62  6  1  0  0  0  0
M  END
