62
-1 1
O        -1.080322   -3.782554   -2.216062
C        -0.146327   -3.058979   -1.922150
C         0.896011   -3.419629   -0.858846
C         2.124988   -4.092339   -1.511763
S         3.296703   -4.789481   -0.296552
C         3.976243   -1.518192    0.312527
C         3.051005   -0.721384    0.859639
C         1.917248   -0.241930    0.030621
N         0.703480   -0.043397    0.679560
C        -0.366185    0.544551   -0.019348
S        -1.880588   -0.273625   -0.260071
C        -2.511978    1.074915   -1.109656
C        -1.603526    2.096531   -1.253421
C        -1.883964    3.388022   -1.921890
C        -1.691219    4.592635   -1.214368
O        -1.267964    4.609495    0.067249
C        -1.956044    5.818186   -1.831679
C        -2.420236    5.855066   -3.143162
C        -2.629182    4.671764   -3.851459
C        -2.358343    3.451694   -3.235858
C        -0.364100    1.778811   -0.614747
C         0.464379   -0.435903    2.057313
C         0.583045    0.732416    2.982115
O         0.164824    0.576250    4.238923
N         0.343473    1.740370    4.939026
C         0.868416    2.594929    4.097547
C         1.191009    3.988372    4.526301
C         1.050019    2.000805    2.812638
O         2.022414   -0.054959   -1.171019
N         0.352956   -4.298594    0.141274
C        -0.550517   -3.892903    1.041019
C        -0.926319   -4.908233    2.101251
O        -1.080359   -2.781020    1.020174
H         1.230321   -2.494013   -0.369482
N         0.116531   -1.879237   -2.549826
C        -0.734212   -1.347765   -3.578466
H         1.756151   -4.881846   -2.188707
H         2.604487   -3.331188   -2.148775
H        -3.543972    1.064692   -1.458261
H        -1.192845    3.700464    0.389516
H        -1.799035    6.732535   -1.256538
H        -2.622563    6.820035   -3.614215
H        -2.992349    4.698085   -4.880631
H        -2.498257    2.514887   -3.780803
H         0.518902    2.418216   -0.634474
H         1.163828   -1.233245    2.342504
H        -0.528217   -0.902733    2.138432
H         0.637273    4.719014    3.918157
H         2.264288    4.195705    4.402811
H         0.921806    4.127356    5.581198
H         1.455419    2.443540    1.907853
H         0.990999   -5.070882    0.363981
H        -0.221001   -5.748344    2.157434
H        -1.927630   -5.299589    1.867725
H        -0.982590   -4.402382    3.074470
H         0.855390   -1.279525   -2.187670
H        -1.572235   -2.043629   -3.716546
H        -0.200778   -1.241799   -4.538434
H        -1.133114   -0.359418   -3.292994
H         3.092830   -0.460705    1.919509
H         4.802870   -1.923095    0.896970
H         3.925001   -1.808927   -0.737827
