-1 1
 OpenBabel05192410563D

 62 64  0  0  1  0  0  0  0  0999 V2000
   -0.8022   -3.9413   -2.2518 O   0  0  0  0  0  0  0  0  0  0  0  0
   -0.1951   -2.9746   -1.8004 C   0  0  0  0  0  0  0  0  0  0  0  0
    0.8588   -3.1584   -0.6948 C   0  0  2  0  0  0  0  0  0  0  0  0
    2.2731   -3.0487   -1.2914 C   0  0  0  0  0  0  0  0  0  0  0  0
    3.6249   -3.0009   -0.0775 S   0  0  0  0  0  0  0  0  0  0  0  0
    3.6616   -1.1738    0.3085 C   0  0  0  0  0  0  0  0  0  0  0  0
    2.4485   -0.6076    0.9490 C   0  0  0  0  0  3  0  0  0  0  0  0
    1.4365   -0.1054    0.1630 C   0  0  0  0  0  0  0  0  0  0  0  0
    0.1700    0.2254    0.8112 N   0  0  0  0  0  0  0  0  0  0  0  0
   -0.6997    1.1295    0.2508 C   0  0  0  0  0  0  0  0  0  0  0  0
   -2.2173    1.4808    1.0547 S   0  0  0  0  0  0  0  0  0  0  0  0
   -2.7114    2.5739   -0.1885 C   0  0  0  0  0  0  0  0  0  0  0  0
   -1.7625    2.6757   -1.1705 C   0  0  0  0  0  0  0  0  0  0  0  0
   -1.8928    3.5694   -2.3439 C   0  0  0  0  0  0  0  0  0  0  0  0
   -0.8295    4.4279   -2.7002 C   0  0  0  0  0  0  0  0  0  0  0  0
    0.3266    4.4660   -2.0137 O   0  0  0  0  0  0  0  0  0  0  0  0
   -0.9684    5.2974   -3.7873 C   0  0  0  0  0  0  0  0  0  0  0  0
   -2.1496    5.3251   -4.5219 C   0  0  0  0  0  0  0  0  0  0  0  0
   -3.2096    4.4850   -4.1811 C   0  0  0  0  0  0  0  0  0  0  0  0
   -3.0692    3.6179   -3.0997 C   0  0  0  0  0  0  0  0  0  0  0  0
   -0.6091    1.8598   -0.9230 C   0  0  0  0  0  0  0  0  0  0  0  0
   -0.1812   -0.3783    2.0777 C   0  0  0  0  0  0  0  0  0  0  0  0
    0.1295    0.5042    3.2475 C   0  0  0  0  0  0  0  0  0  0  0  0
   -0.6119    0.3667    4.3501 O   0  0  0  0  0  0  0  0  0  0  0  0
   -0.1880    1.2461    5.3104 N   0  0  0  0  0  0  0  0  0  0  0  0
    0.8058    1.9134    4.7766 C   0  0  0  0  0  0  0  0  0  0  0  0
    1.5119    2.9736    5.5568 C   0  0  0  0  0  0  0  0  0  0  0  0
    1.0597    1.4789    3.4434 C   0  0  0  0  0  0  0  0  0  0  0  0
    1.4671    0.0440   -1.0945 O   0  0  0  0  0  0  0  0  0  0  0  0
    0.6262   -4.4227   -0.0456 N   0  0  0  0  0  0  0  0  0  0  0  0
    0.3600   -4.5363    1.2804 C   0  0  0  0  0  0  0  0  0  0  0  0
    0.0551   -5.9488    1.7474 C   0  0  0  0  0  0  0  0  0  0  0  0
    0.3986   -3.6096    2.0702 O   0  0  0  0  0  0  0  0  0  0  0  0
    0.7385   -2.3775    0.0632 H   0  0  0  0  0  0  0  0  0  0  0  0
   -0.3537   -1.7053   -2.2071 N   0  0  0  0  0  0  0  0  0  0  0  0
   -1.2775   -1.3370   -3.2468 C   0  0  0  0  0  0  0  0  0  0  0  0
    2.4573   -3.9143   -1.9471 H   0  0  0  0  0  0  0  0  0  0  0  0
    2.3384   -2.1345   -1.8970 H   0  0  0  0  0  0  0  0  0  0  0  0
   -3.6515    3.1143   -0.1016 H   0  0  0  0  0  0  0  0  0  0  0  0
    0.3125    3.7878   -1.3202 H   0  0  0  0  0  0  0  0  0  0  0  0
   -0.1283    5.9494   -4.0340 H   0  0  0  0  0  0  0  0  0  0  0  0
   -2.2395    6.0082   -5.3704 H   0  0  0  0  0  0  0  0  0  0  0  0
   -4.1364    4.4976   -4.7584 H   0  0  0  0  0  0  0  0  0  0  0  0
   -3.8829    2.9409   -2.8276 H   0  0  0  0  0  0  0  0  0  0  0  0
    0.2271    1.7133   -1.6030 H   0  0  0  0  0  0  0  0  0  0  0  0
    0.3385   -1.3450    2.1702 H   0  0  0  0  0  0  0  0  0  0  0  0
   -1.2554   -0.6285    2.0999 H   0  0  0  0  0  0  0  0  0  0  0  0
    1.4291    3.9480    5.0526 H   0  0  0  0  0  0  0  0  0  0  0  0
    2.5823    2.7385    5.6542 H   0  0  0  0  0  0  0  0  0  0  0  0
    1.0735    3.0553    6.5601 H   0  0  0  0  0  0  0  0  0  0  0  0
    1.8126    1.8088    2.7330 H   0  0  0  0  0  0  0  0  0  0  0  0
    0.3152   -5.1588   -0.6707 H   0  0  0  0  0  0  0  0  0  0  0  0
   -0.2771   -6.6124    0.9365 H   0  0  0  0  0  0  0  0  0  0  0  0
   -0.7128   -5.9034    2.5300 H   0  0  0  0  0  0  0  0  0  0  0  0
    0.9685   -6.3701    2.1932 H   0  0  0  0  0  0  0  0  0  0  0  0
    0.2696   -0.9729   -1.8070 H   0  0  0  0  0  0  0  0  0  0  0  0
   -2.0483   -2.1142   -3.3386 H   0  0  0  0  0  0  0  0  0  0  0  0
   -0.7804   -1.2309   -4.2272 H   0  0  0  0  0  0  0  0  0  0  0  0
   -1.7524   -0.3763   -2.9976 H   0  0  0  0  0  0  0  0  0  0  0  0
    2.3409   -0.7226    2.0267 H   0  0  0  0  0  0  0  0  0  0  0  0
    4.5519   -1.0894    0.9507 H   0  0  0  0  0  0  0  0  0  0  0  0
    3.8754   -0.6692   -0.6447 H   0  0  0  0  0  0  0  0  0  0  0  0
  1  2  2  0  0  0  0
  2  3  1  0  0  0  0
  3 30  1  0  0  0  0
  3 34  1  1  0  0  0
  4  3  1  0  0  0  0
  4  5  1  0  0  0  0
  5  6  1  0  0  0  0
  6  7  1  0  0  0  0
  6 61  1  0  0  0  0
  7 60  1  0  0  0  0
  8  9  1  0  0  0  0
  8  7  1  0  0  0  0
  9 22  1  0  0  0  0
 10  9  1  0  0  0  0
 10 11  1  0  0  0  0
 12 39  1  0  0  0  0
 12 11  1  0  0  0  0
 13 21  1  0  0  0  0
 13 12  2  0  0  0  0
 14 13  1  0  0  0  0
 15 14  1  0  0  0  0
 15 16  1  0  0  0  0
 16 40  1  0  0  0  0
 17 15  2  0  0  0  0
 18 19  2  0  0  0  0
 18 17  1  0  0  0  0
 19 20  1  0  0  0  0
 20 44  1  0  0  0  0
 20 14  2  0  0  0  0
 21 10  2  0  0  0  0
 22 47  1  0  0  0  0
 22 46  1  0  0  0  0
 22 23  1  0  0  0  0
 23 28  2  0  0  0  0
 23 24  1  0  0  0  0
 24 25  1  0  0  0  0
 26 25  2  0  0  0  0
 26 27  1  0  0  0  0
 27 49  1  0  0  0  0
 27 50  1  0  0  0  0
 28 26  1  0  0  0  0
 29  8  2  0  0  0  0
 30 31  1  0  0  0  0
 31 32  1  0  0  0  0
 31 33  2  0  0  0  0
 32 55  1  0  0  0  0
 32 54  1  0  0  0  0
 35 56  1  0  0  0  0
 35  2  1  0  0  0  0
 36 59  1  0  0  0  0
 36 35  1  0  0  0  0
 37  4  1  0  0  0  0
 38  4  1  0  0  0  0
 41 17  1  0  0  0  0
 42 18  1  0  0  0  0
 43 19  1  0  0  0  0
 45 21  1  0  0  0  0
 48 27  1  0  0  0  0
 51 28  1  0  0  0  0
 52 30  1  0  0  0  0
 53 32  1  0  0  0  0
 57 36  1  0  0  0  0
 58 36  1  0  0  0  0
 62  6  1  0  0  0  0
M  END
