-1 1
 OpenBabel05232413493D

 83 86  0  0  1  0  0  0  0  0999 V2000
    0.3086    5.1883   -4.6587 C   0  0  0  0  0  0  0  0  0  0  0  0
    0.1722    3.7700   -4.9483 C   0  0  0  0  0  0  0  0  0  0  0  0
   -0.4392    6.2498   -1.2744 S   0  0  0  0  0  1  0  0  0  0  0  0
   -1.2293    4.6002   -1.2278 C   0  0  0  0  0  0  0  0  0  0  0  0
   -0.9459    3.7562    0.0300 C   0  0  2  0  0  0  0  0  0  0  0  0
    0.1329    3.7991    0.2449 H   0  0  0  0  0  0  0  0  0  0  0  0
   -1.2741    2.3731   -0.2232 N   0  0  0  0  0  0  0  0  0  0  0  0
   -0.6757    1.3454    0.4195 C   0  0  0  0  0  0  0  0  0  0  0  0
   -1.3093   -0.0085    0.1762 C   0  0  0  0  0  0  0  0  0  0  0  0
    0.3053    1.5020    1.1358 O   0  0  0  0  0  0  0  0  0  0  0  0
   -1.6830    4.2347    1.3000 C   0  0  0  0  0  0  0  0  0  0  0  0
   -1.5416    5.5483    1.5588 N   0  0  0  0  0  0  0  0  0  0  0  0
   -2.1818    6.1902    2.6722 C   0  0  0  0  0  0  0  0  0  0  0  0
   -2.3205    3.4610    2.0073 O   0  0  0  0  0  0  0  0  0  0  0  0
    0.0823    2.5861   -5.1973 C   0  0  0  0  0  0  0  0  0  0  0  0
   -0.0543    1.2128   -5.6504 C   0  0  0  0  0  0  0  0  0  0  0  0
    0.3553    0.1930   -4.8242 N   0  0  0  0  0  0  0  0  0  0  0  0
    0.8768    0.1318   -3.5191 C   0  0  0  0  0  0  0  0  0  0  0  0
    0.7641   -1.1058   -2.8474 C   0  0  0  0  0  0  0  0  0  0  0  0
    0.1816   -2.3699   -3.2119 C   0  0  0  0  0  0  0  0  0  0  0  0
    0.3603   -3.2341   -2.1703 C   0  0  0  0  0  0  0  0  0  0  0  0
   -0.1195   -4.6438   -2.0679 C   0  0  0  0  0  0  0  0  0  0  0  0
    1.0280   -2.5660   -1.1398 N   0  0  0  0  0  0  0  0  0  0  0  0
    1.3263   -3.1036    0.1248 C   0  0  0  0  0  0  0  0  0  0  0  0
    1.1793   -2.2887    1.1600 N   0  0  0  0  0  0  0  0  0  0  0  0
    1.4343   -2.7766    2.3733 C   0  0  0  0  0  0  0  0  0  0  0  0
    1.3119   -1.9446    3.4357 N   0  0  0  0  0  0  0  0  0  0  0  0
    0.7085   -0.6299    3.3716 C   0  0  0  0  0  0  0  0  0  0  0  0
   -0.7992   -0.6083    3.5423 C   0  0  0  0  0  0  0  0  0  0  0  0
   -1.4578    0.6271    3.4967 C   0  0  0  0  0  0  0  0  0  0  0  0
   -2.8454    0.6972    3.5611 C   0  0  0  0  0  0  0  0  0  0  0  0
   -3.5992   -0.4710    3.6951 C   0  0  0  0  0  0  0  0  0  0  0  0
   -2.9529   -1.7036    3.7556 C   0  0  0  0  0  0  0  0  0  0  0  0
   -1.5601   -1.7711    3.6746 C   0  0  0  0  0  0  0  0  0  0  0  0
    1.8134   -4.1388    2.5522 C   0  0  0  0  0  0  0  0  0  0  0  0
    2.0614   -4.7155    3.9239 C   0  0  0  0  0  0  0  0  0  0  0  0
    2.1535   -6.2415    3.9168 C   0  0  0  0  0  0  0  0  0  0  0  0
    3.0069   -6.7301    2.7501 C   0  0  0  0  0  0  0  0  0  0  0  0
    2.3699   -6.3278    1.4238 C   0  0  0  0  0  0  0  0  0  0  0  0
    1.9474   -4.8795    1.3872 C   0  0  0  0  0  0  0  0  0  0  0  0
    1.7131   -4.3673    0.1676 N   0  0  0  0  0  0  0  0  0  0  0  0
    1.2818   -1.2526   -1.5456 C   0  0  0  0  0  0  0  0  0  0  0  0
    1.9263   -0.2035   -0.8842 C   0  0  0  0  0  0  0  0  0  0  0  0
    2.0194    1.0008   -1.5623 C   0  0  0  0  0  0  0  0  0  0  0  0
    1.5138    1.1784   -2.8602 C   0  0  0  0  0  0  0  0  0  0  0  0
   -0.5213    0.9472   -6.7446 O   0  0  0  0  0  0  0  0  0  0  0  0
    0.1003    5.4357   -3.5965 H   0  0  0  0  0  0  0  0  0  0  0  0
   -0.3781    5.7764   -5.2847 H   0  0  0  0  0  0  0  0  0  0  0  0
    1.3374    5.5141   -4.8743 H   0  0  0  0  0  0  0  0  0  0  0  0
   -0.8737    3.9933   -2.0775 H   0  0  0  0  0  0  0  0  0  0  0  0
   -2.3254    4.6931   -1.3460 H   0  0  0  0  0  0  0  0  0  0  0  0
   -2.1569    2.1899   -0.6815 H   0  0  0  0  0  0  0  0  0  0  0  0
   -0.6520   -0.7932    0.5662 H   0  0  0  0  0  0  0  0  0  0  0  0
   -1.4776   -0.1747   -0.8989 H   0  0  0  0  0  0  0  0  0  0  0  0
   -2.2759   -0.0550    0.7025 H   0  0  0  0  0  0  0  0  0  0  0  0
   -1.0873    6.1139    0.8170 H   0  0  0  0  0  0  0  0  0  0  0  0
   -2.5920    5.4161    3.3342 H   0  0  0  0  0  0  0  0  0  0  0  0
   -3.0080    6.8465    2.3478 H   0  0  0  0  0  0  0  0  0  0  0  0
   -1.4635    6.8040    3.2399 H   0  0  0  0  0  0  0  0  0  0  0  0
    0.1667   -0.7034   -5.2584 H   0  0  0  0  0  0  0  0  0  0  0  0
   -0.3455   -2.6236   -4.1301 H   0  0  0  0  0  0  0  0  0  0  0  0
   -0.7299   -4.8752   -2.9514 H   0  0  0  0  0  0  0  0  0  0  0  0
   -0.7381   -4.7956   -1.1699 H   0  0  0  0  0  0  0  0  0  0  0  0
    0.7157   -5.3535   -2.0026 H   0  0  0  0  0  0  0  0  0  0  0  0
    1.4115   -2.3612    4.3497 H   0  0  0  0  0  0  0  0  0  0  0  0
    0.9394   -0.1585    2.4033 H   0  0  0  0  0  0  0  0  0  0  0  0
    1.1783    0.0005    4.1424 H   0  0  0  0  0  0  0  0  0  0  0  0
   -0.8905    1.5461    3.3387 H   0  0  0  0  0  0  0  0  0  0  0  0
   -3.3177    1.6761    3.4600 H   0  0  0  0  0  0  0  0  0  0  0  0
   -4.6900   -0.4201    3.7384 H   0  0  0  0  0  0  0  0  0  0  0  0
   -3.5342   -2.6246    3.8513 H   0  0  0  0  0  0  0  0  0  0  0  0
   -1.0676   -2.7468    3.6940 H   0  0  0  0  0  0  0  0  0  0  0  0
    1.2545   -4.4053    4.6122 H   0  0  0  0  0  0  0  0  0  0  0  0
    2.9939   -4.2879    4.3387 H   0  0  0  0  0  0  0  0  0  0  0  0
    1.1398   -6.6683    3.8228 H   0  0  0  0  0  0  0  0  0  0  0  0
    2.5570   -6.5958    4.8777 H   0  0  0  0  0  0  0  0  0  0  0  0
    3.1371   -7.8223    2.7922 H   0  0  0  0  0  0  0  0  0  0  0  0
    4.0159   -6.2882    2.8261 H   0  0  0  0  0  0  0  0  0  0  0  0
    1.4736   -6.9436    1.2299 H   0  0  0  0  0  0  0  0  0  0  0  0
    3.0450   -6.5028    0.5733 H   0  0  0  0  0  0  0  0  0  0  0  0
    2.2803   -0.3025    0.1381 H   0  0  0  0  0  0  0  0  0  0  0  0
    2.4755    1.8552   -1.0599 H   0  0  0  0  0  0  0  0  0  0  0  0
    1.6184    2.1472   -3.3422 H   0  0  0  0  0  0  0  0  0  0  0  0
  1 47  1  0  0  0  0
  2  1  1  0  0  0  0
  3  4  1  0  0  0  0
  4  5  1  0  0  0  0
  5  6  1  1  0  0  0
  5 11  1  0  0  0  0
  7  5  1  0  0  0  0
  7  8  1  0  0  0  0
  8 10  2  0  0  0  0
  9  8  1  0  0  0  0
  9 53  1  0  0  0  0
  9 55  1  0  0  0  0
 11 12  1  0  0  0  0
 11 14  2  0  0  0  0
 12 13  1  0  0  0  0
 13 59  1  0  0  0  0
 13 57  1  0  0  0  0
 15  2  3  0  0  0  0
 16 15  1  0  0  0  0
 16 17  1  0  0  0  0
 17 18  1  0  0  0  0
 18 45  2  0  0  0  0
 18 19  1  0  0  0  0
 19 42  2  0  0  0  0
 20 19  1  0  0  0  0
 20 21  2  0  0  0  0
 21 22  1  0  0  0  0
 21 23  1  0  0  0  0
 22 64  1  0  0  0  0
 22 63  1  0  0  0  0
 23 24  1  0  0  0  0
 24 41  1  0  0  0  0
 24 25  2  0  0  0  0
 25 26  1  0  0  0  0
 26 35  2  0  0  0  0
 26 27  1  0  0  0  0
 27 65  1  0  0  0  0
 28 27  1  0  0  0  0
 28 29  1  0  0  0  0
 28 67  1  0  0  0  0
 29 34  1  0  0  0  0
 30 29  2  0  0  0  0
 30 31  1  0  0  0  0
 31 32  2  0  0  0  0
 32 70  1  0  0  0  0
 32 33  1  0  0  0  0
 33 71  1  0  0  0  0
 34 72  1  0  0  0  0
 34 33  2  0  0  0  0
 35 36  1  0  0  0  0
 36 74  1  0  0  0  0
 36 73  1  0  0  0  0
 37 36  1  0  0  0  0
 37 76  1  0  0  0  0
 38 77  1  0  0  0  0
 38 78  1  0  0  0  0
 38 37  1  0  0  0  0
 39 38  1  0  0  0  0
 40 39  1  0  0  0  0
 40 35  1  0  0  0  0
 41 40  2  0  0  0  0
 42 23  1  0  0  0  0
 42 43  1  0  0  0  0
 43 81  1  0  0  0  0
 44 82  1  0  0  0  0
 44 43  2  0  0  0  0
 45 44  1  0  0  0  0
 46 16  2  0  0  0  0
 48  1  1  0  0  0  0
 49  1  1  0  0  0  0
 50  4  1  0  0  0  0
 51  4  1  0  0  0  0
 52  7  1  0  0  0  0
 54  9  1  0  0  0  0
 56 12  1  0  0  0  0
 58 13  1  0  0  0  0
 60 17  1  0  0  0  0
 61 20  1  0  0  0  0
 62 22  1  0  0  0  0
 66 28  1  0  0  0  0
 68 30  1  0  0  0  0
 69 31  1  0  0  0  0
 75 37  1  0  0  0  0
 79 39  1  0  0  0  0
 80 39  1  0  0  0  0
 83 45  1  0  0  0  0
M  END
