45
-1 1
O         4.319237   -3.725475    1.663234
C         3.132116   -3.477321    1.486078
C         2.693012   -2.284497    0.630181
C         2.376384   -2.796692   -0.792937
S         1.912873   -1.536644   -1.993189
C        -0.506215   -2.048697   -1.819327
C        -0.776081   -2.950567   -0.807420
C        -0.885749   -2.645514    0.605057
N        -1.386452   -1.427221    1.022072
C        -2.238556   -0.515606    0.312660
C        -1.599348    0.807067   -0.075440
C        -2.386206    1.819011   -0.639252
C        -1.831581    3.042101   -1.003428
C        -0.468210    3.251434   -0.791996
Br         0.295184    4.930296   -1.275181
C         0.334241    2.263763   -0.235292
C        -0.239237    1.041873    0.117210
O        -0.543329   -3.437949    1.500396
N         3.742690   -1.299778    0.636385
C         3.574654    0.009854    0.906188
C         4.787781    0.876607    0.622031
O         2.535204    0.500725    1.322475
H         1.795029   -1.814172    1.054809
N         2.119635   -4.243234    1.942968
C         2.350475   -5.464944    2.663343
H         3.247084   -3.371666   -1.151950
H         1.538480   -3.510973   -0.689923
H        -1.318441   -1.318844    2.026656
H        -3.130727   -0.298941    0.928521
H        -2.610488   -1.025098   -0.590011
H        -3.455944    1.650661   -0.798811
H        -2.450040    3.825888   -1.444062
H         1.400820    2.407004   -0.057893
H         0.413076    0.278943    0.545012
H         4.658532   -1.643424    0.378960
H         5.736565    0.324029    0.682522
H         4.799894    1.717608    1.326690
H         4.683997    1.277817   -0.397660
H         1.146339   -3.967203    1.744449
H         1.927675   -5.420882    3.681287
H         3.434677   -5.621776    2.738101
H         1.898580   -6.327407    2.145593
H        -0.502832   -2.401188   -2.850410
H        -0.677265   -0.980222   -1.703432
H        -0.658543   -4.020047   -1.001454
