-1 1
 OpenBabel05192410563D

 45 45  0  0  1  0  0  0  0  0999 V2000
    3.3232   -3.6563    1.7741 O   0  0  0  0  0  0  0  0  0  0  0  0
    2.1403   -3.4153    1.5384 C   0  0  0  0  0  0  0  0  0  0  0  0
    1.7544   -2.2204    0.6502 C   0  0  2  0  0  0  0  0  0  0  0  0
    1.4966   -2.7538   -0.7706 C   0  0  0  0  0  0  0  0  0  0  0  0
    0.8116   -1.5739   -1.9505 S   0  0  0  0  0  0  0  0  0  0  0  0
   -1.1044   -1.9538   -1.7984 C   0  0  0  0  0  0  0  0  0  0  0  0
   -1.4894   -2.9436   -0.7880 C   0  0  0  0  0  3  0  0  0  0  0  0
   -1.6401   -2.7051    0.5835 C   0  0  0  0  0  0  0  0  0  0  0  0
   -1.9694   -1.4058    1.0431 N   0  0  0  0  0  0  0  0  0  0  0  0
   -2.9567   -0.5649    0.4215 C   0  0  0  0  0  0  0  0  0  0  0  0
   -2.4568    0.7923   -0.0469 C   0  0  0  0  0  0  0  0  0  0  0  0
   -3.3403    1.6991   -0.6450 C   0  0  0  0  0  0  0  0  0  0  0  0
   -2.9071    2.9495   -1.0781 C   0  0  0  0  0  0  0  0  0  0  0  0
   -1.5664    3.2929   -0.9049 C   0  0  0  0  0  0  0  0  0  0  0  0
   -0.9652    5.0072   -1.4890 Br  0  0  0  0  0  0  0  0  0  0  0  0
   -0.6681    2.4109   -0.3153 C   0  0  0  0  0  0  0  0  0  0  0  0
   -1.1221    1.1629    0.1102 C   0  0  0  0  0  0  0  0  0  0  0  0
   -1.4805   -3.5580    1.5049 O   0  0  0  0  0  0  0  0  0  0  0  0
    2.8487   -1.2801    0.6881 N   0  0  0  0  0  0  0  0  0  0  0  0
    2.7501    0.0330    0.9932 C   0  0  0  0  0  0  0  0  0  0  0  0
    4.0722    0.7829    0.9899 C   0  0  0  0  0  0  0  0  0  0  0  0
    1.7036    0.6158    1.2208 O   0  0  0  0  0  0  0  0  0  0  0  0
    0.8472   -1.7272    1.0284 H   0  0  0  0  0  0  0  0  0  0  0  0
    1.1220   -4.1815    1.9474 N   0  0  0  0  0  0  0  0  0  0  0  0
    1.3648   -5.3856    2.6954 C   0  0  0  0  0  0  0  0  0  0  0  0
    2.4408   -3.1445   -1.1809 H   0  0  0  0  0  0  0  0  0  0  0  0
    0.7822   -3.5862   -0.6966 H   0  0  0  0  0  0  0  0  0  0  0  0
   -1.9986   -1.4222    2.0555 H   0  0  0  0  0  0  0  0  0  0  0  0
   -3.8005   -0.3888    1.1159 H   0  0  0  0  0  0  0  0  0  0  0  0
   -3.3851   -1.1084   -0.4383 H   0  0  0  0  0  0  0  0  0  0  0  0
   -4.3912    1.4236   -0.7796 H   0  0  0  0  0  0  0  0  0  0  0  0
   -3.6017    3.6497   -1.5455 H   0  0  0  0  0  0  0  0  0  0  0  0
    0.3833    2.6654   -0.1742 H   0  0  0  0  0  0  0  0  0  0  0  0
   -0.4080    0.4744    0.5653 H   0  0  0  0  0  0  0  0  0  0  0  0
    3.7569   -1.7306    0.7363 H   0  0  0  0  0  0  0  0  0  0  0  0
    4.9469    0.1266    1.1017 H   0  0  0  0  0  0  0  0  0  0  0  0
    4.0582    1.5254    1.7981 H   0  0  0  0  0  0  0  0  0  0  0  0
    4.1594    1.3235    0.0355 H   0  0  0  0  0  0  0  0  0  0  0  0
    0.1253   -3.9255    1.7398 H   0  0  0  0  0  0  0  0  0  0  0  0
    1.7170   -5.1756    3.7207 H   0  0  0  0  0  0  0  0  0  0  0  0
    2.1342   -6.0072    2.2099 H   0  0  0  0  0  0  0  0  0  0  0  0
    0.4269   -5.9537    2.7567 H   0  0  0  0  0  0  0  0  0  0  0  0
   -1.3553   -2.2714   -2.8193 H   0  0  0  0  0  0  0  0  0  0  0  0
   -1.5022   -0.9450   -1.6430 H   0  0  0  0  0  0  0  0  0  0  0  0
   -1.3519   -3.9995   -1.0390 H   0  0  0  0  0  0  0  0  0  0  0  0
  2  1  2  0  0  0  0
  2 24  1  0  0  0  0
  3 19  1  0  0  0  0
  3 23  1  1  0  0  0
  3  2  1  0  0  0  0
  4 27  1  0  0  0  0
  4  3  1  0  0  0  0
  5  6  1  0  0  0  0
  5  4  1  0  0  0  0
  6 44  1  0  0  0  0
  6  7  1  0  0  0  0
  7  8  1  0  0  0  0
  8  9  1  0  0  0  0
  8 18  2  0  0  0  0
  9 28  1  0  0  0  0
 10  9  1  0  0  0  0
 10 29  1  0  0  0  0
 11 17  1  0  0  0  0
 11 10  1  0  0  0  0
 12 11  2  0  0  0  0
 13 14  2  0  0  0  0
 13 12  1  0  0  0  0
 14 16  1  0  0  0  0
 15 14  1  0  0  0  0
 16 33  1  0  0  0  0
 16 17  2  0  0  0  0
 17 34  1  0  0  0  0
 19 35  1  0  0  0  0
 19 20  1  0  0  0  0
 20 22  2  0  0  0  0
 21 20  1  0  0  0  0
 21 36  1  0  0  0  0
 21 37  1  0  0  0  0
 24 25  1  0  0  0  0
 25 42  1  0  0  0  0
 25 40  1  0  0  0  0
 26  4  1  0  0  0  0
 30 10  1  0  0  0  0
 31 12  1  0  0  0  0
 32 13  1  0  0  0  0
 38 21  1  0  0  0  0
 39 24  1  0  0  0  0
 41 25  1  0  0  0  0
 43  6  1  0  0  0  0
 45  7  1  0  0  0  0
M  END
