-1 1
 OpenBabel05232413493D

 80 83  0  0  1  0  0  0  0  0999 V2000
    1.6194   -3.5975   -6.2436 O   0  0  0  0  0  0  0  0  0  0  0  0
    1.4892   -2.7746   -5.3591 C   0  0  0  0  0  0  0  0  0  0  0  0
    2.3852   -2.7009   -4.3173 N   0  0  0  0  0  0  0  0  0  0  0  0
    2.3380   -1.8699   -3.1731 C   0  0  0  0  0  0  0  0  0  0  0  0
    2.3356   -2.4606   -1.8957 C   0  0  0  0  0  0  0  0  0  0  0  0
    2.3680   -3.8237   -1.4475 C   0  0  0  0  0  0  0  0  0  0  0  0
    2.3020   -3.8187   -0.0835 C   0  0  0  0  0  0  0  0  0  0  0  0
    2.2556   -5.0070    0.8184 C   0  0  0  0  0  0  0  0  0  0  0  0
    2.2224   -2.4939    0.3626 N   0  0  0  0  0  0  0  0  0  0  0  0
    1.9438   -2.0901    1.6823 C   0  0  0  0  0  0  0  0  0  0  0  0
    1.1643   -1.0260    1.8086 N   0  0  0  0  0  0  0  0  0  0  0  0
    0.8407   -0.6408    3.0442 C   0  0  0  0  0  0  0  0  0  0  0  0
    0.0748    0.4600    3.1774 N   0  0  0  0  0  0  0  0  0  0  0  0
   -0.5139    1.1823    2.0590 C   0  0  0  0  0  0  0  0  0  0  0  0
   -0.9434    2.5680    2.4783 C   0  0  0  0  0  0  0  0  0  0  0  0
   -0.1262    3.3652    3.2909 C   0  0  0  0  0  0  0  0  0  0  0  0
   -0.5198    4.6544    3.6448 C   0  0  0  0  0  0  0  0  0  0  0  0
   -1.7330    5.1652    3.1812 C   0  0  0  0  0  0  0  0  0  0  0  0
   -2.5496    4.3798    2.3685 C   0  0  0  0  0  0  0  0  0  0  0  0
   -2.1601    3.0849    2.0226 C   0  0  0  0  0  0  0  0  0  0  0  0
    1.2896   -1.3735    4.1832 C   0  0  0  0  0  0  0  0  0  0  0  0
    0.9004   -0.9666    5.5821 C   0  0  0  0  0  0  0  0  0  0  0  0
    1.2443   -2.0310    6.6240 C   0  0  0  0  0  0  0  0  0  0  0  0
    2.6405   -2.5984    6.3837 C   0  0  0  0  0  0  0  0  0  0  0  0
    2.7073   -3.2840    5.0225 C   0  0  0  0  0  0  0  0  0  0  0  0
    2.1231   -2.4463    3.9116 C   0  0  0  0  0  0  0  0  0  0  0  0
    2.4623   -2.8094    2.6608 N   0  0  0  0  0  0  0  0  0  0  0  0
    2.2486   -1.6472   -0.7482 C   0  0  0  0  0  0  0  0  0  0  0  0
    2.2017   -0.2515   -0.8412 C   0  0  0  0  0  0  0  0  0  0  0  0
    2.2156    0.3069   -2.1106 C   0  0  0  0  0  0  0  0  0  0  0  0
    2.2861   -0.4857   -3.2675 C   0  0  0  0  0  0  0  0  0  0  0  0
    0.3905   -1.8175   -5.3110 C   0  0  0  0  0  0  0  0  0  0  0  0
   -0.5154   -1.0147   -5.2573 C   0  0  0  0  0  0  0  0  0  0  0  0
   -2.3442    1.8084   -4.3694 S   0  0  0  0  0  1  0  0  0  0  0  0
   -3.8044    1.6092   -3.2714 C   0  0  0  0  0  0  0  0  0  0  0  0
   -3.5196    1.8850   -1.7811 C   0  0  2  0  0  0  0  0  0  0  0  0
   -4.4613    2.0089   -1.2275 H   0  0  0  0  0  0  0  0  0  0  0  0
   -2.7885    3.1286   -1.6454 N   0  0  0  0  0  0  0  0  0  0  0  0
   -3.2490    4.2033   -0.9684 C   0  0  0  0  0  0  0  0  0  0  0  0
   -2.3750    5.4395   -1.0737 C   0  0  0  0  0  0  0  0  0  0  0  0
   -4.2539    4.1951   -0.2700 O   0  0  0  0  0  0  0  0  0  0  0  0
   -2.7800    0.7532   -1.0445 C   0  0  0  0  0  0  0  0  0  0  0  0
   -1.8528    0.0947   -1.7561 N   0  0  0  0  0  0  0  0  0  0  0  0
   -1.1321   -1.0346   -1.2246 C   0  0  0  0  0  0  0  0  0  0  0  0
   -3.0364    0.4928    0.1312 O   0  0  0  0  0  0  0  0  0  0  0  0
    3.0547   -3.4630   -4.3215 H   0  0  0  0  0  0  0  0  0  0  0  0
    2.4040   -4.7182   -2.0654 H   0  0  0  0  0  0  0  0  0  0  0  0
    2.2360   -5.9153    0.2008 H   0  0  0  0  0  0  0  0  0  0  0  0
    1.3582   -4.9975    1.4549 H   0  0  0  0  0  0  0  0  0  0  0  0
    3.1202   -5.0385    1.4939 H   0  0  0  0  0  0  0  0  0  0  0  0
   -0.2760    0.6871    4.0973 H   0  0  0  0  0  0  0  0  0  0  0  0
   -1.3688    0.6369    1.6251 H   0  0  0  0  0  0  0  0  0  0  0  0
    0.2410    1.2472    1.2605 H   0  0  0  0  0  0  0  0  0  0  0  0
    0.8321    2.9722    3.6430 H   0  0  0  0  0  0  0  0  0  0  0  0
    0.1285    5.2664    4.2775 H   0  0  0  0  0  0  0  0  0  0  0  0
   -2.0397    6.1790    3.4511 H   0  0  0  0  0  0  0  0  0  0  0  0
   -3.4895    4.7627    1.9654 H   0  0  0  0  0  0  0  0  0  0  0  0
   -2.8027    2.4685    1.3864 H   0  0  0  0  0  0  0  0  0  0  0  0
   -0.1829   -0.7553    5.6227 H   0  0  0  0  0  0  0  0  0  0  0  0
    1.4031   -0.0148    5.8390 H   0  0  0  0  0  0  0  0  0  0  0  0
    0.5088   -2.8518    6.5641 H   0  0  0  0  0  0  0  0  0  0  0  0
    1.1596   -1.6050    7.6354 H   0  0  0  0  0  0  0  0  0  0  0  0
    2.9157   -3.3079    7.1791 H   0  0  0  0  0  0  0  0  0  0  0  0
    3.3788   -1.7783    6.4220 H   0  0  0  0  0  0  0  0  0  0  0  0
    2.1531   -4.2391    5.0502 H   0  0  0  0  0  0  0  0  0  0  0  0
    3.7391   -3.5426    4.7427 H   0  0  0  0  0  0  0  0  0  0  0  0
    2.1193    0.3692    0.0473 H   0  0  0  0  0  0  0  0  0  0  0  0
    2.1550    1.3914   -2.2180 H   0  0  0  0  0  0  0  0  0  0  0  0
    2.2818   -0.0154   -4.2509 H   0  0  0  0  0  0  0  0  0  0  0  0
   -1.2874   -0.2433   -5.1369 H   0  0  0  0  0  0  0  0  0  0  0  0
   -4.2261    0.5947   -3.3616 H   0  0  0  0  0  0  0  0  0  0  0  0
   -4.5910    2.3127   -3.5869 H   0  0  0  0  0  0  0  0  0  0  0  0
   -2.0813    3.2411   -2.3768 H   0  0  0  0  0  0  0  0  0  0  0  0
   -1.7262    5.4776   -0.1847 H   0  0  0  0  0  0  0  0  0  0  0  0
   -3.0183    6.3288   -1.0630 H   0  0  0  0  0  0  0  0  0  0  0  0
   -1.7434    5.4443   -1.9730 H   0  0  0  0  0  0  0  0  0  0  0  0
   -1.6865    0.4260   -2.7196 H   0  0  0  0  0  0  0  0  0  0  0  0
   -1.8177   -1.8570   -0.9602 H   0  0  0  0  0  0  0  0  0  0  0  0
   -0.5627   -0.7738   -0.3195 H   0  0  0  0  0  0  0  0  0  0  0  0
   -0.4267   -1.3936   -1.9857 H   0  0  0  0  0  0  0  0  0  0  0  0
  1  2  2  0  0  0  0
  2 32  1  0  0  0  0
  2  3  1  0  0  0  0
  3  4  1  0  0  0  0
  4  5  1  0  0  0  0
  5  6  1  0  0  0  0
  5 28  2  0  0  0  0
  6  7  2  0  0  0  0
  7  9  1  0  0  0  0
  7  8  1  0  0  0  0
  8 49  1  0  0  0  0
  8 50  1  0  0  0  0
  9 10  1  0  0  0  0
 10 11  2  0  0  0  0
 10 27  1  0  0  0  0
 11 12  1  0  0  0  0
 12 13  1  0  0  0  0
 12 21  2  0  0  0  0
 13 51  1  0  0  0  0
 14 15  1  0  0  0  0
 14 13  1  0  0  0  0
 15 16  1  0  0  0  0
 16 54  1  0  0  0  0
 16 17  2  0  0  0  0
 17 55  1  0  0  0  0
 18 56  1  0  0  0  0
 18 17  1  0  0  0  0
 19 18  2  0  0  0  0
 20 19  1  0  0  0  0
 20 15  2  0  0  0  0
 21 22  1  0  0  0  0
 22 59  1  0  0  0  0
 22 60  1  0  0  0  0
 22 23  1  0  0  0  0
 23 62  1  0  0  0  0
 24 64  1  0  0  0  0
 24 23  1  0  0  0  0
 24 63  1  0  0  0  0
 25 65  1  0  0  0  0
 25 24  1  0  0  0  0
 26 21  1  0  0  0  0
 26 25  1  0  0  0  0
 27 26  2  0  0  0  0
 28  9  1  0  0  0  0
 29 28  1  0  0  0  0
 29 67  1  0  0  0  0
 30 29  2  0  0  0  0
 31  4  2  0  0  0  0
 31 30  1  0  0  0  0
 32 33  3  0  0  0  0
 33 70  1  0  0  0  0
 34 35  1  0  0  0  0
 35 36  1  0  0  0  0
 36 38  1  0  0  0  0
 36 37  1  1  0  0  0
 36 42  1  0  0  0  0
 38 39  1  0  0  0  0
 39 41  2  0  0  0  0
 40 75  1  0  0  0  0
 40 39  1  0  0  0  0
 40 74  1  0  0  0  0
 42 45  2  0  0  0  0
 43 44  1  0  0  0  0
 43 42  1  0  0  0  0
 44 78  1  0  0  0  0
 44 79  1  0  0  0  0
 46  3  1  0  0  0  0
 47  6  1  0  0  0  0
 48  8  1  0  0  0  0
 52 14  1  0  0  0  0
 53 14  1  0  0  0  0
 57 19  1  0  0  0  0
 58 20  1  0  0  0  0
 61 23  1  0  0  0  0
 66 25  1  0  0  0  0
 68 30  1  0  0  0  0
 69 31  1  0  0  0  0
 71 35  1  0  0  0  0
 72 35  1  0  0  0  0
 73 38  1  0  0  0  0
 76 40  1  0  0  0  0
 77 43  1  0  0  0  0
 80 44  1  0  0  0  0
M  END
