81
-1 1
C        -0.930355    4.319513    2.935366
C         0.505207    4.369034    2.728950
S        -1.979364    1.100555    4.309322
C        -3.274192    1.361726    3.042876
C        -2.906516    0.801677    1.642762
H        -3.829307    0.646425    1.060402
N        -2.241182   -0.463954    1.817872
C        -2.301400   -1.505492    0.973010
C        -1.607541   -2.763200    1.463762
O        -2.854228   -1.486318   -0.122108
C        -2.117566    1.828079    0.821672
N        -0.831419    1.528821    0.564284
C         0.023844    2.336816   -0.265265
O        -2.674668    2.846941    0.425990
C         1.705552    4.350603    2.556829
C         3.134332    4.278542    2.309033
N         3.623516    3.022409    2.021989
C         2.930967    1.792102    1.945843
C         3.011079    1.039516    0.758769
C         3.591462    1.302071   -0.528203
C         3.228620    0.285752   -1.365037
C         3.565243    0.123878   -2.809882
N         2.473292   -0.643655   -0.647246
C         1.761100   -1.730088   -1.181598
N         1.191224   -1.534889   -2.363876
C         0.420091   -2.508545   -2.839537
N        -0.205070   -2.292178   -4.030607
C        -0.192746   -0.992882   -4.667331
C        -1.010906    0.087309   -3.980074
C        -0.929294    1.400661   -4.456953
C        -1.651156    2.424020   -3.846315
C        -2.466644    2.148249   -2.747760
C        -2.555172    0.842618   -2.273907
C        -1.832697   -0.180649   -2.885297
C         0.257797   -3.724874   -2.133544
C        -0.626008   -4.842404   -2.628378
O        -0.436920   -6.041707   -1.934863
C        -0.420399   -5.866652   -0.538014
C         0.810831   -5.077834   -0.113955
C         0.928252   -3.815754   -0.925529
N         1.684607   -2.821271   -0.438243
C         2.323053   -0.185452    0.663387
C         1.543767   -0.680195    1.717042
C         1.454547    0.096440    2.864246
C         2.149096    1.311294    2.987520
O         3.873333    5.245051    2.321589
H        -1.455386    4.260697    1.968254
H        -1.284676    5.205281    3.482646
H        -1.186868    3.401753    3.506427
H        -3.503004    2.430177    2.908733
H        -4.208731    0.871390    3.360048
H        -1.815791   -0.527397    2.759163
H        -2.324708   -3.595673    1.428030
H        -1.202927   -2.672178    2.480937
H        -0.790973   -2.991516    0.766593
H        -0.441054    0.714439    1.023538
H        -0.597658    3.092107   -0.761658
H         0.513416    1.715644   -1.032583
H         0.798077    2.847127    0.327666
H         4.591956    3.037769    1.721260
H         4.190268    2.163871   -0.814537
H         4.364099    0.829933   -3.073434
H         2.689488    0.320687   -3.443941
H         3.910604   -0.895794   -3.037973
H        -0.986860   -2.894247   -4.246771
H        -0.550985   -1.133744   -5.699671
H         0.852812   -0.659198   -4.739079
H        -0.279524    1.627745   -5.308582
H        -1.562254    3.447401   -4.219631
H        -2.998451    2.944443   -2.223788
H        -3.161075    0.594582   -1.401969
H        -1.908670   -1.180421   -2.452808
H        -0.411129   -5.054955   -3.689220
H        -1.689393   -4.519460   -2.563778
H        -0.423785   -6.870424   -0.091823
H        -1.337676   -5.343108   -0.203663
H         1.719449   -5.682380   -0.271728
H         0.779577   -4.818989    0.954666
H         1.016835   -1.627487    1.628199
H         0.805494   -0.217902    3.683733
H         2.046410    1.897481    3.900689
