81
-1 1
C         0.968388    0.005120    6.717906
C         0.572365    0.819019    5.509281
S        -1.240480    1.168592    5.474217
C        -1.192570    2.989483    5.658415
C        -2.389117    3.680749    5.001876
H        -2.212730    4.768667    5.092686
N        -3.648083    3.360727    5.630009
C        -4.024756    3.831962    6.837798
C        -5.386619    3.353299    7.313773
O        -3.328130    4.559187    7.527208
C        -2.565257    3.360958    3.504197
N        -1.483893    3.541498    2.728867
C        -1.519624    3.173257    1.335129
O        -3.659906    3.012513    3.073573
C         1.399582    1.257918    4.574491
C         1.287646    2.066508    3.446861
N         1.334435    1.499586    2.153627
C         1.470022    0.212701    1.679809
C         1.353777    0.004034    0.283172
C         1.093026    0.917219   -0.797383
C         1.095810    0.224659   -1.966863
C         0.802340    0.784061   -3.320108
N         1.349041   -1.136566   -1.679256
C         1.459229   -2.163851   -2.607319
N         1.720327   -1.821835   -3.871597
C         1.814102   -2.792957   -4.769865
N         2.059601   -2.430892   -6.066489
C         2.100945   -1.054292   -6.488435
C         0.754959   -0.360329   -6.612337
C         0.722419    1.014810   -6.866619
C        -0.488385    1.695770   -6.950237
C        -1.690817    1.007909   -6.781182
C        -1.667634   -0.362494   -6.535055
C        -0.451416   -1.041608   -6.453427
C         1.692819   -4.154205   -4.409304
C         1.831229   -5.286159   -5.397079
O         1.915539   -6.542042   -4.789284
C         0.961091   -6.727433   -3.771721
C         1.243992   -5.804148   -2.595219
C         1.417414   -4.386509   -3.069676
N         1.290242   -3.407930   -2.172567
C         1.494696   -1.276317   -0.280022
C         1.760815   -2.398760    0.515709
C         1.871683   -2.174197    1.883533
C         1.726677   -0.911851    2.471878
O         1.212967    3.326602    3.440680
H         0.734504    0.538676    7.655267
H         2.047851   -0.203868    6.685517
H         0.425609   -0.955680    6.757207
H        -0.257696    3.342507    5.202369
H        -1.186308    3.265543    6.721892
H        -4.299886    2.888034    5.008848
H        -5.884140    4.174523    7.845934
H        -5.234357    2.530380    8.028230
H        -6.029025    2.991625    6.498666
H        -0.540347    3.629743    3.140644
H        -2.507971    3.402593    0.914782
H        -1.324375    2.096865    1.189358
H        -0.752830    3.744788    0.791620
H         1.299289    2.236394    1.461048
H         0.887378    1.983894   -0.725734
H         0.466271    1.822720   -3.195173
H         0.013549    0.226401   -3.845091
H         1.682286    0.775569   -3.977086
H         1.972462   -3.140264   -6.778255
H         2.624891   -1.014194   -7.456723
H         2.715369   -0.492153   -5.769248
H         1.661827    1.564171   -6.978807
H        -0.494853    2.772158   -7.136010
H        -2.641921    1.541974   -6.832984
H        -2.602620   -0.908849   -6.392334
H        -0.442738   -2.112369   -6.239217
H         2.754305   -5.163432   -5.989363
H         0.979415   -5.263511   -6.116333
H         1.017586   -7.783263   -3.473534
H        -0.060520   -6.542959   -4.163259
H         2.167586   -6.118757   -2.081921
H         0.435910   -5.834812   -1.849757
H         1.849566   -3.391609    0.087407
H         2.072790   -3.026515    2.538292
H         1.819579   -0.782313    3.549374
