-1 1
 OpenBabel05192410563D

 81 85  0  0  1  0  0  0  0  0999 V2000
    0.9684    0.0051    6.7179 C   0  0  0  0  0  0  0  0  0  0  0  0
    0.5724    0.8190    5.5093 C   0  0  0  0  0  0  0  0  0  0  0  0
   -1.2405    1.1686    5.4742 S   0  0  0  0  0  0  0  0  0  0  0  0
   -1.1926    2.9895    5.6584 C   0  0  0  0  0  0  0  0  0  0  0  0
   -2.3891    3.6807    5.0019 C   0  0  2  0  0  0  0  0  0  0  0  0
   -2.2127    4.7687    5.0927 H   0  0  0  0  0  0  0  0  0  0  0  0
   -3.6481    3.3607    5.6300 N   0  0  0  0  0  0  0  0  0  0  0  0
   -4.0248    3.8320    6.8378 C   0  0  0  0  0  0  0  0  0  0  0  0
   -5.3866    3.3533    7.3138 C   0  0  0  0  0  0  0  0  0  0  0  0
   -3.3281    4.5592    7.5272 O   0  0  0  0  0  0  0  0  0  0  0  0
   -2.5653    3.3610    3.5042 C   0  0  0  0  0  0  0  0  0  0  0  0
   -1.4839    3.5415    2.7289 N   0  0  0  0  0  0  0  0  0  0  0  0
   -1.5196    3.1733    1.3351 C   0  0  0  0  0  0  0  0  0  0  0  0
   -3.6599    3.0125    3.0736 O   0  0  0  0  0  0  0  0  0  0  0  0
    1.3996    1.2579    4.5745 C   0  0  0  0  0  3  0  0  0  0  0  0
    1.2876    2.0665    3.4469 C   0  0  0  0  0  0  0  0  0  0  0  0
    1.3344    1.4996    2.1536 N   0  0  0  0  0  0  0  0  0  0  0  0
    1.4700    0.2127    1.6798 C   0  0  0  0  0  0  0  0  0  0  0  0
    1.3538    0.0040    0.2832 C   0  0  0  0  0  0  0  0  0  0  0  0
    1.0930    0.9172   -0.7974 C   0  0  0  0  0  0  0  0  0  0  0  0
    1.0958    0.2247   -1.9669 C   0  0  0  0  0  0  0  0  0  0  0  0
    0.8023    0.7841   -3.3201 C   0  0  0  0  0  0  0  0  0  0  0  0
    1.3490   -1.1366   -1.6793 N   0  0  0  0  0  0  0  0  0  0  0  0
    1.4592   -2.1639   -2.6073 C   0  0  0  0  0  0  0  0  0  0  0  0
    1.7203   -1.8218   -3.8716 N   0  0  0  0  0  0  0  0  0  0  0  0
    1.8141   -2.7930   -4.7699 C   0  0  0  0  0  0  0  0  0  0  0  0
    2.0596   -2.4309   -6.0665 N   0  0  0  0  0  0  0  0  0  0  0  0
    2.1009   -1.0543   -6.4884 C   0  0  0  0  0  0  0  0  0  0  0  0
    0.7550   -0.3603   -6.6123 C   0  0  0  0  0  0  0  0  0  0  0  0
    0.7224    1.0148   -6.8666 C   0  0  0  0  0  0  0  0  0  0  0  0
   -0.4884    1.6958   -6.9502 C   0  0  0  0  0  0  0  0  0  0  0  0
   -1.6908    1.0079   -6.7812 C   0  0  0  0  0  0  0  0  0  0  0  0
   -1.6676   -0.3625   -6.5351 C   0  0  0  0  0  0  0  0  0  0  0  0
   -0.4514   -1.0416   -6.4534 C   0  0  0  0  0  0  0  0  0  0  0  0
    1.6928   -4.1542   -4.4093 C   0  0  0  0  0  0  0  0  0  0  0  0
    1.8312   -5.2862   -5.3971 C   0  0  0  0  0  0  0  0  0  0  0  0
    1.9155   -6.5420   -4.7893 O   0  0  0  0  0  0  0  0  0  0  0  0
    0.9611   -6.7274   -3.7717 C   0  0  0  0  0  0  0  0  0  0  0  0
    1.2440   -5.8041   -2.5952 C   0  0  0  0  0  0  0  0  0  0  0  0
    1.4174   -4.3865   -3.0697 C   0  0  0  0  0  0  0  0  0  0  0  0
    1.2902   -3.4079   -2.1726 N   0  0  0  0  0  0  0  0  0  0  0  0
    1.4947   -1.2763   -0.2800 C   0  0  0  0  0  0  0  0  0  0  0  0
    1.7608   -2.3988    0.5157 C   0  0  0  0  0  0  0  0  0  0  0  0
    1.8717   -2.1742    1.8835 C   0  0  0  0  0  0  0  0  0  0  0  0
    1.7267   -0.9119    2.4719 C   0  0  0  0  0  0  0  0  0  0  0  0
    1.2130    3.3266    3.4407 O   0  0  0  0  0  0  0  0  0  0  0  0
    0.7345    0.5387    7.6553 H   0  0  0  0  0  0  0  0  0  0  0  0
    2.0479   -0.2039    6.6855 H   0  0  0  0  0  0  0  0  0  0  0  0
    0.4256   -0.9557    6.7572 H   0  0  0  0  0  0  0  0  0  0  0  0
   -0.2577    3.3425    5.2024 H   0  0  0  0  0  0  0  0  0  0  0  0
   -1.1863    3.2655    6.7219 H   0  0  0  0  0  0  0  0  0  0  0  0
   -4.2999    2.8880    5.0088 H   0  0  0  0  0  0  0  0  0  0  0  0
   -5.8841    4.1745    7.8459 H   0  0  0  0  0  0  0  0  0  0  0  0
   -5.2344    2.5304    8.0282 H   0  0  0  0  0  0  0  0  0  0  0  0
   -6.0290    2.9916    6.4987 H   0  0  0  0  0  0  0  0  0  0  0  0
   -0.5403    3.6297    3.1406 H   0  0  0  0  0  0  0  0  0  0  0  0
   -2.5080    3.4026    0.9148 H   0  0  0  0  0  0  0  0  0  0  0  0
   -1.3244    2.0969    1.1894 H   0  0  0  0  0  0  0  0  0  0  0  0
   -0.7528    3.7448    0.7916 H   0  0  0  0  0  0  0  0  0  0  0  0
    1.2993    2.2364    1.4610 H   0  0  0  0  0  0  0  0  0  0  0  0
    0.8874    1.9839   -0.7257 H   0  0  0  0  0  0  0  0  0  0  0  0
    0.4663    1.8227   -3.1952 H   0  0  0  0  0  0  0  0  0  0  0  0
    0.0135    0.2264   -3.8451 H   0  0  0  0  0  0  0  0  0  0  0  0
    1.6823    0.7756   -3.9771 H   0  0  0  0  0  0  0  0  0  0  0  0
    1.9725   -3.1403   -6.7783 H   0  0  0  0  0  0  0  0  0  0  0  0
    2.6249   -1.0142   -7.4567 H   0  0  0  0  0  0  0  0  0  0  0  0
    2.7154   -0.4922   -5.7692 H   0  0  0  0  0  0  0  0  0  0  0  0
    1.6618    1.5642   -6.9788 H   0  0  0  0  0  0  0  0  0  0  0  0
   -0.4949    2.7722   -7.1360 H   0  0  0  0  0  0  0  0  0  0  0  0
   -2.6419    1.5420   -6.8330 H   0  0  0  0  0  0  0  0  0  0  0  0
   -2.6026   -0.9088   -6.3923 H   0  0  0  0  0  0  0  0  0  0  0  0
   -0.4427   -2.1124   -6.2392 H   0  0  0  0  0  0  0  0  0  0  0  0
    2.7543   -5.1634   -5.9894 H   0  0  0  0  0  0  0  0  0  0  0  0
    0.9794   -5.2635   -6.1163 H   0  0  0  0  0  0  0  0  0  0  0  0
    1.0176   -7.7833   -3.4735 H   0  0  0  0  0  0  0  0  0  0  0  0
   -0.0605   -6.5430   -4.1633 H   0  0  0  0  0  0  0  0  0  0  0  0
    2.1676   -6.1188   -2.0819 H   0  0  0  0  0  0  0  0  0  0  0  0
    0.4359   -5.8348   -1.8498 H   0  0  0  0  0  0  0  0  0  0  0  0
    1.8496   -3.3916    0.0874 H   0  0  0  0  0  0  0  0  0  0  0  0
    2.0728   -3.0265    2.5383 H   0  0  0  0  0  0  0  0  0  0  0  0
    1.8196   -0.7823    3.5494 H   0  0  0  0  0  0  0  0  0  0  0  0
  1 49  1  0  0  0  0
  1 47  1  0  0  0  0
  2  1  1  0  0  0  0
  3  2  1  0  0  0  0
  3  4  1  0  0  0  0
  4 51  1  0  0  0  0
  5  6  1  1  0  0  0
  5  7  1  0  0  0  0
  5  4  1  0  0  0  0
  7  8  1  0  0  0  0
  8  9  1  0  0  0  0
  8 10  2  0  0  0  0
  9 53  1  0  0  0  0
  9 54  1  0  0  0  0
 11  5  1  0  0  0  0
 12 56  1  0  0  0  0
 12 11  1  0  0  0  0
 13 12  1  0  0  0  0
 14 11  2  0  0  0  0
 15  2  2  0  0  0  0
 16 15  1  0  0  0  0
 17 16  1  0  0  0  0
 18 17  1  0  0  0  0
 18 45  1  0  0  0  0
 19 18  2  0  0  0  0
 20 61  1  0  0  0  0
 20 19  1  0  0  0  0
 21 23  1  0  0  0  0
 21 20  2  0  0  0  0
 22 62  1  0  0  0  0
 22 21  1  0  0  0  0
 23 42  1  0  0  0  0
 24 41  1  0  0  0  0
 24 23  1  0  0  0  0
 25 24  2  0  0  0  0
 26 35  2  0  0  0  0
 26 25  1  0  0  0  0
 27 26  1  0  0  0  0
 28 27  1  0  0  0  0
 28 67  1  0  0  0  0
 29 28  1  0  0  0  0
 29 34  1  0  0  0  0
 30 29  2  0  0  0  0
 31 30  1  0  0  0  0
 31 32  2  0  0  0  0
 32 33  1  0  0  0  0
 33 34  2  0  0  0  0
 33 71  1  0  0  0  0
 34 72  1  0  0  0  0
 35 40  1  0  0  0  0
 36 37  1  0  0  0  0
 36 35  1  0  0  0  0
 37 38  1  0  0  0  0
 38 75  1  0  0  0  0
 38 39  1  0  0  0  0
 39 77  1  0  0  0  0
 39 78  1  0  0  0  0
 40 39  1  0  0  0  0
 40 41  2  0  0  0  0
 42 19  1  0  0  0  0
 42 43  2  0  0  0  0
 43 44  1  0  0  0  0
 44 45  2  0  0  0  0
 44 80  1  0  0  0  0
 45 81  1  0  0  0  0
 46 16  2  0  0  0  0
 48  1  1  0  0  0  0
 50  4  1  0  0  0  0
 52  7  1  0  0  0  0
 55  9  1  0  0  0  0
 57 13  1  0  0  0  0
 58 13  1  0  0  0  0
 59 13  1  0  0  0  0
 60 17  1  0  0  0  0
 63 22  1  0  0  0  0
 64 22  1  0  0  0  0
 65 27  1  0  0  0  0
 66 28  1  0  0  0  0
 68 30  1  0  0  0  0
 69 31  1  0  0  0  0
 70 32  1  0  0  0  0
 73 36  1  0  0  0  0
 74 36  1  0  0  0  0
 76 38  1  0  0  0  0
 79 43  1  0  0  0  0
M  END
