-1 1
 OpenBabel05232414493D

 77 79  0  0  1  0  0  0  0  0999 V2000
    6.1583   -9.4482   -2.3725 O   0  0  0  0  0  0  0  0  0  0  0  0
    4.9826   -9.3920   -1.9501 C   0  0  0  0  0  0  0  0  0  0  0  0
    4.0335  -10.2331   -2.5198 N   0  0  0  0  0  0  0  0  0  0  0  0
    2.6047   -9.9900   -2.5282 C   0  0  0  0  0  0  0  0  0  0  0  0
    2.0293  -10.1605   -3.9369 C   0  0  0  0  0  0  0  0  0  0  0  0
    2.4025  -11.5060   -4.5512 C   0  0  0  0  0  0  0  0  0  0  0  0
    3.9210  -11.6973   -4.5316 C   0  0  2  0  0  0  0  0  0  0  0  0
    4.1711  -12.7210   -4.8540 H   0  0  0  0  0  0  0  0  0  0  0  0
    4.4306  -11.5043   -3.0999 C   0  0  0  0  0  0  0  0  0  0  0  0
    4.5625  -10.7664   -5.4616 N   0  0  0  0  0  0  0  0  0  0  0  0
    4.1028  -10.6088   -6.7041 N   0  0  0  0  0  0  0  0  0  0  0  0
    4.8469   -9.6596   -7.2685 C   0  0  0  0  0  0  0  0  0  0  0  0
    4.5280   -9.2700   -8.6617 C   0  0  0  0  0  0  0  0  0  0  0  0
    5.3821   -8.4767   -9.4389 C   0  0  0  0  0  0  0  0  0  0  0  0
    5.0434   -8.1439  -10.7495 C   0  0  0  0  0  0  0  0  0  0  0  0
    3.8511   -8.6043  -11.2961 C   0  0  0  0  0  0  0  0  0  0  0  0
    3.5308   -8.3023  -12.6039 O   0  0  0  0  0  0  0  0  0  0  0  0
    2.8266   -7.1751  -12.8777 C   0  0  0  0  0  0  0  0  0  0  0  0
    2.5373   -6.9362  -14.2268 C   0  0  0  0  0  0  0  0  0  0  0  0
    1.8188   -5.8037  -14.5922 C   0  0  0  0  0  0  0  0  0  0  0  0
    1.3804   -4.8976  -13.6239 C   0  0  0  0  0  0  0  0  0  0  0  0
    1.6728   -5.1427  -12.2842 C   0  0  0  0  0  0  0  0  0  0  0  0
    2.3927   -6.2743  -11.9001 C   0  0  0  0  0  0  0  0  0  0  0  0
    2.9899   -9.3998  -10.5430 C   0  0  0  0  0  0  0  0  0  0  0  0
    3.3300   -9.7274   -9.2362 C   0  0  0  0  0  0  0  0  0  0  0  0
    5.8237   -9.1880   -6.3300 C   0  0  0  0  0  0  0  0  0  0  0  0
    6.8527   -8.1133   -6.3379 C   0  0  0  0  0  0  0  0  0  0  0  0
    7.2601   -7.7251   -5.0976 N   0  0  0  0  0  0  0  0  0  0  0  0
    7.3274   -7.5995   -7.3417 O   0  0  0  0  0  0  0  0  0  0  0  0
    5.5905   -9.9506   -5.1980 C   0  0  0  0  0  0  0  0  0  0  0  0
    4.6408   -8.4851   -0.8763 C   0  0  0  0  0  3  0  0  0  0  0  0
    3.6100   -8.5679    0.0434 C   0  0  0  0  0  3  0  0  0  0  0  0
    3.8690  -10.0826    1.9794 S   0  0  0  0  0  1  0  0  0  0  0  0
    3.6120  -11.6231    1.0478 C   0  0  0  0  0  0  0  0  0  0  0  0
    4.8954  -12.4051    0.7498 C   0  0  2  0  0  0  0  0  0  0  0  0
    5.2877  -12.8483    1.6832 H   0  0  0  0  0  0  0  0  0  0  0  0
    5.9002  -11.4967    0.2177 N   0  0  0  0  0  0  0  0  0  0  0  0
    7.2331  -11.7081    0.2995 C   0  0  0  0  0  0  0  0  0  0  0  0
    8.0804  -10.4817    0.0611 C   0  0  0  0  0  0  0  0  0  0  0  0
    7.7248  -12.8079    0.5512 O   0  0  0  0  0  0  0  0  0  0  0  0
    4.6134  -13.5680   -0.2283 C   0  0  0  0  0  0  0  0  0  0  0  0
    5.6685  -14.3896   -0.4226 N   0  0  0  0  0  0  0  0  0  0  0  0
    5.6391  -15.4686   -1.3724 C   0  0  0  0  0  0  0  0  0  0  0  0
    3.5261  -13.7263   -0.7686 O   0  0  0  0  0  0  0  0  0  0  0  0
    2.4206   -8.9660   -2.1863 H   0  0  0  0  0  0  0  0  0  0  0  0
    2.0904  -10.6816   -1.8308 H   0  0  0  0  0  0  0  0  0  0  0  0
    2.4079   -9.3495   -4.5812 H   0  0  0  0  0  0  0  0  0  0  0  0
    0.9343  -10.0525   -3.8931 H   0  0  0  0  0  0  0  0  0  0  0  0
    2.0298  -11.5893   -5.5812 H   0  0  0  0  0  0  0  0  0  0  0  0
    1.9597  -12.3269   -3.9631 H   0  0  0  0  0  0  0  0  0  0  0  0
    5.5202  -11.5968   -3.0252 H   0  0  0  0  0  0  0  0  0  0  0  0
    3.9870  -12.3217   -2.5046 H   0  0  0  0  0  0  0  0  0  0  0  0
    6.3128   -8.1137   -8.9976 H   0  0  0  0  0  0  0  0  0  0  0  0
    5.7058   -7.5242  -11.3571 H   0  0  0  0  0  0  0  0  0  0  0  0
    2.8888   -7.6555  -14.9685 H   0  0  0  0  0  0  0  0  0  0  0  0
    1.5987   -5.6264  -15.6478 H   0  0  0  0  0  0  0  0  0  0  0  0
    0.8166   -4.0085  -13.9131 H   0  0  0  0  0  0  0  0  0  0  0  0
    1.3379   -4.4432  -11.5146 H   0  0  0  0  0  0  0  0  0  0  0  0
    2.6182   -6.4566  -10.8486 H   0  0  0  0  0  0  0  0  0  0  0  0
    2.0585   -9.7522  -10.9906 H   0  0  0  0  0  0  0  0  0  0  0  0
    2.6667  -10.3511   -8.6358 H   0  0  0  0  0  0  0  0  0  0  0  0
    6.8855   -8.0934   -4.2286 H   0  0  0  0  0  0  0  0  0  0  0  0
    7.9991   -7.0375   -5.0574 H   0  0  0  0  0  0  0  0  0  0  0  0
    6.0614   -9.9226   -4.2126 H   0  0  0  0  0  0  0  0  0  0  0  0
    5.4501   -7.7784   -0.6744 H   0  0  0  0  0  0  0  0  0  0  0  0
    2.7032   -9.1414   -0.1387 H   0  0  0  0  0  0  0  0  0  0  0  0
    3.4822   -7.7452    0.7475 H   0  0  0  0  0  0  0  0  0  0  0  0
    3.1252  -11.4021    0.0836 H   0  0  0  0  0  0  0  0  0  0  0  0
    2.9240  -12.2912    1.5843 H   0  0  0  0  0  0  0  0  0  0  0  0
    5.5998  -10.5205    0.2343 H   0  0  0  0  0  0  0  0  0  0  0  0
    8.0402   -9.8403    0.9554 H   0  0  0  0  0  0  0  0  0  0  0  0
    7.6888   -9.9079   -0.7933 H   0  0  0  0  0  0  0  0  0  0  0  0
    9.1177  -10.7908   -0.1141 H   0  0  0  0  0  0  0  0  0  0  0  0
    6.5566  -14.0895   -0.0032 H   0  0  0  0  0  0  0  0  0  0  0  0
    6.0216  -16.3998   -0.9252 H   0  0  0  0  0  0  0  0  0  0  0  0
    6.2445  -15.2446   -2.2677 H   0  0  0  0  0  0  0  0  0  0  0  0
    4.5989  -15.6248   -1.6862 H   0  0  0  0  0  0  0  0  0  0  0  0
  1  2  2  0  0  0  0
  2 31  1  0  0  0  0
  3  2  1  0  0  0  0
  4  3  1  0  0  0  0
  4 45  1  0  0  0  0
  4 46  1  0  0  0  0
  5 48  1  0  0  0  0
  5  4  1  0  0  0  0
  6  7  1  0  0  0  0
  6 50  1  0  0  0  0
  6  5  1  0  0  0  0
  7  8  1  6  0  0  0
  7  9  1  0  0  0  0
  9 51  1  0  0  0  0
  9  3  1  0  0  0  0
  9 52  1  0  0  0  0
 10 30  1  0  0  0  0
 10  7  1  0  0  0  0
 11 10  1  0  0  0  0
 12 11  2  0  0  0  0
 12 26  1  0  0  0  0
 13 12  1  0  0  0  0
 14 53  1  0  0  0  0
 14 13  2  0  0  0  0
 15 14  1  0  0  0  0
 16 15  2  0  0  0  0
 16 24  1  0  0  0  0
 17 16  1  0  0  0  0
 18 17  1  0  0  0  0
 18 23  1  0  0  0  0
 19 18  2  0  0  0  0
 20 19  1  0  0  0  0
 20 21  2  0  0  0  0
 21 22  1  0  0  0  0
 22 23  2  0  0  0  0
 22 58  1  0  0  0  0
 23 59  1  0  0  0  0
 24 25  2  0  0  0  0
 25 13  1  0  0  0  0
 25 61  1  0  0  0  0
 26 30  2  0  0  0  0
 27 26  1  0  0  0  0
 27 28  1  0  0  0  0
 28 63  1  0  0  0  0
 28 62  1  0  0  0  0
 29 27  2  0  0  0  0
 30 64  1  0  0  0  0
 31 65  1  0  0  0  0
 31 32  1  0  0  0  0
 32 67  1  0  0  0  0
 34 69  1  0  0  0  0
 34 33  1  0  0  0  0
 35 34  1  0  0  0  0
 35 36  1  1  0  0  0
 37 70  1  0  0  0  0
 37 38  1  0  0  0  0
 37 35  1  0  0  0  0
 38 40  2  0  0  0  0
 39 38  1  0  0  0  0
 39 71  1  0  0  0  0
 41 35  1  0  0  0  0
 42 41  1  0  0  0  0
 42 74  1  0  0  0  0
 43 75  1  0  0  0  0
 43 42  1  0  0  0  0
 44 41  2  0  0  0  0
 47  5  1  0  0  0  0
 49  6  1  0  0  0  0
 54 15  1  0  0  0  0
 55 19  1  0  0  0  0
 56 20  1  0  0  0  0
 57 21  1  0  0  0  0
 60 24  1  0  0  0  0
 66 32  1  0  0  0  0
 68 34  1  0  0  0  0
 72 39  1  0  0  0  0
 73 39  1  0  0  0  0
 76 43  1  0  0  0  0
 77 43  1  0  0  0  0
M  END
