80
-1 1
C         1.099823    0.186553    8.007062
C         1.272001    0.204658    6.513636
S         3.575508    1.181337    6.592283
C         3.987873    0.840628    4.864409
C         3.855045    2.059333    3.950486
H         4.558633    2.839790    4.283628
N         2.524428    2.635123    4.057259
C         2.290843    3.957765    3.994186
C         0.902417    4.411673    4.391077
O         3.131908    4.766873    3.607869
C         4.166780    1.760877    2.470764
N         4.212962    2.875734    1.703829
C         4.330959    2.843224    0.268938
O         4.331742    0.629854    2.035128
C         1.264789   -0.968225    5.784348
C         1.157349   -1.096293    4.357821
N         0.678766    0.064513    3.617255
C        -0.755798    0.284956    3.776249
C        -1.190085    1.556343    3.059883
C        -0.761724    1.551156    1.595206
C         0.736986    1.265597    1.488767
C         1.065223   -0.030340    2.217635
N         1.157756    1.263278    0.078673
C         1.928002    0.409856   -0.659041
C         2.616541   -0.867403   -0.237772
O         3.129392   -1.541793   -1.360270
C         2.035358    0.977285   -1.916786
C         1.304163    2.181168   -1.845342
C         1.086210    3.199338   -2.887690
C         0.367463    4.368937   -2.598696
C         0.150884    5.334303   -3.575332
C         0.653813    5.139467   -4.860336
O         0.466451    6.106190   -5.824479
C        -0.650949    6.073772   -6.596350
C        -1.638665    5.090125   -6.489285
C        -2.750100    5.142765   -7.331094
C        -2.888758    6.158119   -8.274232
C        -1.895722    7.135405   -8.372649
C        -0.782162    7.098167   -7.541358
C         1.375738    3.990569   -5.168687
C         1.588819    3.029299   -4.183875
N         0.790418    2.335158   -0.632292
O         1.427299   -2.113340    3.731968
H         1.419905    1.133313    8.463137
H         1.685941   -0.628281    8.455614
H         0.036291    0.018312    8.257087
H         0.926466    1.118602    6.023633
H         3.339811    0.024761    4.493317
H         5.015177    0.460098    4.773527
H         1.789508    1.983405    4.327395
H         0.993483    5.379059    4.900563
H         0.393821    3.695533    5.050322
H         0.297576    4.564706    3.484002
H         4.013181    3.759795    2.177196
H         3.386738    3.131115   -0.222259
H         4.581540    1.820514   -0.039722
H         5.126405    3.521726   -0.077325
H         1.536639   -1.901581    6.285515
H        -0.989560    0.339139    4.848001
H        -1.324893   -0.577860    3.363225
H        -0.744221    2.424387    3.568112
H        -2.283247    1.669204    3.134261
H        -0.997922    2.504837    1.105267
H        -1.302380    0.758640    1.047443
H         1.295344    2.081717    1.972756
H         2.142137   -0.233791    2.190519
H         0.544771   -0.875343    1.725357
H         1.947988   -1.517731    0.347413
H         3.466162   -0.613429    0.414525
H         2.381042   -1.828496   -1.891880
H         2.603718    0.561463   -2.742886
H        -0.016391    4.506631   -1.586739
H        -0.407176    6.246166   -3.353931
H        -1.539653    4.291002   -5.753593
H        -3.518424    4.371192   -7.241267
H        -3.762670    6.190010   -8.927753
H        -1.989240    7.939179   -9.106870
H         0.003802    7.852808   -7.602687
H         1.764940    3.860276   -6.180159
H         2.156629    2.130166   -4.430566
