80
-1 1
C        -0.836298   -3.826161    6.821148
C        -0.948404   -3.431782    5.386513
S         1.487512   -0.776116    6.301935
C         2.308041   -1.046814    4.690365
C         2.636194    0.251741    3.906837
H         3.609744    0.651746    4.248588
N         1.607301    1.236548    4.203948
C         1.703196    2.565655    4.045448
C         0.631126    3.372654    4.749616
O         2.553999    3.131158    3.354822
C         2.786793   -0.042784    2.397751
N         2.947004    1.039098    1.612007
C         3.011738    0.943614    0.175578
O         2.780790   -1.187909    1.958181
C        -1.615312   -4.120086    4.452185
C        -1.573834   -3.855450    2.983727
N        -1.776739   -2.578994    2.516990
C        -2.207421   -1.412462    3.270783
C        -1.128188   -0.332985    3.265158
C        -0.666319   -0.004793    1.844850
C        -0.285366   -1.286700    1.109670
C        -1.448330   -2.286981    1.139278
N         0.139592   -1.038916   -0.261066
C         1.027527   -1.781017   -0.970535
C         1.807610   -2.941092   -0.419466
O         2.386000   -3.701380   -1.449240
C         1.060387   -1.238710   -2.241168
C         0.136847   -0.166996   -2.199588
C        -0.238290    0.774528   -3.268754
C        -1.146156    1.813227   -3.012559
C        -1.514299    2.704126   -4.014118
C        -0.975585    2.565826   -5.292026
O        -1.314989    3.463307   -6.281482
C        -2.412713    3.231081   -7.047219
C        -3.223958    2.100018   -6.915815
C        -4.329612    1.950636   -7.753560
C        -4.635309    2.909273   -8.716547
C        -3.817675    4.034992   -8.839331
C        -2.712442    4.199727   -8.012389
C        -0.068527    1.547648   -5.568322
C         0.295653    0.660280   -4.558577
N        -0.412631   -0.070511   -0.992336
O        -1.343010   -4.781782    2.219054
H         0.225569   -3.938417    7.089402
H        -1.378817   -4.757178    7.045529
H        -1.214846   -3.015704    7.463935
H        -0.396619   -2.513824    5.141442
H         1.680790   -1.679728    4.042697
H         3.249252   -1.600539    4.813893
H         1.059061    0.885801    5.019054
H         1.109467    4.224699    5.250969
H         0.063537    2.781813    5.481000
H        -0.058922    3.776514    3.993643
H         2.937367    1.956023    2.076079
H         2.010498    0.977917   -0.288124
H         3.483011   -0.005061   -0.115661
H         3.607222    1.776132   -0.224690
H        -2.091752   -5.074256    4.703283
H        -2.469902   -1.706345    4.292141
H        -3.126859   -1.023041    2.791408
H        -0.279324   -0.676660    3.874318
H        -1.506750    0.575681    3.757758
H         0.190132    0.684775    1.871655
H        -1.470928    0.496968    1.283414
H         0.577406   -1.734790    1.623915
H        -1.185599   -3.228609    0.643622
H        -2.318580   -1.847640    0.617534
H         1.164723   -3.556806    0.238183
H         2.614063   -2.552945    0.219687
H         1.668814   -4.075132   -1.969821
H         1.688652   -1.578771   -3.059159
H        -1.556176    1.908351   -2.005984
H        -2.220018    3.513716   -3.817813
H        -2.993169    1.344016   -6.164224
H        -4.959616    1.064653   -7.644706
H        -5.503201    2.782693   -9.366615
H        -4.043582    4.796835   -9.589307
H        -2.062245    5.072570   -8.092383
H         0.344595    1.459761   -6.574875
H         1.008183   -0.136224   -4.781371
