-1 1
 OpenBabel05232413493D

 80 82  0  0  1  0  0  0  0  0999 V2000
   -0.8363   -3.8262    6.8211 C   0  0  0  0  0  0  0  0  0  0  0  0
   -0.9484   -3.4318    5.3865 C   0  0  0  0  0  0  0  0  0  0  0  0
    1.4875   -0.7761    6.3019 S   0  0  0  0  0  1  0  0  0  0  0  0
    2.3080   -1.0468    4.6904 C   0  0  0  0  0  0  0  0  0  0  0  0
    2.6362    0.2517    3.9068 C   0  0  2  0  0  0  0  0  0  0  0  0
    3.6097    0.6517    4.2486 H   0  0  0  0  0  0  0  0  0  0  0  0
    1.6073    1.2365    4.2039 N   0  0  0  0  0  0  0  0  0  0  0  0
    1.7032    2.5657    4.0454 C   0  0  0  0  0  0  0  0  0  0  0  0
    0.6311    3.3727    4.7496 C   0  0  0  0  0  0  0  0  0  0  0  0
    2.5540    3.1312    3.3548 O   0  0  0  0  0  0  0  0  0  0  0  0
    2.7868   -0.0428    2.3978 C   0  0  0  0  0  0  0  0  0  0  0  0
    2.9470    1.0391    1.6120 N   0  0  0  0  0  0  0  0  0  0  0  0
    3.0117    0.9436    0.1756 C   0  0  0  0  0  0  0  0  0  0  0  0
    2.7808   -1.1879    1.9582 O   0  0  0  0  0  0  0  0  0  0  0  0
   -1.6153   -4.1201    4.4522 C   0  0  0  0  0  0  0  0  0  0  0  0
   -1.5738   -3.8554    2.9837 C   0  0  0  0  0  0  0  0  0  0  0  0
   -1.7767   -2.5790    2.5170 N   0  0  0  0  0  0  0  0  0  0  0  0
   -2.2074   -1.4125    3.2708 C   0  0  0  0  0  0  0  0  0  0  0  0
   -1.1282   -0.3330    3.2652 C   0  0  0  0  0  0  0  0  0  0  0  0
   -0.6663   -0.0048    1.8449 C   0  0  0  0  0  0  0  0  0  0  0  0
   -0.2854   -1.2867    1.1097 C   0  0  1  0  0  0  0  0  0  0  0  0
   -1.4483   -2.2870    1.1393 C   0  0  0  0  0  0  0  0  0  0  0  0
    0.1396   -1.0389   -0.2611 N   0  0  0  0  0  0  0  0  0  0  0  0
    1.0275   -1.7810   -0.9705 C   0  0  0  0  0  0  0  0  0  0  0  0
    1.8076   -2.9411   -0.4195 C   0  0  0  0  0  0  0  0  0  0  0  0
    2.3860   -3.7014   -1.4492 O   0  0  0  0  0  0  0  0  0  0  0  0
    1.0604   -1.2387   -2.2412 C   0  0  0  0  0  0  0  0  0  0  0  0
    0.1368   -0.1670   -2.1996 C   0  0  0  0  0  0  0  0  0  0  0  0
   -0.2383    0.7745   -3.2688 C   0  0  0  0  0  0  0  0  0  0  0  0
   -1.1462    1.8132   -3.0126 C   0  0  0  0  0  0  0  0  0  0  0  0
   -1.5143    2.7041   -4.0141 C   0  0  0  0  0  0  0  0  0  0  0  0
   -0.9756    2.5658   -5.2920 C   0  0  0  0  0  0  0  0  0  0  0  0
   -1.3150    3.4633   -6.2815 O   0  0  0  0  0  0  0  0  0  0  0  0
   -2.4127    3.2311   -7.0472 C   0  0  0  0  0  0  0  0  0  0  0  0
   -3.2240    2.1000   -6.9158 C   0  0  0  0  0  0  0  0  0  0  0  0
   -4.3296    1.9506   -7.7536 C   0  0  0  0  0  0  0  0  0  0  0  0
   -4.6353    2.9093   -8.7165 C   0  0  0  0  0  0  0  0  0  0  0  0
   -3.8177    4.0350   -8.8393 C   0  0  0  0  0  0  0  0  0  0  0  0
   -2.7124    4.1997   -8.0124 C   0  0  0  0  0  0  0  0  0  0  0  0
   -0.0685    1.5476   -5.5683 C   0  0  0  0  0  0  0  0  0  0  0  0
    0.2957    0.6603   -4.5586 C   0  0  0  0  0  0  0  0  0  0  0  0
   -0.4126   -0.0705   -0.9923 N   0  0  0  0  0  0  0  0  0  0  0  0
   -1.3430   -4.7818    2.2191 O   0  0  0  0  0  0  0  0  0  0  0  0
    0.2256   -3.9384    7.0894 H   0  0  0  0  0  0  0  0  0  0  0  0
   -1.3788   -4.7572    7.0455 H   0  0  0  0  0  0  0  0  0  0  0  0
   -1.2148   -3.0157    7.4639 H   0  0  0  0  0  0  0  0  0  0  0  0
   -0.3966   -2.5138    5.1414 H   0  0  0  0  0  0  0  0  0  0  0  0
    1.6808   -1.6797    4.0427 H   0  0  0  0  0  0  0  0  0  0  0  0
    3.2493   -1.6005    4.8139 H   0  0  0  0  0  0  0  0  0  0  0  0
    1.0591    0.8858    5.0191 H   0  0  0  0  0  0  0  0  0  0  0  0
    1.1095    4.2247    5.2510 H   0  0  0  0  0  0  0  0  0  0  0  0
    0.0635    2.7818    5.4810 H   0  0  0  0  0  0  0  0  0  0  0  0
   -0.0589    3.7765    3.9936 H   0  0  0  0  0  0  0  0  0  0  0  0
    2.9374    1.9560    2.0761 H   0  0  0  0  0  0  0  0  0  0  0  0
    2.0105    0.9779   -0.2881 H   0  0  0  0  0  0  0  0  0  0  0  0
    3.4830   -0.0051   -0.1157 H   0  0  0  0  0  0  0  0  0  0  0  0
    3.6072    1.7761   -0.2247 H   0  0  0  0  0  0  0  0  0  0  0  0
   -2.0918   -5.0743    4.7033 H   0  0  0  0  0  0  0  0  0  0  0  0
   -2.4699   -1.7063    4.2921 H   0  0  0  0  0  0  0  0  0  0  0  0
   -3.1269   -1.0230    2.7914 H   0  0  0  0  0  0  0  0  0  0  0  0
   -0.2793   -0.6767    3.8743 H   0  0  0  0  0  0  0  0  0  0  0  0
   -1.5068    0.5757    3.7578 H   0  0  0  0  0  0  0  0  0  0  0  0
    0.1901    0.6848    1.8717 H   0  0  0  0  0  0  0  0  0  0  0  0
   -1.4709    0.4970    1.2834 H   0  0  0  0  0  0  0  0  0  0  0  0
    0.5774   -1.7348    1.6239 H   0  0  0  0  0  0  0  0  0  0  0  0
   -1.1856   -3.2286    0.6436 H   0  0  0  0  0  0  0  0  0  0  0  0
   -2.3186   -1.8476    0.6175 H   0  0  0  0  0  0  0  0  0  0  0  0
    1.1647   -3.5568    0.2382 H   0  0  0  0  0  0  0  0  0  0  0  0
    2.6141   -2.5529    0.2197 H   0  0  0  0  0  0  0  0  0  0  0  0
    1.6688   -4.0751   -1.9698 H   0  0  0  0  0  0  0  0  0  0  0  0
    1.6887   -1.5788   -3.0592 H   0  0  0  0  0  0  0  0  0  0  0  0
   -1.5562    1.9084   -2.0060 H   0  0  0  0  0  0  0  0  0  0  0  0
   -2.2200    3.5137   -3.8178 H   0  0  0  0  0  0  0  0  0  0  0  0
   -2.9932    1.3440   -6.1642 H   0  0  0  0  0  0  0  0  0  0  0  0
   -4.9596    1.0647   -7.6447 H   0  0  0  0  0  0  0  0  0  0  0  0
   -5.5032    2.7827   -9.3666 H   0  0  0  0  0  0  0  0  0  0  0  0
   -4.0436    4.7968   -9.5893 H   0  0  0  0  0  0  0  0  0  0  0  0
   -2.0622    5.0726   -8.0924 H   0  0  0  0  0  0  0  0  0  0  0  0
    0.3446    1.4598   -6.5749 H   0  0  0  0  0  0  0  0  0  0  0  0
    1.0082   -0.1362   -4.7814 H   0  0  0  0  0  0  0  0  0  0  0  0
  1 45  1  0  0  0  0
  1 44  1  0  0  0  0
  1 46  1  0  0  0  0
  2  1  1  0  0  0  0
  4 49  1  0  0  0  0
  4  3  1  0  0  0  0
  5  7  1  0  0  0  0
  5  6  1  1  0  0  0
  5  4  1  0  0  0  0
  7 50  1  0  0  0  0
  8  7  1  0  0  0  0
  8  9  1  0  0  0  0
  9 51  1  0  0  0  0
  9 52  1  0  0  0  0
 10  8  2  0  0  0  0
 11  5  1  0  0  0  0
 12 54  1  0  0  0  0
 12 11  1  0  0  0  0
 13 12  1  0  0  0  0
 14 11  2  0  0  0  0
 15 58  1  0  0  0  0
 15  2  2  0  0  0  0
 16 15  1  0  0  0  0
 17 16  1  0  0  0  0
 17 18  1  0  0  0  0
 18 59  1  0  0  0  0
 19 18  1  0  0  0  0
 19 62  1  0  0  0  0
 19 61  1  0  0  0  0
 20 63  1  0  0  0  0
 20 19  1  0  0  0  0
 21 22  1  0  0  0  0
 21 65  1  1  0  0  0
 21 20  1  0  0  0  0
 22 17  1  0  0  0  0
 23 21  1  0  0  0  0
 24 25  1  0  0  0  0
 24 23  1  0  0  0  0
 25 69  1  0  0  0  0
 25 68  1  0  0  0  0
 26 25  1  0  0  0  0
 27 28  1  0  0  0  0
 27 24  2  0  0  0  0
 28 42  2  0  0  0  0
 29 30  1  0  0  0  0
 29 28  1  0  0  0  0
 30 72  1  0  0  0  0
 31 73  1  0  0  0  0
 31 30  2  0  0  0  0
 32 31  1  0  0  0  0
 33 32  1  0  0  0  0
 34 35  1  0  0  0  0
 34 33  1  0  0  0  0
 35 74  1  0  0  0  0
 36 75  1  0  0  0  0
 36 35  2  0  0  0  0
 37 36  1  0  0  0  0
 38 37  2  0  0  0  0
 38 39  1  0  0  0  0
 39 34  2  0  0  0  0
 40 32  2  0  0  0  0
 40 41  1  0  0  0  0
 41 29  2  0  0  0  0
 42 23  1  0  0  0  0
 43 16  2  0  0  0  0
 47  2  1  0  0  0  0
 48  4  1  0  0  0  0
 53  9  1  0  0  0  0
 55 13  1  0  0  0  0
 56 13  1  0  0  0  0
 57 13  1  0  0  0  0
 60 18  1  0  0  0  0
 64 20  1  0  0  0  0
 66 22  1  0  0  0  0
 67 22  1  0  0  0  0
 70 26  1  0  0  0  0
 71 27  1  0  0  0  0
 76 37  1  0  0  0  0
 77 38  1  0  0  0  0
 78 39  1  0  0  0  0
 79 40  1  0  0  0  0
 80 41  1  0  0  0  0
M  END
