-1 1
 OpenBabel05232414493D

 80 82  0  0  1  0  0  0  0  0999 V2000
    1.0998    0.1866    8.0071 C   0  0  0  0  0  0  0  0  0  0  0  0
    1.2720    0.2047    6.5136 C   0  0  0  0  0  3  0  0  0  0  0  0
    3.5755    1.1813    6.5923 S   0  0  0  0  0  1  0  0  0  0  0  0
    3.9879    0.8406    4.8644 C   0  0  0  0  0  0  0  0  0  0  0  0
    3.8550    2.0593    3.9505 C   0  0  2  0  0  0  0  0  0  0  0  0
    4.5586    2.8398    4.2836 H   0  0  0  0  0  0  0  0  0  0  0  0
    2.5244    2.6351    4.0573 N   0  0  0  0  0  0  0  0  0  0  0  0
    2.2908    3.9578    3.9942 C   0  0  0  0  0  0  0  0  0  0  0  0
    0.9024    4.4117    4.3911 C   0  0  0  0  0  0  0  0  0  0  0  0
    3.1319    4.7669    3.6079 O   0  0  0  0  0  0  0  0  0  0  0  0
    4.1668    1.7609    2.4708 C   0  0  0  0  0  0  0  0  0  0  0  0
    4.2130    2.8757    1.7038 N   0  0  0  0  0  0  0  0  0  0  0  0
    4.3310    2.8432    0.2689 C   0  0  0  0  0  0  0  0  0  0  0  0
    4.3317    0.6299    2.0351 O   0  0  0  0  0  0  0  0  0  0  0  0
    1.2648   -0.9682    5.7843 C   0  0  0  0  0  3  0  0  0  0  0  0
    1.1573   -1.0963    4.3578 C   0  0  0  0  0  0  0  0  0  0  0  0
    0.6788    0.0645    3.6173 N   0  0  0  0  0  0  0  0  0  0  0  0
   -0.7558    0.2850    3.7762 C   0  0  0  0  0  0  0  0  0  0  0  0
   -1.1901    1.5563    3.0599 C   0  0  0  0  0  0  0  0  0  0  0  0
   -0.7617    1.5512    1.5952 C   0  0  0  0  0  0  0  0  0  0  0  0
    0.7370    1.2656    1.4888 C   0  0  1  0  0  0  0  0  0  0  0  0
    1.0652   -0.0303    2.2176 C   0  0  0  0  0  0  0  0  0  0  0  0
    1.1578    1.2633    0.0787 N   0  0  0  0  0  0  0  0  0  0  0  0
    1.9280    0.4099   -0.6590 C   0  0  0  0  0  0  0  0  0  0  0  0
    2.6165   -0.8674   -0.2378 C   0  0  0  0  0  0  0  0  0  0  0  0
    3.1294   -1.5418   -1.3603 O   0  0  0  0  0  0  0  0  0  0  0  0
    2.0354    0.9773   -1.9168 C   0  0  0  0  0  0  0  0  0  0  0  0
    1.3042    2.1812   -1.8453 C   0  0  0  0  0  0  0  0  0  0  0  0
    1.0862    3.1993   -2.8877 C   0  0  0  0  0  0  0  0  0  0  0  0
    0.3675    4.3689   -2.5987 C   0  0  0  0  0  0  0  0  0  0  0  0
    0.1509    5.3343   -3.5753 C   0  0  0  0  0  0  0  0  0  0  0  0
    0.6538    5.1395   -4.8603 C   0  0  0  0  0  0  0  0  0  0  0  0
    0.4665    6.1062   -5.8245 O   0  0  0  0  0  0  0  0  0  0  0  0
   -0.6509    6.0738   -6.5964 C   0  0  0  0  0  0  0  0  0  0  0  0
   -1.6387    5.0901   -6.4893 C   0  0  0  0  0  0  0  0  0  0  0  0
   -2.7501    5.1428   -7.3311 C   0  0  0  0  0  0  0  0  0  0  0  0
   -2.8888    6.1581   -8.2742 C   0  0  0  0  0  0  0  0  0  0  0  0
   -1.8957    7.1354   -8.3726 C   0  0  0  0  0  0  0  0  0  0  0  0
   -0.7822    7.0982   -7.5414 C   0  0  0  0  0  0  0  0  0  0  0  0
    1.3757    3.9906   -5.1687 C   0  0  0  0  0  0  0  0  0  0  0  0
    1.5888    3.0293   -4.1839 C   0  0  0  0  0  0  0  0  0  0  0  0
    0.7904    2.3352   -0.6323 N   0  0  0  0  0  0  0  0  0  0  0  0
    1.4273   -2.1133    3.7320 O   0  0  0  0  0  0  0  0  0  0  0  0
    1.4199    1.1333    8.4631 H   0  0  0  0  0  0  0  0  0  0  0  0
    1.6859   -0.6283    8.4556 H   0  0  0  0  0  0  0  0  0  0  0  0
    0.0363    0.0183    8.2571 H   0  0  0  0  0  0  0  0  0  0  0  0
    0.9265    1.1186    6.0236 H   0  0  0  0  0  0  0  0  0  0  0  0
    3.3398    0.0248    4.4933 H   0  0  0  0  0  0  0  0  0  0  0  0
    5.0152    0.4601    4.7735 H   0  0  0  0  0  0  0  0  0  0  0  0
    1.7895    1.9834    4.3274 H   0  0  0  0  0  0  0  0  0  0  0  0
    0.9935    5.3791    4.9006 H   0  0  0  0  0  0  0  0  0  0  0  0
    0.3938    3.6955    5.0503 H   0  0  0  0  0  0  0  0  0  0  0  0
    0.2976    4.5647    3.4840 H   0  0  0  0  0  0  0  0  0  0  0  0
    4.0132    3.7598    2.1772 H   0  0  0  0  0  0  0  0  0  0  0  0
    3.3867    3.1311   -0.2223 H   0  0  0  0  0  0  0  0  0  0  0  0
    4.5815    1.8205   -0.0397 H   0  0  0  0  0  0  0  0  0  0  0  0
    5.1264    3.5217   -0.0773 H   0  0  0  0  0  0  0  0  0  0  0  0
    1.5366   -1.9016    6.2855 H   0  0  0  0  0  0  0  0  0  0  0  0
   -0.9896    0.3391    4.8480 H   0  0  0  0  0  0  0  0  0  0  0  0
   -1.3249   -0.5779    3.3632 H   0  0  0  0  0  0  0  0  0  0  0  0
   -0.7442    2.4244    3.5681 H   0  0  0  0  0  0  0  0  0  0  0  0
   -2.2832    1.6692    3.1343 H   0  0  0  0  0  0  0  0  0  0  0  0
   -0.9979    2.5048    1.1053 H   0  0  0  0  0  0  0  0  0  0  0  0
   -1.3024    0.7586    1.0474 H   0  0  0  0  0  0  0  0  0  0  0  0
    1.2953    2.0817    1.9728 H   0  0  0  0  0  0  0  0  0  0  0  0
    2.1421   -0.2338    2.1905 H   0  0  0  0  0  0  0  0  0  0  0  0
    0.5448   -0.8753    1.7254 H   0  0  0  0  0  0  0  0  0  0  0  0
    1.9480   -1.5177    0.3474 H   0  0  0  0  0  0  0  0  0  0  0  0
    3.4662   -0.6134    0.4145 H   0  0  0  0  0  0  0  0  0  0  0  0
    2.3810   -1.8285   -1.8919 H   0  0  0  0  0  0  0  0  0  0  0  0
    2.6037    0.5615   -2.7429 H   0  0  0  0  0  0  0  0  0  0  0  0
   -0.0164    4.5066   -1.5867 H   0  0  0  0  0  0  0  0  0  0  0  0
   -0.4072    6.2462   -3.3539 H   0  0  0  0  0  0  0  0  0  0  0  0
   -1.5397    4.2910   -5.7536 H   0  0  0  0  0  0  0  0  0  0  0  0
   -3.5184    4.3712   -7.2413 H   0  0  0  0  0  0  0  0  0  0  0  0
   -3.7627    6.1900   -8.9278 H   0  0  0  0  0  0  0  0  0  0  0  0
   -1.9892    7.9392   -9.1069 H   0  0  0  0  0  0  0  0  0  0  0  0
    0.0038    7.8528   -7.6027 H   0  0  0  0  0  0  0  0  0  0  0  0
    1.7649    3.8603   -6.1802 H   0  0  0  0  0  0  0  0  0  0  0  0
    2.1566    2.1302   -4.4306 H   0  0  0  0  0  0  0  0  0  0  0  0
  1 46  1  0  0  0  0
  1 45  1  0  0  0  0
  1 44  1  0  0  0  0
  2  1  1  0  0  0  0
  4  3  1  0  0  0  0
  5  7  1  0  0  0  0
  5  6  1  1  0  0  0
  5  4  1  0  0  0  0
  7 50  1  0  0  0  0
  8  7  1  0  0  0  0
  8  9  1  0  0  0  0
  9 51  1  0  0  0  0
  9 52  1  0  0  0  0
 10  8  2  0  0  0  0
 11  5  1  0  0  0  0
 12 54  1  0  0  0  0
 12 11  1  0  0  0  0
 13 12  1  0  0  0  0
 14 11  2  0  0  0  0
 15 58  1  0  0  0  0
 15  2  1  0  0  0  0
 16 15  1  0  0  0  0
 17 18  1  0  0  0  0
 17 16  1  0  0  0  0
 18 59  1  0  0  0  0
 19 62  1  0  0  0  0
 19 61  1  0  0  0  0
 19 18  1  0  0  0  0
 20 19  1  0  0  0  0
 21 20  1  0  0  0  0
 21 65  1  1  0  0  0
 21 22  1  0  0  0  0
 22 17  1  0  0  0  0
 23 21  1  0  0  0  0
 24 25  1  0  0  0  0
 24 23  1  0  0  0  0
 25 68  1  0  0  0  0
 25 69  1  0  0  0  0
 26 25  1  0  0  0  0
 27 28  1  0  0  0  0
 27 24  2  0  0  0  0
 28 42  2  0  0  0  0
 29 30  1  0  0  0  0
 29 28  1  0  0  0  0
 30 72  1  0  0  0  0
 31 73  1  0  0  0  0
 31 30  2  0  0  0  0
 32 31  1  0  0  0  0
 33 32  1  0  0  0  0
 34 35  1  0  0  0  0
 34 33  1  0  0  0  0
 35 74  1  0  0  0  0
 36 75  1  0  0  0  0
 36 35  2  0  0  0  0
 37 36  1  0  0  0  0
 38 37  2  0  0  0  0
 38 39  1  0  0  0  0
 39 34  2  0  0  0  0
 40 32  2  0  0  0  0
 40 41  1  0  0  0  0
 41 29  2  0  0  0  0
 42 23  1  0  0  0  0
 43 16  2  0  0  0  0
 47  2  1  0  0  0  0
 48  4  1  0  0  0  0
 49  4  1  0  0  0  0
 53  9  1  0  0  0  0
 55 13  1  0  0  0  0
 56 13  1  0  0  0  0
 57 13  1  0  0  0  0
 60 18  1  0  0  0  0
 63 20  1  0  0  0  0
 64 20  1  0  0  0  0
 66 22  1  0  0  0  0
 67 22  1  0  0  0  0
 70 26  1  0  0  0  0
 71 27  1  0  0  0  0
 76 37  1  0  0  0  0
 77 38  1  0  0  0  0
 78 39  1  0  0  0  0
 79 40  1  0  0  0  0
 80 41  1  0  0  0  0
M  END
