-1 1
 OpenBabel05192410563D

 80 83  0  0  1  0  0  0  0  0999 V2000
    0.4200   -2.1325    7.5742 C   0  0  0  0  0  0  0  0  0  0  0  0
    0.6385   -2.0306    6.0668 C   0  0  1  0  0  0  0  0  0  0  0  0
    2.5013   -1.5444    5.9139 S   0  0  0  0  0  0  0  0  0  0  0  0
    2.7297   -1.6079    4.1231 C   0  0  0  0  0  0  0  0  0  0  0  0
    2.4551   -0.2828    3.4163 C   0  0  2  0  0  0  0  0  0  0  0  0
    3.1434    0.4880    3.8013 H   0  0  0  0  0  0  0  0  0  0  0  0
    1.1140    0.1854    3.7078 N   0  0  0  0  0  0  0  0  0  0  0  0
    0.8273    1.4915    3.8409 C   0  0  0  0  0  0  0  0  0  0  0  0
   -0.5496    1.8165    4.3777 C   0  0  0  0  0  0  0  0  0  0  0  0
    1.6174    2.3882    3.5467 O   0  0  0  0  0  0  0  0  0  0  0  0
    2.6884   -0.3699    1.8945 C   0  0  0  0  0  0  0  0  0  0  0  0
    2.5461    0.8192    1.2664 N   0  0  0  0  0  0  0  0  0  0  0  0
    2.6109    0.9670   -0.1651 C   0  0  0  0  0  0  0  0  0  0  0  0
    2.9584   -1.4162    1.3232 O   0  0  0  0  0  0  0  0  0  0  0  0
    0.2624   -3.2467    5.3337 C   0  0  0  0  0  3  0  0  0  0  0  0
   -0.3580   -3.3640    4.0972 C   0  0  0  0  0  0  0  0  0  0  0  0
   -0.7291   -2.0688    3.3922 N   0  0  0  0  0  0  0  0  0  0  0  0
   -2.1784   -1.8961    3.5185 C   0  0  0  0  0  0  0  0  0  0  0  0
   -2.7036   -0.7315    2.6866 C   0  0  0  0  0  0  0  0  0  0  0  0
   -2.2746   -0.8471    1.2274 C   0  0  0  0  0  0  0  0  0  0  0  0
   -0.7577   -1.0112    1.1639 C   0  0  1  0  0  0  0  0  0  0  0  0
   -0.3437   -2.2219    1.9885 C   0  0  0  0  0  0  0  0  0  0  0  0
   -0.2966   -1.0554   -0.2320 N   0  0  0  0  0  0  0  0  0  0  0  0
    0.4315   -1.9610   -0.9478 C   0  0  0  0  0  0  0  0  0  0  0  0
    1.0433   -3.2655   -0.4962 C   0  0  0  0  0  0  0  0  0  0  0  0
    1.4786   -4.0150   -1.6040 O   0  0  0  0  0  0  0  0  0  0  0  0
    0.5777   -1.4232   -2.2152 C   0  0  0  0  0  0  0  0  0  0  0  0
   -0.0932   -0.1834   -2.1712 C   0  0  0  0  0  0  0  0  0  0  0  0
   -0.2463    0.8299   -3.2291 C   0  0  0  0  0  0  0  0  0  0  0  0
   -0.9310    2.0271   -2.9708 C   0  0  0  0  0  0  0  0  0  0  0  0
   -1.0862    2.9900   -3.9615 C   0  0  0  0  0  0  0  0  0  0  0  0
   -0.5558    2.7649   -5.2304 C   0  0  0  0  0  0  0  0  0  0  0  0
   -0.6848    3.7273   -6.2089 O   0  0  0  0  0  0  0  0  0  0  0  0
   -1.7824    3.7232   -7.0091 C   0  0  0  0  0  0  0  0  0  0  0  0
   -2.8052    2.7745   -6.9167 C   0  0  0  0  0  0  0  0  0  0  0  0
   -3.8926    2.8543   -7.7871 C   0  0  0  0  0  0  0  0  0  0  0  0
   -3.9733    3.8626   -8.7445 C   0  0  0  0  0  0  0  0  0  0  0  0
   -2.9456    4.8049   -8.8283 C   0  0  0  0  0  0  0  0  0  0  0  0
   -1.8551    4.7402   -7.9685 C   0  0  0  0  0  0  0  0  0  0  0  0
    0.1336    1.5886   -5.5081 C   0  0  0  0  0  0  0  0  0  0  0  0
    0.2859    0.6302   -4.5093 C   0  0  0  0  0  0  0  0  0  0  0  0
   -0.6085    0.0179   -0.9658 N   0  0  0  0  0  0  0  0  0  0  0  0
   -0.6804   -4.4012    3.4981 O   0  0  0  0  0  0  0  0  0  0  0  0
    0.7672   -1.2317    8.1066 H   0  0  0  0  0  0  0  0  0  0  0  0
    0.9554   -3.0035    7.9841 H   0  0  0  0  0  0  0  0  0  0  0  0
   -0.6529   -2.2721    7.7783 H   0  0  0  0  0  0  0  0  0  0  0  0
    0.1043   -1.1481    5.6925 H   0  0  0  0  0  0  0  0  0  0  0  0
    2.0732   -2.4105    3.7470 H   0  0  0  0  0  0  0  0  0  0  0  0
    3.7603   -1.9226    3.9141 H   0  0  0  0  0  0  0  0  0  0  0  0
    0.3780   -0.5429    3.7981 H   0  0  0  0  0  0  0  0  0  0  0  0
   -0.4328    2.5592    5.1784 H   0  0  0  0  0  0  0  0  0  0  0  0
   -1.0749    0.9353    4.7686 H   0  0  0  0  0  0  0  0  0  0  0  0
   -1.1500    2.2797    3.5807 H   0  0  0  0  0  0  0  0  0  0  0  0
    2.3395    1.6265    1.8579 H   0  0  0  0  0  0  0  0  0  0  0  0
    1.7123    1.4749   -0.5458 H   0  0  0  0  0  0  0  0  0  0  0  0
    2.6599   -0.0322   -0.6172 H   0  0  0  0  0  0  0  0  0  0  0  0
    3.5018    1.5368   -0.4781 H   0  0  0  0  0  0  0  0  0  0  0  0
    0.5226   -4.2030    5.7997 H   0  0  0  0  0  0  0  0  0  0  0  0
   -2.4075   -1.7463    4.5854 H   0  0  0  0  0  0  0  0  0  0  0  0
   -2.6885   -2.8297    3.2045 H   0  0  0  0  0  0  0  0  0  0  0  0
   -2.3290    0.2199    3.0947 H   0  0  0  0  0  0  0  0  0  0  0  0
   -3.8023   -0.6960    2.7592 H   0  0  0  0  0  0  0  0  0  0  0  0
   -2.5813    0.0324    0.6446 H   0  0  0  0  0  0  0  0  0  0  0  0
   -2.7392   -1.7353    0.7638 H   0  0  0  0  0  0  0  0  0  0  0  0
   -0.2853   -0.1132    1.5917 H   0  0  0  0  0  0  0  0  0  0  0  0
    0.7464   -2.3565    1.9516 H   0  0  0  0  0  0  0  0  0  0  0  0
   -0.8102   -3.1381    1.5856 H   0  0  0  0  0  0  0  0  0  0  0  0
    0.3496   -3.8449    0.1318 H   0  0  0  0  0  0  0  0  0  0  0  0
    1.9286   -3.0397    0.1163 H   0  0  0  0  0  0  0  0  0  0  0  0
    0.6976   -4.2683   -2.1047 H   0  0  0  0  0  0  0  0  0  0  0  0
    1.1273   -1.8855   -3.0294 H   0  0  0  0  0  0  0  0  0  0  0  0
   -1.3394    2.1865   -1.9716 H   0  0  0  0  0  0  0  0  0  0  0  0
   -1.6188    3.9224   -3.7641 H   0  0  0  0  0  0  0  0  0  0  0  0
   -2.7515    1.9812   -6.1700 H   0  0  0  0  0  0  0  0  0  0  0  0
   -4.6885    2.1099   -7.7085 H   0  0  0  0  0  0  0  0  0  0  0  0
   -4.8289    3.9161   -9.4204 H   0  0  0  0  0  0  0  0  0  0  0  0
   -2.9934    5.6026   -9.5734 H   0  0  0  0  0  0  0  0  0  0  0  0
   -1.0428    5.4673   -8.0180 H   0  0  0  0  0  0  0  0  0  0  0  0
    0.5454    1.4347   -6.5073 H   0  0  0  0  0  0  0  0  0  0  0  0
    0.8295   -0.2901   -4.7315 H   0  0  0  0  0  0  0  0  0  0  0  0
  1 46  1  0  0  0  0
  1 45  1  0  0  0  0
  1 44  1  0  0  0  0
  2 47  1  6  0  0  0
  2  1  1  0  0  0  0
  3  2  1  0  0  0  0
  4  3  1  0  0  0  0
  5  7  1  0  0  0  0
  5  6  1  1  0  0  0
  5  4  1  0  0  0  0
  7 50  1  0  0  0  0
  7  8  1  0  0  0  0
  8  9  1  0  0  0  0
  9 52  1  0  0  0  0
  9 51  1  0  0  0  0
 10  8  2  0  0  0  0
 11  5  1  0  0  0  0
 12 54  1  0  0  0  0
 12 11  1  0  0  0  0
 13 12  1  0  0  0  0
 14 11  2  0  0  0  0
 15 58  1  0  0  0  0
 15  2  1  0  0  0  0
 16 15  1  0  0  0  0
 17 18  1  0  0  0  0
 17 16  1  0  0  0  0
 18 59  1  0  0  0  0
 19 62  1  0  0  0  0
 19 61  1  0  0  0  0
 19 18  1  0  0  0  0
 20 19  1  0  0  0  0
 21 20  1  0  0  0  0
 21 65  1  1  0  0  0
 21 22  1  0  0  0  0
 22 17  1  0  0  0  0
 23 21  1  0  0  0  0
 24 25  1  0  0  0  0
 24 23  1  0  0  0  0
 25 69  1  0  0  0  0
 25 68  1  0  0  0  0
 26 25  1  0  0  0  0
 27 28  1  0  0  0  0
 27 24  2  0  0  0  0
 28 42  2  0  0  0  0
 29 30  1  0  0  0  0
 29 28  1  0  0  0  0
 30 72  1  0  0  0  0
 31 73  1  0  0  0  0
 31 30  2  0  0  0  0
 32 31  1  0  0  0  0
 33 32  1  0  0  0  0
 34 35  1  0  0  0  0
 34 33  1  0  0  0  0
 35 74  1  0  0  0  0
 36 75  1  0  0  0  0
 36 35  2  0  0  0  0
 37 36  1  0  0  0  0
 38 37  2  0  0  0  0
 38 39  1  0  0  0  0
 39 34  2  0  0  0  0
 40 32  2  0  0  0  0
 40 41  1  0  0  0  0
 41 29  2  0  0  0  0
 42 23  1  0  0  0  0
 43 16  2  0  0  0  0
 48  4  1  0  0  0  0
 49  4  1  0  0  0  0
 53  9  1  0  0  0  0
 55 13  1  0  0  0  0
 56 13  1  0  0  0  0
 57 13  1  0  0  0  0
 60 18  1  0  0  0  0
 63 20  1  0  0  0  0
 64 20  1  0  0  0  0
 66 22  1  0  0  0  0
 67 22  1  0  0  0  0
 70 26  1  0  0  0  0
 71 27  1  0  0  0  0
 76 37  1  0  0  0  0
 77 38  1  0  0  0  0
 78 39  1  0  0  0  0
 79 40  1  0  0  0  0
 80 41  1  0  0  0  0
M  END
