-1 1
 OpenBabel05232414493D

 75 76  0  0  1  0  0  0  0  0999 V2000
    0.5832    6.0694    0.6077 O   0  0  0  0  0  0  0  0  0  0  0  0
    0.8534    4.9568    0.1868 C   0  0  0  0  0  0  0  0  0  0  0  0
    2.2456    4.6247   -0.3811 C   0  0  2  0  0  0  0  0  0  0  0  0
    2.7051    3.1681   -0.2134 C   0  0  0  0  0  0  0  0  0  0  0  0
    2.9812    2.6738    1.5138 S   0  0  0  0  0  1  0  0  0  0  0  0
    1.2199    1.1960    1.7589 C   0  0  0  0  0  3  0  0  0  0  0  0
    1.2194    0.4474    2.9328 C   0  0  0  0  0  3  0  0  0  0  0  0
    0.2911    0.5172    4.0154 C   0  0  0  0  0  0  0  0  0  0  0  0
   -0.7455    1.5293    4.0457 N   0  0  0  0  0  0  0  0  0  0  0  0
   -0.6957    2.9033    4.0895 C   0  0  0  0  0  0  0  0  0  0  0  0
    0.4340    3.6711    3.7499 C   0  0  0  0  0  0  0  0  0  0  0  0
    0.3925    5.0581    3.8216 C   0  0  0  0  0  0  0  0  0  0  0  0
   -0.7651    5.7080    4.2512 C   0  0  0  0  0  0  0  0  0  0  0  0
   -0.8021    7.4640    4.4071 S   0  0  0  0  0  0  0  0  0  0  0  0
    0.4714    7.9936    3.9179 O   0  0  0  0  0  0  0  0  0  0  0  0
   -2.0722    7.8521    3.3967 N   0  0  0  0  0  0  0  0  0  0  0  0
   -1.9353    7.5918    1.9458 C   0  0  0  0  0  0  0  0  0  0  0  0
   -2.6022    8.8508    1.3842 C   0  0  1  0  0  0  0  0  0  0  0  0
   -3.7446    9.0560    2.3869 C   0  0  0  0  0  0  0  0  0  0  0  0
   -2.7776    9.1369    3.5745 C   0  0  2  0  0  0  0  0  0  0  0  0
   -1.8804   10.3055    3.1338 C   0  0  0  0  0  0  0  0  0  0  0  0
   -1.7619   10.0078    1.7038 N   0  0  0  0  0  0  0  0  0  0  0  0
   -0.6316   10.3534    1.0167 C   0  0  0  0  0  0  0  0  0  0  0  0
   -0.5352    9.6358   -0.1082 O   0  0  0  0  0  0  0  0  0  0  0  0
    0.6841    9.6123   -0.9006 C   0  0  0  0  0  0  0  0  0  0  0  0
    1.8789    9.2388   -0.0286 C   0  0  0  0  0  0  0  0  0  0  0  0
    0.4190    8.5058   -1.9152 C   0  0  0  0  0  0  0  0  0  0  0  0
    0.8684   10.9657   -1.5837 C   0  0  0  0  0  0  0  0  0  0  0  0
    0.1401   11.2072    1.3942 O   0  0  0  0  0  0  0  0  0  0  0  0
   -1.2559    7.8707    5.7396 O   0  0  0  0  0  0  0  0  0  0  0  0
   -1.8996    4.9661    4.5969 C   0  0  0  0  0  0  0  0  0  0  0  0
   -1.8657    3.5881    4.5060 C   0  0  0  0  0  0  0  0  0  0  0  0
    0.1925   -0.3304    4.8967 O   0  0  0  0  0  0  0  0  0  0  0  0
    3.2244    5.5117    0.1816 N   0  0  0  0  0  0  0  0  0  0  0  0
    3.8080    6.5265   -0.4998 C   0  0  0  0  0  0  0  0  0  0  0  0
    4.8011    7.3310    0.3160 C   0  0  0  0  0  0  0  0  0  0  0  0
    3.5546    6.7862   -1.6655 O   0  0  0  0  0  0  0  0  0  0  0  0
    2.1922    4.8767   -1.4548 H   0  0  0  0  0  0  0  0  0  0  0  0
   -0.0737    3.9736    0.1163 N   0  0  0  0  0  0  0  0  0  0  0  0
   -1.3995    4.1456    0.6599 C   0  0  0  0  0  0  0  0  0  0  0  0
    1.9890    2.4720   -0.6923 H   0  0  0  0  0  0  0  0  0  0  0  0
    3.6397    3.0548   -0.7834 H   0  0  0  0  0  0  0  0  0  0  0  0
   -1.4957    1.1481    4.6133 H   0  0  0  0  0  0  0  0  0  0  0  0
    1.3495    3.1919    3.4063 H   0  0  0  0  0  0  0  0  0  0  0  0
    1.2654    5.6452    3.5325 H   0  0  0  0  0  0  0  0  0  0  0  0
   -2.4803    6.6754    1.6685 H   0  0  0  0  0  0  0  0  0  0  0  0
   -0.8921    7.4791    1.6184 H   0  0  0  0  0  0  0  0  0  0  0  0
   -2.8522    8.8046    0.3197 H   0  0  0  0  0  0  0  0  0  0  0  0
   -4.4316    8.2016    2.4479 H   0  0  0  0  0  0  0  0  0  0  0  0
   -4.3025    9.9881    2.2223 H   0  0  0  0  0  0  0  0  0  0  0  0
   -3.2009    9.2260    4.5805 H   0  0  0  0  0  0  0  0  0  0  0  0
   -0.8954   10.3065    3.6207 H   0  0  0  0  0  0  0  0  0  0  0  0
   -2.3629   11.2806    3.3202 H   0  0  0  0  0  0  0  0  0  0  0  0
    2.0787   10.0080    0.7270 H   0  0  0  0  0  0  0  0  0  0  0  0
    2.7574    9.1218   -0.6784 H   0  0  0  0  0  0  0  0  0  0  0  0
    1.6886    8.2735    0.4650 H   0  0  0  0  0  0  0  0  0  0  0  0
   -0.4432    8.7585   -2.5517 H   0  0  0  0  0  0  0  0  0  0  0  0
    0.2159    7.5666   -1.3825 H   0  0  0  0  0  0  0  0  0  0  0  0
    1.3067    8.3508   -2.5445 H   0  0  0  0  0  0  0  0  0  0  0  0
    1.0409   11.7533   -0.8386 H   0  0  0  0  0  0  0  0  0  0  0  0
   -0.0253   11.2214   -2.1739 H   0  0  0  0  0  0  0  0  0  0  0  0
    1.7316   10.9202   -2.2647 H   0  0  0  0  0  0  0  0  0  0  0  0
   -2.8042    5.4767    4.9328 H   0  0  0  0  0  0  0  0  0  0  0  0
   -2.7532    3.0074    4.7711 H   0  0  0  0  0  0  0  0  0  0  0  0
    3.4713    5.3285    1.1493 H   0  0  0  0  0  0  0  0  0  0  0  0
    5.4560    6.6811    0.9146 H   0  0  0  0  0  0  0  0  0  0  0  0
    4.2550    7.9928    1.0051 H   0  0  0  0  0  0  0  0  0  0  0  0
    5.4046    7.9442   -0.3633 H   0  0  0  0  0  0  0  0  0  0  0  0
    0.2345    3.0428   -0.1225 H   0  0  0  0  0  0  0  0  0  0  0  0
   -1.3537    4.5635    1.6764 H   0  0  0  0  0  0  0  0  0  0  0  0
   -1.8965    3.1681    0.7075 H   0  0  0  0  0  0  0  0  0  0  0  0
   -2.0044    4.8233    0.0355 H   0  0  0  0  0  0  0  0  0  0  0  0
    1.5666    0.7145    0.8407 H   0  0  0  0  0  0  0  0  0  0  0  0
    0.4045    1.9117    1.6181 H   0  0  0  0  0  0  0  0  0  0  0  0
    1.9229   -0.3819    3.0338 H   0  0  0  0  0  0  0  0  0  0  0  0
  2  1  2  0  0  0  0
  3 38  1  6  0  0  0
  3  4  1  0  0  0  0
  3 34  1  0  0  0  0
  3  2  1  0  0  0  0
  4  5  1  0  0  0  0
  6  7  1  0  0  0  0
  7 75  1  0  0  0  0
  7  8  1  0  0  0  0
  8  9  1  0  0  0  0
  8 33  2  0  0  0  0
  9 10  1  0  0  0  0
  9 43  1  0  0  0  0
 10 32  1  0  0  0  0
 11 12  1  0  0  0  0
 11 10  2  0  0  0  0
 12 13  2  0  0  0  0
 13 14  1  0  0  0  0
 13 31  1  0  0  0  0
 14 30  2  0  0  0  0
 15 14  2  0  0  0  0
 16 20  1  0  0  0  0
 16 14  1  0  0  0  0
 17 16  1  0  0  0  0
 18 48  1  6  0  0  0
 18 22  1  0  0  0  0
 18 17  1  0  0  0  0
 18 19  1  0  0  0  0
 19 49  1  0  0  0  0
 19 20  1  0  0  0  0
 20 51  1  1  0  0  0
 21 53  1  0  0  0  0
 21 20  1  0  0  0  0
 21 52  1  0  0  0  0
 22 21  1  0  0  0  0
 23 29  2  0  0  0  0
 23 22  1  0  0  0  0
 24 23  1  0  0  0  0
 25 24  1  0  0  0  0
 25 26  1  0  0  0  0
 26 56  1  0  0  0  0
 26 54  1  0  0  0  0
 27 58  1  0  0  0  0
 27 25  1  0  0  0  0
 28 25  1  0  0  0  0
 28 60  1  0  0  0  0
 31 63  1  0  0  0  0
 32 31  2  0  0  0  0
 32 64  1  0  0  0  0
 34 65  1  0  0  0  0
 35 34  1  0  0  0  0
 35 36  1  0  0  0  0
 36 66  1  0  0  0  0
 36 67  1  0  0  0  0
 37 35  2  0  0  0  0
 39  2  1  0  0  0  0
 39 40  1  0  0  0  0
 40 71  1  0  0  0  0
 40 70  1  0  0  0  0
 41  4  1  0  0  0  0
 42  4  1  0  0  0  0
 44 11  1  0  0  0  0
 45 12  1  0  0  0  0
 46 17  1  0  0  0  0
 47 17  1  0  0  0  0
 50 19  1  0  0  0  0
 55 26  1  0  0  0  0
 57 27  1  0  0  0  0
 59 27  1  0  0  0  0
 61 28  1  0  0  0  0
 62 28  1  0  0  0  0
 68 36  1  0  0  0  0
 69 39  1  0  0  0  0
 72 40  1  0  0  0  0
 73  6  1  0  0  0  0
 74  6  1  0  0  0  0
M  END
