75
-1 1
O         0.316077   -0.120820   -1.256403
C         0.550008   -1.230197   -1.704512
C         1.932998   -1.561610   -2.298230
C         2.365768   -3.034228   -2.267733
S         2.669668   -3.698922   -0.595154
C         1.152918   -4.782119   -0.281695
C         1.258094   -5.507933    0.990314
C         0.327804   -5.488866    2.027106
N        -0.820508   -4.540688    1.921847
C        -0.824585   -3.187698    2.080472
C         0.299078   -2.368869    1.818940
C         0.215369   -0.990780    1.936608
C        -0.978588   -0.383229    2.336668
S        -1.062585    1.361558    2.521256
O         0.202738    1.931442    2.049898
N        -2.332040    1.743121    1.501437
C        -2.186316    1.476561    0.053291
C        -2.837977    2.737594   -0.521123
C        -3.984918    2.959235    0.472535
C        -3.025384    3.036078    1.666166
C        -2.114767    4.195109    1.225365
N        -1.986918    3.887477   -0.202605
C        -0.844680    4.208512   -0.879948
O        -0.749144    3.479791   -2.000045
C         0.475864    3.431151   -2.779017
C         1.654124    3.034728   -1.894095
C         0.199471    2.327524   -3.794291
C         0.696172    4.777962   -3.464844
O        -0.060112    5.051186   -0.504243
O        -1.537598    1.752145    3.851446
C        -2.099642   -1.171806    2.627013
C        -2.023994   -2.543564    2.494241
O         0.256084   -6.224040    3.016262
N         2.927789   -0.738183   -1.667068
C         3.567744    0.280526   -2.300007
C         4.504199    1.072667   -1.411038
O         3.401262    0.539157   -3.479604
H         1.894197   -1.222019   -3.347939
N        -0.387136   -2.201976   -1.766121
C        -1.681925   -2.058688   -1.141696
H         1.647333   -3.689903   -2.788620
H         3.304102   -3.110881   -2.835393
H        -1.597407   -4.991368    2.395973
H         1.238950   -2.831065    1.519264
H         1.079208   -0.364917    1.708449
H        -2.735882    0.563354   -0.226533
H        -1.141519    1.355978   -0.264902
H        -3.081504    2.687481   -1.586873
H        -4.680304    2.111607    0.532580
H        -4.533001    3.895581    0.299264
H        -3.454842    3.135333    2.668696
H        -1.133617    4.191244    1.719263
H        -2.591983    5.174740    1.400715
H         1.860124    3.800475   -1.136539
H         2.538675    2.899800   -2.532585
H         1.437138    2.075203   -1.400370
H        -0.654496    2.593051   -4.436409
H        -0.024193    1.392499   -3.262077
H         1.087591    2.159477   -4.419871
H         0.876985    5.564082   -2.720501
H        -0.186071    5.050150   -4.064742
H         1.565029    4.712320   -4.136936
H        -3.028391   -0.698403    2.952410
H        -2.901205   -3.157205    2.716331
H         3.054216   -0.868228   -0.669783
H         5.125206    0.412636   -0.787980
H         3.914288    1.718107   -0.742842
H         5.144626    1.701343   -2.040164
H        -0.106503   -3.123293   -2.066369
H        -1.592059   -1.414318   -0.257310
H        -2.036680   -3.044577   -0.812621
H        -2.423902   -1.615252   -1.826767
H         1.122520   -5.428390   -1.180605
H         0.270097   -4.130288   -0.283956
H         2.042985   -6.261296    1.094436
