77
-1 1
O        -1.771169    1.943234   -6.669106
C        -1.260357    2.265397   -5.590658
N        -1.248636    1.185679   -4.580814
C        -1.954195    1.152709   -3.398690
C        -2.179861   -0.089045   -2.763931
C        -2.816851   -0.176712   -1.529896
C        -2.954415   -1.516043   -0.846064
N        -1.850674   -1.801422    0.066337
C        -0.782457   -2.610660   -0.154896
C        -0.609645   -3.426486   -1.397366
O        -1.653688   -4.357637   -1.593172
C         0.004272   -2.525296    0.979113
C        -0.674178   -1.615784    1.825188
C        -0.292544   -1.127450    3.161719
C        -1.052027   -0.130479    3.792344
C        -0.705872    0.340163    5.053513
C         0.411205   -0.183458    5.702247
O         0.779594    0.302632    6.937217
C         0.229901   -0.229372    8.059936
C         0.619245    0.348505    9.273993
C         0.107051   -0.141122   10.469864
C        -0.795591   -1.207061   10.472574
C        -1.177468   -1.775801    9.260020
C        -0.672470   -1.297095    8.050562
C         1.183019   -1.168238    5.093830
C         0.829256   -1.633729    3.829771
N        -1.797333   -1.197243    1.247700
C        -3.274013    0.982441   -0.893383
C        -3.095162    2.210024   -1.528991
C        -2.453868    2.306938   -2.759243
C        -0.670344    3.483618   -5.231276
C         0.162074    3.728826   -4.054743
S         2.075471    3.561138   -4.294756
C         2.137574    1.982995   -5.169416
C         2.103665    0.696637   -4.311035
H         1.296427    0.044623   -4.681573
N         1.798442    0.980058   -2.921324
C         1.141326    0.141900   -2.103169
C         0.657526    0.723158   -0.799143
O         0.934699   -1.039375   -2.399147
C         3.422447   -0.106376   -4.430888
N         3.348147   -1.330096   -3.850223
C         4.473271   -2.221446   -3.778346
O         4.414020    0.311340   -5.002179
H        -1.295680    0.305357   -5.084299
H        -1.806544   -0.996480   -3.246132
H        -2.988706   -2.341722   -1.567361
H        -3.873511   -1.550511   -0.244669
H         0.379202   -3.915265   -1.345339
H        -0.581590   -2.766828   -2.273009
H        -1.754935   -4.860998   -0.779944
H         0.949284   -3.036398    1.143979
H        -1.919226    0.272818    3.267295
H        -1.292474    1.118275    5.545788
H         1.324555    1.180940    9.251049
H         0.416516    0.316878   11.412351
H        -1.197178   -1.589054   11.413121
H        -1.882903   -2.610009    9.245494
H        -0.978083   -1.749088    7.106114
H         2.056565   -1.560650    5.617531
H         1.439403   -2.406928    3.358772
H        -3.753309    0.917669    0.085582
H        -3.467628    3.123087   -1.056482
H        -2.339342    3.269475   -3.259060
H        -0.705443    4.253117   -6.007151
H        -0.056638    3.056898   -3.214719
H         0.112947    4.764463   -3.683539
H         3.062266    1.979389   -5.758978
H         1.277910    1.998035   -5.857161
H         1.935953    1.960030   -2.664826
H         1.158967    1.666086   -0.542903
H         0.803937   -0.013312    0.001634
H        -0.423766    0.911634   -0.882324
H         2.478087   -1.552474   -3.360226
H         4.235637   -3.205873   -4.214068
H         4.807105   -2.377205   -2.738207
H         5.298917   -1.774275   -4.347037
