-1 1
 OpenBabel05232414493D

 77 79  0  0  1  0  0  0  0  0999 V2000
    7.4808    1.6957    8.7168 O   0  0  0  0  0  0  0  0  0  0  0  0
    7.7093    1.9951    9.8820 C   0  0  0  0  0  0  0  0  0  0  0  0
    7.5534    0.9419   10.8385 N   0  0  0  0  0  0  0  0  0  0  0  0
    6.8549    0.8955   12.0364 C   0  0  0  0  0  0  0  0  0  0  0  0
    6.6842   -0.3615   12.6484 C   0  0  0  0  0  0  0  0  0  0  0  0
    6.0244   -0.4976   13.8659 C   0  0  0  0  0  0  0  0  0  0  0  0
    5.9365   -1.8529   14.5261 C   0  0  0  0  0  0  0  0  0  0  0  0
    7.0449   -2.1122   15.4384 N   0  0  0  0  0  0  0  0  0  0  0  0
    8.1116   -2.9307   15.2405 C   0  0  0  0  0  0  0  0  0  0  0  0
    8.2996   -3.7617   14.0097 C   0  0  0  0  0  0  0  0  0  0  0  0
    7.2375   -4.6657   13.7849 O   0  0  0  0  0  0  0  0  0  0  0  0
    8.8913   -2.8232   16.3773 C   0  0  0  0  0  0  0  0  0  0  0  0
    8.2114   -1.8934   17.2003 C   0  0  0  0  0  0  0  0  0  0  0  0
    8.5858   -1.3793   18.5294 C   0  0  0  0  0  0  0  0  0  0  0  0
    7.8095   -0.3861   19.1450 C   0  0  0  0  0  0  0  0  0  0  0  0
    8.1468    0.1085   20.3992 C   0  0  0  0  0  0  0  0  0  0  0  0
    9.2719   -0.3872   21.0558 C   0  0  0  0  0  0  0  0  0  0  0  0
    9.6312    0.1228   22.2835 O   0  0  0  0  0  0  0  0  0  0  0  0
    9.0892   -0.4010   23.4138 C   0  0  0  0  0  0  0  0  0  0  0  0
    9.4668    0.2025   24.6190 C   0  0  0  0  0  0  0  0  0  0  0  0
    8.9614   -0.2772   25.8218 C   0  0  0  0  0  0  0  0  0  0  0  0
    8.0773   -1.3585   25.8402 C   0  0  0  0  0  0  0  0  0  0  0  0
    7.7071   -1.9527   24.6363 C   0  0  0  0  0  0  0  0  0  0  0  0
    8.2054   -1.4842   23.4200 C   0  0  0  0  0  0  0  0  0  0  0  0
   10.0607   -1.3674   20.4619 C   0  0  0  0  0  0  0  0  0  0  0  0
    9.7157   -1.8569   19.2045 C   0  0  0  0  0  0  0  0  0  0  0  0
    7.0928   -1.4846   16.6085 N   0  0  0  0  0  0  0  0  0  0  0  0
    5.4995    0.6310   14.5031 C   0  0  0  0  0  0  0  0  0  0  0  0
    5.6322    1.8736   13.8890 C   0  0  0  0  0  0  0  0  0  0  0  0
    6.2899    2.0158   12.6705 C   0  0  0  0  0  0  0  0  0  0  0  0
    8.1700    3.2945   10.3119 C   0  0  0  0  0  3  0  0  0  0  0  0
    8.8145    3.5981   11.4930 C   0  0  0  0  0  3  0  0  0  0  0  0
   11.2722    3.3071   11.3667 S   0  0  0  0  0  1  0  0  0  0  0  0
   11.1145    1.8749   10.2709 C   0  0  0  0  0  0  0  0  0  0  0  0
   10.9897    0.4917   10.9650 C   0  0  2  0  0  0  0  0  0  0  0  0
   10.1627   -0.0740   10.5025 H   0  0  0  0  0  0  0  0  0  0  0  0
   10.6645    0.6602   12.3669 N   0  0  0  0  0  0  0  0  0  0  0  0
    9.9956   -0.2027   13.1333 C   0  0  0  0  0  0  0  0  0  0  0  0
    9.5914    0.2985   14.4992 C   0  0  0  0  0  0  0  0  0  0  0  0
    9.7153   -1.3543   12.7667 O   0  0  0  0  0  0  0  0  0  0  0  0
   12.2561   -0.3792   10.7751 C   0  0  0  0  0  0  0  0  0  0  0  0
   12.1318   -1.6200   11.3169 N   0  0  0  0  0  0  0  0  0  0  0  0
   13.1971   -2.5831   11.2904 C   0  0  0  0  0  0  0  0  0  0  0  0
   13.2463   -0.0083   10.1724 O   0  0  0  0  0  0  0  0  0  0  0  0
    7.5538    0.0572   10.3423 H   0  0  0  0  0  0  0  0  0  0  0  0
    7.1271   -1.2390   12.1717 H   0  0  0  0  0  0  0  0  0  0  0  0
    5.9370   -2.6656   13.7900 H   0  0  0  0  0  0  0  0  0  0  0  0
    5.0139   -1.9321   15.1184 H   0  0  0  0  0  0  0  0  0  0  0  0
    9.2719   -4.2779   14.0975 H   0  0  0  0  0  0  0  0  0  0  0  0
    8.3780   -3.1049   13.1340 H   0  0  0  0  0  0  0  0  0  0  0  0
    7.1098   -5.1762   14.5900 H   0  0  0  0  0  0  0  0  0  0  0  0
    9.8326   -3.3352   16.5597 H   0  0  0  0  0  0  0  0  0  0  0  0
    6.9363   -0.0048   18.6135 H   0  0  0  0  0  0  0  0  0  0  0  0
    7.5473    0.8841   20.8798 H   0  0  0  0  0  0  0  0  0  0  0  0
   10.1577    1.0464   24.5838 H   0  0  0  0  0  0  0  0  0  0  0  0
    9.2616    0.2007   26.7573 H   0  0  0  0  0  0  0  0  0  0  0  0
    7.6812   -1.7327   26.7861 H   0  0  0  0  0  0  0  0  0  0  0  0
    7.0164   -2.7993   24.6341 H   0  0  0  0  0  0  0  0  0  0  0  0
    7.9093   -1.9563   22.4824 H   0  0  0  0  0  0  0  0  0  0  0  0
   10.9411   -1.7366   20.9909 H   0  0  0  0  0  0  0  0  0  0  0  0
   10.3406   -2.6248   18.7443 H   0  0  0  0  0  0  0  0  0  0  0  0
    5.0033    0.5317   15.4706 H   0  0  0  0  0  0  0  0  0  0  0  0
    5.2105    2.7621   14.3659 H   0  0  0  0  0  0  0  0  0  0  0  0
    6.3711    2.9943   12.1998 H   0  0  0  0  0  0  0  0  0  0  0  0
    8.1437    4.0366    9.5104 H   0  0  0  0  0  0  0  0  0  0  0  0
    8.7751    2.9092   12.3378 H   0  0  0  0  0  0  0  0  0  0  0  0
    8.9851    4.6416   11.7561 H   0  0  0  0  0  0  0  0  0  0  0  0
   11.9807    1.8308    9.5997 H   0  0  0  0  0  0  0  0  0  0  0  0
   10.2168    2.0397    9.6509 H   0  0  0  0  0  0  0  0  0  0  0  0
   10.8560    1.6282   12.6760 H   0  0  0  0  0  0  0  0  0  0  0  0
   10.0539    1.2618   14.7515 H   0  0  0  0  0  0  0  0  0  0  0  0
    9.8601   -0.4553   15.2517 H   0  0  0  0  0  0  0  0  0  0  0  0
    8.4975    0.4100   14.5272 H   0  0  0  0  0  0  0  0  0  0  0  0
   11.2564   -1.8285   11.8031 H   0  0  0  0  0  0  0  0  0  0  0  0
   12.8912   -3.5148   10.7849 H   0  0  0  0  0  0  0  0  0  0  0  0
   13.5412   -2.8419   12.3066 H   0  0  0  0  0  0  0  0  0  0  0  0
   14.0378   -2.1441   10.7374 H   0  0  0  0  0  0  0  0  0  0  0  0
  1  2  2  0  0  0  0
  2 31  1  0  0  0  0
  2  3  1  0  0  0  0
  3  4  1  0  0  0  0
  4  5  2  0  0  0  0
  4 30  1  0  0  0  0
  5  6  1  0  0  0  0
  6 28  2  0  0  0  0
  6  7  1  0  0  0  0
  7 48  1  0  0  0  0
  7  8  1  0  0  0  0
  8 27  1  0  0  0  0
  9  8  1  0  0  0  0
  9 12  2  0  0  0  0
 10 49  1  0  0  0  0
 10  9  1  0  0  0  0
 11 10  1  0  0  0  0
 11 51  1  0  0  0  0
 12 52  1  0  0  0  0
 12 13  1  0  0  0  0
 13 14  1  0  0  0  0
 14 15  2  0  0  0  0
 14 26  1  0  0  0  0
 15 16  1  0  0  0  0
 16 54  1  0  0  0  0
 16 17  2  0  0  0  0
 17 18  1  0  0  0  0
 18 19  1  0  0  0  0
 19 24  2  0  0  0  0
 19 20  1  0  0  0  0
 20 21  2  0  0  0  0
 21 22  1  0  0  0  0
 21 56  1  0  0  0  0
 22 57  1  0  0  0  0
 23 22  2  0  0  0  0
 24 23  1  0  0  0  0
 25 60  1  0  0  0  0
 25 17  1  0  0  0  0
 26 25  2  0  0  0  0
 27 13  2  0  0  0  0
 28 62  1  0  0  0  0
 29 63  1  0  0  0  0
 29 28  1  0  0  0  0
 30 29  2  0  0  0  0
 31 32  1  0  0  0  0
 32 67  1  0  0  0  0
 32 66  1  0  0  0  0
 34 35  1  0  0  0  0
 34 33  1  0  0  0  0
 35 36  1  6  0  0  0
 35 37  1  0  0  0  0
 37 70  1  0  0  0  0
 37 38  1  0  0  0  0
 38 39  1  0  0  0  0
 39 73  1  0  0  0  0
 39 71  1  0  0  0  0
 39 72  1  0  0  0  0
 40 38  2  0  0  0  0
 41 35  1  0  0  0  0
 41 42  1  0  0  0  0
 42 74  1  0  0  0  0
 43 42  1  0  0  0  0
 43 76  1  0  0  0  0
 44 41  2  0  0  0  0
 45  3  1  0  0  0  0
 46  5  1  0  0  0  0
 47  7  1  0  0  0  0
 50 10  1  0  0  0  0
 53 15  1  0  0  0  0
 55 20  1  0  0  0  0
 58 23  1  0  0  0  0
 59 24  1  0  0  0  0
 61 26  1  0  0  0  0
 64 30  1  0  0  0  0
 65 31  1  0  0  0  0
 68 34  1  0  0  0  0
 69 34  1  0  0  0  0
 75 43  1  0  0  0  0
 77 43  1  0  0  0  0
M  END
