77
-1 1
O         4.529203   12.276449    5.031186
C         3.681319   11.607794    4.435258
N         4.051051   11.232981    3.100749
C         3.383865   11.363818    1.894555
C         2.028189   11.696102    1.797161
C         1.430645   11.884490    0.560771
C         2.141914   11.741591   -0.631124
C         1.474979   12.007501   -1.955475
N         2.144648   13.016873   -2.769212
C         2.516104   14.281921   -2.423631
C         2.471523   14.850011   -1.030437
O         3.664651   14.611970   -0.325947
C         3.034088   14.849192   -3.573757
C         2.926301   13.847199   -4.564855
C         3.321245   13.893836   -5.983842
C         3.133310   12.774162   -6.808204
C         3.497502   12.804193   -8.149462
C         4.057515   13.962151   -8.685904
O         4.451169   13.985734  -10.005935
C         3.561666   14.354450  -10.964814
C         2.246000   14.741523  -10.694002
C         1.409649   15.105340  -11.749970
C         1.866102   15.088626  -13.065677
C         3.182620   14.700472  -13.324344
C         4.029050   14.334628  -12.284084
C         4.257111   15.083817   -7.887071
C         3.890297   15.044550   -6.544143
N         2.380635   12.747804   -4.051595
C         3.492012   11.376824   -0.544291
C         4.105076   11.195236    0.691467
C         2.493897   11.117912    5.070031
C         1.523484   10.237875    4.590153
S        -0.523285   11.235933    4.048896
C        -0.276295   12.782507    4.955136
C        -0.420589   14.062994    4.115289
H        -0.472252   14.927406    4.798495
N        -1.652541   14.050680    3.377509
C        -2.326836   15.187912    3.068502
C        -3.386812   15.015313    1.996007
O        -2.108736   16.263638    3.595605
C         0.754608   14.382005    3.159181
N         1.979630   14.362758    3.731487
C         3.187515   14.734843    3.032457
O         0.563040   14.695136    1.995022
H         5.050520   11.388550    3.019855
H         1.419002   11.830774    2.687041
H         0.382441   12.194161    0.547252
H         0.431679   12.317236   -1.786268
H         1.454833   11.112912   -2.592855
H         1.590232   14.501505   -0.465937
H         2.374263   15.940923   -1.121127
H         3.703829   13.670365   -0.115402
H         3.444437   15.852159   -3.658210
H         2.694678   11.875498   -6.371810
H         3.352948   11.934520   -8.793485
H         1.879054   14.757835   -9.666952
H         0.382451   15.406497  -11.531286
H         1.203147   15.375130  -13.884336
H         3.556425   14.681744  -14.350877
H         5.060596   14.028246  -12.465876
H         4.700272   15.979570   -8.326058
H         4.052161   15.927803   -5.923362
H         4.082143   11.260366   -1.458123
H         5.164176   10.926834    0.735355
H         2.450709   11.423227    6.119006
H         1.002547    9.616417    5.318111
H         1.667315    9.757487    3.618517
H         0.734134   12.737967    5.404946
H        -0.993885   12.843652    5.786797
H        -1.803021   13.209390    2.828913
H        -4.126893   15.819143    2.089646
H        -3.883958   14.036116    2.053924
H        -2.898192   15.096735    1.012862
H         2.077202   13.980260    4.662950
H         3.396372   15.813936    3.132389
H         3.087982   14.516638    1.962437
H         4.030015   14.169559    3.452670
