-1 1
 OpenBabel05192410563D

 77 80  0  0  1  0  0  0  0  0999 V2000
    2.8494   -1.1471    6.0780 O   0  0  0  0  0  0  0  0  0  0  0  0
    1.8269   -1.7677    5.7550 C   0  0  0  0  0  0  0  0  0  0  0  0
    1.9322   -2.4470    4.4532 N   0  0  0  0  0  0  0  0  0  0  0  0
    1.2520   -2.1396    3.2972 C   0  0  0  0  0  0  0  0  0  0  0  0
   -0.0298   -1.5629    3.2956 C   0  0  0  0  0  0  0  0  0  0  0  0
   -0.6675   -1.2351    2.1095 C   0  0  0  0  0  0  0  0  0  0  0  0
   -0.0826   -1.4841    0.8653 C   0  0  0  0  0  0  0  0  0  0  0  0
   -0.7788   -1.0847   -0.4093 C   0  0  0  0  0  0  0  0  0  0  0  0
    0.0071   -0.1905   -1.2531 N   0  0  0  0  0  0  0  0  0  0  0  0
    0.5643    1.0071   -0.9222 C   0  0  0  0  0  0  0  0  0  0  0  0
    0.5746    1.5939    0.4636 C   0  0  0  0  0  0  0  0  0  0  0  0
    1.6946    1.2043    1.2116 O   0  0  0  0  0  0  0  0  0  0  0  0
    1.1690    1.4736   -2.0752 C   0  0  0  0  0  0  0  0  0  0  0  0
    0.9176    0.4834   -3.0525 C   0  0  0  0  0  0  0  0  0  0  0  0
    1.3227    0.4489   -4.4689 C   0  0  0  0  0  0  0  0  0  0  0  0
    0.9623   -0.6362   -5.2821 C   0  0  0  0  0  0  0  0  0  0  0  0
    1.3342   -0.6812   -6.6209 C   0  0  0  0  0  0  0  0  0  0  0  0
    2.0758    0.3653   -7.1659 C   0  0  0  0  0  0  0  0  0  0  0  0
    2.4756    0.3089   -8.4830 O   0  0  0  0  0  0  0  0  0  0  0  0
    1.6669    0.8119   -9.4523 C   0  0  0  0  0  0  0  0  0  0  0  0
    0.4302    1.4115   -9.1966 C   0  0  0  0  0  0  0  0  0  0  0  0
   -0.3261    1.8995  -10.2628 C   0  0  0  0  0  0  0  0  0  0  0  0
    0.1325    1.7982  -11.5739 C   0  0  0  0  0  0  0  0  0  0  0  0
    1.3697    1.1974  -11.8175 C   0  0  0  0  0  0  0  0  0  0  0  0
    2.1358    0.7057  -10.7669 C   0  0  0  0  0  0  0  0  0  0  0  0
    2.4485    1.4500   -6.3780 C   0  0  0  0  0  0  0  0  0  0  0  0
    2.0725    1.4864   -5.0376 C   0  0  0  0  0  0  0  0  0  0  0  0
    0.2091   -0.5137   -2.5278 N   0  0  0  0  0  0  0  0  0  0  0  0
    1.1835   -2.0849    0.8528 C   0  0  0  0  0  0  0  0  0  0  0  0
    1.8413   -2.3993    2.0362 C   0  0  0  0  0  0  0  0  0  0  0  0
    0.6631   -1.9163    6.5228 C   0  0  0  0  0  3  0  0  0  0  0  0
   -0.4305   -2.8735    6.2959 C   0  0  0  0  0  0  0  0  0  0  0  0
   -2.1930   -2.1895    5.9347 S   0  0  0  0  0  0  0  0  0  0  0  0
   -2.2244   -0.6216    6.8545 C   0  0  0  0  0  0  0  0  0  0  0  0
   -2.5308    0.6008    5.9833 C   0  0  2  0  0  0  0  0  0  0  0  0
   -2.7005    1.4586    6.6556 H   0  0  0  0  0  0  0  0  0  0  0  0
   -3.7646    0.4332    5.2570 N   0  0  0  0  0  0  0  0  0  0  0  0
   -4.6952    1.4264    5.1797 C   0  0  0  0  0  0  0  0  0  0  0  0
   -5.7053    1.2485    4.0625 C   0  0  0  0  0  0  0  0  0  0  0  0
   -4.7219    2.3798    5.9336 O   0  0  0  0  0  0  0  0  0  0  0  0
   -1.4325    1.0856    5.0045 C   0  0  0  0  0  0  0  0  0  0  0  0
   -0.1581    0.9367    5.4157 N   0  0  0  0  0  0  0  0  0  0  0  0
    0.9481    1.3990    4.6032 C   0  0  0  0  0  0  0  0  0  0  0  0
   -1.7498    1.6527    3.9686 O   0  0  0  0  0  0  0  0  0  0  0  0
    2.9262   -2.5716    4.2883 H   0  0  0  0  0  0  0  0  0  0  0  0
   -0.5220   -1.3470    4.2375 H   0  0  0  0  0  0  0  0  0  0  0  0
   -1.6405   -0.7388    2.1700 H   0  0  0  0  0  0  0  0  0  0  0  0
   -1.7398   -0.6013   -0.1720 H   0  0  0  0  0  0  0  0  0  0  0  0
   -0.9929   -1.9488   -1.0530 H   0  0  0  0  0  0  0  0  0  0  0  0
   -0.3686    1.3769    0.9960 H   0  0  0  0  0  0  0  0  0  0  0  0
    0.6322    2.6868    0.3596 H   0  0  0  0  0  0  0  0  0  0  0  0
    1.6048    0.2680    1.4302 H   0  0  0  0  0  0  0  0  0  0  0  0
    1.7234    2.4034   -2.1721 H   0  0  0  0  0  0  0  0  0  0  0  0
    0.3830   -1.4476   -4.8391 H   0  0  0  0  0  0  0  0  0  0  0  0
    1.0558   -1.5243   -7.2562 H   0  0  0  0  0  0  0  0  0  0  0  0
    0.0617    1.4957   -8.1735 H   0  0  0  0  0  0  0  0  0  0  0  0
   -1.2918    2.3667  -10.0559 H   0  0  0  0  0  0  0  0  0  0  0  0
   -0.4675    2.1833  -12.4006 H   0  0  0  0  0  0  0  0  0  0  0  0
    1.7441    1.1098  -12.8402 H   0  0  0  0  0  0  0  0  0  0  0  0
    3.1046    0.2330  -10.9369 H   0  0  0  0  0  0  0  0  0  0  0  0
    3.0328    2.2573   -6.8232 H   0  0  0  0  0  0  0  0  0  0  0  0
    2.3716    2.3391   -4.4251 H   0  0  0  0  0  0  0  0  0  0  0  0
    1.6778   -2.2819   -0.1033 H   0  0  0  0  0  0  0  0  0  0  0  0
    2.8385   -2.8461    1.9968 H   0  0  0  0  0  0  0  0  0  0  0  0
    0.7709   -1.4958    7.5280 H   0  0  0  0  0  0  0  0  0  0  0  0
   -0.6071   -3.5303    7.1600 H   0  0  0  0  0  0  0  0  0  0  0  0
   -0.2527   -3.5074    5.4143 H   0  0  0  0  0  0  0  0  0  0  0  0
   -1.2549   -0.5066    7.3606 H   0  0  0  0  0  0  0  0  0  0  0  0
   -2.9964   -0.6858    7.6342 H   0  0  0  0  0  0  0  0  0  0  0  0
   -3.7302   -0.2416    4.5016 H   0  0  0  0  0  0  0  0  0  0  0  0
   -6.5883    1.8626    4.2745 H   0  0  0  0  0  0  0  0  0  0  0  0
   -6.0004    0.1968    3.9342 H   0  0  0  0  0  0  0  0  0  0  0  0
   -5.2459    1.5950    3.1239 H   0  0  0  0  0  0  0  0  0  0  0  0
    0.0613    0.1635    6.0502 H   0  0  0  0  0  0  0  0  0  0  0  0
    1.0358    2.4961    4.6493 H   0  0  0  0  0  0  0  0  0  0  0  0
    0.8241    1.1225    3.5467 H   0  0  0  0  0  0  0  0  0  0  0  0
    1.8685    0.9408    4.9877 H   0  0  0  0  0  0  0  0  0  0  0  0
  2  1  2  0  0  0  0
  2 31  1  0  0  0  0
  3  2  1  0  0  0  0
  4  3  1  0  0  0  0
  5  4  1  0  0  0  0
  5 46  1  0  0  0  0
  6 47  1  0  0  0  0
  6  5  2  0  0  0  0
  7  6  1  0  0  0  0
  8 48  1  0  0  0  0
  8  7  1  0  0  0  0
  9 10  1  0  0  0  0
  9  8  1  0  0  0  0
 10 11  1  0  0  0  0
 11 50  1  0  0  0  0
 11 12  1  0  0  0  0
 12 52  1  0  0  0  0
 13 10  2  0  0  0  0
 14 28  2  0  0  0  0
 14 13  1  0  0  0  0
 15 14  1  0  0  0  0
 16 54  1  0  0  0  0
 16 15  2  0  0  0  0
 17 16  1  0  0  0  0
 18 17  2  0  0  0  0
 18 26  1  0  0  0  0
 19 18  1  0  0  0  0
 20 21  1  0  0  0  0
 20 19  1  0  0  0  0
 21 56  1  0  0  0  0
 22 57  1  0  0  0  0
 22 21  2  0  0  0  0
 23 22  1  0  0  0  0
 24 23  2  0  0  0  0
 24 25  1  0  0  0  0
 25 20  2  0  0  0  0
 26 27  2  0  0  0  0
 27 15  1  0  0  0  0
 27 62  1  0  0  0  0
 28  9  1  0  0  0  0
 29  7  2  0  0  0  0
 29 30  1  0  0  0  0
 30  4  2  0  0  0  0
 31 65  1  0  0  0  0
 32 31  1  0  0  0  0
 32 66  1  0  0  0  0
 33 32  1  0  0  0  0
 33 34  1  0  0  0  0
 34 68  1  0  0  0  0
 34 69  1  0  0  0  0
 35 36  1  1  0  0  0
 35 34  1  0  0  0  0
 37 35  1  0  0  0  0
 38 37  1  0  0  0  0
 38 40  2  0  0  0  0
 39 71  1  0  0  0  0
 39 38  1  0  0  0  0
 41 42  1  0  0  0  0
 41 35  1  0  0  0  0
 42 74  1  0  0  0  0
 43 75  1  0  0  0  0
 43 77  1  0  0  0  0
 43 42  1  0  0  0  0
 44 41  2  0  0  0  0
 45  3  1  0  0  0  0
 49  8  1  0  0  0  0
 51 11  1  0  0  0  0
 53 13  1  0  0  0  0
 55 17  1  0  0  0  0
 58 23  1  0  0  0  0
 59 24  1  0  0  0  0
 60 25  1  0  0  0  0
 61 26  1  0  0  0  0
 63 29  1  0  0  0  0
 64 30  1  0  0  0  0
 67 32  1  0  0  0  0
 70 37  1  0  0  0  0
 72 39  1  0  0  0  0
 73 39  1  0  0  0  0
 76 43  1  0  0  0  0
M  END
