-1 1
 OpenBabel05232414493D

 80 82  0  0  1  0  0  0  0  0999 V2000
    1.0383   -4.1075   -8.5922 C   0  0  0  0  0  0  0  0  0  0  0  0
    0.7432   -3.7702  -10.0332 C   0  0  0  0  0  3  0  0  0  0  0  0
   -0.7761   -1.9075   -9.4832 S   0  0  0  0  0  1  0  0  0  0  0  0
   -0.3744   -0.9845  -10.9798 C   0  0  0  0  0  0  0  0  0  0  0  0
    0.7695    0.0390  -10.8439 C   0  0  2  0  0  0  0  0  0  0  0  0
    1.6688   -0.4531  -10.4543 H   0  0  0  0  0  0  0  0  0  0  0  0
    0.4409    1.1126   -9.9371 N   0  0  0  0  0  0  0  0  0  0  0  0
    1.0805    1.3696   -8.7885 C   0  0  0  0  0  0  0  0  0  0  0  0
    0.5746    2.5607   -8.0015 C   0  0  0  0  0  0  0  0  0  0  0  0
    2.0266    0.7020   -8.3717 O   0  0  0  0  0  0  0  0  0  0  0  0
    1.0256    0.6550  -12.2216 C   0  0  0  0  0  0  0  0  0  0  0  0
    1.9647    0.0345  -12.9544 N   0  0  0  0  0  0  0  0  0  0  0  0
    2.2680    0.4094  -14.3111 C   0  0  0  0  0  0  0  0  0  0  0  0
    0.3528    1.6104  -12.6029 O   0  0  0  0  0  0  0  0  0  0  0  0
    1.6709   -3.3899  -10.9982 C   0  0  0  0  0  3  0  0  0  0  0  0
    2.9535   -2.7523  -10.8302 C   0  0  0  0  0  0  0  0  0  0  0  0
    3.6544   -3.0325   -9.6594 N   0  0  0  0  0  0  0  0  0  0  0  0
    4.8155   -2.4521   -9.1690 C   0  0  0  0  0  0  0  0  0  0  0  0
    5.3638   -1.2637   -9.6760 C   0  0  0  0  0  0  0  0  0  0  0  0
    6.4995   -0.7082   -9.0882 C   0  0  0  0  0  0  0  0  0  0  0  0
    7.0330    0.6113   -9.6106 C   0  0  0  0  0  0  0  0  0  0  0  0
    5.9835    1.5291   -9.9965 N   0  0  0  0  0  0  0  0  0  0  0  0
    5.0212    2.0643   -9.1980 C   0  0  0  0  0  0  0  0  0  0  0  0
    4.9995    1.9026   -7.7006 C   0  0  0  0  0  0  0  0  0  0  0  0
    3.7888    2.2717   -7.1318 O   0  0  0  0  0  0  0  0  0  0  0  0
    4.1598    2.7402  -10.0357 C   0  0  0  0  0  0  0  0  0  0  0  0
    4.6886    2.5452  -11.3357 C   0  0  0  0  0  0  0  0  0  0  0  0
    4.1736    3.0497  -12.6196 C   0  0  0  0  0  0  0  0  0  0  0  0
    2.8423    3.4601  -12.7453 C   0  0  0  0  0  0  0  0  0  0  0  0
    2.3452    3.9139  -13.9631 C   0  0  0  0  0  0  0  0  0  0  0  0
    3.1886    3.9680  -15.0671 C   0  0  0  0  0  0  0  0  0  0  0  0
    2.6969    4.3803  -16.2897 O   0  0  0  0  0  0  0  0  0  0  0  0
    2.7064    5.6983  -16.6049 C   0  0  0  0  0  0  0  0  0  0  0  0
    3.2278    6.6933  -15.7716 C   0  0  0  0  0  0  0  0  0  0  0  0
    3.1956    8.0236  -16.1907 C   0  0  0  0  0  0  0  0  0  0  0  0
    2.6536    8.3756  -17.4247 C   0  0  0  0  0  0  0  0  0  0  0  0
    2.1354    7.3743  -18.2493 C   0  0  0  0  0  0  0  0  0  0  0  0
    2.1591    6.0440  -17.8470 C   0  0  0  0  0  0  0  0  0  0  0  0
    4.5174    3.5592  -14.9685 C   0  0  0  0  0  0  0  0  0  0  0  0
    5.0034    3.1000  -13.7492 C   0  0  0  0  0  0  0  0  0  0  0  0
    5.7929    1.8080  -11.2909 N   0  0  0  0  0  0  0  0  0  0  0  0
    7.1252   -1.3372   -8.0092 C   0  0  0  0  0  0  0  0  0  0  0  0
    6.5941   -2.5267   -7.5135 C   0  0  0  0  0  0  0  0  0  0  0  0
    5.4518   -3.0768   -8.0798 C   0  0  0  0  0  0  0  0  0  0  0  0
    3.4650   -2.0131  -11.6834 O   0  0  0  0  0  0  0  0  0  0  0  0
    1.5526   -3.2870   -8.0736 H   0  0  0  0  0  0  0  0  0  0  0  0
    1.6532   -5.0275   -8.5248 H   0  0  0  0  0  0  0  0  0  0  0  0
    0.1031   -4.2944   -8.0476 H   0  0  0  0  0  0  0  0  0  0  0  0
   -0.1271   -4.2939  -10.4332 H   0  0  0  0  0  0  0  0  0  0  0  0
   -1.2647   -0.4558  -11.3588 H   0  0  0  0  0  0  0  0  0  0  0  0
   -0.0670   -1.6919  -11.7682 H   0  0  0  0  0  0  0  0  0  0  0  0
   -0.2833    1.7416  -10.2616 H   0  0  0  0  0  0  0  0  0  0  0  0
   -0.1448    3.1779   -8.5567 H   0  0  0  0  0  0  0  0  0  0  0  0
    1.4384    3.1693   -7.6985 H   0  0  0  0  0  0  0  0  0  0  0  0
    0.0929    2.1865   -7.0865 H   0  0  0  0  0  0  0  0  0  0  0  0
    2.4967   -0.7380  -12.5278 H   0  0  0  0  0  0  0  0  0  0  0  0
    2.2431   -0.4722  -14.9710 H   0  0  0  0  0  0  0  0  0  0  0  0
    3.2644    0.8743  -14.3891 H   0  0  0  0  0  0  0  0  0  0  0  0
    1.5206    1.1373  -14.6514 H   0  0  0  0  0  0  0  0  0  0  0  0
    1.3318   -3.3555  -12.0363 H   0  0  0  0  0  0  0  0  0  0  0  0
    3.2742   -3.7782   -9.0959 H   0  0  0  0  0  0  0  0  0  0  0  0
    4.8785   -0.7763  -10.5195 H   0  0  0  0  0  0  0  0  0  0  0  0
    7.6360    0.4620  -10.5173 H   0  0  0  0  0  0  0  0  0  0  0  0
    7.6788    1.0829   -8.8525 H   0  0  0  0  0  0  0  0  0  0  0  0
    5.7890    2.5434   -7.2659 H   0  0  0  0  0  0  0  0  0  0  0  0
    5.2762    0.8591   -7.4534 H   0  0  0  0  0  0  0  0  0  0  0  0
    3.1176    1.6240   -7.4505 H   0  0  0  0  0  0  0  0  0  0  0  0
    3.2779    3.2979   -9.7362 H   0  0  0  0  0  0  0  0  0  0  0  0
    2.1581    3.3689  -11.9012 H   0  0  0  0  0  0  0  0  0  0  0  0
    1.2942    4.1863  -14.0655 H   0  0  0  0  0  0  0  0  0  0  0  0
    3.6527    6.4276  -14.8029 H   0  0  0  0  0  0  0  0  0  0  0  0
    3.6040    8.7949  -15.5331 H   0  0  0  0  0  0  0  0  0  0  0  0
    2.6327    9.4200  -17.7422 H   0  0  0  0  0  0  0  0  0  0  0  0
    1.7048    7.6325  -19.2199 H   0  0  0  0  0  0  0  0  0  0  0  0
    1.7573    5.2479  -18.4761 H   0  0  0  0  0  0  0  0  0  0  0  0
    5.1549    3.6007  -15.8539 H   0  0  0  0  0  0  0  0  0  0  0  0
    6.0369    2.7630  -13.6541 H   0  0  0  0  0  0  0  0  0  0  0  0
    8.0080   -0.8892   -7.5453 H   0  0  0  0  0  0  0  0  0  0  0  0
    7.0666   -3.0253   -6.6636 H   0  0  0  0  0  0  0  0  0  0  0  0
    5.0316   -4.0008   -7.6728 H   0  0  0  0  0  0  0  0  0  0  0  0
  1 47  1  0  0  0  0
  1 46  1  0  0  0  0
  1 48  1  0  0  0  0
  2  1  1  0  0  0  0
  4  5  1  0  0  0  0
  4  3  1  0  0  0  0
  5  6  1  1  0  0  0
  5  7  1  0  0  0  0
  7  8  1  0  0  0  0
  8 10  2  0  0  0  0
  8  9  1  0  0  0  0
  9 54  1  0  0  0  0
  9 55  1  0  0  0  0
 11  5  1  0  0  0  0
 12 56  1  0  0  0  0
 12 11  1  0  0  0  0
 13 12  1  0  0  0  0
 14 11  2  0  0  0  0
 15 16  1  0  0  0  0
 15  2  1  0  0  0  0
 16 17  1  0  0  0  0
 17 18  1  0  0  0  0
 17 61  1  0  0  0  0
 18 44  1  0  0  0  0
 19 18  2  0  0  0  0
 19 20  1  0  0  0  0
 20 42  2  0  0  0  0
 21 20  1  0  0  0  0
 21 64  1  0  0  0  0
 22 21  1  0  0  0  0
 22 23  1  0  0  0  0
 23 24  1  0  0  0  0
 24 66  1  0  0  0  0
 24 65  1  0  0  0  0
 24 25  1  0  0  0  0
 26 68  1  0  0  0  0
 26 23  2  0  0  0  0
 27 41  2  0  0  0  0
 27 26  1  0  0  0  0
 28 27  1  0  0  0  0
 29 28  1  0  0  0  0
 29 69  1  0  0  0  0
 30 29  2  0  0  0  0
 31 39  2  0  0  0  0
 31 30  1  0  0  0  0
 32 31  1  0  0  0  0
 33 32  1  0  0  0  0
 33 34  1  0  0  0  0
 34 71  1  0  0  0  0
 35 34  2  0  0  0  0
 35 72  1  0  0  0  0
 36 35  1  0  0  0  0
 37 38  1  0  0  0  0
 37 36  2  0  0  0  0
 38 33  2  0  0  0  0
 39 40  1  0  0  0  0
 40 77  1  0  0  0  0
 40 28  2  0  0  0  0
 41 22  1  0  0  0  0
 42 78  1  0  0  0  0
 42 43  1  0  0  0  0
 43 79  1  0  0  0  0
 44 80  1  0  0  0  0
 44 43  2  0  0  0  0
 45 16  2  0  0  0  0
 49  2  1  0  0  0  0
 50  4  1  0  0  0  0
 51  4  1  0  0  0  0
 52  7  1  0  0  0  0
 53  9  1  0  0  0  0
 57 13  1  0  0  0  0
 58 13  1  0  0  0  0
 59 13  1  0  0  0  0
 60 15  1  0  0  0  0
 62 19  1  0  0  0  0
 63 21  1  0  0  0  0
 67 25  1  0  0  0  0
 70 30  1  0  0  0  0
 73 36  1  0  0  0  0
 74 37  1  0  0  0  0
 75 38  1  0  0  0  0
 76 39  1  0  0  0  0
M  END
