-1 1
 OpenBabel05192410563D

 80 83  0  0  1  0  0  0  0  0999 V2000
   -2.1045   -5.7305    2.4675 C   0  0  0  0  0  0  0  0  0  0  0  0
   -2.4486   -4.8152    1.2911 C   0  0  1  0  0  0  0  0  0  0  0  0
   -3.3702   -3.3196    2.1320 S   0  0  0  0  0  0  0  0  0  0  0  0
   -3.3138   -2.1320    0.7678 C   0  0  0  0  0  0  0  0  0  0  0  0
   -2.1511   -1.1208    0.8055 C   0  0  2  0  0  0  0  0  0  0  0  0
   -1.2317   -1.6044    1.1575 H   0  0  0  0  0  0  0  0  0  0  0  0
   -2.4451   -0.0008    1.6736 N   0  0  0  0  0  0  0  0  0  0  0  0
   -1.7875    0.3103    2.8031 C   0  0  0  0  0  0  0  0  0  0  0  0
   -2.1781    1.6265    3.4464 C   0  0  0  0  0  0  0  0  0  0  0  0
   -0.9327   -0.4078    3.3137 O   0  0  0  0  0  0  0  0  0  0  0  0
   -1.9763   -0.5438   -0.6063 C   0  0  0  0  0  0  0  0  0  0  0  0
   -1.0835   -1.1717   -1.3746 N   0  0  0  0  0  0  0  0  0  0  0  0
   -0.8609   -0.8072   -2.7506 C   0  0  0  0  0  0  0  0  0  0  0  0
   -2.6819    0.4060   -0.9535 O   0  0  0  0  0  0  0  0  0  0  0  0
   -1.4166   -4.4199    0.3114 C   0  0  0  0  0  3  0  0  0  0  0  0
   -0.1495   -3.8663    0.5159 C   0  0  0  0  0  0  0  0  0  0  0  0
    0.4921   -4.1246    1.7541 N   0  0  0  0  0  0  0  0  0  0  0  0
    1.6469   -3.5819    2.2696 C   0  0  0  0  0  0  0  0  0  0  0  0
    2.2649   -2.4269    1.7542 C   0  0  0  0  0  0  0  0  0  0  0  0
    3.4035   -1.9031    2.3605 C   0  0  0  0  0  0  0  0  0  0  0  0
    3.9937   -0.6168    1.8171 C   0  0  0  0  0  0  0  0  0  0  0  0
    2.9758    0.3494    1.4550 N   0  0  0  0  0  0  0  0  0  0  0  0
    2.0614    0.9248    2.2800 C   0  0  0  0  0  0  0  0  0  0  0  0
    2.1027    0.7867    3.7792 C   0  0  0  0  0  0  0  0  0  0  0  0
    0.9265    1.1926    4.3991 O   0  0  0  0  0  0  0  0  0  0  0  0
    1.1876    1.6133    1.4640 C   0  0  0  0  0  0  0  0  0  0  0  0
    1.6595    1.3796    0.1484 C   0  0  0  0  0  0  0  0  0  0  0  0
    1.1078    1.8701   -1.1255 C   0  0  0  0  0  0  0  0  0  0  0  0
   -0.2226    2.2923   -1.2153 C   0  0  0  0  0  0  0  0  0  0  0  0
   -0.7549    2.7319   -2.4235 C   0  0  0  0  0  0  0  0  0  0  0  0
    0.0526    2.7595   -3.5547 C   0  0  0  0  0  0  0  0  0  0  0  0
   -0.4754    3.1604   -4.7663 O   0  0  0  0  0  0  0  0  0  0  0  0
   -0.4323    4.4692   -5.1141 C   0  0  0  0  0  0  0  0  0  0  0  0
    0.1397    5.4670   -4.3179 C   0  0  0  0  0  0  0  0  0  0  0  0
    0.1370    6.7875   -4.7680 C   0  0  0  0  0  0  0  0  0  0  0  0
   -0.4254    7.1273   -5.9963 C   0  0  0  0  0  0  0  0  0  0  0  0
   -0.9943    6.1235   -6.7836 C   0  0  0  0  0  0  0  0  0  0  0  0
   -1.0003    4.8028   -6.3502 C   0  0  0  0  0  0  0  0  0  0  0  0
    1.3793    2.3368   -3.4928 C   0  0  0  0  0  0  0  0  0  0  0  0
    1.9001    1.8919   -2.2826 C   0  0  0  0  0  0  0  0  0  0  0  0
    2.7432    0.6121    0.1655 N   0  0  0  0  0  0  0  0  0  0  0  0
    3.9751   -2.5219    3.4763 C   0  0  0  0  0  0  0  0  0  0  0  0
    3.3770   -3.6741    3.9855 C   0  0  0  0  0  0  0  0  0  0  0  0
    2.2314   -4.1951    3.3991 C   0  0  0  0  0  0  0  0  0  0  0  0
    0.4762   -3.1666   -0.3251 O   0  0  0  0  0  0  0  0  0  0  0  0
   -1.4982   -5.2194    3.2312 H   0  0  0  0  0  0  0  0  0  0  0  0
   -1.5603   -6.6178    2.1058 H   0  0  0  0  0  0  0  0  0  0  0  0
   -3.0194   -6.0725    2.9775 H   0  0  0  0  0  0  0  0  0  0  0  0
   -3.2641   -5.2982    0.7340 H   0  0  0  0  0  0  0  0  0  0  0  0
   -4.2644   -1.5780    0.7491 H   0  0  0  0  0  0  0  0  0  0  0  0
   -3.2491   -2.7078   -0.1646 H   0  0  0  0  0  0  0  0  0  0  0  0
   -3.0374    0.6957    1.2313 H   0  0  0  0  0  0  0  0  0  0  0  0
   -2.8183    2.2522    2.8096 H   0  0  0  0  0  0  0  0  0  0  0  0
   -1.2574    2.1677    3.7065 H   0  0  0  0  0  0  0  0  0  0  0  0
   -2.7079    1.4103    4.3856 H   0  0  0  0  0  0  0  0  0  0  0  0
   -0.4998   -1.9455   -0.9773 H   0  0  0  0  0  0  0  0  0  0  0  0
   -0.8445   -1.7090   -3.3815 H   0  0  0  0  0  0  0  0  0  0  0  0
    0.0995   -0.2809   -2.8765 H   0  0  0  0  0  0  0  0  0  0  0  0
   -1.6661   -0.1403   -3.0850 H   0  0  0  0  0  0  0  0  0  0  0  0
   -1.7748   -4.2610   -0.7090 H   0  0  0  0  0  0  0  0  0  0  0  0
    0.0966   -4.8788    2.2934 H   0  0  0  0  0  0  0  0  0  0  0  0
    1.8273   -1.9535    0.8770 H   0  0  0  0  0  0  0  0  0  0  0  0
    4.5627   -0.7971    0.8946 H   0  0  0  0  0  0  0  0  0  0  0  0
    4.6798   -0.1708    2.5551 H   0  0  0  0  0  0  0  0  0  0  0  0
    2.9241    1.4163    4.1678 H   0  0  0  0  0  0  0  0  0  0  0  0
    2.3643   -0.2585    4.0310 H   0  0  0  0  0  0  0  0  0  0  0  0
    0.2384    0.5334    4.1567 H   0  0  0  0  0  0  0  0  0  0  0  0
    0.3393    2.2105    1.7843 H   0  0  0  0  0  0  0  0  0  0  0  0
   -0.8784    2.2204   -0.3470 H   0  0  0  0  0  0  0  0  0  0  0  0
   -1.8053    3.0153   -2.4975 H   0  0  0  0  0  0  0  0  0  0  0  0
    0.5812    5.2106   -3.3542 H   0  0  0  0  0  0  0  0  0  0  0  0
    0.5853    7.5609   -4.1396 H   0  0  0  0  0  0  0  0  0  0  0  0
   -0.4224    8.1642   -6.3384 H   0  0  0  0  0  0  0  0  0  0  0  0
   -1.4411    6.3721   -7.7494 H   0  0  0  0  0  0  0  0  0  0  0  0
   -1.4412    4.0049   -6.9502 H   0  0  0  0  0  0  0  0  0  0  0  0
    1.9880    2.3558   -4.3990 H   0  0  0  0  0  0  0  0  0  0  0  0
    2.9318    1.5427   -2.2157 H   0  0  0  0  0  0  0  0  0  0  0  0
    4.8618   -2.0964    3.9541 H   0  0  0  0  0  0  0  0  0  0  0  0
    3.8020   -4.1685    4.8631 H   0  0  0  0  0  0  0  0  0  0  0  0
    1.7654   -5.0915    3.8186 H   0  0  0  0  0  0  0  0  0  0  0  0
  1 48  1  0  0  0  0
  1 46  1  0  0  0  0
  2 49  1  6  0  0  0
  2  3  1  0  0  0  0
  2  1  1  0  0  0  0
  4  5  1  0  0  0  0
  4  3  1  0  0  0  0
  5  6  1  1  0  0  0
  5  7  1  0  0  0  0
  7  8  1  0  0  0  0
  8 10  2  0  0  0  0
  8  9  1  0  0  0  0
  9 54  1  0  0  0  0
  9 55  1  0  0  0  0
 11  5  1  0  0  0  0
 12 56  1  0  0  0  0
 12 11  1  0  0  0  0
 13 12  1  0  0  0  0
 14 11  2  0  0  0  0
 15 16  1  0  0  0  0
 15  2  1  0  0  0  0
 16 17  1  0  0  0  0
 17 18  1  0  0  0  0
 17 61  1  0  0  0  0
 18 44  1  0  0  0  0
 19 18  2  0  0  0  0
 19 20  1  0  0  0  0
 20 42  2  0  0  0  0
 21 20  1  0  0  0  0
 21 64  1  0  0  0  0
 22 21  1  0  0  0  0
 22 23  1  0  0  0  0
 23 24  1  0  0  0  0
 24 66  1  0  0  0  0
 24 65  1  0  0  0  0
 24 25  1  0  0  0  0
 26 68  1  0  0  0  0
 26 23  2  0  0  0  0
 27 41  2  0  0  0  0
 27 26  1  0  0  0  0
 28 27  1  0  0  0  0
 29 28  1  0  0  0  0
 29 69  1  0  0  0  0
 30 29  2  0  0  0  0
 31 39  2  0  0  0  0
 31 30  1  0  0  0  0
 32 31  1  0  0  0  0
 33 32  1  0  0  0  0
 33 34  1  0  0  0  0
 34 71  1  0  0  0  0
 35 34  2  0  0  0  0
 35 72  1  0  0  0  0
 36 35  1  0  0  0  0
 37 38  1  0  0  0  0
 37 36  2  0  0  0  0
 38 33  2  0  0  0  0
 39 40  1  0  0  0  0
 40 77  1  0  0  0  0
 40 28  2  0  0  0  0
 41 22  1  0  0  0  0
 42 78  1  0  0  0  0
 42 43  1  0  0  0  0
 43 79  1  0  0  0  0
 44 80  1  0  0  0  0
 44 43  2  0  0  0  0
 45 16  2  0  0  0  0
 47  1  1  0  0  0  0
 50  4  1  0  0  0  0
 51  4  1  0  0  0  0
 52  7  1  0  0  0  0
 53  9  1  0  0  0  0
 57 13  1  0  0  0  0
 58 13  1  0  0  0  0
 59 13  1  0  0  0  0
 60 15  1  0  0  0  0
 62 19  1  0  0  0  0
 63 21  1  0  0  0  0
 67 25  1  0  0  0  0
 70 30  1  0  0  0  0
 73 36  1  0  0  0  0
 74 37  1  0  0  0  0
 75 38  1  0  0  0  0
 76 39  1  0  0  0  0
M  END
