-1 1
 OpenBabel05232413493D

 80 82  0  0  1  0  0  0  0  0999 V2000
   -2.0711   -3.9989    3.1838 C   0  0  0  0  0  0  0  0  0  0  0  0
   -2.2916   -4.4195    1.7616 C   0  0  0  0  0  0  0  0  0  0  0  0
   -4.7755   -2.1973    1.6298 S   0  0  0  0  0  1  0  0  0  0  0  0
   -3.9396   -1.7930    0.0609 C   0  0  0  0  0  0  0  0  0  0  0  0
   -2.5653   -1.1007    0.2100 C   0  0  2  0  0  0  0  0  0  0  0  0
   -1.8325   -1.8074    0.6133 H   0  0  0  0  0  0  0  0  0  0  0  0
   -2.6327   -0.0034    1.1516 N   0  0  0  0  0  0  0  0  0  0  0  0
   -1.9671    0.0028    2.3172 C   0  0  0  0  0  0  0  0  0  0  0  0
   -2.4411    1.0141    3.3356 C   0  0  0  0  0  0  0  0  0  0  0  0
   -1.0190   -0.7502    2.5652 O   0  0  0  0  0  0  0  0  0  0  0  0
   -2.1106   -0.5713   -1.1502 C   0  0  0  0  0  0  0  0  0  0  0  0
   -1.0704   -1.2350   -1.7007 N   0  0  0  0  0  0  0  0  0  0  0  0
   -0.5350   -0.9072   -2.9961 C   0  0  0  0  0  0  0  0  0  0  0  0
   -2.6921    0.3618   -1.6905 O   0  0  0  0  0  0  0  0  0  0  0  0
   -1.4142   -4.3826    0.7425 C   0  0  0  0  0  0  0  0  0  0  0  0
   -0.0320   -3.8527    0.7963 C   0  0  0  0  0  0  0  0  0  0  0  0
    0.7015   -4.2209    1.8987 N   0  0  0  0  0  0  0  0  0  0  0  0
    1.9430   -3.7301    2.3172 C   0  0  0  0  0  0  0  0  0  0  0  0
    2.4567   -2.5086    1.8654 C   0  0  0  0  0  0  0  0  0  0  0  0
    3.6543   -2.0204    2.3864 C   0  0  0  0  0  0  0  0  0  0  0  0
    4.1595   -0.6556    1.9582 C   0  0  0  0  0  0  0  0  0  0  0  0
    3.0983    0.2445    1.5713 N   0  0  0  0  0  0  0  0  0  0  0  0
    2.0694    0.6959    2.3415 C   0  0  0  0  0  0  0  0  0  0  0  0
    1.9463    0.4432    3.8206 C   0  0  0  0  0  0  0  0  0  0  0  0
    0.6378    0.5255    4.2723 O   0  0  0  0  0  0  0  0  0  0  0  0
    1.2168    1.3622    1.4892 C   0  0  0  0  0  0  0  0  0  0  0  0
    1.8131    1.2469    0.2104 C   0  0  0  0  0  0  0  0  0  0  0  0
    1.3122    1.7607   -1.0755 C   0  0  0  0  0  0  0  0  0  0  0  0
   -0.0469    2.0480   -1.2442 C   0  0  0  0  0  0  0  0  0  0  0  0
   -0.5361    2.5013   -2.4652 C   0  0  0  0  0  0  0  0  0  0  0  0
    0.3444    2.6795   -3.5268 C   0  0  0  0  0  0  0  0  0  0  0  0
   -0.1288    3.0856   -4.7580 O   0  0  0  0  0  0  0  0  0  0  0  0
   -0.3257    4.4045   -5.0001 C   0  0  0  0  0  0  0  0  0  0  0  0
    0.0171    5.4193   -4.1008 C   0  0  0  0  0  0  0  0  0  0  0  0
   -0.2139    6.7501   -4.4497 C   0  0  0  0  0  0  0  0  0  0  0  0
   -0.7786    7.0831   -5.6787 C   0  0  0  0  0  0  0  0  0  0  0  0
   -1.1170    6.0621   -6.5698 C   0  0  0  0  0  0  0  0  0  0  0  0
   -0.8946    4.7309   -6.2374 C   0  0  0  0  0  0  0  0  0  0  0  0
    1.7012    2.3944   -3.3850 C   0  0  0  0  0  0  0  0  0  0  0  0
    2.1794    1.9318   -2.1635 C   0  0  0  0  0  0  0  0  0  0  0  0
    2.9517    0.5659    0.2794 N   0  0  0  0  0  0  0  0  0  0  0  0
    4.3671   -2.7636    3.3307 C   0  0  0  0  0  0  0  0  0  0  0  0
    3.8684   -3.9905    3.7619 C   0  0  0  0  0  0  0  0  0  0  0  0
    2.6621   -4.4715    3.2657 C   0  0  0  0  0  0  0  0  0  0  0  0
    0.4369   -3.1580   -0.0947 O   0  0  0  0  0  0  0  0  0  0  0  0
   -1.3172   -3.2042    3.2705 H   0  0  0  0  0  0  0  0  0  0  0  0
   -1.7756   -4.8578    3.8155 H   0  0  0  0  0  0  0  0  0  0  0  0
   -3.0185   -3.5950    3.5640 H   0  0  0  0  0  0  0  0  0  0  0  0
   -3.3111   -4.7379    1.5250 H   0  0  0  0  0  0  0  0  0  0  0  0
   -4.5712   -1.1287   -0.5527 H   0  0  0  0  0  0  0  0  0  0  0  0
   -3.7596   -2.6980   -0.5467 H   0  0  0  0  0  0  0  0  0  0  0  0
   -3.4924    0.5318    1.1146 H   0  0  0  0  0  0  0  0  0  0  0  0
   -3.0480    1.8132    2.8891 H   0  0  0  0  0  0  0  0  0  0  0  0
   -1.5742    1.4399    3.8577 H   0  0  0  0  0  0  0  0  0  0  0  0
   -3.0616    0.4747    4.0667 H   0  0  0  0  0  0  0  0  0  0  0  0
   -0.5900   -1.9451   -1.1451 H   0  0  0  0  0  0  0  0  0  0  0  0
   -0.4154   -1.8152   -3.6084 H   0  0  0  0  0  0  0  0  0  0  0  0
    0.4454   -0.4071   -2.9198 H   0  0  0  0  0  0  0  0  0  0  0  0
   -1.2320   -0.2236   -3.4977 H   0  0  0  0  0  0  0  0  0  0  0  0
   -1.7547   -4.6147   -0.2702 H   0  0  0  0  0  0  0  0  0  0  0  0
    0.2621   -4.8980    2.5075 H   0  0  0  0  0  0  0  0  0  0  0  0
    1.8929   -1.9313    1.1345 H   0  0  0  0  0  0  0  0  0  0  0  0
    4.8086   -0.7382    1.0751 H   0  0  0  0  0  0  0  0  0  0  0  0
    4.7560   -0.2081    2.7694 H   0  0  0  0  0  0  0  0  0  0  0  0
    2.5366    1.2021    4.3660 H   0  0  0  0  0  0  0  0  0  0  0  0
    2.4105   -0.5354    4.0565 H   0  0  0  0  0  0  0  0  0  0  0  0
    0.0725   -0.0681    3.7230 H   0  0  0  0  0  0  0  0  0  0  0  0
    0.2871    1.8520    1.7611 H   0  0  0  0  0  0  0  0  0  0  0  0
   -0.7546    1.8619   -0.4342 H   0  0  0  0  0  0  0  0  0  0  0  0
   -1.6063    2.6580   -2.6024 H   0  0  0  0  0  0  0  0  0  0  0  0
    0.4573    5.1680   -3.1351 H   0  0  0  0  0  0  0  0  0  0  0  0
    0.0545    7.5369   -3.7405 H   0  0  0  0  0  0  0  0  0  0  0  0
   -0.9572    8.1280   -5.9407 H   0  0  0  0  0  0  0  0  0  0  0  0
   -1.5641    6.3049   -7.5369 H   0  0  0  0  0  0  0  0  0  0  0  0
   -1.1562    3.9189   -6.9179 H   0  0  0  0  0  0  0  0  0  0  0  0
    2.3660    2.5318   -4.2400 H   0  0  0  0  0  0  0  0  0  0  0  0
    3.2359    1.6897   -2.0361 H   0  0  0  0  0  0  0  0  0  0  0  0
    5.3001   -2.3730    3.7459 H   0  0  0  0  0  0  0  0  0  0  0  0
    4.4158   -4.5731    4.5064 H   0  0  0  0  0  0  0  0  0  0  0  0
    2.2630   -5.4253    3.6208 H   0  0  0  0  0  0  0  0  0  0  0  0
  1 46  1  0  0  0  0
  1 48  1  0  0  0  0
  1 47  1  0  0  0  0
  2  1  1  0  0  0  0
  4  5  1  0  0  0  0
  4  3  1  0  0  0  0
  5  6  1  1  0  0  0
  5  7  1  0  0  0  0
  7  8  1  0  0  0  0
  8 10  2  0  0  0  0
  8  9  1  0  0  0  0
  9 54  1  0  0  0  0
  9 55  1  0  0  0  0
 11  5  1  0  0  0  0
 12 11  1  0  0  0  0
 12 56  1  0  0  0  0
 13 58  1  0  0  0  0
 13 12  1  0  0  0  0
 14 11  2  0  0  0  0
 15 16  1  0  0  0  0
 15  2  2  0  0  0  0
 16 17  1  0  0  0  0
 17 18  1  0  0  0  0
 17 61  1  0  0  0  0
 18 44  1  0  0  0  0
 19 18  2  0  0  0  0
 19 20  1  0  0  0  0
 20 42  2  0  0  0  0
 21 20  1  0  0  0  0
 21 64  1  0  0  0  0
 22 21  1  0  0  0  0
 22 23  1  0  0  0  0
 23 24  1  0  0  0  0
 24 66  1  0  0  0  0
 24 25  1  0  0  0  0
 24 65  1  0  0  0  0
 26 68  1  0  0  0  0
 26 23  2  0  0  0  0
 27 41  2  0  0  0  0
 27 26  1  0  0  0  0
 28 27  1  0  0  0  0
 29 28  1  0  0  0  0
 29 69  1  0  0  0  0
 30 29  2  0  0  0  0
 31 39  2  0  0  0  0
 31 30  1  0  0  0  0
 32 31  1  0  0  0  0
 33 32  1  0  0  0  0
 33 34  1  0  0  0  0
 34 71  1  0  0  0  0
 35 34  2  0  0  0  0
 35 72  1  0  0  0  0
 36 35  1  0  0  0  0
 37 38  1  0  0  0  0
 37 36  2  0  0  0  0
 38 33  2  0  0  0  0
 39 40  1  0  0  0  0
 40 77  1  0  0  0  0
 40 28  2  0  0  0  0
 41 22  1  0  0  0  0
 42 78  1  0  0  0  0
 42 43  1  0  0  0  0
 43 79  1  0  0  0  0
 44 80  1  0  0  0  0
 44 43  2  0  0  0  0
 45 16  2  0  0  0  0
 49  2  1  0  0  0  0
 50  4  1  0  0  0  0
 51  4  1  0  0  0  0
 52  7  1  0  0  0  0
 53  9  1  0  0  0  0
 57 13  1  0  0  0  0
 59 13  1  0  0  0  0
 60 15  1  0  0  0  0
 62 19  1  0  0  0  0
 63 21  1  0  0  0  0
 67 25  1  0  0  0  0
 70 30  1  0  0  0  0
 73 36  1  0  0  0  0
 74 37  1  0  0  0  0
 75 38  1  0  0  0  0
 76 39  1  0  0  0  0
M  END
