80
-1 1
C         1.038305   -4.107518   -8.592174
C         0.743163   -3.770191  -10.033225
S        -0.776075   -1.907516   -9.483231
C        -0.374356   -0.984465  -10.979813
C         0.769480    0.039016  -10.843943
H         1.668783   -0.453081  -10.454284
N         0.440888    1.112610   -9.937133
C         1.080545    1.369578   -8.788506
C         0.574551    2.560686   -8.001514
O         2.026642    0.702011   -8.371719
C         1.025622    0.654980  -12.221627
N         1.964718    0.034507  -12.954411
C         2.267995    0.409354  -14.311110
O         0.352802    1.610400  -12.602934
C         1.670932   -3.389850  -10.998164
C         2.953455   -2.752260  -10.830239
N         3.654376   -3.032510   -9.659375
C         4.815464   -2.452149   -9.169014
C         5.363835   -1.263741   -9.675992
C         6.499531   -0.708180   -9.088190
C         7.032968    0.611270   -9.610649
N         5.983484    1.529058   -9.996470
C         5.021177    2.064340   -9.198007
C         4.999511    1.902556   -7.700601
O         3.788822    2.271735   -7.131813
C         4.159765    2.740161  -10.035748
C         4.688610    2.545196  -11.335664
C         4.173566    3.049724  -12.619615
C         2.842285    3.460111  -12.745340
C         2.345220    3.913938  -13.963134
C         3.188582    3.967953  -15.067095
O         2.696894    4.380348  -16.289709
C         2.706387    5.698264  -16.604948
C         3.227788    6.693325  -15.771584
C         3.195623    8.023572  -16.190739
C         2.653617    8.375558  -17.424672
C         2.135437    7.374270  -18.249349
C         2.159148    6.044040  -17.847012
C         4.517418    3.559213  -14.968546
C         5.003416    3.099978  -13.749186
N         5.792899    1.808045  -11.290853
C         7.125161   -1.337156   -8.009206
C         6.594054   -2.526696   -7.513494
C         5.451764   -3.076798   -8.079764
O         3.465045   -2.013053  -11.683383
H         1.552575   -3.287004   -8.073592
H         1.653178   -5.027453   -8.524760
H         0.103094   -4.294403   -8.047602
H        -0.127085   -4.293924  -10.433233
H        -1.264686   -0.455803  -11.358816
H        -0.066990   -1.691914  -11.768160
H        -0.283287    1.741560  -10.261579
H        -0.144812    3.177920   -8.556741
H         1.438359    3.169279   -7.698499
H         0.092926    2.186523   -7.086531
H         2.496743   -0.737952  -12.527776
H         2.243052   -0.472241  -14.971023
H         3.264444    0.874286  -14.389115
H         1.520597    1.137319  -14.651379
H         1.331774   -3.355477  -12.036250
H         3.274186   -3.778161   -9.095926
H         4.878538   -0.776254  -10.519454
H         7.635951    0.461976  -10.517275
H         7.678806    1.082901   -8.852508
H         5.789012    2.543371   -7.265914
H         5.276249    0.859099   -7.453386
H         3.117611    1.624018   -7.450517
H         3.277916    3.297892   -9.736214
H         2.158055    3.368880  -11.901163
H         1.294190    4.186296  -14.065545
H         3.652668    6.427550  -14.802906
H         3.603993    8.794860  -15.533145
H         2.632724    9.419996  -17.742226
H         1.704781    7.632463  -19.219944
H         1.757332    5.247905  -18.476079
H         5.154925    3.600666  -15.853897
H         6.036944    2.763012  -13.654094
H         8.008026   -0.889203   -7.545273
H         7.066592   -3.025304   -6.663612
H         5.031605   -4.000830   -7.672834
