80
-1 1
C        -3.049155    3.059640    4.911841
C        -2.750023    1.698421    4.292414
S        -1.383380    0.923327    5.450625
C        -1.997709   -0.762668    5.684662
C        -3.125500   -0.938324    6.719247
H        -3.874389   -0.153359    6.573387
N        -2.654867   -0.845780    8.077027
C        -2.991373    0.170004    8.914434
C        -2.452645    0.023720   10.328707
O        -3.630516    1.149042    8.579164
C        -3.764554   -2.320565    6.519214
N        -4.602921   -2.434521    5.477498
C        -5.158615   -3.711384    5.109255
O        -3.458349   -3.256352    7.253907
C        -3.930673    0.837055    4.162146
C        -4.352316   -0.038743    3.176607
N        -3.800581   -0.060256    1.832213
C        -2.548049   -0.263404    1.320745
C        -2.416318   -0.465673   -0.077760
C        -1.182070   -0.674886   -0.669557
C        -0.005889   -0.682701    0.091954
C         1.339441   -0.868048   -0.558870
N         1.573405    0.058969   -1.661029
C         1.430038    1.409616   -1.658103
C         0.979846    2.229050   -0.480644
O         1.285915    3.585828   -0.658542
C         1.770863    1.838879   -2.926766
C         2.107815    0.657046   -3.630288
C         2.546995    0.504706   -5.028699
C         2.842497   -0.766638   -5.543387
C         3.262097   -0.925164   -6.859005
C         3.393059    0.193308   -7.680475
O         3.776927    0.039561   -8.994083
C         5.098941    0.011647   -9.308499
C         5.410764   -0.191941  -10.657737
C         6.739845   -0.229027  -11.063382
C         7.770608   -0.065143  -10.135200
C         7.450971    0.137085   -8.794891
C         6.122267    0.177704   -8.370794
C         3.101385    1.463587   -7.193381
C         2.679570    1.613047   -5.874479
N         1.977887   -0.406269   -2.842881
C        -0.130187   -0.488196    1.468457
C        -1.362011   -0.290773    2.080698
O        -5.330114   -0.828286    3.305992
H        -2.131101    3.645394    5.082437
H        -3.555242    2.931813    5.880596
H        -3.709668    3.630695    4.239760
H        -2.229343    1.833832    3.333729
H        -1.131810   -1.371934    5.987624
H        -2.349774   -1.144249    4.716939
H        -2.338232   -1.729916    8.462047
H        -3.185819    0.441781   11.030156
H        -1.528617    0.615520   10.412046
H        -2.226506   -1.016929   10.601981
H        -4.854736   -1.649501    4.847164
H        -4.383683   -4.493702    5.111206
H        -5.580864   -3.613651    4.100818
H        -5.954472   -4.034800    5.802278
H        -4.586100    0.809612    5.036584
H        -4.540309   -0.403726    1.228948
H        -3.316946   -0.450809   -0.697904
H        -1.125340   -0.817493   -1.753234
H         1.454765   -1.864050   -1.009216
H         2.140787   -0.749973    0.189300
H         1.406376    1.820998    0.454994
H        -0.112479    2.152300   -0.366848
H         2.241080    3.660879   -0.743945
H         1.753958    2.867891   -3.274166
H         2.733262   -1.631411   -4.887081
H         3.491917   -1.913060   -7.262996
H         4.591631   -0.318549  -11.367635
H         6.973425   -0.388893  -12.118685
H         8.813593   -0.095530  -10.456165
H         8.245930    0.267002   -8.056770
H         5.882860    0.336688   -7.318638
H         3.205921    2.325402   -7.854980
H         2.448376    2.612263   -5.500433
H         0.763754   -0.482558    2.100608
H        -1.386124   -0.141464    3.157110
