-1 1
 OpenBabel05232413493D

 80 82  0  0  1  0  0  0  0  0999 V2000
   -4.0976    1.8333    2.8472 C   0  0  0  0  0  0  0  0  0  0  0  0
   -4.4796    0.6449    2.0304 C   0  0  0  0  0  0  0  0  0  0  0  0
    1.0296   -2.4682    4.1123 S   0  0  0  0  0  1  0  0  0  0  0  0
   -0.5234   -2.0918    5.0002 C   0  0  0  0  0  0  0  0  0  0  0  0
   -1.0632   -0.6707    4.7633 C   0  0  2  0  0  0  0  0  0  0  0  0
   -1.3752   -0.5782    3.7054 H   0  0  0  0  0  0  0  0  0  0  0  0
   -0.0276    0.2859    5.0409 N   0  0  0  0  0  0  0  0  0  0  0  0
   -0.1360    1.5834    4.6855 C   0  0  0  0  0  0  0  0  0  0  0  0
    1.1375    2.3876    4.8382 C   0  0  0  0  0  0  0  0  0  0  0  0
   -1.1736    2.0661    4.2499 O   0  0  0  0  0  0  0  0  0  0  0  0
   -2.2857   -0.4451    5.6585 C   0  0  0  0  0  0  0  0  0  0  0  0
   -3.4736   -0.6951    5.0361 N   0  0  0  0  0  0  0  0  0  0  0  0
   -4.7331   -0.5619    5.7174 C   0  0  0  0  0  0  0  0  0  0  0  0
   -2.2000   -0.1643    6.8371 O   0  0  0  0  0  0  0  0  0  0  0  0
   -5.5206   -0.1569    2.2967 C   0  0  0  0  0  0  0  0  0  0  0  0
   -6.0583   -1.2714    1.4651 C   0  0  0  0  0  0  0  0  0  0  0  0
   -5.2302   -1.9568    0.6080 N   0  0  0  0  0  0  0  0  0  0  0  0
   -3.8121   -2.0204    0.5677 C   0  0  0  0  0  0  0  0  0  0  0  0
   -3.1402   -1.6479   -0.6003 C   0  0  0  0  0  0  0  0  0  0  0  0
   -1.7514   -1.7062   -0.6612 C   0  0  0  0  0  0  0  0  0  0  0  0
   -1.0102   -2.1323    0.4454 C   0  0  0  0  0  0  0  0  0  0  0  0
    0.5038   -2.1709    0.4040 C   0  0  0  0  0  0  0  0  0  0  0  0
    1.0619   -0.9920   -0.2301 N   0  0  0  0  0  0  0  0  0  0  0  0
    1.2074    0.2367    0.3306 C   0  0  0  0  0  0  0  0  0  0  0  0
    0.9634    0.5082    1.7888 C   0  0  0  0  0  0  0  0  0  0  0  0
    2.0190    0.0905    2.5995 O   0  0  0  0  0  0  0  0  0  0  0  0
    1.6452    1.0671   -0.6845 C   0  0  0  0  0  0  0  0  0  0  0  0
    1.7247    0.2391   -1.8291 C   0  0  0  0  0  0  0  0  0  0  0  0
    2.1381    0.5846   -3.2002 C   0  0  0  0  0  0  0  0  0  0  0  0
    2.2200   -0.4091   -4.1877 C   0  0  0  0  0  0  0  0  0  0  0  0
    2.6073   -0.0977   -5.4861 C   0  0  0  0  0  0  0  0  0  0  0  0
    2.9211    1.2197   -5.8146 C   0  0  0  0  0  0  0  0  0  0  0  0
    3.2739    1.5383   -7.1085 O   0  0  0  0  0  0  0  0  0  0  0  0
    4.5794    1.4848   -7.4801 C   0  0  0  0  0  0  0  0  0  0  0  0
    4.8587    1.8148   -8.8115 C   0  0  0  0  0  0  0  0  0  0  0  0
    6.1700    1.7864   -9.2721 C   0  0  0  0  0  0  0  0  0  0  0  0
    7.2155    1.4305   -8.4171 C   0  0  0  0  0  0  0  0  0  0  0  0
    6.9284    1.1036   -7.0940 C   0  0  0  0  0  0  0  0  0  0  0  0
    5.6181    1.1273   -6.6152 C   0  0  0  0  0  0  0  0  0  0  0  0
    2.8450    2.2229   -4.8534 C   0  0  0  0  0  0  0  0  0  0  0  0
    2.4542    1.9023   -3.5558 C   0  0  0  0  0  0  0  0  0  0  0  0
    1.3587   -1.0057   -1.5285 N   0  0  0  0  0  0  0  0  0  0  0  0
   -1.6848   -2.5173    1.6079 C   0  0  0  0  0  0  0  0  0  0  0  0
   -3.0762   -2.4699    1.6669 C   0  0  0  0  0  0  0  0  0  0  0  0
   -7.2458   -1.5425    1.5121 O   0  0  0  0  0  0  0  0  0  0  0  0
   -3.0930    1.7185    3.2919 H   0  0  0  0  0  0  0  0  0  0  0  0
   -4.8172    2.0166    3.6582 H   0  0  0  0  0  0  0  0  0  0  0  0
   -4.0509    2.7318    2.2111 H   0  0  0  0  0  0  0  0  0  0  0  0
   -3.8477    0.4364    1.1601 H   0  0  0  0  0  0  0  0  0  0  0  0
   -0.3731   -2.2132    6.0851 H   0  0  0  0  0  0  0  0  0  0  0  0
   -1.3232   -2.7954    4.7149 H   0  0  0  0  0  0  0  0  0  0  0  0
    0.8972   -0.1210    5.1677 H   0  0  0  0  0  0  0  0  0  0  0  0
    0.9402    3.4303    4.5639 H   0  0  0  0  0  0  0  0  0  0  0  0
    1.9055    1.9533    4.1777 H   0  0  0  0  0  0  0  0  0  0  0  0
    1.5070    2.3384    5.8731 H   0  0  0  0  0  0  0  0  0  0  0  0
   -3.4822   -0.7635    4.0259 H   0  0  0  0  0  0  0  0  0  0  0  0
   -4.5506   -0.6689    6.7945 H   0  0  0  0  0  0  0  0  0  0  0  0
   -5.4377   -1.3397    5.3872 H   0  0  0  0  0  0  0  0  0  0  0  0
   -5.1986    0.4253    5.5494 H   0  0  0  0  0  0  0  0  0  0  0  0
   -6.1778    0.0704    3.1418 H   0  0  0  0  0  0  0  0  0  0  0  0
   -5.7413   -2.6086    0.0217 H   0  0  0  0  0  0  0  0  0  0  0  0
   -3.7198   -1.2925   -1.4552 H   0  0  0  0  0  0  0  0  0  0  0  0
   -1.2285   -1.4008   -1.5712 H   0  0  0  0  0  0  0  0  0  0  0  0
    0.8590   -3.0323   -0.1782 H   0  0  0  0  0  0  0  0  0  0  0  0
    0.8967   -2.2614    1.4301 H   0  0  0  0  0  0  0  0  0  0  0  0
    0.0120    0.0338    2.0923 H   0  0  0  0  0  0  0  0  0  0  0  0
    0.8112    1.5962    1.8984 H   0  0  0  0  0  0  0  0  0  0  0  0
    1.7283   -0.7128    3.1074 H   0  0  0  0  0  0  0  0  0  0  0  0
    1.8874    2.1221   -0.5870 H   0  0  0  0  0  0  0  0  0  0  0  0
    1.9722   -1.4355   -3.9127 H   0  0  0  0  0  0  0  0  0  0  0  0
    2.6726   -0.8688   -6.2562 H   0  0  0  0  0  0  0  0  0  0  0  0
    4.0283    2.0900   -9.4641 H   0  0  0  0  0  0  0  0  0  0  0  0
    6.3779    2.0456  -10.3131 H   0  0  0  0  0  0  0  0  0  0  0  0
    8.2445    1.4086   -8.7810 H   0  0  0  0  0  0  0  0  0  0  0  0
    7.7350    0.8229   -6.4126 H   0  0  0  0  0  0  0  0  0  0  0  0
    5.4039    0.8692   -5.5773 H   0  0  0  0  0  0  0  0  0  0  0  0
    3.0918    3.2490   -5.1322 H   0  0  0  0  0  0  0  0  0  0  0  0
    2.3915    2.6953   -2.8082 H   0  0  0  0  0  0  0  0  0  0  0  0
   -1.0924   -2.8450    2.4682 H   0  0  0  0  0  0  0  0  0  0  0  0
   -3.6001   -2.7764    2.5756 H   0  0  0  0  0  0  0  0  0  0  0  0
  1 46  1  0  0  0  0
  1 47  1  0  0  0  0
  2 15  2  0  0  0  0
  2  1  1  0  0  0  0
  3  4  1  0  0  0  0
  4 50  1  0  0  0  0
  5  6  1  6  0  0  0
  5  4  1  0  0  0  0
  5  7  1  0  0  0  0
  5 11  1  0  0  0  0
  7 52  1  0  0  0  0
  8  9  1  0  0  0  0
  8  7  1  0  0  0  0
  9 55  1  0  0  0  0
 10  8  2  0  0  0  0
 11 14  2  0  0  0  0
 12 11  1  0  0  0  0
 12 13  1  0  0  0  0
 13 57  1  0  0  0  0
 15 60  1  0  0  0  0
 16 45  2  0  0  0  0
 16 15  1  0  0  0  0
 17 16  1  0  0  0  0
 18 17  1  0  0  0  0
 18 44  1  0  0  0  0
 19 18  2  0  0  0  0
 20 19  1  0  0  0  0
 20 21  2  0  0  0  0
 21 43  1  0  0  0  0
 22 21  1  0  0  0  0
 22 65  1  0  0  0  0
 23 24  1  0  0  0  0
 23 22  1  0  0  0  0
 24 25  1  0  0  0  0
 25 67  1  0  0  0  0
 25 66  1  0  0  0  0
 25 26  1  0  0  0  0
 26 68  1  0  0  0  0
 27 69  1  0  0  0  0
 27 24  2  0  0  0  0
 28 42  2  0  0  0  0
 28 27  1  0  0  0  0
 29 28  1  0  0  0  0
 30 70  1  0  0  0  0
 30 29  2  0  0  0  0
 31 30  1  0  0  0  0
 32 31  2  0  0  0  0
 32 40  1  0  0  0  0
 33 32  1  0  0  0  0
 34 33  1  0  0  0  0
 34 39  1  0  0  0  0
 35 34  2  0  0  0  0
 36 35  1  0  0  0  0
 36 37  2  0  0  0  0
 37 38  1  0  0  0  0
 38 39  2  0  0  0  0
 38 75  1  0  0  0  0
 39 76  1  0  0  0  0
 40 41  2  0  0  0  0
 41 29  1  0  0  0  0
 41 78  1  0  0  0  0
 42 23  1  0  0  0  0
 43 44  2  0  0  0  0
 43 79  1  0  0  0  0
 44 80  1  0  0  0  0
 48  1  1  0  0  0  0
 49  2  1  0  0  0  0
 51  4  1  0  0  0  0
 53  9  1  0  0  0  0
 54  9  1  0  0  0  0
 56 12  1  0  0  0  0
 58 13  1  0  0  0  0
 59 13  1  0  0  0  0
 61 17  1  0  0  0  0
 62 19  1  0  0  0  0
 63 20  1  0  0  0  0
 64 22  1  0  0  0  0
 71 31  1  0  0  0  0
 72 35  1  0  0  0  0
 73 36  1  0  0  0  0
 74 37  1  0  0  0  0
 77 40  1  0  0  0  0
M  END
