-1 1
 OpenBabel05192410563D

 80 83  0  0  1  0  0  0  0  0999 V2000
   -3.0492    3.0596    4.9118 C   0  0  0  0  0  0  0  0  0  0  0  0
   -2.7500    1.6984    4.2924 C   0  0  1  0  0  0  0  0  0  0  0  0
   -1.3834    0.9233    5.4506 S   0  0  0  0  0  0  0  0  0  0  0  0
   -1.9977   -0.7627    5.6847 C   0  0  0  0  0  0  0  0  0  0  0  0
   -3.1255   -0.9383    6.7192 C   0  0  2  0  0  0  0  0  0  0  0  0
   -3.8744   -0.1534    6.5734 H   0  0  0  0  0  0  0  0  0  0  0  0
   -2.6549   -0.8458    8.0770 N   0  0  0  0  0  0  0  0  0  0  0  0
   -2.9914    0.1700    8.9144 C   0  0  0  0  0  0  0  0  0  0  0  0
   -2.4526    0.0237   10.3287 C   0  0  0  0  0  0  0  0  0  0  0  0
   -3.6305    1.1490    8.5792 O   0  0  0  0  0  0  0  0  0  0  0  0
   -3.7646   -2.3206    6.5192 C   0  0  0  0  0  0  0  0  0  0  0  0
   -4.6029   -2.4345    5.4775 N   0  0  0  0  0  0  0  0  0  0  0  0
   -5.1586   -3.7114    5.1093 C   0  0  0  0  0  0  0  0  0  0  0  0
   -3.4583   -3.2564    7.2539 O   0  0  0  0  0  0  0  0  0  0  0  0
   -3.9307    0.8371    4.1621 C   0  0  0  0  0  3  0  0  0  0  0  0
   -4.3523   -0.0387    3.1766 C   0  0  0  0  0  0  0  0  0  0  0  0
   -3.8006   -0.0603    1.8322 N   0  0  0  0  0  0  0  0  0  0  0  0
   -2.5480   -0.2634    1.3207 C   0  0  0  0  0  0  0  0  0  0  0  0
   -2.4163   -0.4657   -0.0778 C   0  0  0  0  0  0  0  0  0  0  0  0
   -1.1821   -0.6749   -0.6696 C   0  0  0  0  0  0  0  0  0  0  0  0
   -0.0059   -0.6827    0.0920 C   0  0  0  0  0  0  0  0  0  0  0  0
    1.3394   -0.8680   -0.5589 C   0  0  0  0  0  0  0  0  0  0  0  0
    1.5734    0.0590   -1.6610 N   0  0  0  0  0  0  0  0  0  0  0  0
    1.4300    1.4096   -1.6581 C   0  0  0  0  0  0  0  0  0  0  0  0
    0.9798    2.2290   -0.4806 C   0  0  0  0  0  0  0  0  0  0  0  0
    1.2859    3.5858   -0.6585 O   0  0  0  0  0  0  0  0  0  0  0  0
    1.7709    1.8389   -2.9268 C   0  0  0  0  0  0  0  0  0  0  0  0
    2.1078    0.6570   -3.6303 C   0  0  0  0  0  0  0  0  0  0  0  0
    2.5470    0.5047   -5.0287 C   0  0  0  0  0  0  0  0  0  0  0  0
    2.8425   -0.7666   -5.5434 C   0  0  0  0  0  0  0  0  0  0  0  0
    3.2621   -0.9252   -6.8590 C   0  0  0  0  0  0  0  0  0  0  0  0
    3.3931    0.1933   -7.6805 C   0  0  0  0  0  0  0  0  0  0  0  0
    3.7769    0.0396   -8.9941 O   0  0  0  0  0  0  0  0  0  0  0  0
    5.0989    0.0116   -9.3085 C   0  0  0  0  0  0  0  0  0  0  0  0
    5.4108   -0.1919  -10.6577 C   0  0  0  0  0  0  0  0  0  0  0  0
    6.7398   -0.2290  -11.0634 C   0  0  0  0  0  0  0  0  0  0  0  0
    7.7706   -0.0651  -10.1352 C   0  0  0  0  0  0  0  0  0  0  0  0
    7.4510    0.1371   -8.7949 C   0  0  0  0  0  0  0  0  0  0  0  0
    6.1223    0.1777   -8.3708 C   0  0  0  0  0  0  0  0  0  0  0  0
    3.1014    1.4636   -7.1934 C   0  0  0  0  0  0  0  0  0  0  0  0
    2.6796    1.6130   -5.8745 C   0  0  0  0  0  0  0  0  0  0  0  0
    1.9779   -0.4063   -2.8429 N   0  0  0  0  0  0  0  0  0  0  0  0
   -0.1302   -0.4882    1.4685 C   0  0  0  0  0  0  0  0  0  0  0  0
   -1.3620   -0.2908    2.0807 C   0  0  0  0  0  0  0  0  0  0  0  0
   -5.3301   -0.8283    3.3060 O   0  0  0  0  0  0  0  0  0  0  0  0
   -2.1311    3.6454    5.0824 H   0  0  0  0  0  0  0  0  0  0  0  0
   -3.5552    2.9318    5.8806 H   0  0  0  0  0  0  0  0  0  0  0  0
   -3.7097    3.6307    4.2398 H   0  0  0  0  0  0  0  0  0  0  0  0
   -2.2293    1.8338    3.3337 H   0  0  0  0  0  0  0  0  0  0  0  0
   -1.1318   -1.3719    5.9876 H   0  0  0  0  0  0  0  0  0  0  0  0
   -2.3498   -1.1442    4.7169 H   0  0  0  0  0  0  0  0  0  0  0  0
   -2.3382   -1.7299    8.4620 H   0  0  0  0  0  0  0  0  0  0  0  0
   -3.1858    0.4418   11.0302 H   0  0  0  0  0  0  0  0  0  0  0  0
   -1.5286    0.6155   10.4120 H   0  0  0  0  0  0  0  0  0  0  0  0
   -2.2265   -1.0169   10.6020 H   0  0  0  0  0  0  0  0  0  0  0  0
   -4.8547   -1.6495    4.8472 H   0  0  0  0  0  0  0  0  0  0  0  0
   -4.3837   -4.4937    5.1112 H   0  0  0  0  0  0  0  0  0  0  0  0
   -5.5809   -3.6137    4.1008 H   0  0  0  0  0  0  0  0  0  0  0  0
   -5.9545   -4.0348    5.8023 H   0  0  0  0  0  0  0  0  0  0  0  0
   -4.5861    0.8096    5.0366 H   0  0  0  0  0  0  0  0  0  0  0  0
   -4.5403   -0.4037    1.2289 H   0  0  0  0  0  0  0  0  0  0  0  0
   -3.3169   -0.4508   -0.6979 H   0  0  0  0  0  0  0  0  0  0  0  0
   -1.1253   -0.8175   -1.7532 H   0  0  0  0  0  0  0  0  0  0  0  0
    1.4548   -1.8640   -1.0092 H   0  0  0  0  0  0  0  0  0  0  0  0
    2.1408   -0.7500    0.1893 H   0  0  0  0  0  0  0  0  0  0  0  0
    1.4064    1.8210    0.4550 H   0  0  0  0  0  0  0  0  0  0  0  0
   -0.1125    2.1523   -0.3668 H   0  0  0  0  0  0  0  0  0  0  0  0
    2.2411    3.6609   -0.7439 H   0  0  0  0  0  0  0  0  0  0  0  0
    1.7540    2.8679   -3.2742 H   0  0  0  0  0  0  0  0  0  0  0  0
    2.7333   -1.6314   -4.8871 H   0  0  0  0  0  0  0  0  0  0  0  0
    3.4919   -1.9131   -7.2630 H   0  0  0  0  0  0  0  0  0  0  0  0
    4.5916   -0.3185  -11.3676 H   0  0  0  0  0  0  0  0  0  0  0  0
    6.9734   -0.3889  -12.1187 H   0  0  0  0  0  0  0  0  0  0  0  0
    8.8136   -0.0955  -10.4562 H   0  0  0  0  0  0  0  0  0  0  0  0
    8.2459    0.2670   -8.0568 H   0  0  0  0  0  0  0  0  0  0  0  0
    5.8829    0.3367   -7.3186 H   0  0  0  0  0  0  0  0  0  0  0  0
    3.2059    2.3254   -7.8550 H   0  0  0  0  0  0  0  0  0  0  0  0
    2.4484    2.6123   -5.5004 H   0  0  0  0  0  0  0  0  0  0  0  0
    0.7638   -0.4826    2.1006 H   0  0  0  0  0  0  0  0  0  0  0  0
   -1.3861   -0.1415    3.1571 H   0  0  0  0  0  0  0  0  0  0  0  0
  1 46  1  0  0  0  0
  1 47  1  0  0  0  0
  2 49  1  6  0  0  0
  2  1  1  0  0  0  0
  2  3  1  0  0  0  0
  3  4  1  0  0  0  0
  4 50  1  0  0  0  0
  4  5  1  0  0  0  0
  5  6  1  6  0  0  0
  5  7  1  0  0  0  0
  7 52  1  0  0  0  0
  7  8  1  0  0  0  0
  8  9  1  0  0  0  0
  9 54  1  0  0  0  0
  9 55  1  0  0  0  0
  9 53  1  0  0  0  0
 10  8  2  0  0  0  0
 11  5  1  0  0  0  0
 11 14  2  0  0  0  0
 12 11  1  0  0  0  0
 13 57  1  0  0  0  0
 13 12  1  0  0  0  0
 13 59  1  0  0  0  0
 15  2  1  0  0  0  0
 15 60  1  0  0  0  0
 16 45  2  0  0  0  0
 16 15  1  0  0  0  0
 17 16  1  0  0  0  0
 18 17  1  0  0  0  0
 18 44  1  0  0  0  0
 19 18  2  0  0  0  0
 20 19  1  0  0  0  0
 20 21  2  0  0  0  0
 21 43  1  0  0  0  0
 22 21  1  0  0  0  0
 22 65  1  0  0  0  0
 23 24  1  0  0  0  0
 23 22  1  0  0  0  0
 24 25  1  0  0  0  0
 25 67  1  0  0  0  0
 25 66  1  0  0  0  0
 26 25  1  0  0  0  0
 27 24  2  0  0  0  0
 28 27  1  0  0  0  0
 28 42  2  0  0  0  0
 29 28  1  0  0  0  0
 30 29  1  0  0  0  0
 30 70  1  0  0  0  0
 31 30  2  0  0  0  0
 32 40  2  0  0  0  0
 32 31  1  0  0  0  0
 33 32  1  0  0  0  0
 34 33  1  0  0  0  0
 34 39  1  0  0  0  0
 35 34  2  0  0  0  0
 36 35  1  0  0  0  0
 36 37  2  0  0  0  0
 37 38  1  0  0  0  0
 38 39  2  0  0  0  0
 38 75  1  0  0  0  0
 39 76  1  0  0  0  0
 40 41  1  0  0  0  0
 41 78  1  0  0  0  0
 41 29  2  0  0  0  0
 42 23  1  0  0  0  0
 43 44  2  0  0  0  0
 43 79  1  0  0  0  0
 44 80  1  0  0  0  0
 48  1  1  0  0  0  0
 51  4  1  0  0  0  0
 56 12  1  0  0  0  0
 58 13  1  0  0  0  0
 61 17  1  0  0  0  0
 62 19  1  0  0  0  0
 63 20  1  0  0  0  0
 64 22  1  0  0  0  0
 68 26  1  0  0  0  0
 69 27  1  0  0  0  0
 71 31  1  0  0  0  0
 72 35  1  0  0  0  0
 73 36  1  0  0  0  0
 74 37  1  0  0  0  0
 77 40  1  0  0  0  0
M  END
