-1 1
 OpenBabel05232413493D

 58 58  0  0  1  0  0  0  0  0999 V2000
    3.7499   -0.1868    2.8970 O   0  0  0  0  0  0  0  0  0  0  0  0
    3.0500    0.6828    2.3959 C   0  0  0  0  0  0  0  0  0  0  0  0
    1.5166    0.7525    2.6065 C   0  0  2  0  0  0  0  0  0  0  0  0
    1.0220   -0.4760    3.4224 C   0  0  0  0  0  0  0  0  0  0  0  0
   -0.6608   -1.0845    3.0399 S   0  0  0  0  0  1  0  0  0  0  0  0
   -3.8247    2.2546   -2.3580 C   0  0  0  0  0  0  0  0  0  0  0  0
   -4.7241    1.8763   -3.2677 C   0  0  0  0  0  0  0  0  0  0  0  0
   -5.6677    0.7138   -3.2014 C   0  0  0  0  0  0  0  0  0  0  0  0
   -5.3254   -0.4069   -2.4958 N   0  0  0  0  0  0  0  0  0  0  0  0
   -4.0660   -0.7841   -1.9500 C   0  0  0  0  0  0  0  0  0  0  0  0
   -3.9296   -0.9922   -0.5756 C   0  0  0  0  0  0  0  0  0  0  0  0
   -2.7000   -1.3348   -0.0280 C   0  0  0  0  0  0  0  0  0  0  0  0
   -1.5621   -1.4654   -0.8449 C   0  0  0  0  0  0  0  0  0  0  0  0
   -0.3565   -1.8019   -0.2359 N   0  0  0  0  0  0  0  0  0  0  0  0
    0.9016   -1.5155   -0.7534 C   0  0  0  0  0  0  0  0  0  0  0  0
    1.9303   -2.0024   -0.0086 N   0  0  0  0  0  0  0  0  0  0  0  0
    3.3037   -1.6728   -0.3656 C   0  0  0  0  0  0  0  0  0  0  0  0
    4.1226   -2.7718    0.3115 C   0  0  0  0  0  0  0  0  0  0  0  0
    3.2791   -3.1352    1.5361 C   0  0  0  0  0  0  0  0  0  0  0  0
    1.8406   -3.0302    1.0277 C   0  0  0  0  0  0  0  0  0  0  0  0
    1.0866   -0.8800   -1.7851 O   0  0  0  0  0  0  0  0  0  0  0  0
   -1.7054   -1.2726   -2.2301 C   0  0  0  0  0  0  0  0  0  0  0  0
   -2.9459   -0.9473   -2.7666 C   0  0  0  0  0  0  0  0  0  0  0  0
   -6.7495    0.7940   -3.7597 O   0  0  0  0  0  0  0  0  0  0  0  0
    0.7772    0.8429    1.3606 N   0  0  0  0  0  0  0  0  0  0  0  0
    0.6154    1.9461    0.6055 C   0  0  0  0  0  0  0  0  0  0  0  0
   -0.4521    1.8298   -0.4588 C   0  0  0  0  0  0  0  0  0  0  0  0
    1.3017    2.9643    0.7211 O   0  0  0  0  0  0  0  0  0  0  0  0
    1.3336    1.6798    3.1822 H   0  0  0  0  0  0  0  0  0  0  0  0
    3.5520    1.6835    1.6386 N   0  0  0  0  0  0  0  0  0  0  0  0
    4.9458    1.7712    1.3007 C   0  0  0  0  0  0  0  0  0  0  0  0
    1.7494   -1.2831    3.2741 H   0  0  0  0  0  0  0  0  0  0  0  0
    1.0865   -0.2122    4.4875 H   0  0  0  0  0  0  0  0  0  0  0  0
   -6.0794   -1.0855   -2.4614 H   0  0  0  0  0  0  0  0  0  0  0  0
   -4.7962   -0.8587    0.0763 H   0  0  0  0  0  0  0  0  0  0  0  0
   -2.5928   -1.4635    1.0515 H   0  0  0  0  0  0  0  0  0  0  0  0
   -0.4114   -1.8735    0.7966 H   0  0  0  0  0  0  0  0  0  0  0  0
    3.5658   -0.6720    0.0191 H   0  0  0  0  0  0  0  0  0  0  0  0
    3.4178   -1.6463   -1.4585 H   0  0  0  0  0  0  0  0  0  0  0  0
    5.1347   -2.4340    0.5757 H   0  0  0  0  0  0  0  0  0  0  0  0
    4.2183   -3.6388   -0.3643 H   0  0  0  0  0  0  0  0  0  0  0  0
    3.4492   -2.3861    2.3232 H   0  0  0  0  0  0  0  0  0  0  0  0
    3.5039   -4.1316    1.9432 H   0  0  0  0  0  0  0  0  0  0  0  0
    1.1323   -2.7521    1.8244 H   0  0  0  0  0  0  0  0  0  0  0  0
    1.4920   -3.9833    0.5863 H   0  0  0  0  0  0  0  0  0  0  0  0
   -0.8321   -1.3579   -2.8722 H   0  0  0  0  0  0  0  0  0  0  0  0
   -3.0455   -0.7939   -3.8436 H   0  0  0  0  0  0  0  0  0  0  0  0
   -0.0021    0.1644    1.3812 H   0  0  0  0  0  0  0  0  0  0  0  0
   -1.3688    1.3700   -0.0604 H   0  0  0  0  0  0  0  0  0  0  0  0
   -0.0784    1.1769   -1.2638 H   0  0  0  0  0  0  0  0  0  0  0  0
   -0.6679    2.8274   -0.8595 H   0  0  0  0  0  0  0  0  0  0  0  0
    2.8807    2.3713    1.2731 H   0  0  0  0  0  0  0  0  0  0  0  0
    5.4507    0.8721    1.6775 H   0  0  0  0  0  0  0  0  0  0  0  0
    5.4247    2.6552    1.7565 H   0  0  0  0  0  0  0  0  0  0  0  0
    5.0860    1.8312    0.2091 H   0  0  0  0  0  0  0  0  0  0  0  0
   -4.9262    2.5062   -4.1390 H   0  0  0  0  0  0  0  0  0  0  0  0
   -3.6079    1.6720   -1.4602 H   0  0  0  0  0  0  0  0  0  0  0  0
   -3.2614    3.1820   -2.4903 H   0  0  0  0  0  0  0  0  0  0  0  0
  2  3  1  0  0  0  0
  2  1  2  0  0  0  0
  3 29  1  1  0  0  0
  3  4  1  0  0  0  0
  4 33  1  0  0  0  0
  5  4  1  0  0  0  0
  6 57  1  0  0  0  0
  7  8  1  0  0  0  0
  7  6  2  0  0  0  0
  8  9  1  0  0  0  0
  9 34  1  0  0  0  0
  9 10  1  0  0  0  0
 10 11  1  0  0  0  0
 11 12  2  0  0  0  0
 11 35  1  0  0  0  0
 12 36  1  0  0  0  0
 13 14  1  0  0  0  0
 13 12  1  0  0  0  0
 14 37  1  0  0  0  0
 15 14  1  0  0  0  0
 15 16  1  0  0  0  0
 16 20  1  0  0  0  0
 17 16  1  0  0  0  0
 17 38  1  0  0  0  0
 17 18  1  0  0  0  0
 18 40  1  0  0  0  0
 18 19  1  0  0  0  0
 19 43  1  0  0  0  0
 19 42  1  0  0  0  0
 20 19  1  0  0  0  0
 20 44  1  0  0  0  0
 21 15  2  0  0  0  0
 22 13  2  0  0  0  0
 23 22  1  0  0  0  0
 23 10  2  0  0  0  0
 24  8  2  0  0  0  0
 25 48  1  0  0  0  0
 25  3  1  0  0  0  0
 26 28  2  0  0  0  0
 26 25  1  0  0  0  0
 27 49  1  0  0  0  0
 27 26  1  0  0  0  0
 30  2  1  0  0  0  0
 31 30  1  0  0  0  0
 31 53  1  0  0  0  0
 31 54  1  0  0  0  0
 32  4  1  0  0  0  0
 39 17  1  0  0  0  0
 41 18  1  0  0  0  0
 45 20  1  0  0  0  0
 46 22  1  0  0  0  0
 47 23  1  0  0  0  0
 50 27  1  0  0  0  0
 51 27  1  0  0  0  0
 52 30  1  0  0  0  0
 55 31  1  0  0  0  0
 56  7  1  0  0  0  0
 58  6  1  0  0  0  0
M  END
