58
-1 1
O         2.056111    5.026451    2.904151
C         1.366843    5.086789    1.897919
C         0.265601    4.045290    1.573877
C         0.061043    3.128475    2.793122
S        -0.589192    1.465677    2.492789
C        -2.339063    1.817550    1.854251
C        -2.490019    2.339253    0.485668
C        -2.978502    1.643062   -0.610382
N        -3.386260    0.238983   -0.391784
C        -2.508797   -0.824477   -0.488235
C        -2.984019   -2.111245   -0.811613
C        -2.126761   -3.202319   -0.878799
C        -0.759250   -3.067337   -0.618059
N         0.040812   -4.237368   -0.659343
C         1.404744   -4.322389   -0.781964
N         1.889992   -5.616655   -0.800963
C         3.318093   -5.844442   -0.948102
C         3.403475   -7.356766   -1.148397
C         2.237377   -7.880177   -0.306342
C         1.143232   -6.831908   -0.534991
O         2.161595   -3.371487   -0.864003
C        -0.270435   -1.795350   -0.300867
C        -1.128382   -0.702431   -0.243858
O        -3.165696    2.071501   -1.766621
N         0.570033    3.289810    0.368664
C         0.191883    3.747804   -0.858510
C         0.012586    2.719636   -1.938832
O        -0.014256    4.941322   -1.068644
H        -0.661488    4.613814    1.381724
N         1.461664    6.069936    0.975313
C         2.470005    7.091333    1.040598
H         1.032194    2.978543    3.284582
H        -0.576252    3.653644    3.520012
H        -4.214023    0.084000   -0.959408
H        -4.049256   -2.251477   -1.016397
H        -2.535414   -4.184678   -1.140564
H        -0.485273   -5.095289   -0.736124
H         3.869235   -5.521154   -0.045543
H         3.721310   -5.264921   -1.790767
H         4.375885   -7.772376   -0.848655
H         3.244029   -7.606405   -2.210163
H         2.520914   -7.893076    0.758203
H         1.914873   -8.895205   -0.578684
H         0.489998   -6.723909    0.348105
H         0.499143   -7.114202   -1.392277
H         0.792574   -1.660954   -0.109421
H        -0.729255    0.279389    0.007070
H         0.495918    2.283046    0.510545
H        -1.077244    2.552000   -2.057412
H         0.490656    1.759341   -1.702646
H         0.406766    3.117546   -2.883234
H         0.886403    5.949413    0.132043
H         2.992493    6.997252    2.001693
H         2.025155    8.097727    0.973635
H         3.209284    6.989470    0.227684
H        -2.273728    3.394369    0.297278
H        -2.826717    0.836909    1.961848
H        -2.748175    2.485323    2.632518
