-1 1
 OpenBabel05232414493D

 58 58  0  0  1  0  0  0  0  0999 V2000
    7.4917    4.3590    0.0428 O   0  0  0  0  0  0  0  0  0  0  0  0
    6.6048    4.5525   -0.7730 C   0  0  0  0  0  0  0  0  0  0  0  0
    5.6287    3.4399   -1.2317 C   0  0  2  0  0  0  0  0  0  0  0  0
    5.8497    2.1615   -0.3959 C   0  0  0  0  0  0  0  0  0  0  0  0
    5.3306    0.6045   -1.1812 S   0  0  0  0  0  1  0  0  0  0  0  0
    3.0562    1.1788   -1.4171 C   0  0  0  0  0  3  0  0  0  0  0  0
    2.6815    1.9210   -2.5335 C   0  0  0  0  0  3  0  0  0  0  0  0
    2.0114    1.4650   -3.7159 C   0  0  0  0  0  0  0  0  0  0  0  0
    1.7139    0.0856   -3.8909 N   0  0  0  0  0  0  0  0  0  0  0  0
    2.5555   -1.0225   -3.7821 C   0  0  0  0  0  0  0  0  0  0  0  0
    1.9950   -2.3093   -3.7802 C   0  0  0  0  0  0  0  0  0  0  0  0
    2.8027   -3.4395   -3.7144 C   0  0  0  0  0  0  0  0  0  0  0  0
    4.1911   -3.3207   -3.6048 C   0  0  0  0  0  0  0  0  0  0  0  0
    4.9654   -4.4946   -3.4461 N   0  0  0  0  0  0  0  0  0  0  0  0
    6.2183   -4.7148   -3.9749 C   0  0  0  0  0  0  0  0  0  0  0  0
    6.7731   -5.9270   -3.6187 N   0  0  0  0  0  0  0  0  0  0  0  0
    8.0984   -6.2716   -4.1100 C   0  0  0  0  0  0  0  0  0  0  0  0
    8.3146   -7.6783   -3.5546 C   0  0  0  0  0  0  0  0  0  0  0  0
    7.5607   -7.6397   -2.2231 C   0  0  0  0  0  0  0  0  0  0  0  0
    6.3210   -6.7998   -2.5480 C   0  0  0  0  0  0  0  0  0  0  0  0
    6.8116   -3.9335   -4.6932 O   0  0  0  0  0  0  0  0  0  0  0  0
    4.7572   -2.0426   -3.6016 C   0  0  0  0  0  0  0  0  0  0  0  0
    3.9518   -0.9162   -3.7106 C   0  0  0  0  0  0  0  0  0  0  0  0
    1.5632    2.2260   -4.5790 O   0  0  0  0  0  0  0  0  0  0  0  0
    5.7455    3.1477   -2.6524 N   0  0  0  0  0  0  0  0  0  0  0  0
    5.1039    3.8698   -3.6003 C   0  0  0  0  0  0  0  0  0  0  0  0
    4.8935    3.1949   -4.9327 C   0  0  0  0  0  0  0  0  0  0  0  0
    4.6928    5.0138   -3.4061 O   0  0  0  0  0  0  0  0  0  0  0  0
    4.6081    3.8274   -1.0561 H   0  0  0  0  0  0  0  0  0  0  0  0
    6.3531    5.7585   -1.3349 N   0  0  0  0  0  0  0  0  0  0  0  0
    7.1840    6.9055   -1.0961 C   0  0  0  0  0  0  0  0  0  0  0  0
    6.9193    2.0846   -0.1602 H   0  0  0  0  0  0  0  0  0  0  0  0
    5.3361    2.3017    0.5681 H   0  0  0  0  0  0  0  0  0  0  0  0
    0.9968   -0.0053   -4.6027 H   0  0  0  0  0  0  0  0  0  0  0  0
    0.9084   -2.4172   -3.8295 H   0  0  0  0  0  0  0  0  0  0  0  0
    2.3430   -4.4327   -3.7292 H   0  0  0  0  0  0  0  0  0  0  0  0
    4.4762   -5.2850   -3.0518 H   0  0  0  0  0  0  0  0  0  0  0  0
    8.8565   -5.5614   -3.7327 H   0  0  0  0  0  0  0  0  0  0  0  0
    8.1356   -6.2228   -5.2079 H   0  0  0  0  0  0  0  0  0  0  0  0
    9.3782   -7.9322   -3.4440 H   0  0  0  0  0  0  0  0  0  0  0  0
    7.8589   -8.4248   -4.2256 H   0  0  0  0  0  0  0  0  0  0  0  0
    8.1687   -7.1224   -1.4640 H   0  0  0  0  0  0  0  0  0  0  0  0
    7.3077   -8.6341   -1.8286 H   0  0  0  0  0  0  0  0  0  0  0  0
    5.9746   -6.2208   -1.6759 H   0  0  0  0  0  0  0  0  0  0  0  0
    5.4819   -7.4470   -2.8737 H   0  0  0  0  0  0  0  0  0  0  0  0
    5.8369   -1.9229   -3.5216 H   0  0  0  0  0  0  0  0  0  0  0  0
    4.4129    0.0708   -3.7037 H   0  0  0  0  0  0  0  0  0  0  0  0
    5.8238    2.1359   -2.8076 H   0  0  0  0  0  0  0  0  0  0  0  0
    3.8132    2.9979   -5.0350 H   0  0  0  0  0  0  0  0  0  0  0  0
    5.4429    2.2487   -5.0285 H   0  0  0  0  0  0  0  0  0  0  0  0
    5.1910    3.8842   -5.7348 H   0  0  0  0  0  0  0  0  0  0  0  0
    5.6402    5.7712   -2.0744 H   0  0  0  0  0  0  0  0  0  0  0  0
    7.9077    6.6476   -0.3116 H   0  0  0  0  0  0  0  0  0  0  0  0
    6.5882    7.7704   -0.7601 H   0  0  0  0  0  0  0  0  0  0  0  0
    7.7399    7.2057   -2.0013 H   0  0  0  0  0  0  0  0  0  0  0  0
    2.8123    3.0061   -2.5231 H   0  0  0  0  0  0  0  0  0  0  0  0
    2.7260    0.1412   -1.3250 H   0  0  0  0  0  0  0  0  0  0  0  0
    3.1334    1.6989   -0.4590 H   0  0  0  0  0  0  0  0  0  0  0  0
  2  1  2  0  0  0  0
  3 29  1  1  0  0  0
  3  2  1  0  0  0  0
  3  4  1  0  0  0  0
  4 32  1  0  0  0  0
  4 33  1  0  0  0  0
  5  4  1  0  0  0  0
  6 57  1  0  0  0  0
  6 58  1  0  0  0  0
  7 56  1  0  0  0  0
  7  6  1  0  0  0  0
  8  7  1  0  0  0  0
  9 10  1  0  0  0  0
  9  8  1  0  0  0  0
 10 11  2  0  0  0  0
 10 23  1  0  0  0  0
 11 12  1  0  0  0  0
 12 13  2  0  0  0  0
 13 22  1  0  0  0  0
 13 14  1  0  0  0  0
 14 37  1  0  0  0  0
 15 16  1  0  0  0  0
 15 14  1  0  0  0  0
 16 20  1  0  0  0  0
 17 38  1  0  0  0  0
 17 16  1  0  0  0  0
 17 18  1  0  0  0  0
 18 40  1  0  0  0  0
 18 19  1  0  0  0  0
 19 43  1  0  0  0  0
 19 42  1  0  0  0  0
 20 19  1  0  0  0  0
 20 44  1  0  0  0  0
 21 15  2  0  0  0  0
 22 46  1  0  0  0  0
 23 47  1  0  0  0  0
 23 22  2  0  0  0  0
 24  8  2  0  0  0  0
 25  3  1  0  0  0  0
 26 28  2  0  0  0  0
 26 25  1  0  0  0  0
 27 26  1  0  0  0  0
 30 31  1  0  0  0  0
 30  2  1  0  0  0  0
 31 54  1  0  0  0  0
 31 53  1  0  0  0  0
 34  9  1  0  0  0  0
 35 11  1  0  0  0  0
 36 12  1  0  0  0  0
 39 17  1  0  0  0  0
 41 18  1  0  0  0  0
 45 20  1  0  0  0  0
 48 25  1  0  0  0  0
 49 27  1  0  0  0  0
 50 27  1  0  0  0  0
 51 27  1  0  0  0  0
 52 30  1  0  0  0  0
 55 31  1  0  0  0  0
M  END
