-1 1
 OpenBabel05232414493D

 99103  0  0  1  0  0  0  0  0999 V2000
    3.1373   -9.7988   -0.0566 O   0  0  0  0  0  0  0  0  0  0  0  0
    3.0050  -10.3497    1.0386 C   0  0  0  0  0  0  0  0  0  0  0  0
    3.6360   -9.7423    2.1302 N   0  0  0  0  0  0  0  0  0  0  0  0
    3.5304  -10.0216    3.4957 C   0  0  0  0  0  0  0  0  0  0  0  0
    4.6885  -10.0187    4.2901 C   0  0  0  0  0  0  0  0  0  0  0  0
    4.5790  -10.2867    5.6524 C   0  0  0  0  0  0  0  0  0  0  0  0
    5.6450  -10.2695    6.5347 O   0  0  0  0  0  0  0  0  0  0  0  0
    6.8688  -10.7415    6.3165 C   0  0  0  0  0  0  0  0  0  0  0  0
    7.2702  -11.1122    5.1212 N   0  0  0  0  0  0  0  0  0  0  0  0
    8.5499  -11.4941    4.9466 C   0  0  0  0  0  0  0  0  0  0  0  0
    8.9426  -11.9140    3.7077 N   0  0  0  0  0  0  0  0  0  0  0  0
    8.2406  -11.9572    2.4882 C   0  0  0  0  0  0  0  0  0  0  0  0
    8.9812  -11.8793    1.3007 C   0  0  0  0  0  0  0  0  0  0  0  0
    8.3625  -11.9321    0.0599 C   0  0  0  0  0  0  0  0  0  0  0  0
    6.9636  -12.0356   -0.0592 C   0  0  0  0  0  0  0  0  0  0  0  0
    6.3500  -12.0614   -1.3230 N   0  0  0  0  0  0  0  0  0  0  0  0
    6.7841  -11.0256   -2.2597 C   0  0  0  0  0  0  0  0  0  0  0  0
    6.2088  -11.2481   -3.6542 C   0  0  0  0  0  0  0  0  0  0  0  0
    4.7658  -11.3463   -3.5831 N   0  0  0  0  0  0  0  0  0  0  0  0
    4.3540  -12.4353   -2.7211 C   0  0  0  0  0  0  0  0  0  0  0  0
    4.9034  -12.2491   -1.3157 C   0  0  0  0  0  0  0  0  0  0  0  0
    4.0153  -10.2197   -3.8512 C   0  0  0  0  0  0  0  0  0  0  0  0
    2.5741  -10.2226   -3.3975 C   0  0  0  0  0  0  0  0  0  0  0  0
    4.5107   -9.2573   -4.4112 O   0  0  0  0  0  0  0  0  0  0  0  0
    6.2316  -12.1234    1.1381 C   0  0  0  0  0  0  0  0  0  0  0  0
    6.8554  -12.1048    2.3836 C   0  0  0  0  0  0  0  0  0  0  0  0
    9.5093  -11.4858    5.8761 N   0  0  0  0  0  0  0  0  0  0  0  0
    7.7443  -10.7979    7.4193 C   0  0  0  0  0  0  0  0  0  0  0  0
    9.0663  -11.1366    7.0813 C   0  0  0  0  0  0  0  0  0  0  0  0
    9.8151  -11.0458    8.2198 N   0  0  0  0  0  0  0  0  0  0  0  0
   10.8010  -11.2572    8.2675 H   0  0  0  0  0  0  0  0  0  0  0  0
    8.9991  -10.6847    9.2772 C   0  0  0  0  0  0  0  0  0  0  0  0
    7.7107  -10.5298    8.8346 C   0  0  0  0  0  0  0  0  0  0  0  0
    6.5150  -10.2670    9.6527 C   0  0  0  0  0  0  0  0  0  0  0  0
    5.4569  -11.0552    9.4348 N   0  0  0  0  0  0  0  0  0  0  0  0
    4.3524  -10.8301   10.1354 C   0  0  0  0  0  0  0  0  0  0  0  0
    3.2511  -11.5977    9.8847 N   0  0  0  0  0  0  0  0  0  0  0  0
    3.2907  -12.8050    9.0932 C   0  0  0  0  0  0  0  0  0  0  0  0
    4.3253   -9.8033   11.1170 C   0  0  0  0  0  0  0  0  0  0  0  0
    5.3763   -9.0457   11.3481 N   0  0  0  0  0  0  0  0  0  0  0  0
    6.4751   -9.2581   10.6172 C   0  0  0  0  0  0  0  0  0  0  0  0
    3.3432  -10.5387    6.2472 C   0  0  0  0  0  0  0  0  0  0  0  0
    2.2007  -10.5377    5.4518 C   0  0  0  0  0  0  0  0  0  0  0  0
    2.2869  -10.2716    4.0898 C   0  0  0  0  0  0  0  0  0  0  0  0
    2.3557  -11.6265    1.2477 C   0  0  0  0  0  3  0  0  0  0  0  0
    1.7581  -12.2916    0.2025 C   0  0  0  0  0  3  0  0  0  0  0  0
   -0.6983  -11.8512    0.0122 S   0  0  0  0  0  1  0  0  0  0  0  0
   -0.6992  -10.4208    1.1199 C   0  0  0  0  0  0  0  0  0  0  0  0
   -1.5418  -10.5702    2.4079 C   0  0  2  0  0  0  0  0  0  0  0  0
   -2.5341  -10.9564    2.1149 H   0  0  0  0  0  0  0  0  0  0  0  0
   -1.7027   -9.3089    3.0972 N   0  0  0  0  0  0  0  0  0  0  0  0
   -2.5483   -8.3335    2.6917 C   0  0  0  0  0  0  0  0  0  0  0  0
   -2.5989   -7.1139    3.5996 C   0  0  0  0  0  0  0  0  0  0  0  0
   -3.2054   -8.3884    1.6674 O   0  0  0  0  0  0  0  0  0  0  0  0
   -0.9298  -11.5280    3.4442 C   0  0  0  0  0  0  0  0  0  0  0  0
   -0.5323  -12.7180    2.9774 N   0  0  0  0  0  0  0  0  0  0  0  0
    0.1909  -13.6394    3.8134 C   0  0  0  0  0  0  0  0  0  0  0  0
   -0.8088  -11.1939    4.6236 O   0  0  0  0  0  0  0  0  0  0  0  0
    4.3134   -9.0466    1.8419 H   0  0  0  0  0  0  0  0  0  0  0  0
    5.6606   -9.8428    3.8350 H   0  0  0  0  0  0  0  0  0  0  0  0
    9.9359  -12.0991    3.6616 H   0  0  0  0  0  0  0  0  0  0  0  0
   10.0696  -11.7779    1.3494 H   0  0  0  0  0  0  0  0  0  0  0  0
    8.9849  -11.8938   -0.8353 H   0  0  0  0  0  0  0  0  0  0  0  0
    7.8799  -11.0181   -2.3273 H   0  0  0  0  0  0  0  0  0  0  0  0
    6.4648  -10.0233   -1.9056 H   0  0  0  0  0  0  0  0  0  0  0  0
    6.6145  -12.1804   -4.0837 H   0  0  0  0  0  0  0  0  0  0  0  0
    6.4656  -10.4063   -4.3076 H   0  0  0  0  0  0  0  0  0  0  0  0
    4.7288  -13.3790   -3.1555 H   0  0  0  0  0  0  0  0  0  0  0  0
    3.2621  -12.5066   -2.6717 H   0  0  0  0  0  0  0  0  0  0  0  0
    4.6599  -13.1402   -0.7197 H   0  0  0  0  0  0  0  0  0  0  0  0
    4.3857  -11.3843   -0.8620 H   0  0  0  0  0  0  0  0  0  0  0  0
    2.0250  -11.1241   -3.7040 H   0  0  0  0  0  0  0  0  0  0  0  0
    2.0874   -9.3400   -3.8266 H   0  0  0  0  0  0  0  0  0  0  0  0
    2.5376  -10.1461   -2.2964 H   0  0  0  0  0  0  0  0  0  0  0  0
    5.1438  -12.1965    1.1240 H   0  0  0  0  0  0  0  0  0  0  0  0
    6.2469  -12.1751    3.2821 H   0  0  0  0  0  0  0  0  0  0  0  0
    9.3924  -10.6098   10.2884 H   0  0  0  0  0  0  0  0  0  0  0  0
    2.4565  -11.4592   10.4923 H   0  0  0  0  0  0  0  0  0  0  0  0
    4.0407  -12.6903    8.3017 H   0  0  0  0  0  0  0  0  0  0  0  0
    2.3113  -12.9747    8.6247 H   0  0  0  0  0  0  0  0  0  0  0  0
    3.5601  -13.6944    9.6916 H   0  0  0  0  0  0  0  0  0  0  0  0
    3.4192   -9.6204   11.7073 H   0  0  0  0  0  0  0  0  0  0  0  0
    7.3364   -8.6059   10.7861 H   0  0  0  0  0  0  0  0  0  0  0  0
    3.2969  -10.7096    7.3229 H   0  0  0  0  0  0  0  0  0  0  0  0
    1.2139  -10.7382    5.8739 H   0  0  0  0  0  0  0  0  0  0  0  0
    1.3830  -10.2370    3.4843 H   0  0  0  0  0  0  0  0  0  0  0  0
    2.3546  -12.0667    2.2453 H   0  0  0  0  0  0  0  0  0  0  0  0
    1.5230  -13.3513    0.2924 H   0  0  0  0  0  0  0  0  0  0  0  0
    1.8839  -11.9045   -0.8084 H   0  0  0  0  0  0  0  0  0  0  0  0
   -1.0933   -9.5469    0.5850 H   0  0  0  0  0  0  0  0  0  0  0  0
    0.3497  -10.1981    1.4037 H   0  0  0  0  0  0  0  0  0  0  0  0
   -1.3232   -9.3093    4.0400 H   0  0  0  0  0  0  0  0  0  0  0  0
   -3.6481   -6.8170    3.7304 H   0  0  0  0  0  0  0  0  0  0  0  0
   -2.0798   -6.2845    3.0968 H   0  0  0  0  0  0  0  0  0  0  0  0
   -2.1336   -7.2761    4.5819 H   0  0  0  0  0  0  0  0  0  0  0  0
   -0.5654  -12.8347    1.9482 H   0  0  0  0  0  0  0  0  0  0  0  0
   -0.3793  -13.8742    4.7254 H   0  0  0  0  0  0  0  0  0  0  0  0
    1.1654  -13.2276    4.1296 H   0  0  0  0  0  0  0  0  0  0  0  0
    0.3653  -14.5682    3.2543 H   0  0  0  0  0  0  0  0  0  0  0  0
  1  2  2  0  0  0  0
  2 45  1  0  0  0  0
  2  3  1  0  0  0  0
  3  4  1  0  0  0  0
  4 44  2  0  0  0  0
  4  5  1  0  0  0  0
  5  6  2  0  0  0  0
  6 42  1  0  0  0  0
  6  7  1  0  0  0  0
  8  7  1  0  0  0  0
  8 28  1  0  0  0  0
  9  8  2  0  0  0  0
 10  9  1  0  0  0  0
 10 27  2  0  0  0  0
 11 10  1  0  0  0  0
 12 11  1  0  0  0  0
 13 62  1  0  0  0  0
 13 12  2  0  0  0  0
 14 13  1  0  0  0  0
 15 14  2  0  0  0  0
 15 25  1  0  0  0  0
 16 21  1  0  0  0  0
 16 15  1  0  0  0  0
 17 65  1  0  0  0  0
 17 16  1  0  0  0  0
 18 19  1  0  0  0  0
 18 17  1  0  0  0  0
 19 20  1  0  0  0  0
 20 69  1  0  0  0  0
 20 21  1  0  0  0  0
 21 71  1  0  0  0  0
 21 70  1  0  0  0  0
 22 19  1  0  0  0  0
 22 23  1  0  0  0  0
 23 74  1  0  0  0  0
 24 22  2  0  0  0  0
 25 26  2  0  0  0  0
 26 12  1  0  0  0  0
 26 76  1  0  0  0  0
 27 29  1  0  0  0  0
 28 33  1  0  0  0  0
 29 28  2  0  0  0  0
 29 30  1  0  0  0  0
 30 31  1  0  0  0  0
 30 32  1  0  0  0  0
 32 77  1  0  0  0  0
 33 32  2  0  0  0  0
 33 34  1  0  0  0  0
 34 41  1  0  0  0  0
 35 34  2  0  0  0  0
 35 36  1  0  0  0  0
 36 39  2  0  0  0  0
 37 36  1  0  0  0  0
 37 78  1  0  0  0  0
 38 81  1  0  0  0  0
 38 37  1  0  0  0  0
 39 40  1  0  0  0  0
 39 82  1  0  0  0  0
 41 83  1  0  0  0  0
 41 40  2  0  0  0  0
 42 84  1  0  0  0  0
 43 85  1  0  0  0  0
 43 42  2  0  0  0  0
 44 43  1  0  0  0  0
 45 87  1  0  0  0  0
 46 88  1  0  0  0  0
 46 45  1  0  0  0  0
 47 48  1  0  0  0  0
 48 91  1  0  0  0  0
 48 49  1  0  0  0  0
 49 50  1  6  0  0  0
 49 51  1  0  0  0  0
 49 55  1  0  0  0  0
 51 92  1  0  0  0  0
 52 51  1  0  0  0  0
 52 53  1  0  0  0  0
 53 93  1  0  0  0  0
 53 95  1  0  0  0  0
 54 52  2  0  0  0  0
 55 58  2  0  0  0  0
 56 55  1  0  0  0  0
 56 57  1  0  0  0  0
 57 98  1  0  0  0  0
 57 97  1  0  0  0  0
 59  3  1  0  0  0  0
 60  5  1  0  0  0  0
 61 11  1  0  0  0  0
 63 14  1  0  0  0  0
 64 17  1  0  0  0  0
 66 18  1  0  0  0  0
 67 18  1  0  0  0  0
 68 20  1  0  0  0  0
 72 23  1  0  0  0  0
 73 23  1  0  0  0  0
 75 25  1  0  0  0  0
 79 38  1  0  0  0  0
 80 38  1  0  0  0  0
 86 44  1  0  0  0  0
 89 46  1  0  0  0  0
 90 48  1  0  0  0  0
 94 53  1  0  0  0  0
 96 56  1  0  0  0  0
 99 57  1  0  0  0  0
M  END
