-1 1
 OpenBabel05232413493D

 99103  0  0  1  0  0  0  0  0999 V2000
   -0.9000    1.0464   -3.4759 O   0  0  0  0  0  0  0  0  0  0  0  0
   -1.0110    0.5390   -2.3647 C   0  0  0  0  0  0  0  0  0  0  0  0
   -0.4296    1.1902   -1.2881 N   0  0  0  0  0  0  0  0  0  0  0  0
   -0.5397    0.9129    0.0856 C   0  0  0  0  0  0  0  0  0  0  0  0
    0.6201    0.8959    0.8742 C   0  0  0  0  0  0  0  0  0  0  0  0
    0.5061    0.6259    2.2361 C   0  0  0  0  0  0  0  0  0  0  0  0
    1.5658    0.6268    3.1227 O   0  0  0  0  0  0  0  0  0  0  0  0
    2.7959    0.1690    2.9063 C   0  0  0  0  0  0  0  0  0  0  0  0
    3.2109   -0.1767    1.7080 N   0  0  0  0  0  0  0  0  0  0  0  0
    4.4960   -0.5450    1.5400 C   0  0  0  0  0  0  0  0  0  0  0  0
    4.9056   -0.9408    0.2987 N   0  0  0  0  0  0  0  0  0  0  0  0
    4.2104   -1.0007   -0.9233 C   0  0  0  0  0  0  0  0  0  0  0  0
    4.9539   -0.9067   -2.1080 C   0  0  0  0  0  0  0  0  0  0  0  0
    4.3431   -0.9806   -3.3515 C   0  0  0  0  0  0  0  0  0  0  0  0
    2.9483   -1.1240   -3.4773 C   0  0  0  0  0  0  0  0  0  0  0  0
    2.3415   -1.1736   -4.7434 N   0  0  0  0  0  0  0  0  0  0  0  0
    2.7551   -0.1349   -5.6865 C   0  0  0  0  0  0  0  0  0  0  0  0
    2.1901   -0.3809   -7.0810 C   0  0  0  0  0  0  0  0  0  0  0  0
    0.7495   -0.5120   -7.0140 N   0  0  0  0  0  0  0  0  0  0  0  0
    0.3591   -1.6053   -6.1479 C   0  0  0  0  0  0  0  0  0  0  0  0
    0.9008   -1.3999   -4.7419 C   0  0  0  0  0  0  0  0  0  0  0  0
   -0.0265    0.5934   -7.2969 C   0  0  0  0  0  0  0  0  0  0  0  0
   -1.4725    0.5559   -6.8593 C   0  0  0  0  0  0  0  0  0  0  0  0
    0.4498    1.5643   -7.8582 O   0  0  0  0  0  0  0  0  0  0  0  0
    2.2141   -1.2258   -2.2825 C   0  0  0  0  0  0  0  0  0  0  0  0
    2.8301   -1.1844   -1.0339 C   0  0  0  0  0  0  0  0  0  0  0  0
    5.4459   -0.5432    2.4786 N   0  0  0  0  0  0  0  0  0  0  0  0
    3.6605    0.1016    4.0165 C   0  0  0  0  0  0  0  0  0  0  0  0
    4.9890   -0.2187    3.6855 C   0  0  0  0  0  0  0  0  0  0  0  0
    5.7260   -0.1409    4.8323 N   0  0  0  0  0  0  0  0  0  0  0  0
    6.7132   -0.3446    4.8861 H   0  0  0  0  0  0  0  0  0  0  0  0
    4.8966    0.1940    5.8878 C   0  0  0  0  0  0  0  0  0  0  0  0
    3.6109    0.3450    5.4360 C   0  0  0  0  0  0  0  0  0  0  0  0
    2.4057    0.5867    6.2466 C   0  0  0  0  0  0  0  0  0  0  0  0
    1.3516   -0.1983    5.9997 N   0  0  0  0  0  0  0  0  0  0  0  0
    0.2384    0.0105    6.6918 C   0  0  0  0  0  0  0  0  0  0  0  0
   -0.8598   -0.7505    6.4095 N   0  0  0  0  0  0  0  0  0  0  0  0
   -0.8105   -1.9416    5.5941 C   0  0  0  0  0  0  0  0  0  0  0  0
    0.1988    1.0154    7.6955 C   0  0  0  0  0  0  0  0  0  0  0  0
    1.2459    1.7690    7.9549 N   0  0  0  0  0  0  0  0  0  0  0  0
    2.3532    1.5745    7.2319 C   0  0  0  0  0  0  0  0  0  0  0  0
   -0.7359    0.3873    2.8252 C   0  0  0  0  0  0  0  0  0  0  0  0
   -1.8786    0.4036    2.0317 C   0  0  0  0  0  0  0  0  0  0  0  0
   -1.7876    0.6782    0.6706 C   0  0  0  0  0  0  0  0  0  0  0  0
   -1.6185   -0.7768   -2.1205 C   0  0  0  0  0  0  0  0  0  0  0  0
   -2.1802   -1.4771   -3.1299 C   0  0  0  0  0  0  0  0  0  0  0  0
   -4.9956   -1.0483   -3.3109 S   0  0  0  0  0  1  0  0  0  0  0  0
   -4.8594    0.4125   -2.2373 C   0  0  0  0  0  0  0  0  0  0  0  0
   -5.6231    0.3224   -0.8969 C   0  0  2  0  0  0  0  0  0  0  0  0
   -6.6467   -0.0259   -1.1246 H   0  0  0  0  0  0  0  0  0  0  0  0
   -5.6842    1.5962   -0.2101 N   0  0  0  0  0  0  0  0  0  0  0  0
   -6.4887    2.6197   -0.5793 C   0  0  0  0  0  0  0  0  0  0  0  0
   -6.4399    3.8320    0.3402 C   0  0  0  0  0  0  0  0  0  0  0  0
   -7.1869    2.6138   -1.5771 O   0  0  0  0  0  0  0  0  0  0  0  0
   -4.9917   -0.6496    0.1145 C   0  0  0  0  0  0  0  0  0  0  0  0
   -4.6143   -1.8354   -0.3725 N   0  0  0  0  0  0  0  0  0  0  0  0
   -3.8991   -2.7800    0.4415 C   0  0  0  0  0  0  0  0  0  0  0  0
   -4.8346   -0.3246    1.2947 O   0  0  0  0  0  0  0  0  0  0  0  0
    0.1738    1.9536   -1.5717 H   0  0  0  0  0  0  0  0  0  0  0  0
    1.5934    1.0593    0.4175 H   0  0  0  0  0  0  0  0  0  0  0  0
    5.9012   -1.1154    0.2596 H   0  0  0  0  0  0  0  0  0  0  0  0
    6.0388   -0.7763   -2.0545 H   0  0  0  0  0  0  0  0  0  0  0  0
    4.9691   -0.9288   -4.2434 H   0  0  0  0  0  0  0  0  0  0  0  0
    3.8506   -0.1033   -5.7505 H   0  0  0  0  0  0  0  0  0  0  0  0
    2.4123    0.8624   -5.3408 H   0  0  0  0  0  0  0  0  0  0  0  0
    2.6187   -1.3065   -7.5026 H   0  0  0  0  0  0  0  0  0  0  0  0
    2.4295    0.4620   -7.7395 H   0  0  0  0  0  0  0  0  0  0  0  0
    0.7551   -2.5431   -6.5760 H   0  0  0  0  0  0  0  0  0  0  0  0
   -0.7312   -1.6999   -6.1002 H   0  0  0  0  0  0  0  0  0  0  0  0
    0.6791   -2.2956   -4.1439 H   0  0  0  0  0  0  0  0  0  0  0  0
    0.3592   -0.5479   -4.2927 H   0  0  0  0  0  0  0  0  0  0  0  0
   -1.9958   -0.3587   -7.1715 H   0  0  0  0  0  0  0  0  0  0  0  0
   -1.9757    1.4259   -7.2945 H   0  0  0  0  0  0  0  0  0  0  0  0
   -1.5256    0.6328   -5.7597 H   0  0  0  0  0  0  0  0  0  0  0  0
    1.1297   -1.3318   -2.3022 H   0  0  0  0  0  0  0  0  0  0  0  0
    2.2195   -1.2680   -0.1378 H   0  0  0  0  0  0  0  0  0  0  0  0
    5.2797    0.2553    6.9038 H   0  0  0  0  0  0  0  0  0  0  0  0
   -1.6624   -0.6247    7.0095 H   0  0  0  0  0  0  0  0  0  0  0  0
   -0.0490   -1.8120    4.8159 H   0  0  0  0  0  0  0  0  0  0  0  0
   -1.7834   -2.1001    5.1084 H   0  0  0  0  0  0  0  0  0  0  0  0
   -0.5507   -2.8432    6.1781 H   0  0  0  0  0  0  0  0  0  0  0  0
   -0.7142    1.1841    8.2794 H   0  0  0  0  0  0  0  0  0  0  0  0
    3.2111    2.2247    7.4245 H   0  0  0  0  0  0  0  0  0  0  0  0
   -0.7860    0.2100    3.8999 H   0  0  0  0  0  0  0  0  0  0  0  0
   -2.8670    0.2039    2.4499 H   0  0  0  0  0  0  0  0  0  0  0  0
   -2.6897    0.7262    0.0610 H   0  0  0  0  0  0  0  0  0  0  0  0
   -1.5911   -1.1921   -1.1119 H   0  0  0  0  0  0  0  0  0  0  0  0
   -2.5221   -2.5005   -2.9902 H   0  0  0  0  0  0  0  0  0  0  0  0
   -2.1940   -1.0756   -4.1432 H   0  0  0  0  0  0  0  0  0  0  0  0
   -5.2596    1.2897   -2.7630 H   0  0  0  0  0  0  0  0  0  0  0  0
   -3.7922    0.6173   -2.0168 H   0  0  0  0  0  0  0  0  0  0  0  0
   -5.2887    1.5670    0.7259 H   0  0  0  0  0  0  0  0  0  0  0  0
   -7.4692    4.1440    0.5642 H   0  0  0  0  0  0  0  0  0  0  0  0
   -5.9552    4.6580   -0.2008 H   0  0  0  0  0  0  0  0  0  0  0  0
   -5.8945    3.6553    1.2778 H   0  0  0  0  0  0  0  0  0  0  0  0
   -4.7024   -1.9528   -1.4060 H   0  0  0  0  0  0  0  0  0  0  0  0
   -4.4703   -3.0399    1.3468 H   0  0  0  0  0  0  0  0  0  0  0  0
   -2.9238   -2.3812    0.7729 H   0  0  0  0  0  0  0  0  0  0  0  0
   -3.7255   -3.6941   -0.1421 H   0  0  0  0  0  0  0  0  0  0  0  0
  1  2  2  0  0  0  0
  2 45  1  0  0  0  0
  2  3  1  0  0  0  0
  3  4  1  0  0  0  0
  4 44  2  0  0  0  0
  4  5  1  0  0  0  0
  5  6  2  0  0  0  0
  6 42  1  0  0  0  0
  6  7  1  0  0  0  0
  8  7  1  0  0  0  0
  8 28  1  0  0  0  0
  9  8  2  0  0  0  0
 10  9  1  0  0  0  0
 10 27  2  0  0  0  0
 11 10  1  0  0  0  0
 12 11  1  0  0  0  0
 13 62  1  0  0  0  0
 13 12  2  0  0  0  0
 14 13  1  0  0  0  0
 15 14  2  0  0  0  0
 15 25  1  0  0  0  0
 16 21  1  0  0  0  0
 16 15  1  0  0  0  0
 17 65  1  0  0  0  0
 17 16  1  0  0  0  0
 18 19  1  0  0  0  0
 18 17  1  0  0  0  0
 19 20  1  0  0  0  0
 20 69  1  0  0  0  0
 20 21  1  0  0  0  0
 21 71  1  0  0  0  0
 21 70  1  0  0  0  0
 22 19  1  0  0  0  0
 22 23  1  0  0  0  0
 23 74  1  0  0  0  0
 24 22  2  0  0  0  0
 25 26  2  0  0  0  0
 26 12  1  0  0  0  0
 26 76  1  0  0  0  0
 27 29  1  0  0  0  0
 28 33  1  0  0  0  0
 29 28  2  0  0  0  0
 29 30  1  0  0  0  0
 30 31  1  0  0  0  0
 30 32  1  0  0  0  0
 32 77  1  0  0  0  0
 33 32  2  0  0  0  0
 33 34  1  0  0  0  0
 34 41  1  0  0  0  0
 35 34  2  0  0  0  0
 35 36  1  0  0  0  0
 36 39  2  0  0  0  0
 37 36  1  0  0  0  0
 37 78  1  0  0  0  0
 38 81  1  0  0  0  0
 38 37  1  0  0  0  0
 39 40  1  0  0  0  0
 39 82  1  0  0  0  0
 41 83  1  0  0  0  0
 41 40  2  0  0  0  0
 42 84  1  0  0  0  0
 43 85  1  0  0  0  0
 43 42  2  0  0  0  0
 44 43  1  0  0  0  0
 45 87  1  0  0  0  0
 46 88  1  0  0  0  0
 46 45  2  0  0  0  0
 47 48  1  0  0  0  0
 48 91  1  0  0  0  0
 48 49  1  0  0  0  0
 49 50  1  6  0  0  0
 49 51  1  0  0  0  0
 49 55  1  0  0  0  0
 51 92  1  0  0  0  0
 52 51  1  0  0  0  0
 52 53  1  0  0  0  0
 53 93  1  0  0  0  0
 53 95  1  0  0  0  0
 54 52  2  0  0  0  0
 55 58  2  0  0  0  0
 56 55  1  0  0  0  0
 56 57  1  0  0  0  0
 57 98  1  0  0  0  0
 57 97  1  0  0  0  0
 59  3  1  0  0  0  0
 60  5  1  0  0  0  0
 61 11  1  0  0  0  0
 63 14  1  0  0  0  0
 64 17  1  0  0  0  0
 66 18  1  0  0  0  0
 67 18  1  0  0  0  0
 68 20  1  0  0  0  0
 72 23  1  0  0  0  0
 73 23  1  0  0  0  0
 75 25  1  0  0  0  0
 79 38  1  0  0  0  0
 80 38  1  0  0  0  0
 86 44  1  0  0  0  0
 89 46  1  0  0  0  0
 90 48  1  0  0  0  0
 94 53  1  0  0  0  0
 96 56  1  0  0  0  0
 99 57  1  0  0  0  0
M  END
