99
-1 1
O        -0.899969    1.046384   -3.475881
C        -1.010979    0.538953   -2.364699
N        -0.429620    1.190224   -1.288086
C        -0.539670    0.912915    0.085584
C         0.620146    0.895850    0.874222
C         0.506051    0.625935    2.236080
O         1.565809    0.626829    3.122718
C         2.795949    0.169033    2.906342
N         3.210854   -0.176722    1.708016
C         4.495978   -0.544966    1.540029
N         4.905609   -0.940815    0.298667
C         4.210394   -1.000747   -0.923331
C         4.953870   -0.906652   -2.107982
C         4.343105   -0.980620   -3.351496
C         2.948312   -1.124013   -3.477288
N         2.341452   -1.173576   -4.743445
C         2.755071   -0.134933   -5.686505
C         2.190083   -0.380923   -7.081009
N         0.749545   -0.511990   -7.013978
C         0.359078   -1.605260   -6.147945
C         0.900839   -1.399934   -4.741907
C        -0.026483    0.593444   -7.296936
C        -1.472453    0.555940   -6.859255
O         0.449805    1.564347   -7.858250
C         2.214057   -1.225781   -2.282542
C         2.830055   -1.184449   -1.033872
N         5.445869   -0.543194    2.478619
C         3.660539    0.101596    4.016489
C         4.988963   -0.218670    3.685492
N         5.725974   -0.140851    4.832288
H         6.713238   -0.344585    4.886078
C         4.896585    0.193990    5.887838
C         3.610888    0.345013    5.435962
C         2.405741    0.586677    6.246569
N         1.351561   -0.198326    5.999707
C         0.238419    0.010525    6.691806
N        -0.859770   -0.750488    6.409510
C        -0.810543   -1.941636    5.594085
C         0.198820    1.015385    7.695501
N         1.245856    1.769038    7.954885
C         2.353249    1.574544    7.231920
C        -0.735911    0.387265    2.825188
C        -1.878552    0.403618    2.031686
C        -1.787648    0.678221    0.670564
C        -1.618503   -0.776836   -2.120473
C        -2.180208   -1.477061   -3.129870
S        -4.995633   -1.048312   -3.310936
C        -4.859448    0.412517   -2.237297
C        -5.623086    0.322386   -0.896942
H        -6.646721   -0.025882   -1.124573
N        -5.684200    1.596183   -0.210051
C        -6.488686    2.619685   -0.579307
C        -6.439942    3.832025    0.340190
O        -7.186946    2.613757   -1.577053
C        -4.991750   -0.649583    0.114540
N        -4.614333   -1.835354   -0.372472
C        -3.899092   -2.779953    0.441460
O        -4.834580   -0.324644    1.294694
H         0.173757    1.953640   -1.571750
H         1.593441    1.059308    0.417455
H         5.901158   -1.115380    0.259634
H         6.038830   -0.776297   -2.054466
H         4.969085   -0.928771   -4.243405
H         3.850576   -0.103277   -5.750527
H         2.412313    0.862426   -5.340822
H         2.618682   -1.306511   -7.502563
H         2.429510    0.461957   -7.739526
H         0.755136   -2.543072   -6.575959
H        -0.731171   -1.699854   -6.100207
H         0.679149   -2.295589   -4.143928
H         0.359229   -0.547907   -4.292747
H        -1.995782   -0.358736   -7.171457
H        -1.975695    1.425945   -7.294520
H        -1.525587    0.632758   -5.759724
H         1.129654   -1.331800   -2.302167
H         2.219536   -1.268036   -0.137756
H         5.279673    0.255263    6.903757
H        -1.662354   -0.624718    7.009527
H        -0.049047   -1.812047    4.815918
H        -1.783414   -2.100134    5.108448
H        -0.550750   -2.843235    6.178055
H        -0.714168    1.184077    8.279398
H         3.211107    2.224689    7.424487
H        -0.786021    0.209953    3.899877
H        -2.866969    0.203921    2.449913
H        -2.689652    0.726173    0.061006
H        -1.591149   -1.192103   -1.111910
H        -2.522145   -2.500503   -2.990221
H        -2.194048   -1.075567   -4.143164
H        -5.259591    1.289681   -2.763026
H        -3.792155    0.617295   -2.016787
H        -5.288730    1.567007    0.725940
H        -7.469201    4.144019    0.564159
H        -5.955217    4.658034   -0.200761
H        -5.894522    3.655338    1.277780
H        -4.702410   -1.952784   -1.405962
H        -4.470304   -3.039921    1.346786
H        -2.923816   -2.381201    0.772875
H        -3.725515   -3.694130   -0.142061
