-1 1
 OpenBabel05232413493D

102106  0  0  1  0  0  0  0  0999 V2000
   -3.9410    0.5037   -0.5889 O   0  0  0  0  0  0  0  0  0  0  0  0
   -4.2808    1.6846   -0.5977 C   0  0  0  0  0  0  0  0  0  0  0  0
   -3.3984    2.6614   -0.9883 N   0  0  0  0  0  0  0  0  0  0  0  0
   -3.4349    4.0471   -0.5488 C   0  0  0  0  0  0  0  0  0  0  0  0
   -2.3755    4.2905    0.5329 C   0  0  0  0  0  0  0  0  0  0  0  0
   -0.9829    3.8337    0.0896 C   0  0  0  0  0  0  0  0  0  0  0  0
   -1.0344    2.3992   -0.4163 C   0  0  1  0  0  0  0  0  0  0  0  0
   -1.2503    1.7082    0.4152 H   0  0  0  0  0  0  0  0  0  0  0  0
   -2.1047    2.2484   -1.4961 C   0  0  0  0  0  0  0  0  0  0  0  0
    0.1879    2.0192   -1.0364 O   0  0  0  0  0  0  0  0  0  0  0  0
    1.0368    1.1806   -0.4565 C   0  0  0  0  0  0  0  0  0  0  0  0
    1.2880    1.2703    0.8337 N   0  0  0  0  0  0  0  0  0  0  0  0
    2.1855    0.4140    1.3762 C   0  0  0  0  0  0  0  0  0  0  0  0
    2.3750    0.6299    2.7229 N   0  0  0  0  0  0  0  0  0  0  0  0
    3.1869    0.0003    3.6632 C   0  0  0  0  0  0  0  0  0  0  0  0
    3.1368    0.4673    4.9843 C   0  0  0  0  0  0  0  0  0  0  0  0
    3.9230   -0.0948    5.9856 C   0  0  0  0  0  0  0  0  0  0  0  0
    4.7807   -1.1664    5.7091 C   0  0  0  0  0  0  0  0  0  0  0  0
    5.5831   -1.7859    6.6987 N   0  0  0  0  0  0  0  0  0  0  0  0
    5.2469   -1.5440    8.0867 C   0  0  0  0  0  0  0  0  0  0  0  0
    5.9407   -2.5607    8.9850 C   0  0  0  0  0  0  0  0  0  0  0  0
    7.3725   -2.5598    8.7476 N   0  0  0  0  0  0  0  0  0  0  0  0
    7.7298   -2.7615    7.3580 C   0  0  0  0  0  0  0  0  0  0  0  0
    7.0173   -1.7446    6.4739 C   0  0  0  0  0  0  0  0  0  0  0  0
    8.2397   -2.3723    9.7918 C   0  0  0  0  0  0  0  0  0  0  0  0
    9.7241   -2.3763    9.4699 C   0  0  0  0  0  0  0  0  0  0  0  0
    7.8491   -2.2072   10.9325 O   0  0  0  0  0  0  0  0  0  0  0  0
    4.8140   -1.6402    4.3901 C   0  0  0  0  0  0  0  0  0  0  0  0
    4.0493   -1.0721    3.3793 C   0  0  0  0  0  0  0  0  0  0  0  0
    2.8429   -0.5464    0.7462 N   0  0  0  0  0  0  0  0  0  0  0  0
    1.6601    0.2044   -1.2580 C   0  0  0  0  0  0  0  0  0  0  0  0
    2.5363   -0.6383   -0.5537 C   0  0  0  0  0  0  0  0  0  0  0  0
    2.9471   -1.6102   -1.4122 N   0  0  0  0  0  0  0  0  0  0  0  0
    3.5577   -2.3731   -1.1588 H   0  0  0  0  0  0  0  0  0  0  0  0
    2.3133   -1.4382   -2.6331 C   0  0  0  0  0  0  0  0  0  0  0  0
    1.5142   -0.3269   -2.5931 C   0  0  0  0  0  0  0  0  0  0  0  0
    0.5756    0.1325   -3.6375 C   0  0  0  0  0  0  0  0  0  0  0  0
   -0.1350   -0.8106   -4.2763 N   0  0  0  0  0  0  0  0  0  0  0  0
   -1.1013   -0.4007   -5.1029 C   0  0  0  0  0  0  0  0  0  0  0  0
   -1.8449   -1.2885   -5.7917 N   0  0  0  0  0  0  0  0  0  0  0  0
   -1.7053   -2.7174   -5.7020 C   0  0  0  0  0  0  0  0  0  0  0  0
   -1.3648    1.0010   -5.2556 C   0  0  0  0  0  0  0  0  0  0  0  0
   -0.6105    1.9081   -4.6833 N   0  0  0  0  0  0  0  0  0  0  0  0
    0.3850    1.4853   -3.8869 C   0  0  0  0  0  0  0  0  0  0  0  0
   -5.6769    2.0520   -0.2507 C   0  0  0  0  0  0  0  0  0  0  0  0
   -6.4378    2.8834   -0.9747 C   0  0  0  0  0  0  0  0  0  0  0  0
   -7.8158    1.3865   -3.4072 S   0  0  0  0  0  1  0  0  0  0  0  0
   -6.5772    0.0825   -3.1184 C   0  0  0  0  0  0  0  0  0  0  0  0
   -5.4122    0.0864   -4.1455 C   0  0  2  0  0  0  0  0  0  0  0  0
   -4.7478    0.9442   -3.9283 H   0  0  0  0  0  0  0  0  0  0  0  0
   -5.9825    0.2316   -5.4587 N   0  0  0  0  0  0  0  0  0  0  0  0
   -5.3058    0.3105   -6.6063 C   0  0  0  0  0  0  0  0  0  0  0  0
   -6.1519    0.5530   -7.8415 C   0  0  0  0  0  0  0  0  0  0  0  0
   -4.0843    0.1860   -6.7135 O   0  0  0  0  0  0  0  0  0  0  0  0
   -4.5974   -1.2055   -4.0126 C   0  0  0  0  0  0  0  0  0  0  0  0
   -3.7696   -1.2040   -2.9378 N   0  0  0  0  0  0  0  0  0  0  0  0
   -2.9868   -2.3468   -2.5449 C   0  0  0  0  0  0  0  0  0  0  0  0
   -4.7121   -2.1493   -4.7781 O   0  0  0  0  0  0  0  0  0  0  0  0
   -4.4326    4.2837   -0.1655 H   0  0  0  0  0  0  0  0  0  0  0  0
   -3.2469    4.7005   -1.4190 H   0  0  0  0  0  0  0  0  0  0  0  0
   -2.6742    3.7372    1.4400 H   0  0  0  0  0  0  0  0  0  0  0  0
   -2.3592    5.3589    0.8003 H   0  0  0  0  0  0  0  0  0  0  0  0
   -0.2538    3.9130    0.9098 H   0  0  0  0  0  0  0  0  0  0  0  0
   -0.6222    4.4697   -0.7372 H   0  0  0  0  0  0  0  0  0  0  0  0
   -2.1566    1.2089   -1.8357 H   0  0  0  0  0  0  0  0  0  0  0  0
   -1.8346    2.8724   -2.3645 H   0  0  0  0  0  0  0  0  0  0  0  0
    1.7996    1.3892    3.0627 H   0  0  0  0  0  0  0  0  0  0  0  0
    2.4726    1.2992    5.2351 H   0  0  0  0  0  0  0  0  0  0  0  0
    3.8592    0.3217    6.9917 H   0  0  0  0  0  0  0  0  0  0  0  0
    4.1586   -1.6383    8.2136 H   0  0  0  0  0  0  0  0  0  0  0  0
    5.5374   -0.5213    8.4154 H   0  0  0  0  0  0  0  0  0  0  0  0
    5.5354   -3.5664    8.7730 H   0  0  0  0  0  0  0  0  0  0  0  0
    5.7755   -2.3301   10.0436 H   0  0  0  0  0  0  0  0  0  0  0  0
    7.4305   -3.7788    7.0452 H   0  0  0  0  0  0  0  0  0  0  0  0
    8.8131   -2.6731    7.2196 H   0  0  0  0  0  0  0  0  0  0  0  0
    7.2347   -1.9663    5.4207 H   0  0  0  0  0  0  0  0  0  0  0  0
    7.4262   -0.7319    6.6901 H   0  0  0  0  0  0  0  0  0  0  0  0
   10.0407   -3.3254    9.0123 H   0  0  0  0  0  0  0  0  0  0  0  0
   10.2617   -2.2368   10.4140 H   0  0  0  0  0  0  0  0  0  0  0  0
    9.9916   -1.5598    8.7826 H   0  0  0  0  0  0  0  0  0  0  0  0
    5.4468   -2.4979    4.1493 H   0  0  0  0  0  0  0  0  0  0  0  0
    4.0904   -1.4585    2.3641 H   0  0  0  0  0  0  0  0  0  0  0  0
    2.4577   -2.1404   -3.4497 H   0  0  0  0  0  0  0  0  0  0  0  0
   -2.6980   -0.9106   -6.2167 H   0  0  0  0  0  0  0  0  0  0  0  0
   -1.2430   -3.1406   -6.6128 H   0  0  0  0  0  0  0  0  0  0  0  0
   -2.7002   -3.1634   -5.5610 H   0  0  0  0  0  0  0  0  0  0  0  0
   -1.0674   -2.9753   -4.8469 H   0  0  0  0  0  0  0  0  0  0  0  0
   -2.2146    1.3172   -5.8679 H   0  0  0  0  0  0  0  0  0  0  0  0
    1.0028    2.2416   -3.4007 H   0  0  0  0  0  0  0  0  0  0  0  0
   -6.1217    1.4112    0.5152 H   0  0  0  0  0  0  0  0  0  0  0  0
   -6.0389    3.4538   -1.8163 H   0  0  0  0  0  0  0  0  0  0  0  0
   -7.5032    2.9962   -0.7748 H   0  0  0  0  0  0  0  0  0  0  0  0
   -7.0543   -0.9112   -3.1656 H   0  0  0  0  0  0  0  0  0  0  0  0
   -6.1371    0.1760   -2.1130 H   0  0  0  0  0  0  0  0  0  0  0  0
   -6.9484    0.5826   -5.4017 H   0  0  0  0  0  0  0  0  0  0  0  0
   -5.6769    1.3395   -8.4434 H   0  0  0  0  0  0  0  0  0  0  0  0
   -7.1873    0.8353   -7.6080 H   0  0  0  0  0  0  0  0  0  0  0  0
   -6.1585   -0.3690   -8.4417 H   0  0  0  0  0  0  0  0  0  0  0  0
   -3.8519   -0.4578   -2.2492 H   0  0  0  0  0  0  0  0  0  0  0  0
   -3.2994   -3.2125   -3.1434 H   0  0  0  0  0  0  0  0  0  0  0  0
   -3.1473   -2.5695   -1.4785 H   0  0  0  0  0  0  0  0  0  0  0  0
   -1.9095   -2.1748   -2.7100 H   0  0  0  0  0  0  0  0  0  0  0  0
  2  1  2  0  0  0  0
  2 45  1  0  0  0  0
  3  2  1  0  0  0  0
  3  4  1  0  0  0  0
  4 59  1  0  0  0  0
  4  5  1  0  0  0  0
  5 62  1  0  0  0  0
  5 61  1  0  0  0  0
  6  5  1  0  0  0  0
  6 63  1  0  0  0  0
  7  6  1  0  0  0  0
  7  8  1  1  0  0  0
  9  3  1  0  0  0  0
  9  7  1  0  0  0  0
 10 11  1  0  0  0  0
 10  7  1  0  0  0  0
 11 12  2  0  0  0  0
 12 13  1  0  0  0  0
 13 14  1  0  0  0  0
 14 67  1  0  0  0  0
 14 15  1  0  0  0  0
 15 16  1  0  0  0  0
 16 68  1  0  0  0  0
 16 17  2  0  0  0  0
 17 69  1  0  0  0  0
 18 17  1  0  0  0  0
 18 19  1  0  0  0  0
 19 20  1  0  0  0  0
 20 70  1  0  0  0  0
 20 71  1  0  0  0  0
 20 21  1  0  0  0  0
 21 73  1  0  0  0  0
 22 21  1  0  0  0  0
 22 25  1  0  0  0  0
 23 22  1  0  0  0  0
 24 77  1  0  0  0  0
 24 19  1  0  0  0  0
 24 23  1  0  0  0  0
 25 27  2  0  0  0  0
 26 25  1  0  0  0  0
 26 79  1  0  0  0  0
 28 18  2  0  0  0  0
 29 15  2  0  0  0  0
 29 28  1  0  0  0  0
 30 13  2  0  0  0  0
 31 32  2  0  0  0  0
 31 11  1  0  0  0  0
 32 30  1  0  0  0  0
 33 34  1  0  0  0  0
 33 32  1  0  0  0  0
 35 36  2  0  0  0  0
 35 33  1  0  0  0  0
 36 31  1  0  0  0  0
 37 36  1  0  0  0  0
 38 37  2  0  0  0  0
 39 38  1  0  0  0  0
 40 41  1  0  0  0  0
 40 39  1  0  0  0  0
 41 86  1  0  0  0  0
 41 87  1  0  0  0  0
 42 39  2  0  0  0  0
 42 43  1  0  0  0  0
 43 44  2  0  0  0  0
 44 37  1  0  0  0  0
 44 89  1  0  0  0  0
 45 90  1  0  0  0  0
 46 92  1  0  0  0  0
 46 45  2  0  0  0  0
 47 48  1  0  0  0  0
 48 94  1  0  0  0  0
 49 55  1  0  0  0  0
 49 50  1  1  0  0  0
 49 48  1  0  0  0  0
 51 95  1  0  0  0  0
 51 49  1  0  0  0  0
 52 51  1  0  0  0  0
 53 97  1  0  0  0  0
 53 52  1  0  0  0  0
 54 52  2  0  0  0  0
 55 56  1  0  0  0  0
 56 57  1  0  0  0  0
 56 99  1  0  0  0  0
 57101  1  0  0  0  0
 58 55  2  0  0  0  0
 60  4  1  0  0  0  0
 64  6  1  0  0  0  0
 65  9  1  0  0  0  0
 66  9  1  0  0  0  0
 72 21  1  0  0  0  0
 74 23  1  0  0  0  0
 75 23  1  0  0  0  0
 76 24  1  0  0  0  0
 78 26  1  0  0  0  0
 80 26  1  0  0  0  0
 81 28  1  0  0  0  0
 82 29  1  0  0  0  0
 83 35  1  0  0  0  0
 84 40  1  0  0  0  0
 85 41  1  0  0  0  0
 88 42  1  0  0  0  0
 91 46  1  0  0  0  0
 93 48  1  0  0  0  0
 96 53  1  0  0  0  0
 98 53  1  0  0  0  0
100 57  1  0  0  0  0
102 57  1  0  0  0  0
M  END
