102
-1 1
O         3.509601  -12.576257    7.575265
C         2.952609  -11.481252    7.362455
N         3.693879  -10.491991    6.682876
C         3.706670   -9.116287    7.159989
C         4.760325   -8.922642    8.258889
C         6.146538   -9.405351    7.820979
C         6.052283  -10.821570    7.273693
H         5.790588  -11.534277    8.070397
C         4.989867  -10.900673    6.177816
O         7.272375  -11.237243    6.657634
C         8.144660  -12.012267    7.273913
N         8.332555  -11.934665    8.576268
C         9.254671  -12.747028    9.144214
N         9.365503  -12.545675   10.503023
C        10.172966  -13.136239   11.469860
C        10.022300  -12.707700   12.796886
C        10.799936  -13.232878   13.824382
C        11.750405  -14.228546   13.568969
N        12.551982  -14.808724   14.584383
C        12.124511  -14.639047   15.957683
C        12.858481  -15.618621   16.865311
N        14.295194  -15.484927   16.706196
C        14.740717  -15.609151   15.332875
C        13.985823  -14.631698   14.439531
C        15.086832  -15.258369   17.800961
C        16.580481  -15.120792   17.560859
O        14.624992  -15.167634   18.923420
C        11.884149  -14.666470   12.244204
C        11.128265  -14.133504   11.208006
N         9.999544  -13.655721    8.534411
C         8.874116  -12.932853    6.491773
C         9.762092  -13.737350    7.217997
N        10.269894  -14.662358    6.357334
H        10.913536  -15.393600    6.621601
C         9.686592  -14.494487    5.109461
C         8.822647  -13.432765    5.141160
C         7.897010  -12.954310    4.092270
N         7.101004  -13.860259    3.505291
C         6.128971  -13.402280    2.712625
N         5.285354  -14.256747    2.089355
C         5.348889  -15.690655    2.197299
C         5.968271  -11.993243    2.518148
N         6.802648  -11.124955    3.040181
C         7.785274  -11.596164    3.820559
C         1.599283  -11.199109    7.744785
C         0.705756  -10.400558    7.020748
S        -0.444142  -11.598351    5.435712
C         0.714961  -12.980682    5.365961
C         1.816880  -12.851049    4.292438
H         2.489087  -12.018890    4.569293
N         1.184324  -12.572938    3.025235
C         1.806031  -12.424897    1.846993
C         0.903370  -12.086870    0.675185
O         3.013199  -12.563862    1.677727
C         2.634850  -14.152892    4.249038
N         3.524489  -14.256547    5.260950
C         4.350239  -15.419250    5.466849
O         2.451625  -15.013339    3.401320
H         2.716598   -8.855360    7.547183
H         3.922424   -8.447716    6.307157
H         4.434544   -9.492057    9.146325
H         4.802584   -7.861915    8.556029
H         6.865401   -9.371662    8.653805
H         6.537058   -8.755003    7.018262
H         4.939812  -11.921963    5.784315
H         5.281874  -10.239592    5.343929
H         8.718812  -11.837988   10.826379
H         9.283458  -11.936107   13.030785
H        10.654757  -12.848148   14.834758
H        11.043539  -14.830521   16.022793
H        12.306586  -13.605705   16.328406
H        12.556112  -16.648789   16.605032
H        12.619828  -15.436640   17.919488
H        14.550688  -16.638415   14.976610
H        15.817294  -15.420844   15.255691
H        14.276290  -14.798988   13.393863
H        14.289726  -13.594117   14.705458
H        17.004334  -16.022660   17.094675
H        17.053336  -14.965748   18.536711
H        16.809066  -14.261711   16.912505
H        12.592677  -15.467573   12.019044
H        11.246481  -14.490704   10.188095
H         9.919943  -15.162849    4.284858
H         4.407992  -13.838070    1.775575
H         5.670542  -16.155130    1.246901
H         4.356207  -16.077068    2.469197
H         6.072147  -15.969969    2.974065
H         5.125095  -11.629730    1.924847
H         8.462061  -10.873572    4.281461
H         1.198913  -11.903013    8.479531
H         1.105227   -9.663208    6.320985
H        -0.224461  -10.092046    7.502233
H         0.158743  -13.914255    5.187144
H         1.199216  -13.064993    6.353314
H         0.224150  -12.247945    3.119719
H         1.369601  -11.279027    0.095619
H        -0.111595  -11.791138    0.973697
H         0.839621  -12.971619    0.024660
H         3.512518  -13.572543    6.026602
H         3.960588  -16.251570    4.865881
H         4.335286  -15.703031    6.529885
H         5.395393  -15.228790    5.169702
