102
-1 1
O        -0.866420   -2.879769   14.844141
C        -0.583861   -1.678031   14.770997
N        -0.748030   -1.024142   13.511432
C        -1.524538    0.218167   13.496645
C        -1.412738    0.947430   12.162874
C        -1.788251    0.032784   11.006510
C        -0.997263   -1.263387   11.078921
C        -1.136467   -1.932968   12.441610
O        -3.174582   -0.337988   11.138454
C        -4.128372    0.407013   10.626905
N        -3.856774    1.403554    9.805550
C        -4.878880    2.067900    9.222087
N        -4.446177    3.100333    8.419549
C        -5.137591    4.043131    7.665016
C        -6.527933    4.069461    7.500678
C        -7.129687    5.065258    6.729990
C        -6.380012    6.050788    6.081378
N        -6.960182    7.065269    5.278167
C        -6.754423    8.428181    5.736269
C        -7.063626    9.421542    4.622421
N        -8.397308    9.197967    4.101502
C        -8.636340    7.829623    3.679880
C        -8.313928    6.856684    4.807355
C        -9.389153   10.134794    3.977286
C        -9.073874   11.545273    4.444407
O       -10.481589    9.860032    3.516119
C        -4.985328    6.005373    6.232689
C        -4.379994    5.034872    7.013702
N        -6.169555    1.806098    9.347534
C        -5.468547    0.085724   10.940151
C        -6.419798    0.812571   10.211503
N        -7.649134    0.327587   10.539813
H        -8.519308    0.688615   10.177762
C        -7.502714   -0.679969   11.478338
C        -6.173271   -0.860772   11.763393
C        -5.632675   -1.775012   12.793096
N        -4.861461   -1.246352   13.744325
C        -4.429440   -2.052441   14.721285
N        -3.721669   -1.496770   15.730402
C        -3.146315   -2.242988   16.822459
C        -4.758447   -3.438225   14.697522
N        -5.516969   -3.950391   13.749610
C        -5.968009   -3.131010   12.795844
C        -0.054154   -0.934786   15.880859
C         0.720805    0.224615   15.778468
S        -0.265604    2.234648   16.188948
C         1.123261    3.393130   15.971644
C         1.515801    3.666039   14.521851
H         0.602891    3.847826   13.930610
N         2.167987    2.492724   13.949190
C         2.046186    2.111267   12.657595
C         2.422882    0.677836   12.362078
O         1.615466    2.864382   11.788713
C         2.421072    4.905674   14.368252
N         2.616143    5.256618   13.070614
C         3.476552    6.341070   12.683640
O         2.898981    5.506005   15.314368
H        -1.192474    0.887319   14.299052
H        -2.596687   -0.006153   13.661913
H        -0.393185    1.321797   11.989775
H        -2.069750    1.830631   12.168413
H        -1.656424    0.537498   10.039929
H         0.060290   -1.021996   10.882478
H        -1.335630   -1.949599   10.286794
H        -0.507860   -2.829621   12.500622
H        -2.179162   -2.279888   12.575757
H        -3.438105    3.186002    8.436164
H        -7.128709    3.310851    7.996084
H        -8.217822    5.060123    6.648562
H        -5.712368    8.558279    6.057598
H        -7.401315    8.657218    6.612693
H        -6.324661    9.289140    3.810557
H        -6.963015   10.443567    5.004233
H        -7.997567    7.598023    2.808595
H        -9.686888    7.751368    3.377150
H        -8.408175    5.827135    4.432422
H        -9.064474    6.989651    5.617823
H        -8.221576   11.975900    3.898040
H        -8.839562   11.573052    5.519068
H        -9.964112   12.155818    4.258367
H        -4.364359    6.739016    5.713235
H        -3.290979    5.030201    7.113186
H        -8.369302   -1.172097   11.913337
H        -3.410106   -0.545694   15.575931
H        -3.930862   -2.748825   17.412038
H        -2.622782   -1.537971   17.479118
H        -2.404826   -2.975201   16.461768
H        -4.374596   -4.116116   15.463987
H        -6.588978   -3.557451   12.002598
H        -0.118418   -1.454282   16.839553
H         1.034597    0.487172   14.769320
H         1.473923    0.406314   16.551946
H         2.016181    3.042791   16.522197
H         0.855186    4.351180   16.436918
H         2.509063    1.811262   14.614535
H         3.282783    0.339585   12.958112
H         1.562833    0.032193   12.617520
H         2.643189    0.575576   11.292860
H         2.202846    4.647733   12.361737
H         2.942041    7.077748   12.061825
H         4.355093    5.986505   12.118224
H         3.825557    6.838516   13.598014
