-1 1
 OpenBabel05192410563D

102107  0  0  1  0  0  0  0  0999 V2000
    2.3725   -5.1959    3.7763 O   0  0  0  0  0  0  0  0  0  0  0  0
    2.7479   -4.0083    3.7447 C   0  0  0  0  0  0  0  0  0  0  0  0
    2.6698   -3.3338    2.4506 N   0  0  0  0  0  0  0  0  0  0  0  0
    1.8522   -2.1200    2.4256 C   0  0  0  0  0  0  0  0  0  0  0  0
    1.9538   -1.3865    1.0916 C   0  0  0  0  0  0  0  0  0  0  0  0
    1.6016   -2.3117   -0.0637 C   0  0  1  0  0  0  0  0  0  0  0  0
    2.4192   -3.5902    0.0161 C   0  0  0  0  0  0  0  0  0  0  0  0
    2.2942   -4.2523    1.3838 C   0  0  0  0  0  0  0  0  0  0  0  0
    0.2211   -2.7058    0.0690 O   0  0  0  0  0  0  0  0  0  0  0  0
   -0.7430   -1.9636   -0.4253 C   0  0  0  0  0  0  0  0  0  0  0  0
   -0.4856   -0.9703   -1.2569 N   0  0  0  0  0  0  0  0  0  0  0  0
   -1.5161   -0.3070   -1.8241 C   0  0  0  0  0  0  0  0  0  0  0  0
   -1.0958    0.7179   -2.6446 N   0  0  0  0  0  0  0  0  0  0  0  0
   -1.7980    1.6497   -3.4016 C   0  0  0  0  0  0  0  0  0  0  0  0
   -3.1918    1.6816   -3.5351 C   0  0  0  0  0  0  0  0  0  0  0  0
   -3.8050    2.6651   -4.3124 C   0  0  0  0  0  0  0  0  0  0  0  0
   -3.0647    3.6325   -4.9979 C   0  0  0  0  0  0  0  0  0  0  0  0
   -3.6570    4.6333   -5.8098 N   0  0  0  0  0  0  0  0  0  0  0  0
   -3.4387    6.0040   -5.3824 C   0  0  0  0  0  0  0  0  0  0  0  0
   -3.7654    6.9764   -6.5097 C   0  0  0  0  0  0  0  0  0  0  0  0
   -5.1091    6.7472   -7.0016 N   0  0  0  0  0  0  0  0  0  0  0  0
   -5.3608    5.3714   -7.3909 C   0  0  0  0  0  0  0  0  0  0  0  0
   -5.0203    4.4203   -6.2503 C   0  0  0  0  0  0  0  0  0  0  0  0
   -6.0987    7.6858   -7.1301 C   0  0  0  0  0  0  0  0  0  0  0  0
   -5.7695    9.1047   -6.6992 C   0  0  0  0  0  0  0  0  0  0  0  0
   -7.1998    7.4064   -7.5672 O   0  0  0  0  0  0  0  0  0  0  0  0
   -1.6673    3.5822   -4.8765 C   0  0  0  0  0  0  0  0  0  0  0  0
   -1.0500    2.6241   -4.0895 C   0  0  0  0  0  0  0  0  0  0  0  0
   -2.8046   -0.5616   -1.6698 N   0  0  0  0  0  0  0  0  0  0  0  0
   -2.0777   -2.2796   -0.0830 C   0  0  0  0  0  0  0  0  0  0  0  0
   -3.0405   -1.5498   -0.7953 C   0  0  0  0  0  0  0  0  0  0  0  0
   -4.2656   -2.0226   -0.4378 N   0  0  0  0  0  0  0  0  0  0  0  0
   -5.1404   -1.6571   -0.7837 H   0  0  0  0  0  0  0  0  0  0  0  0
   -4.1059   -3.0249    0.5038 C   0  0  0  0  0  0  0  0  0  0  0  0
   -2.7722   -3.2157    0.7622 C   0  0  0  0  0  0  0  0  0  0  0  0
   -2.2385   -4.1382    1.7897 C   0  0  0  0  0  0  0  0  0  0  0  0
   -1.4476   -3.6297    2.7362 N   0  0  0  0  0  0  0  0  0  0  0  0
   -1.0522   -4.4421    3.7251 C   0  0  0  0  0  0  0  0  0  0  0  0
   -0.3431   -3.9057    4.7436 N   0  0  0  0  0  0  0  0  0  0  0  0
    0.2280   -4.6897    5.8136 C   0  0  0  0  0  0  0  0  0  0  0  0
   -1.4347   -5.8156    3.7094 C   0  0  0  0  0  0  0  0  0  0  0  0
   -2.2065   -6.3090    2.7633 N   0  0  0  0  0  0  0  0  0  0  0  0
   -2.6240   -5.4803    1.8016 C   0  0  0  0  0  0  0  0  0  0  0  0
    3.2397   -3.2806    4.8451 C   0  0  0  0  0  3  0  0  0  0  0  0
    4.1030   -2.1029    4.7172 C   0  0  0  0  0  0  0  0  0  0  0  0
    3.3574   -0.4588    5.3313 S   0  0  0  0  0  0  0  0  0  0  0  0
    4.7291    0.7194    5.1105 C   0  0  0  0  0  0  0  0  0  0  0  0
    5.0474    1.1032    3.6683 C   0  0  2  0  0  0  0  0  0  0  0  0
    4.1057    1.3163    3.1343 H   0  0  0  0  0  0  0  0  0  0  0  0
    5.6887   -0.0097    2.9762 N   0  0  0  0  0  0  0  0  0  0  0  0
    5.4776   -0.2932    1.6672 C   0  0  0  0  0  0  0  0  0  0  0  0
    5.7853   -1.7101    1.2510 C   0  0  0  0  0  0  0  0  0  0  0  0
    5.0168    0.5370    0.8897 O   0  0  0  0  0  0  0  0  0  0  0  0
    5.9175    2.3750    3.5825 C   0  0  0  0  0  0  0  0  0  0  0  0
    6.0876    2.8106    2.3100 N   0  0  0  0  0  0  0  0  0  0  0  0
    6.9034    3.9484    1.9822 C   0  0  0  0  0  0  0  0  0  0  0  0
    6.3841    2.9257    4.5641 O   0  0  0  0  0  0  0  0  0  0  0  0
    2.1576   -1.4439    3.2317 H   0  0  0  0  0  0  0  0  0  0  0  0
    0.7835   -2.3681    2.5900 H   0  0  0  0  0  0  0  0  0  0  0  0
    2.9682   -0.9942    0.9241 H   0  0  0  0  0  0  0  0  0  0  0  0
    1.2782   -0.5166    1.0888 H   0  0  0  0  0  0  0  0  0  0  0  0
    1.7242   -1.8075   -1.0318 H   0  0  0  0  0  0  0  0  0  0  0  0
    3.4705   -3.3267   -0.1865 H   0  0  0  0  0  0  0  0  0  0  0  0
    2.0931   -4.2872   -0.7721 H   0  0  0  0  0  0  0  0  0  0  0  0
    2.9360   -5.1396    1.4458 H   0  0  0  0  0  0  0  0  0  0  0  0
    1.2587   -4.6191    1.5180 H   0  0  0  0  0  0  0  0  0  0  0  0
   -0.0871    0.7962   -2.6528 H   0  0  0  0  0  0  0  0  0  0  0  0
   -3.7851    0.9362   -3.0114 H   0  0  0  0  0  0  0  0  0  0  0  0
   -4.8947    2.6647   -4.3699 H   0  0  0  0  0  0  0  0  0  0  0  0
   -2.3904    6.1366   -5.0831 H   0  0  0  0  0  0  0  0  0  0  0  0
   -4.0685    6.2526   -4.4988 H   0  0  0  0  0  0  0  0  0  0  0  0
   -3.0418    6.8255   -7.3322 H   0  0  0  0  0  0  0  0  0  0  0  0
   -3.6548    8.0054   -6.1500 H   0  0  0  0  0  0  0  0  0  0  0  0
   -4.7396    5.1199   -8.2693 H   0  0  0  0  0  0  0  0  0  0  0  0
   -6.4172    5.2913   -7.6721 H   0  0  0  0  0  0  0  0  0  0  0  0
   -5.1251    3.3836   -6.6022 H   0  0  0  0  0  0  0  0  0  0  0  0
   -5.7547    4.5725   -5.4286 H   0  0  0  0  0  0  0  0  0  0  0  0
   -4.9247    9.5193   -7.2691 H   0  0  0  0  0  0  0  0  0  0  0  0
   -5.5170    9.1548   -5.6294 H   0  0  0  0  0  0  0  0  0  0  0  0
   -6.6602    9.7151   -6.8836 H   0  0  0  0  0  0  0  0  0  0  0  0
   -1.0544    4.3014   -5.4250 H   0  0  0  0  0  0  0  0  0  0  0  0
    0.0410    2.6144   -4.0149 H   0  0  0  0  0  0  0  0  0  0  0  0
   -4.9659   -3.5085    0.9608 H   0  0  0  0  0  0  0  0  0  0  0  0
    0.1043   -3.0182    4.5404 H   0  0  0  0  0  0  0  0  0  0  0  0
   -0.5637   -5.2045    6.3844 H   0  0  0  0  0  0  0  0  0  0  0  0
    0.7529   -4.0050    6.4903 H   0  0  0  0  0  0  0  0  0  0  0  0
    0.9703   -5.4076    5.4250 H   0  0  0  0  0  0  0  0  0  0  0  0
   -1.0779   -6.5003    4.4825 H   0  0  0  0  0  0  0  0  0  0  0  0
   -3.2588   -5.8893    1.0099 H   0  0  0  0  0  0  0  0  0  0  0  0
    3.2572   -3.8315    5.7888 H   0  0  0  0  0  0  0  0  0  0  0  0
    4.3403   -1.9399    3.6618 H   0  0  0  0  0  0  0  0  0  0  0  0
    5.0438   -2.1769    5.2958 H   0  0  0  0  0  0  0  0  0  0  0  0
    5.6408    0.3399    5.6040 H   0  0  0  0  0  0  0  0  0  0  0  0
    4.4528    1.6299    5.6579 H   0  0  0  0  0  0  0  0  0  0  0  0
    6.0324   -0.7568    3.5658 H   0  0  0  0  0  0  0  0  0  0  0  0
    6.6750   -2.1106    1.7582 H   0  0  0  0  0  0  0  0  0  0  0  0
    4.9220   -2.3433    1.5332 H   0  0  0  0  0  0  0  0  0  0  0  0
    5.9219   -1.7486    0.1639 H   0  0  0  0  0  0  0  0  0  0  0  0
    5.6629    2.2480    1.5695 H   0  0  0  0  0  0  0  0  0  0  0  0
    6.3279    4.7120    1.4340 H   0  0  0  0  0  0  0  0  0  0  0  0
    7.7722    3.6632    1.3656 H   0  0  0  0  0  0  0  0  0  0  0  0
    7.2671    4.3875    2.9202 H   0  0  0  0  0  0  0  0  0  0  0  0
  2  1  2  0  0  0  0
  2 44  1  0  0  0  0
  3  2  1  0  0  0  0
  4  3  1  0  0  0  0
  4 59  1  0  0  0  0
  4 58  1  0  0  0  0
  5  4  1  0  0  0  0
  6 62  1  6  0  0  0
  6  7  1  0  0  0  0
  6  9  1  0  0  0  0
  6  5  1  0  0  0  0
  7  8  1  0  0  0  0
  8 65  1  0  0  0  0
  8 66  1  0  0  0  0
  8  3  1  0  0  0  0
 10 30  1  0  0  0  0
 10  9  1  0  0  0  0
 11 10  2  0  0  0  0
 12 29  2  0  0  0  0
 12 11  1  0  0  0  0
 13 12  1  0  0  0  0
 14 13  1  0  0  0  0
 15 14  1  0  0  0  0
 15 68  1  0  0  0  0
 16 15  2  0  0  0  0
 17 27  2  0  0  0  0
 17 16  1  0  0  0  0
 18 19  1  0  0  0  0
 18 17  1  0  0  0  0
 19 70  1  0  0  0  0
 19 71  1  0  0  0  0
 20 73  1  0  0  0  0
 20 19  1  0  0  0  0
 21 20  1  0  0  0  0
 22 21  1  0  0  0  0
 22 23  1  0  0  0  0
 23 18  1  0  0  0  0
 23 77  1  0  0  0  0
 24 21  1  0  0  0  0
 24 25  1  0  0  0  0
 25 79  1  0  0  0  0
 26 24  2  0  0  0  0
 27 28  1  0  0  0  0
 28 82  1  0  0  0  0
 28 14  2  0  0  0  0
 29 31  1  0  0  0  0
 30 35  1  0  0  0  0
 31 32  1  0  0  0  0
 31 30  2  0  0  0  0
 32 34  1  0  0  0  0
 33 32  1  0  0  0  0
 34 35  2  0  0  0  0
 34 83  1  0  0  0  0
 35 36  1  0  0  0  0
 36 43  2  0  0  0  0
 36 37  1  0  0  0  0
 37 38  2  0  0  0  0
 38 39  1  0  0  0  0
 39 40  1  0  0  0  0
 40 85  1  0  0  0  0
 40 86  1  0  0  0  0
 41 38  1  0  0  0  0
 41 88  1  0  0  0  0
 42 41  2  0  0  0  0
 43 42  1  0  0  0  0
 44 90  1  0  0  0  0
 45 44  1  0  0  0  0
 45 92  1  0  0  0  0
 45 46  1  0  0  0  0
 47 46  1  0  0  0  0
 47 93  1  0  0  0  0
 47 94  1  0  0  0  0
 48 49  1  6  0  0  0
 48 47  1  0  0  0  0
 50 95  1  0  0  0  0
 50 48  1  0  0  0  0
 51 50  1  0  0  0  0
 52 97  1  0  0  0  0
 52 51  1  0  0  0  0
 52 96  1  0  0  0  0
 53 51  2  0  0  0  0
 54 48  1  0  0  0  0
 54 57  2  0  0  0  0
 55 54  1  0  0  0  0
 56 55  1  0  0  0  0
 56102  1  0  0  0  0
 60  5  1  0  0  0  0
 61  5  1  0  0  0  0
 63  7  1  0  0  0  0
 64  7  1  0  0  0  0
 67 13  1  0  0  0  0
 69 16  1  0  0  0  0
 72 20  1  0  0  0  0
 74 22  1  0  0  0  0
 75 22  1  0  0  0  0
 76 23  1  0  0  0  0
 78 25  1  0  0  0  0
 80 25  1  0  0  0  0
 81 27  1  0  0  0  0
 84 39  1  0  0  0  0
 87 40  1  0  0  0  0
 89 43  1  0  0  0  0
 91 45  1  0  0  0  0
 98 52  1  0  0  0  0
 99 55  1  0  0  0  0
100 56  1  0  0  0  0
101 56  1  0  0  0  0
M  END
