-1 1
 OpenBabel05232413493D

102106  0  0  1  0  0  0  0  0999 V2000
    2.6869   -4.1894    5.8583 O   0  0  0  0  0  0  0  0  0  0  0  0
    2.1298   -3.1710    5.4607 C   0  0  0  0  0  0  0  0  0  0  0  0
    1.7795   -3.0042    4.1497 N   0  0  0  0  0  0  0  0  0  0  0  0
    0.8443   -2.0101    3.6214 C   0  0  0  0  0  0  0  0  0  0  0  0
    1.4836   -1.1895    2.5116 C   0  0  0  0  0  0  0  0  0  0  0  0
    2.0252   -2.1035    1.4196 C   0  0  0  0  0  0  0  0  0  0  0  0
    2.9769   -3.1316    2.0079 C   0  0  0  0  0  0  0  0  0  0  0  0
    2.3270   -3.9130    3.1468 C   0  0  0  0  0  0  0  0  0  0  0  0
    0.9287   -2.8482    0.8410 O   0  0  0  0  0  0  0  0  0  0  0  0
    0.0873   -2.2209    0.0409 C   0  0  0  0  0  0  0  0  0  0  0  0
    0.4132   -1.0580   -0.4825 N   0  0  0  0  0  0  0  0  0  0  0  0
   -0.4405   -0.4399   -1.3311 C   0  0  0  0  0  0  0  0  0  0  0  0
    0.0140    0.7758   -1.7601 N   0  0  0  0  0  0  0  0  0  0  0  0
   -0.6187    1.7773   -2.5015 C   0  0  0  0  0  0  0  0  0  0  0  0
   -1.7259    1.5678   -3.3300 C   0  0  0  0  0  0  0  0  0  0  0  0
   -2.2853    2.6284   -4.0456 C   0  0  0  0  0  0  0  0  0  0  0  0
   -1.7488    3.9176   -3.9821 C   0  0  0  0  0  0  0  0  0  0  0  0
   -2.2773    5.0120   -4.7131 N   0  0  0  0  0  0  0  0  0  0  0  0
   -2.7528    6.1323   -3.9213 C   0  0  0  0  0  0  0  0  0  0  0  0
   -2.9115    7.3748   -4.7892 C   0  0  0  0  0  0  0  0  0  0  0  0
   -3.7622    7.0907   -5.9284 N   0  0  0  0  0  0  0  0  0  0  0  0
   -3.3272    5.9452   -6.7070 C   0  0  0  0  0  0  0  0  0  0  0  0
   -3.1663    4.7188   -5.8167 C   0  0  0  0  0  0  0  0  0  0  0  0
   -4.8785    7.7887   -6.3032 C   0  0  0  0  0  0  0  0  0  0  0  0
   -5.2794    8.9719   -5.4387 C   0  0  0  0  0  0  0  0  0  0  0  0
   -5.5329    7.4842   -7.2841 O   0  0  0  0  0  0  0  0  0  0  0  0
   -0.6286    4.1143   -3.1586 C   0  0  0  0  0  0  0  0  0  0  0  0
   -0.0845    3.0771   -2.4194 C   0  0  0  0  0  0  0  0  0  0  0  0
   -1.6106   -0.9148   -1.7388 N   0  0  0  0  0  0  0  0  0  0  0  0
   -1.1665   -2.8146   -0.2497 C   0  0  0  0  0  0  0  0  0  0  0  0
   -1.9285   -2.0838   -1.1772 C   0  0  0  0  0  0  0  0  0  0  0  0
   -3.0793   -2.7778   -1.4106 N   0  0  0  0  0  0  0  0  0  0  0  0
   -3.8203   -2.4551   -2.0155 H   0  0  0  0  0  0  0  0  0  0  0  0
   -3.0799   -3.9259   -0.6481 C   0  0  0  0  0  0  0  0  0  0  0  0
   -1.9242   -3.9964    0.0925 C   0  0  0  0  0  0  0  0  0  0  0  0
   -1.6342   -5.0823    1.0469 C   0  0  0  0  0  0  0  0  0  0  0  0
   -1.1108   -4.7835    2.2359 N   0  0  0  0  0  0  0  0  0  0  0  0
   -0.8989   -5.7811    3.1015 C   0  0  0  0  0  0  0  0  0  0  0  0
   -0.3316   -5.4640    4.2955 N   0  0  0  0  0  0  0  0  0  0  0  0
    0.2541   -6.4306    5.1898 C   0  0  0  0  0  0  0  0  0  0  0  0
   -1.2643   -7.1098    2.7663 C   0  0  0  0  0  0  0  0  0  0  0  0
   -1.7777   -7.4024    1.5845 N   0  0  0  0  0  0  0  0  0  0  0  0
   -1.9506   -6.4095    0.7158 C   0  0  0  0  0  0  0  0  0  0  0  0
    1.8524   -2.0833    6.4517 C   0  0  0  0  0  0  0  0  0  0  0  0
    2.1063   -0.7836    6.2818 C   0  0  0  0  0  0  0  0  0  0  0  0
    3.1923    1.8686    3.8378 S   0  0  0  0  0  1  0  0  0  0  0  0
    2.5775    2.4485    2.2114 C   0  0  0  0  0  0  0  0  0  0  0  0
    3.0442    1.5795    1.0257 C   0  0  2  0  0  0  0  0  0  0  0  0
    2.3947    0.6924    0.9348 H   0  0  0  0  0  0  0  0  0  0  0  0
    4.4065    1.1322    1.2798 N   0  0  0  0  0  0  0  0  0  0  0  0
    4.9408    0.0106    0.7700 C   0  0  0  0  0  0  0  0  0  0  0  0
    6.1667   -0.4978    1.4986 C   0  0  0  0  0  0  0  0  0  0  0  0
    4.4820   -0.5970   -0.2020 O   0  0  0  0  0  0  0  0  0  0  0  0
    2.9325    2.3166   -0.3224 C   0  0  0  0  0  0  0  0  0  0  0  0
    3.0417    1.4796   -1.3975 N   0  0  0  0  0  0  0  0  0  0  0  0
    3.1965    1.9734   -2.7453 C   0  0  0  0  0  0  0  0  0  0  0  0
    2.7058    3.5094   -0.4313 O   0  0  0  0  0  0  0  0  0  0  0  0
    0.4933   -1.3646    4.4313 H   0  0  0  0  0  0  0  0  0  0  0  0
   -0.0272   -2.5541    3.2132 H   0  0  0  0  0  0  0  0  0  0  0  0
    2.2951   -0.5599    2.9182 H   0  0  0  0  0  0  0  0  0  0  0  0
    0.7421   -0.4946    2.0911 H   0  0  0  0  0  0  0  0  0  0  0  0
    2.5238   -1.5333    0.6264 H   0  0  0  0  0  0  0  0  0  0  0  0
    3.8635   -2.5916    2.3746 H   0  0  0  0  0  0  0  0  0  0  0  0
    3.3116   -3.8248    1.2218 H   0  0  0  0  0  0  0  0  0  0  0  0
    3.0411   -4.5735    3.6514 H   0  0  0  0  0  0  0  0  0  0  0  0
    1.5199   -4.5353    2.7296 H   0  0  0  0  0  0  0  0  0  0  0  0
    0.9444    0.9973   -1.4057 H   0  0  0  0  0  0  0  0  0  0  0  0
   -2.1599    0.5728   -3.3915 H   0  0  0  0  0  0  0  0  0  0  0  0
   -3.1634    2.4258   -4.6609 H   0  0  0  0  0  0  0  0  0  0  0  0
   -2.0412    6.3448   -3.1129 H   0  0  0  0  0  0  0  0  0  0  0  0
   -3.7322    5.8985   -3.4462 H   0  0  0  0  0  0  0  0  0  0  0  0
   -1.9141    7.6914   -5.1458 H   0  0  0  0  0  0  0  0  0  0  0  0
   -3.3277    8.1911   -4.1885 H   0  0  0  0  0  0  0  0  0  0  0  0
   -2.3573    6.1749   -7.1837 H   0  0  0  0  0  0  0  0  0  0  0  0
   -4.0727    5.7705   -7.4912 H   0  0  0  0  0  0  0  0  0  0  0  0
   -2.7404    3.8980   -6.4119 H   0  0  0  0  0  0  0  0  0  0  0  0
   -4.1730    4.3950   -5.4699 H   0  0  0  0  0  0  0  0  0  0  0  0
   -4.4835    9.7297   -5.3882 H   0  0  0  0  0  0  0  0  0  0  0  0
   -5.5184    8.6599   -4.4111 H   0  0  0  0  0  0  0  0  0  0  0  0
   -6.1713    9.4180   -5.8920 H   0  0  0  0  0  0  0  0  0  0  0  0
   -0.1680    5.1030   -3.0982 H   0  0  0  0  0  0  0  0  0  0  0  0
    0.7707    3.2797   -1.7679 H   0  0  0  0  0  0  0  0  0  0  0  0
   -3.9301   -4.6037   -0.6544 H   0  0  0  0  0  0  0  0  0  0  0  0
   -0.0150   -4.5048    4.3728 H   0  0  0  0  0  0  0  0  0  0  0  0
   -0.5082   -6.9750    5.7741 H   0  0  0  0  0  0  0  0  0  0  0  0
    0.9278   -5.9044    5.8777 H   0  0  0  0  0  0  0  0  0  0  0  0
    0.8622   -7.1740    4.6444 H   0  0  0  0  0  0  0  0  0  0  0  0
   -1.1319   -7.9286    3.4793 H   0  0  0  0  0  0  0  0  0  0  0  0
   -2.3379   -6.6604   -0.2758 H   0  0  0  0  0  0  0  0  0  0  0  0
    1.5731   -2.4723    7.4361 H   0  0  0  0  0  0  0  0  0  0  0  0
    2.4384   -0.3320    5.3368 H   0  0  0  0  0  0  0  0  0  0  0  0
    1.9939   -0.0897    7.1196 H   0  0  0  0  0  0  0  0  0  0  0  0
    2.9132    3.4792    2.0267 H   0  0  0  0  0  0  0  0  0  0  0  0
    1.4772    2.4706    2.1860 H   0  0  0  0  0  0  0  0  0  0  0  0
    4.6549    1.3738    2.2604 H   0  0  0  0  0  0  0  0  0  0  0  0
    6.8679    0.3188    1.7202 H   0  0  0  0  0  0  0  0  0  0  0  0
    5.8561   -0.9347    2.4608 H   0  0  0  0  0  0  0  0  0  0  0  0
    6.6572   -1.2667    0.8907 H   0  0  0  0  0  0  0  0  0  0  0  0
    3.4051    0.5437   -1.1764 H   0  0  0  0  0  0  0  0  0  0  0  0
    2.4380    1.5435   -3.4193 H   0  0  0  0  0  0  0  0  0  0  0  0
    4.1947    1.7292   -3.1432 H   0  0  0  0  0  0  0  0  0  0  0  0
    3.0761    3.0643   -2.7355 H   0  0  0  0  0  0  0  0  0  0  0  0
  2  1  2  0  0  0  0
  2 44  1  0  0  0  0
  3  2  1  0  0  0  0
  4  3  1  0  0  0  0
  4 58  1  0  0  0  0
  5 60  1  0  0  0  0
  5  4  1  0  0  0  0
  6  7  1  0  0  0  0
  6  5  1  0  0  0  0
  7 63  1  0  0  0  0
  7  8  1  0  0  0  0
  8 65  1  0  0  0  0
  8  3  1  0  0  0  0
  9  6  1  0  0  0  0
 10  9  1  0  0  0  0
 11 10  2  0  0  0  0
 12 11  1  0  0  0  0
 13 67  1  0  0  0  0
 13 12  1  0  0  0  0
 14 28  1  0  0  0  0
 14 13  1  0  0  0  0
 15 14  2  0  0  0  0
 16 17  2  0  0  0  0
 16 15  1  0  0  0  0
 17 27  1  0  0  0  0
 18 17  1  0  0  0  0
 18 19  1  0  0  0  0
 19 71  1  0  0  0  0
 19 70  1  0  0  0  0
 20 73  1  0  0  0  0
 20 19  1  0  0  0  0
 21 20  1  0  0  0  0
 22 21  1  0  0  0  0
 22 23  1  0  0  0  0
 23 77  1  0  0  0  0
 23 18  1  0  0  0  0
 24 21  1  0  0  0  0
 24 25  1  0  0  0  0
 25 78  1  0  0  0  0
 25 79  1  0  0  0  0
 26 24  2  0  0  0  0
 27 81  1  0  0  0  0
 27 28  2  0  0  0  0
 28 82  1  0  0  0  0
 29 12  2  0  0  0  0
 29 31  1  0  0  0  0
 30 10  1  0  0  0  0
 30 35  1  0  0  0  0
 31 30  2  0  0  0  0
 32 31  1  0  0  0  0
 32 34  1  0  0  0  0
 33 32  1  0  0  0  0
 34 35  2  0  0  0  0
 35 36  1  0  0  0  0
 36 37  1  0  0  0  0
 37 38  2  0  0  0  0
 38 39  1  0  0  0  0
 39 84  1  0  0  0  0
 39 40  1  0  0  0  0
 40 85  1  0  0  0  0
 40 86  1  0  0  0  0
 41 38  1  0  0  0  0
 41 88  1  0  0  0  0
 42 41  2  0  0  0  0
 43 36  2  0  0  0  0
 43 42  1  0  0  0  0
 44 90  1  0  0  0  0
 45 44  2  0  0  0  0
 45 92  1  0  0  0  0
 47 46  1  0  0  0  0
 48 49  1  6  0  0  0
 48 50  1  0  0  0  0
 48 47  1  0  0  0  0
 50 95  1  0  0  0  0
 51 50  1  0  0  0  0
 51 52  1  0  0  0  0
 52 96  1  0  0  0  0
 52 97  1  0  0  0  0
 53 51  2  0  0  0  0
 54 48  1  0  0  0  0
 55 99  1  0  0  0  0
 55 54  1  0  0  0  0
 56102  1  0  0  0  0
 56 55  1  0  0  0  0
 57 54  2  0  0  0  0
 59  4  1  0  0  0  0
 61  5  1  0  0  0  0
 62  6  1  0  0  0  0
 64  7  1  0  0  0  0
 66  8  1  0  0  0  0
 68 15  1  0  0  0  0
 69 16  1  0  0  0  0
 72 20  1  0  0  0  0
 74 22  1  0  0  0  0
 75 22  1  0  0  0  0
 76 23  1  0  0  0  0
 80 25  1  0  0  0  0
 83 34  1  0  0  0  0
 87 40  1  0  0  0  0
 89 43  1  0  0  0  0
 91 45  1  0  0  0  0
 93 47  1  0  0  0  0
 94 47  1  0  0  0  0
 98 52  1  0  0  0  0
100 56  1  0  0  0  0
101 56  1  0  0  0  0
M  END
