84
-1 1
O         0.236135   -3.694637   -3.475445
C        -0.103920   -3.933145   -2.301882
N         0.468202   -3.141630   -1.252804
C         1.402673   -2.133876   -1.321094
C         1.757198   -1.474816   -0.124761
C         2.697247   -0.458079   -0.139537
O         3.056166    0.133107    1.074519
C         2.405190    1.212083    1.497027
N         1.420480    1.723376    0.796805
C         0.785062    2.821100    1.262787
N        -0.224180    3.237149    0.426103
C        -1.121543    4.295588    0.512476
C        -1.142241    5.221872    1.565913
C        -2.067830    6.250080    1.550024
F        -2.036038    7.131006    2.562475
C        -3.030607    6.419567    0.543808
N        -3.933988    7.499334    0.597094
C        -4.855557    7.511117    1.728062
C        -5.500492    8.890630    1.857240
N        -6.150685    9.341928    0.638613
C        -5.221656    9.269085   -0.474624
C        -4.573444    7.892063   -0.642709
C        -7.441840    8.742489    0.387505
C        -2.993155    5.478719   -0.493796
C        -2.059352    4.448725   -0.519796
N         1.049167    3.472442    2.385184
C         2.800398    1.794925    2.720909
C         2.056113    2.929975    3.080754
N         2.545040    3.379870    4.269489
H         2.188017    4.185623    4.762083
C         3.583162    2.556405    4.676265
C         3.772608    1.568112    3.749929
C         3.331669   -0.048689   -1.304207
C         2.980727   -0.704141   -2.486102
C         2.038340   -1.724818   -2.514507
C        -0.988433   -4.947214   -1.892645
C        -1.421450   -5.250007   -0.515651
S        -0.596986   -6.694210    0.407791
C         1.183287   -6.402880    0.136509
C         1.825572   -7.275425   -0.948286
H         2.909594   -7.070738   -0.958082
N         1.281527   -6.969882   -2.247770
C         2.049849   -7.062330   -3.375010
C         1.388507   -6.509610   -4.619511
O         3.156453   -7.573874   -3.372570
C         1.721154   -8.753335   -0.545160
N         0.969975   -9.520187   -1.367087
C         0.709948  -10.909136   -1.116960
O         2.274496   -9.166339    0.460576
H         0.095778   -3.308841   -0.329165
H         1.295418   -1.755354    0.824881
H        -0.309389    2.633938   -0.382938
H        -0.426406    5.146182    2.380135
H        -4.306393    7.279119    2.648807
H        -5.636348    6.728562    1.604468
H        -4.707192    9.613244    2.115133
H        -6.230760    8.890167    2.681748
H        -4.418152   10.006085   -0.303474
H        -5.741430    9.554200   -1.403038
H        -3.814819    7.939982   -1.438734
H        -5.341293    7.154401   -0.968527
H        -8.109635    8.935039    1.241868
H        -7.431289    7.644796    0.217458
H        -7.898039    9.207934   -0.500324
H        -3.714344    5.547831   -1.308948
H        -2.065112    3.741624   -1.352858
H         4.106723    2.748489    5.609510
H         4.510543    0.771974    3.790931
H         4.069186    0.754180   -1.277158
H         3.461021   -0.408732   -3.422664
H         1.757081   -2.232523   -3.434301
H        -1.488433   -5.468066   -2.713237
H        -2.471736   -5.579259   -0.475720
H        -1.350880   -4.398717    0.181409
H         1.692134   -6.607993    1.087346
H         1.334804   -5.344589   -0.120191
H         0.466558   -6.333544   -2.258950
H         0.982406   -5.499928   -4.430394
H         0.549164   -7.160188   -4.912703
H         2.125137   -6.490059   -5.431739
H         0.517671   -9.033880   -2.131539
H        -0.355046  -11.092211   -0.896772
H         1.302883  -11.203503   -0.240779
H         1.004575  -11.536513   -1.974047
