-1 1
 OpenBabel05232413493D

 64 65  0  0  1  0  0  0  0  0999 V2000
    2.7050   -2.5652   -4.6724 O   0  0  0  0  0  0  0  0  0  0  0  0
    2.7907   -2.1246   -3.5443 C   0  0  0  0  0  0  0  0  0  0  0  0
    1.8622   -1.0945   -2.9980 C   0  0  0  0  0  0  0  0  0  0  0  0
    0.6844   -0.8009   -3.7204 C   0  0  0  0  0  0  0  0  0  0  0  0
   -0.2691    0.0786   -3.2285 C   0  0  0  0  0  0  0  0  0  0  0  0
    2.1261   -0.4707   -1.7735 C   0  0  0  0  0  0  0  0  0  0  0  0
    1.1749    0.4192   -1.2999 C   0  0  0  0  0  0  0  0  0  0  0  0
   -0.0294    0.6887   -1.9890 C   0  0  0  0  0  0  0  0  0  0  0  0
   -0.8055    1.5447   -1.2420 N   0  0  0  0  0  0  0  0  0  0  0  0
   -0.0982    1.7647   -0.1493 C   0  0  0  0  0  0  0  0  0  0  0  0
   -0.4933    2.5428    0.9109 N   0  0  0  0  0  0  0  0  0  0  0  0
   -1.6921    3.2445    1.0850 C   0  0  0  0  0  0  0  0  0  0  0  0
   -2.5358    3.2272    0.0280 N   0  0  0  0  0  0  0  0  0  0  0  0
   -3.8318    3.8603    0.1033 C   0  0  0  0  0  0  0  0  0  0  0  0
   -4.9456    2.9342    0.5488 C   0  0  0  0  0  0  0  0  0  0  0  0
   -5.9911    2.5767   -0.3087 C   0  0  0  0  0  0  0  0  0  0  0  0
   -6.9978    1.7105    0.1013 C   0  0  0  0  0  0  0  0  0  0  0  0
   -6.9760    1.1714    1.3923 C   0  0  0  0  0  0  0  0  0  0  0  0
   -7.9905    0.3310    1.7097 O   0  0  0  0  0  0  0  0  0  0  0  0
   -7.9943   -0.2744    2.9706 C   0  0  0  0  0  0  0  0  0  0  0  0
   -5.9371    1.5193    2.2635 C   0  0  0  0  0  0  0  0  0  0  0  0
   -4.9388    2.3945    1.8373 C   0  0  0  0  0  0  0  0  0  0  0  0
   -1.8973    3.8258    2.1381 O   0  0  0  0  0  0  0  0  0  0  0  0
    1.1075    1.1540   -0.1381 N   0  0  0  0  0  0  0  0  0  0  0  0
    1.8080    1.0949    0.6234 H   0  0  0  0  0  0  0  0  0  0  0  0
    3.7881   -2.6217   -2.5944 C   0  0  0  0  0  0  0  0  0  0  0  0
    4.5165   -3.0191   -1.7104 C   0  0  0  0  0  0  0  0  0  0  0  0
    5.4229   -3.3649    1.7029 S   0  0  0  0  0  1  0  0  0  0  0  0
    4.4038   -2.3062    2.8077 C   0  0  0  0  0  0  0  0  0  0  0  0
    3.3509   -1.4285    2.1052 C   0  0  2  0  0  0  0  0  0  0  0  0
    2.6593   -0.9948    2.8424 H   0  0  0  0  0  0  0  0  0  0  0  0
    2.5652   -2.2323    1.1939 N   0  0  0  0  0  0  0  0  0  0  0  0
    1.2329   -2.0776    1.0057 C   0  0  0  0  0  0  0  0  0  0  0  0
    0.6052   -3.0375    0.0143 C   0  0  0  0  0  0  0  0  0  0  0  0
    0.5706   -1.2217    1.5731 O   0  0  0  0  0  0  0  0  0  0  0  0
    3.9243   -0.2205    1.3479 C   0  0  0  0  0  0  0  0  0  0  0  0
    5.0323   -0.4561    0.6357 N   0  0  0  0  0  0  0  0  0  0  0  0
    5.6406    0.5201   -0.2292 C   0  0  0  0  0  0  0  0  0  0  0  0
    3.3468    0.8737    1.3565 O   0  0  0  0  0  0  0  0  0  0  0  0
    0.5357   -1.3118   -4.6735 H   0  0  0  0  0  0  0  0  0  0  0  0
   -1.1925    0.2815   -3.7736 H   0  0  0  0  0  0  0  0  0  0  0  0
    3.0233   -0.7094   -1.2018 H   0  0  0  0  0  0  0  0  0  0  0  0
    0.0890    2.5361    1.7394 H   0  0  0  0  0  0  0  0  0  0  0  0
   -2.2875    2.6119   -0.7547 H   0  0  0  0  0  0  0  0  0  0  0  0
   -4.0737    4.2805   -0.8851 H   0  0  0  0  0  0  0  0  0  0  0  0
   -3.7446    4.6985    0.8099 H   0  0  0  0  0  0  0  0  0  0  0  0
   -6.0175    2.9810   -1.3249 H   0  0  0  0  0  0  0  0  0  0  0  0
   -7.8122    1.4264   -0.5675 H   0  0  0  0  0  0  0  0  0  0  0  0
   -8.8776   -0.9247    3.0066 H   0  0  0  0  0  0  0  0  0  0  0  0
   -8.0671    0.4677    3.7858 H   0  0  0  0  0  0  0  0  0  0  0  0
   -7.0925   -0.8904    3.1353 H   0  0  0  0  0  0  0  0  0  0  0  0
   -5.8898    1.1164    3.2754 H   0  0  0  0  0  0  0  0  0  0  0  0
   -4.1284    2.6664    2.5189 H   0  0  0  0  0  0  0  0  0  0  0  0
    5.0886   -3.3229   -0.8349 H   0  0  0  0  0  0  0  0  0  0  0  0
    5.0497   -1.6446    3.4079 H   0  0  0  0  0  0  0  0  0  0  0  0
    3.8592   -2.9491    3.5168 H   0  0  0  0  0  0  0  0  0  0  0  0
    3.0877   -2.9963    0.7636 H   0  0  0  0  0  0  0  0  0  0  0  0
    1.3161   -3.7661   -0.3984 H   0  0  0  0  0  0  0  0  0  0  0  0
    0.1801   -2.4469   -0.8105 H   0  0  0  0  0  0  0  0  0  0  0  0
   -0.2230   -3.5645    0.5087 H   0  0  0  0  0  0  0  0  0  0  0  0
    5.4534   -1.4010    0.7464 H   0  0  0  0  0  0  0  0  0  0  0  0
    5.8031    0.0920   -1.2307 H   0  0  0  0  0  0  0  0  0  0  0  0
    6.6117    0.8617    0.1650 H   0  0  0  0  0  0  0  0  0  0  0  0
    4.9710    1.3859   -0.3106 H   0  0  0  0  0  0  0  0  0  0  0  0
  1  2  2  0  0  0  0
  2  3  1  0  0  0  0
  2 26  1  0  0  0  0
  3  6  1  0  0  0  0
  4  5  1  0  0  0  0
  4  3  2  0  0  0  0
  5  8  2  0  0  0  0
  6  7  2  0  0  0  0
  6 42  1  0  0  0  0
  7 24  1  0  0  0  0
  8  7  1  0  0  0  0
  8  9  1  0  0  0  0
  9 10  2  0  0  0  0
 10 24  1  0  0  0  0
 10 11  1  0  0  0  0
 11 12  1  0  0  0  0
 11 43  1  0  0  0  0
 12 23  2  0  0  0  0
 13 14  1  0  0  0  0
 13 12  1  0  0  0  0
 14 15  1  0  0  0  0
 14 46  1  0  0  0  0
 15 22  1  0  0  0  0
 16 17  1  0  0  0  0
 16 15  2  0  0  0  0
 17 18  2  0  0  0  0
 18 19  1  0  0  0  0
 18 21  1  0  0  0  0
 19 20  1  0  0  0  0
 20 49  1  0  0  0  0
 20 51  1  0  0  0  0
 20 50  1  0  0  0  0
 21 52  1  0  0  0  0
 22 21  2  0  0  0  0
 22 53  1  0  0  0  0
 24 25  1  0  0  0  0
 26 27  3  0  0  0  0
 27 54  1  0  0  0  0
 28 29  1  0  0  0  0
 29 55  1  0  0  0  0
 29 56  1  0  0  0  0
 30 29  1  0  0  0  0
 30 31  1  1  0  0  0
 32 30  1  0  0  0  0
 33 32  1  0  0  0  0
 33 35  2  0  0  0  0
 34 60  1  0  0  0  0
 34 33  1  0  0  0  0
 36 39  2  0  0  0  0
 36 30  1  0  0  0  0
 37 61  1  0  0  0  0
 37 36  1  0  0  0  0
 38 63  1  0  0  0  0
 38 37  1  0  0  0  0
 40  4  1  0  0  0  0
 41  5  1  0  0  0  0
 44 13  1  0  0  0  0
 45 14  1  0  0  0  0
 47 16  1  0  0  0  0
 48 17  1  0  0  0  0
 57 32  1  0  0  0  0
 58 34  1  0  0  0  0
 59 34  1  0  0  0  0
 62 38  1  0  0  0  0
 64 38  1  0  0  0  0
M  END
