64
-1 1
O         2.459305   -2.652638   -4.082734
C         2.759305   -1.997816   -3.078898
C         1.983943   -0.721240   -2.781830
C         0.810911   -0.472592   -3.523943
C        -0.054585    0.569983   -3.210786
C         2.329753    0.122358   -1.726191
C         1.441343    1.137232   -1.391369
C         0.252995    1.372534   -2.105854
N        -0.465076    2.389776   -1.490566
C         0.247158    2.710575   -0.440064
N        -0.107770    3.639159    0.516101
C        -1.399772    4.078224    0.841409
N        -2.351781    3.814460   -0.086477
C        -3.748831    3.790964    0.301249
C        -4.167844    2.414216    0.774364
C        -5.006626    1.593507    0.014507
C        -5.270843    0.283132    0.397659
C        -4.677214   -0.246128    1.549371
O        -4.918607   -1.549713    1.807425
C        -4.214760   -2.163446    2.862495
C        -3.859288    0.571934    2.337572
C        -3.618444    1.885483    1.946615
O        -1.584244    4.651016    1.901617
N         1.430585    2.038255   -0.334205
H         1.903803    1.826669    0.552189
C         3.796111   -2.328889   -2.167552
C         3.746366   -3.035542   -1.044596
S         2.222861   -3.797845   -0.374154
C         2.127289   -3.124254    1.320546
C         1.637963   -1.670828    1.506570
H         1.200948   -1.594620    2.515365
N         0.561842   -1.331815    0.612975
C        -0.717290   -1.150512    1.028426
C        -1.701049   -0.813812   -0.067894
O        -1.046203   -1.237515    2.204292
C         2.685783   -0.543429    1.495952
N         3.941004   -0.842357    1.112445
C         4.944068    0.191735    1.027539
O         2.369642    0.586097    1.864563
H         0.605099   -1.162613   -4.345202
H        -0.971826    0.740953   -3.778100
H         3.247051   -0.059903   -1.169844
H         0.554618    3.816429    1.260502
H        -2.048543    3.240568   -0.882187
H        -4.363457    4.103253   -0.556627
H        -3.879268    4.536010    1.098427
H        -5.446083    1.978318   -0.910612
H        -5.904776   -0.368671   -0.206254
H        -4.465916   -3.231012    2.821624
H        -4.531912   -1.764039    3.842890
H        -3.125417   -2.030348    2.750091
H        -3.357088    0.180183    3.220489
H        -2.958384    2.510317    2.554044
H         4.629352   -3.328664   -0.450438
H         3.085233   -3.273073    1.844337
H         1.395363   -3.775199    1.820423
H         0.759926   -1.374634   -0.382604
H        -1.296505   -0.986008   -1.074219
H        -1.976632    0.248859    0.019149
H        -2.615442   -1.403788    0.077600
H         4.066775   -1.661282    0.514363
H         4.735813    0.907251    0.212891
H         5.921446   -0.270706    0.841041
H         4.979757    0.757013    1.968883
