64
-1 1
O        10.914117   -1.794070    7.150409
C        11.119060   -1.468999    8.313003
C        10.088088   -0.680031    9.084390
C         9.083579    0.014237    8.377227
C         8.107679    0.756576    9.030689
C        10.107897   -0.674561   10.478603
C         9.133450    0.078019   11.119955
C         8.139138    0.798442   10.431392
N         7.333218    1.460599   11.343404
C         7.835674    1.154060   12.518206
N         7.362751    1.604593   13.732284
C         6.286825    2.461667   13.987574
N         5.648885    2.933466   12.893672
C         4.490767    3.787751   13.019855
C         3.172539    3.041117   13.064868
C         2.260913    3.095903   12.005112
C         1.063472    2.391714   12.045121
C         0.750586    1.603147   13.157962
O        -0.434486    0.947042   13.115053
C        -0.781978    0.113230   14.182342
C         1.651801    1.536522   14.226767
C         2.846718    2.253734   14.171877
O         5.998488    2.733077   15.142892
N         8.906651    0.321526   12.463309
H         9.550765    0.020485   13.210238
C        12.319084   -1.759228    9.034860
C        13.054797   -2.217328    9.928787
S        12.238180   -3.719556   11.634442
C        13.362879   -3.149230   12.938888
C        12.667164   -2.324554   14.033745
H        13.387294   -2.059127   14.827440
N        11.641928   -3.109894   14.658240
C        11.350009   -3.024262   15.980379
C        10.075780   -3.739725   16.388554
O        12.039768   -2.420424   16.782548
C        12.070465   -0.984430   13.558808
N        12.828308   -0.277894   12.696561
C        12.454502    0.998839   12.136950
O        11.005277   -0.573667   14.010488
H         9.100541   -0.055661    7.287596
H         7.338046    1.299116    8.478190
H        10.847435   -1.261787   11.027216
H         7.815440    1.272308   14.574216
H         5.952163    2.566280   11.983494
H         4.487878    4.492382   12.174412
H         4.611809    4.373978   13.942568
H         2.493764    3.700782   11.123900
H         0.352297    2.430155   11.218076
H        -1.756200   -0.327663   13.935478
H        -0.875996    0.672099   15.130835
H        -0.049662   -0.701195   14.325410
H         1.437915    0.931455   15.108223
H         3.553054    2.200077   15.004618
H        14.046151   -2.270202   10.365614
H        14.201594   -2.568305   12.500280
H        13.844158   -4.005555   13.435772
H        11.008243   -3.567792   14.008371
H         9.897767   -4.648503   15.796006
H         9.226010   -3.057250   16.233844
H        10.132537   -3.990575   17.454592
H        13.589522   -0.771165   12.249572
H        12.255619    0.911170   11.057916
H        13.250110    1.742724   12.299138
H        11.541644    1.346635   12.634200
