64
-1 1
O         2.705005   -2.565220   -4.672434
C         2.790697   -2.124639   -3.544268
C         1.862196   -1.094502   -2.997997
C         0.684447   -0.800882   -3.720371
C        -0.269102    0.078645   -3.228481
C         2.126141   -0.470723   -1.773499
C         1.174945    0.419156   -1.299903
C        -0.029365    0.688694   -1.989020
N        -0.805451    1.544718   -1.242011
C        -0.098218    1.764701   -0.149285
N        -0.493283    2.542826    0.910944
C        -1.692149    3.244497    1.084986
N        -2.535766    3.227215    0.027978
C        -3.831784    3.860348    0.103346
C        -4.945584    2.934207    0.548796
C        -5.991053    2.576726   -0.308710
C        -6.997818    1.710515    0.101343
C        -6.976005    1.171398    1.392294
O        -7.990545    0.330951    1.709729
C        -7.994281   -0.274424    2.970565
C        -5.937073    1.519319    2.263458
C        -4.938781    2.394455    1.837297
O        -1.897318    3.825777    2.138108
N         1.107525    1.153971   -0.138072
H         1.807988    1.094873    0.623352
C         3.788050   -2.621738   -2.594389
C         4.516495   -3.019108   -1.710432
S         5.422873   -3.364859    1.702912
C         4.403798   -2.306187    2.807729
C         3.350855   -1.428504    2.105205
H         2.659292   -0.994806    2.842351
N         2.565201   -2.232252    1.193881
C         1.232863   -2.077622    1.005728
C         0.605212   -3.037510    0.014349
O         0.570597   -1.221732    1.573085
C         3.924251   -0.220515    1.347903
N         5.032327   -0.456059    0.635728
C         5.640566    0.520075   -0.229174
O         3.346799    0.873672    1.356506
H         0.535658   -1.311771   -4.673527
H        -1.192549    0.281455   -3.773551
H         3.023326   -0.709432   -1.201757
H         0.089025    2.536063    1.739410
H        -2.287533    2.611878   -0.754718
H        -4.073683    4.280519   -0.885062
H        -3.744575    4.698522    0.809911
H        -6.017512    2.980989   -1.324907
H        -7.812246    1.426403   -0.567454
H        -8.877632   -0.924668    3.006603
H        -8.067108    0.467733    3.785804
H        -7.092503   -0.890391    3.135284
H        -5.889832    1.116447    3.275404
H        -4.128387    2.666417    2.518876
H         5.088600   -3.322934   -0.834914
H         5.049682   -1.644574    3.407861
H         3.859240   -2.949145    3.516784
H         3.087663   -2.996348    0.763622
H         1.316075   -3.766070   -0.398411
H         0.180080   -2.446940   -0.810487
H        -0.222971   -3.564456    0.508691
H         5.453445   -1.401012    0.746445
H         5.803116    0.092013   -1.230686
H         6.611675    0.861676    0.164974
H         4.970993    1.385898   -0.310558
