48
-1 1
O         7.781240    2.147389    0.241709
C         6.804571    2.789476   -0.099620
C         5.403626    2.455687    0.429237
C         4.684419    1.590099   -0.634330
S         2.897191    1.441355   -0.439450
C         2.296976    2.902292   -1.955979
C         1.015478    3.330359   -1.315463
C         0.929954    4.481858   -0.525034
C        -0.265185    4.864883    0.088623
C        -0.397860    6.091981    0.949149
N         0.663893    6.947647    0.957951
O        -1.396689    6.316700    1.608379
C        -1.409177    4.078713   -0.084928
C        -1.344204    2.935091   -0.872822
C        -0.145109    2.565278   -1.481085
C         3.291235    3.859476   -2.282196
C         4.170833    3.644404   -3.372457
O         4.202031    2.715224   -4.168732
O         5.107187    4.668414   -3.483390
C         5.993357    4.551477   -4.563758
N         4.609299    3.627863    0.703971
C         4.984030    4.610564    1.557932
C         3.938939    5.700568    1.743913
O         6.077086    4.661574    2.091185
H         5.573203    1.871840    1.348508
N         6.841000    3.784088   -1.021796
C         8.057756    4.165017   -1.682970
H         4.844171    2.048556   -1.623431
H         5.149238    0.595334   -0.651635
H         1.839768    5.068643   -0.387850
H         1.454320    6.847535    0.340495
H         0.582715    7.784254    1.518046
H        -2.331797    4.387971    0.408702
H        -2.236409    2.320590   -1.015771
H        -0.096545    1.660407   -2.092387
H         6.707192    5.383131   -4.479268
H         5.468719    4.614592   -5.531900
H         6.535917    3.592532   -4.546301
H         3.625268    3.514709    0.461622
H         2.920659    5.295231    1.836535
H         3.964315    6.371452    0.869803
H         4.187778    6.283671    2.638558
H         5.965789    4.173833   -1.358650
H         8.903758    3.851787   -1.057210
H         8.093401    5.255960   -1.821912
H         8.167532    3.686327   -2.671649
H         3.439626    4.767005   -1.695354
H         2.145303    2.170688   -2.755130
