-1 1
 OpenBabel05192410563D

 48 48  0  0  1  0  0  0  0  0999 V2000
    4.4055   -1.9387    0.9037 O   0  0  0  0  0  0  0  0  0  0  0  0
    3.6028   -1.1015    0.5295 C   0  0  0  0  0  0  0  0  0  0  0  0
    2.1760   -1.0558    1.0940 C   0  0  2  0  0  0  0  0  0  0  0  0
    1.3499   -2.1043    0.3140 C   0  0  0  0  0  0  0  0  0  0  0  0
   -0.4415   -2.0630    0.6020 S   0  0  0  0  0  0  0  0  0  0  0  0
   -1.0513   -1.0404   -0.9254 C   0  0  1  0  0  0  0  0  0  0  0  0
   -2.4358   -0.5841   -0.5408 C   0  0  0  0  0  0  0  0  0  0  0  0
   -2.6009    0.3591    0.4810 C   0  0  0  0  0  0  0  0  0  0  0  0
   -3.8614    0.8514    0.8213 C   0  0  0  0  0  0  0  0  0  0  0  0
   -4.0701    1.8910    1.8873 C   0  0  0  0  0  0  0  0  0  0  0  0
   -2.9642    2.6010    2.2516 N   0  0  0  0  0  0  0  0  0  0  0  0
   -5.1594    2.1007    2.3896 O   0  0  0  0  0  0  0  0  0  0  0  0
   -4.9932    0.3613    0.1588 C   0  0  0  0  0  0  0  0  0  0  0  0
   -4.8458   -0.5867   -0.8465 C   0  0  0  0  0  0  0  0  0  0  0  0
   -3.5760   -1.0527   -1.1965 C   0  0  0  0  0  0  0  0  0  0  0  0
   -0.1791    0.0756   -1.3537 C   0  0  0  0  0  3  0  0  0  0  0  0
    0.8339   -0.1440   -2.2957 C   0  0  0  0  0  0  0  0  0  0  0  0
    1.1530   -1.1911   -2.8623 O   0  0  0  0  0  0  0  0  0  0  0  0
    1.6021    1.0083   -2.5252 O   0  0  0  0  0  0  0  0  0  0  0  0
    2.5034    0.9287   -3.5948 C   0  0  0  0  0  0  0  0  0  0  0  0
    1.5705    0.2457    1.0118 N   0  0  0  0  0  0  0  0  0  0  0  0
    1.6845    1.1675    1.9922 C   0  0  0  0  0  0  0  0  0  0  0  0
    0.8086    2.3976    1.8022 C   0  0  0  0  0  0  0  0  0  0  0  0
    2.3984    1.0430    2.9725 O   0  0  0  0  0  0  0  0  0  0  0  0
    2.2626   -1.3415    2.1522 H   0  0  0  0  0  0  0  0  0  0  0  0
    3.8555   -0.1956   -0.4500 N   0  0  0  0  0  0  0  0  0  0  0  0
    5.0898   -0.1855   -1.1857 C   0  0  0  0  0  0  0  0  0  0  0  0
    1.5119   -1.9947   -0.7684 H   0  0  0  0  0  0  0  0  0  0  0  0
    1.7121   -3.1017    0.5972 H   0  0  0  0  0  0  0  0  0  0  0  0
   -1.7056    0.6745    1.0229 H   0  0  0  0  0  0  0  0  0  0  0  0
   -2.0972    2.5530    1.7373 H   0  0  0  0  0  0  0  0  0  0  0  0
   -3.0855    3.3331    2.9372 H   0  0  0  0  0  0  0  0  0  0  0  0
   -5.9737    0.7396    0.4533 H   0  0  0  0  0  0  0  0  0  0  0  0
   -5.7266   -0.9696   -1.3679 H   0  0  0  0  0  0  0  0  0  0  0  0
   -3.4636   -1.7924   -1.9934 H   0  0  0  0  0  0  0  0  0  0  0  0
    3.2110    1.7642   -3.4868 H   0  0  0  0  0  0  0  0  0  0  0  0
    1.9908    1.0216   -4.5699 H   0  0  0  0  0  0  0  0  0  0  0  0
    3.0449   -0.0295   -3.5951 H   0  0  0  0  0  0  0  0  0  0  0  0
    0.9158    0.3797    0.2216 H   0  0  0  0  0  0  0  0  0  0  0  0
   -0.0035    2.3482    2.5446 H   0  0  0  0  0  0  0  0  0  0  0  0
    0.3810    2.4693    0.7913 H   0  0  0  0  0  0  0  0  0  0  0  0
    1.3997    3.2974    2.0195 H   0  0  0  0  0  0  0  0  0  0  0  0
    3.0964    0.4068   -0.7548 H   0  0  0  0  0  0  0  0  0  0  0  0
    5.7923   -0.8555   -0.6733 H   0  0  0  0  0  0  0  0  0  0  0  0
    5.5224    0.8272   -1.2237 H   0  0  0  0  0  0  0  0  0  0  0  0
    4.9544   -0.5450   -2.2195 H   0  0  0  0  0  0  0  0  0  0  0  0
   -0.4473    1.1048   -1.1067 H   0  0  0  0  0  0  0  0  0  0  0  0
   -1.1056   -1.8027   -1.7141 H   0  0  0  0  0  0  0  0  0  0  0  0
  2  1  2  0  0  0  0
  2  3  1  0  0  0  0
  3 25  1  1  0  0  0
  4 29  1  0  0  0  0
  4  5  1  0  0  0  0
  4  3  1  0  0  0  0
  6 48  1  6  0  0  0
  6  7  1  0  0  0  0
  6  5  1  0  0  0  0
  7  8  1  0  0  0  0
  8  9  2  0  0  0  0
  8 30  1  0  0  0  0
  9 10  1  0  0  0  0
 10 11  1  0  0  0  0
 10 12  2  0  0  0  0
 11 32  1  0  0  0  0
 13 33  1  0  0  0  0
 13  9  1  0  0  0  0
 14 13  2  0  0  0  0
 15 14  1  0  0  0  0
 15  7  2  0  0  0  0
 16 47  1  0  0  0  0
 16  6  1  0  0  0  0
 17 16  1  0  0  0  0
 18 17  2  0  0  0  0
 19 17  1  0  0  0  0
 20 36  1  0  0  0  0
 20 19  1  0  0  0  0
 21  3  1  0  0  0  0
 21 22  1  0  0  0  0
 22 24  2  0  0  0  0
 23 22  1  0  0  0  0
 23 42  1  0  0  0  0
 23 40  1  0  0  0  0
 26  2  1  0  0  0  0
 27 44  1  0  0  0  0
 27 26  1  0  0  0  0
 28  4  1  0  0  0  0
 31 11  1  0  0  0  0
 34 14  1  0  0  0  0
 35 15  1  0  0  0  0
 37 20  1  0  0  0  0
 38 20  1  0  0  0  0
 39 21  1  0  0  0  0
 41 23  1  0  0  0  0
 43 26  1  0  0  0  0
 45 27  1  0  0  0  0
 46 27  1  0  0  0  0
M  END
