-1 1
 OpenBabel05232413493D

 48 47  0  0  1  0  0  0  0  0999 V2000
    4.4861   -1.7802    0.8715 O   0  0  0  0  0  0  0  0  0  0  0  0
    3.5164   -1.1557    0.4814 C   0  0  0  0  0  0  0  0  0  0  0  0
    2.0986   -1.5394    0.8959 C   0  0  2  0  0  0  0  0  0  0  0  0
    1.4804   -2.5222   -0.1267 C   0  0  0  0  0  0  0  0  0  0  0  0
   -0.2757   -2.8843    0.1992 S   0  0  0  0  0  1  0  0  0  0  0  0
   -1.2850   -0.4178   -1.5892 C   0  0  0  0  0  0  0  0  0  0  0  0
   -2.3945   -0.1610   -0.6566 C   0  0  0  0  0  0  0  0  0  0  0  0
   -2.6268    1.1042   -0.1049 C   0  0  0  0  0  0  0  0  0  0  0  0
   -3.6827    1.3257    0.7841 C   0  0  0  0  0  0  0  0  0  0  0  0
   -3.9320    2.6614    1.4240 C   0  0  0  0  0  0  0  0  0  0  0  0
   -2.8411    3.4815    1.5188 N   0  0  0  0  0  0  0  0  0  0  0  0
   -5.0264    2.9966    1.8354 O   0  0  0  0  0  0  0  0  0  0  0  0
   -4.5515    0.2765    1.0943 C   0  0  0  0  0  0  0  0  0  0  0  0
   -4.3351   -0.9864    0.5478 C   0  0  0  0  0  0  0  0  0  0  0  0
   -3.2634   -1.2068   -0.3112 C   0  0  0  0  0  0  0  0  0  0  0  0
   -0.2594    0.4208   -1.8275 C   0  0  0  0  0  0  0  0  0  0  0  0
    0.7627    0.0824   -2.8229 C   0  0  0  0  0  0  0  0  0  0  0  0
    0.7330   -0.8250   -3.6175 O   0  0  0  0  0  0  0  0  0  0  0  0
    1.8059    0.9486   -2.7623 O   0  0  0  0  0  0  0  0  0  0  0  0
    2.8671    0.6803   -3.6554 C   0  0  0  0  0  0  0  0  0  0  0  0
    1.2038   -0.4079    1.0091 N   0  0  0  0  0  0  0  0  0  0  0  0
    1.3972    0.6094    1.8808 C   0  0  0  0  0  0  0  0  0  0  0  0
    0.2099    1.5573    2.0032 C   0  0  0  0  0  0  0  0  0  0  0  0
    2.4397    0.8106    2.4790 O   0  0  0  0  0  0  0  0  0  0  0  0
    2.2080   -2.0480    1.8676 H   0  0  0  0  0  0  0  0  0  0  0  0
    3.6070   -0.1237   -0.4044 N   0  0  0  0  0  0  0  0  0  0  0  0
    4.8731    0.4370   -0.7846 C   0  0  0  0  0  0  0  0  0  0  0  0
    1.5875   -2.0770   -1.1327 H   0  0  0  0  0  0  0  0  0  0  0  0
    2.0910   -3.4370   -0.1137 H   0  0  0  0  0  0  0  0  0  0  0  0
   -1.9848    1.9375   -0.3979 H   0  0  0  0  0  0  0  0  0  0  0  0
   -1.9051    3.1044    1.4556 H   0  0  0  0  0  0  0  0  0  0  0  0
   -2.9684    4.3348    2.0469 H   0  0  0  0  0  0  0  0  0  0  0  0
   -5.3847    0.4714    1.7720 H   0  0  0  0  0  0  0  0  0  0  0  0
   -4.9988   -1.8139    0.8072 H   0  0  0  0  0  0  0  0  0  0  0  0
   -3.0596   -2.2046   -0.7049 H   0  0  0  0  0  0  0  0  0  0  0  0
    3.6056    1.4776   -3.5077 H   0  0  0  0  0  0  0  0  0  0  0  0
    2.5157    0.6749   -4.6980 H   0  0  0  0  0  0  0  0  0  0  0  0
    3.3215   -0.2979   -3.4363 H   0  0  0  0  0  0  0  0  0  0  0  0
    0.2444   -0.6984    0.7673 H   0  0  0  0  0  0  0  0  0  0  0  0
   -0.7499    1.0224    1.9454 H   0  0  0  0  0  0  0  0  0  0  0  0
    0.2553    2.2878    1.1777 H   0  0  0  0  0  0  0  0  0  0  0  0
    0.2872    2.0989    2.9542 H   0  0  0  0  0  0  0  0  0  0  0  0
    2.7514    0.3556   -0.6584 H   0  0  0  0  0  0  0  0  0  0  0  0
    5.6458   -0.0356   -0.1635 H   0  0  0  0  0  0  0  0  0  0  0  0
    4.8930    1.5256   -0.6149 H   0  0  0  0  0  0  0  0  0  0  0  0
    5.1232    0.2448   -1.8424 H   0  0  0  0  0  0  0  0  0  0  0  0
   -0.1010    1.3403   -1.2608 H   0  0  0  0  0  0  0  0  0  0  0  0
   -1.3182   -1.3546   -2.1495 H   0  0  0  0  0  0  0  0  0  0  0  0
  2  1  2  0  0  0  0
  2  3  1  0  0  0  0
  3 21  1  0  0  0  0
  3 25  1  1  0  0  0
  4 29  1  0  0  0  0
  4  5  1  0  0  0  0
  4  3  1  0  0  0  0
  6  7  1  0  0  0  0
  7 15  2  0  0  0  0
  7  8  1  0  0  0  0
  8  9  2  0  0  0  0
  9 13  1  0  0  0  0
  9 10  1  0  0  0  0
 10 11  1  0  0  0  0
 10 12  2  0  0  0  0
 11 32  1  0  0  0  0
 13 33  1  0  0  0  0
 14 34  1  0  0  0  0
 14 13  2  0  0  0  0
 15 14  1  0  0  0  0
 16  6  2  0  0  0  0
 16 47  1  0  0  0  0
 17 19  1  0  0  0  0
 17 16  1  0  0  0  0
 18 17  2  0  0  0  0
 20 36  1  0  0  0  0
 20 38  1  0  0  0  0
 20 19  1  0  0  0  0
 21 22  1  0  0  0  0
 22 23  1  0  0  0  0
 22 24  2  0  0  0  0
 23 42  1  0  0  0  0
 26  2  1  0  0  0  0
 27 45  1  0  0  0  0
 27 26  1  0  0  0  0
 27 44  1  0  0  0  0
 28  4  1  0  0  0  0
 30  8  1  0  0  0  0
 31 11  1  0  0  0  0
 35 15  1  0  0  0  0
 37 20  1  0  0  0  0
 39 21  1  0  0  0  0
 40 23  1  0  0  0  0
 41 23  1  0  0  0  0
 43 26  1  0  0  0  0
 46 27  1  0  0  0  0
 48  6  1  0  0  0  0
M  END
