65
-1 1
O        -0.577032    4.016695    0.557832
C        -0.312119    2.891318    0.086561
N        -1.407635    2.169816   -0.480667
C        -1.378918    1.249211   -1.586802
C        -1.960386   -0.113658   -1.200484
C        -3.248457   -0.010274   -0.367754
C        -3.236105    1.103333    0.690255
H        -4.258642    1.251930    1.076521
C        -2.726067    2.399994    0.021176
N        -2.370628    0.838775    1.852021
N        -2.110051    1.918257    2.636995
C        -1.009327    1.696089    3.307581
C        -0.389840    2.702898    4.196558
C         0.302098    3.903726    3.572132
C        -0.984118    4.077406    4.317903
C        -1.450342   -0.135870    2.080499
C        -0.519981    0.392966    2.990300
C         0.628347   -0.384121    3.227085
N         1.698397    0.104292    3.914499
N         0.684401   -1.635876    2.766248
C        -0.349522   -2.068902    2.034036
N        -1.406772   -1.399498    1.618194
C         0.962970    2.286280    0.165313
C         1.282730    0.875791    0.059461
S         2.154879    0.328363   -1.607451
C         2.512375   -1.427576   -1.266135
C         2.002247   -2.386155   -2.351206
H         2.444251   -3.382433   -2.184328
N         2.443420   -1.963774   -3.652390
C         2.727995   -2.862998   -4.635117
C         2.796012   -2.266140   -6.026953
O         2.911334   -4.047482   -4.423894
C         0.473367   -2.606809   -2.375952
N        -0.049486   -3.075022   -1.213488
C        -1.434822   -3.450844   -1.064157
O        -0.182647   -2.442702   -3.386527
H        -0.355084    1.127661   -1.961888
H        -1.978223    1.672727   -2.423747
H        -1.208218   -0.671030   -0.628503
H        -2.150887   -0.707929   -2.107887
H        -3.488426   -0.983071    0.085907
H        -4.090047    0.246375   -1.034680
H        -2.689151    3.234453    0.728732
H        -3.436217    2.659431   -0.792311
H         0.067954    2.281084    5.097795
H         0.242161    3.993150    2.476295
H         1.226910    4.246335    4.046554
H        -1.875078    4.272403    3.717460
H        -0.973204    4.539741    5.308593
H         1.819137    1.110197    3.903095
H         2.542805   -0.447740    3.830780
H        -0.299004   -3.123831    1.730599
H         1.759038    2.963260    0.486728
H         0.411959    0.210402    0.114922
H         2.032155    0.542866    0.794883
H         2.073747   -1.670033   -0.283294
H         3.599300   -1.570350   -1.172679
H         2.126315   -1.037429   -3.922181
H         3.264721   -1.271537   -6.027071
H         1.769017   -2.161229   -6.409402
H         3.353041   -2.945572   -6.682741
H         0.552295   -3.125571   -0.403540
H        -1.945698   -3.209230   -2.004051
H        -1.905253   -2.891893   -0.241137
H        -1.535613   -4.533718   -0.878847
