-1 1
 OpenBabel05232413493D

 65 67  0  0  1  0  0  0  0  0999 V2000
   -0.6034    3.4672    0.2441 O   0  0  0  0  0  0  0  0  0  0  0  0
   -0.2969    2.4933   -0.4335 C   0  0  0  0  0  0  0  0  0  0  0  0
   -1.2358    1.6711   -0.9908 N   0  0  0  0  0  0  0  0  0  0  0  0
   -1.0238    0.5858   -1.9414 C   0  0  0  0  0  0  0  0  0  0  0  0
   -1.3681   -0.7690   -1.3321 C   0  0  0  0  0  0  0  0  0  0  0  0
   -2.6735   -0.7591   -0.5262 C   0  0  0  0  0  0  0  0  0  0  0  0
   -2.9202    0.5017    0.3123 C   0  0  2  0  0  0  0  0  0  0  0  0
   -3.9813    0.5363    0.6052 H   0  0  0  0  0  0  0  0  0  0  0  0
   -2.6038    1.7507   -0.5297 C   0  0  0  0  0  0  0  0  0  0  0  0
   -2.1641    0.6007    1.5645 N   0  0  0  0  0  0  0  0  0  0  0  0
   -2.4156    1.7173    2.2956 N   0  0  0  0  0  0  0  0  0  0  0  0
   -1.4572    1.8583    3.1766 C   0  0  0  0  0  0  0  0  0  0  0  0
   -1.3569    3.0362    4.0693 C   0  0  0  0  0  0  0  0  0  0  0  0
   -0.6556    4.2695    3.5279 C   0  0  0  0  0  0  0  0  0  0  0  0
   -2.1381    4.2767    3.7556 C   0  0  0  0  0  0  0  0  0  0  0  0
   -1.0249   -0.0113    2.0045 C   0  0  0  0  0  0  0  0  0  0  0  0
   -0.5259    0.7858    3.0466 C   0  0  0  0  0  0  0  0  0  0  0  0
    0.7069    0.3797    3.6026 C   0  0  1  0  0  3  0  0  0  0  0  0
    1.3327    1.0953    4.5775 N   0  0  0  0  0  0  0  0  0  0  0  0
    1.2815   -0.7411    3.1785 N   0  0  0  0  0  0  0  0  0  0  0  0
    0.6737   -1.4425    2.2104 C   0  0  0  0  0  0  0  0  0  0  0  0
   -0.4576   -1.1502    1.5870 N   0  0  0  0  0  2  0  0  0  0  0  0
    1.1562    2.1850   -0.6180 C   0  0  0  0  0  0  0  0  0  0  0  0
    1.7284    1.0119   -0.3400 C   0  0  0  0  0  0  0  0  0  0  0  0
    3.1685   -2.4443   -0.4627 S   0  0  0  0  0  1  0  0  0  0  0  0
    2.9611   -3.3848   -2.0310 C   0  0  0  0  0  0  0  0  0  0  0  0
    1.7254   -2.9798   -2.8578 C   0  0  2  0  0  0  0  0  0  0  0  0
    1.7824   -3.4033   -3.8714 H   0  0  0  0  0  0  0  0  0  0  0  0
    1.7081   -1.5378   -3.0170 N   0  0  0  0  0  0  0  0  0  0  0  0
    1.8016   -0.9258   -4.2246 C   0  0  0  0  0  0  0  0  0  0  0  0
    2.0230    0.5781   -4.1641 C   0  0  0  0  0  0  0  0  0  0  0  0
    1.6986   -1.4978   -5.2956 O   0  0  0  0  0  0  0  0  0  0  0  0
    0.3710   -3.4703   -2.3110 C   0  0  0  0  0  0  0  0  0  0  0  0
    0.3211   -3.6673   -0.9762 N   0  0  0  0  0  0  0  0  0  0  0  0
   -0.8862   -4.0481   -0.2952 C   0  0  0  0  0  0  0  0  0  0  0  0
   -0.5826   -3.6442   -3.0598 O   0  0  0  0  0  0  0  0  0  0  0  0
    0.0103    0.5876   -2.2965 H   0  0  0  0  0  0  0  0  0  0  0  0
   -1.6671    0.7915   -2.8174 H   0  0  0  0  0  0  0  0  0  0  0  0
   -0.5488   -1.0893   -0.6776 H   0  0  0  0  0  0  0  0  0  0  0  0
   -1.4342   -1.5205   -2.1324 H   0  0  0  0  0  0  0  0  0  0  0  0
   -2.7279   -1.6575    0.1043 H   0  0  0  0  0  0  0  0  0  0  0  0
   -3.5291   -0.8104   -1.2213 H   0  0  0  0  0  0  0  0  0  0  0  0
   -2.7305    2.6608    0.0652 H   0  0  0  0  0  0  0  0  0  0  0  0
   -3.2884    1.7837   -1.3952 H   0  0  0  0  0  0  0  0  0  0  0  0
   -1.1958    2.8005    5.1271 H   0  0  0  0  0  0  0  0  0  0  0  0
   -0.3140    4.2123    2.4895 H   0  0  0  0  0  0  0  0  0  0  0  0
   -0.0211    4.8396    4.2126 H   0  0  0  0  0  0  0  0  0  0  0  0
   -2.7814    4.2348    2.8748 H   0  0  0  0  0  0  0  0  0  0  0  0
   -2.5359    4.8474    4.5979 H   0  0  0  0  0  0  0  0  0  0  0  0
    1.1046    2.0766    4.6635 H   0  0  0  0  0  0  0  0  0  0  0  0
    2.2928    0.8268    4.7536 H   0  0  0  0  0  0  0  0  0  0  0  0
    1.1978   -2.3447    1.8755 H   0  0  0  0  0  0  0  0  0  0  0  0
    1.7661    3.0684   -0.8318 H   0  0  0  0  0  0  0  0  0  0  0  0
    1.1543    0.1195   -0.0759 H   0  0  0  0  0  0  0  0  0  0  0  0
    2.8124    0.8744   -0.3593 H   0  0  0  0  0  0  0  0  0  0  0  0
    2.9046   -4.4673   -1.8302 H   0  0  0  0  0  0  0  0  0  0  0  0
    3.8438   -3.2240   -2.6705 H   0  0  0  0  0  0  0  0  0  0  0  0
    2.0392   -1.0624   -2.1724 H   0  0  0  0  0  0  0  0  0  0  0  0
    2.2632    0.9472   -3.1579 H   0  0  0  0  0  0  0  0  0  0  0  0
    1.1121    1.0825   -4.5201 H   0  0  0  0  0  0  0  0  0  0  0  0
    2.8351    0.8365   -4.8575 H   0  0  0  0  0  0  0  0  0  0  0  0
    1.1438   -3.3507   -0.4365 H   0  0  0  0  0  0  0  0  0  0  0  0
   -1.7089   -4.0456   -1.0238 H   0  0  0  0  0  0  0  0  0  0  0  0
   -1.1082   -3.3334    0.5131 H   0  0  0  0  0  0  0  0  0  0  0  0
   -0.8097   -5.0605    0.1384 H   0  0  0  0  0  0  0  0  0  0  0  0
  2  1  2  0  0  0  0
  3  9  1  0  0  0  0
  3  2  1  0  0  0  0
  4  5  1  0  0  0  0
  4  3  1  0  0  0  0
  5 39  1  0  0  0  0
  5  6  1  0  0  0  0
  6 41  1  0  0  0  0
  6  7  1  0  0  0  0
  7  8  1  1  0  0  0
  7 10  1  0  0  0  0
  9 43  1  0  0  0  0
  9  7  1  0  0  0  0
 10 16  1  0  0  0  0
 10 11  1  0  0  0  0
 11 12  2  0  0  0  0
 12 13  1  0  0  0  0
 13 45  1  0  0  0  0
 14 15  1  0  0  0  0
 14 13  1  0  0  0  0
 14 47  1  0  0  0  0
 15 13  1  0  0  0  0
 15 49  1  0  0  0  0
 16 17  2  0  0  0  0
 17 12  1  0  0  0  0
 17 18  1  0  0  0  0
 18 19  1  1  0  0  0
 19 50  1  0  0  0  0
 19 51  1  0  0  0  0
 20 18  1  0  0  0  0
 21 20  2  0  0  0  0
 22 16  1  0  0  0  0
 22 21  1  0  0  0  0
 23  2  1  0  0  0  0
 23 24  2  0  0  0  0
 24 54  1  0  0  0  0
 26 56  1  0  0  0  0
 26 25  1  0  0  0  0
 27 28  1  6  0  0  0
 27 33  1  0  0  0  0
 27 26  1  0  0  0  0
 29 27  1  0  0  0  0
 29 58  1  0  0  0  0
 30 31  1  0  0  0  0
 30 29  1  0  0  0  0
 31 59  1  0  0  0  0
 32 30  2  0  0  0  0
 33 34  1  0  0  0  0
 34 62  1  0  0  0  0
 34 35  1  0  0  0  0
 35 65  1  0  0  0  0
 35 64  1  0  0  0  0
 36 33  2  0  0  0  0
 37  4  1  0  0  0  0
 38  4  1  0  0  0  0
 40  5  1  0  0  0  0
 42  6  1  0  0  0  0
 44  9  1  0  0  0  0
 46 14  1  0  0  0  0
 48 15  1  0  0  0  0
 52 21  1  0  0  0  0
 53 23  1  0  0  0  0
 55 24  1  0  0  0  0
 57 26  1  0  0  0  0
 60 31  1  0  0  0  0
 61 31  1  0  0  0  0
 63 35  1  0  0  0  0
M  END
