65
-1 1
O        -0.603442    3.467199    0.244121
C        -0.296921    2.493279   -0.433525
N        -1.235824    1.671137   -0.990775
C        -1.023846    0.585756   -1.941384
C        -1.368107   -0.769047   -1.332116
C        -2.673510   -0.759135   -0.526199
C        -2.920201    0.501707    0.312256
H        -3.981285    0.536252    0.605167
C        -2.603814    1.750728   -0.529719
N        -2.164132    0.600746    1.564498
N        -2.415568    1.717284    2.295644
C        -1.457178    1.858261    3.176627
C        -1.356937    3.036185    4.069306
C        -0.655568    4.269465    3.527919
C        -2.138090    4.276667    3.755558
C        -1.024885   -0.011271    2.004524
C        -0.525866    0.785776    3.046599
C         0.706894    0.379733    3.602573
N         1.332661    1.095287    4.577543
N         1.281494   -0.741146    3.178540
C         0.673733   -1.442453    2.210393
N        -0.457630   -1.150247    1.586992
C         1.156232    2.184997   -0.617976
C         1.728417    1.011911   -0.339998
S         3.168462   -2.444260   -0.462730
C         2.961054   -3.384827   -2.031022
C         1.725373   -2.979846   -2.857752
H         1.782382   -3.403311   -3.871426
N         1.708136   -1.537763   -3.016982
C         1.801582   -0.925779   -4.224638
C         2.023039    0.578069   -4.164075
O         1.698610   -1.497827   -5.295616
C         0.371015   -3.470315   -2.311045
N         0.321078   -3.667288   -0.976194
C        -0.886197   -4.048070   -0.295203
O        -0.582624   -3.644218   -3.059787
H         0.010258    0.587613   -2.296494
H        -1.667059    0.791478   -2.817389
H        -0.548765   -1.089315   -0.677564
H        -1.434166   -1.520463   -2.132372
H        -2.727887   -1.657456    0.104286
H        -3.529095   -0.810434   -1.221320
H        -2.730539    2.660783    0.065194
H        -3.288384    1.783692   -1.395161
H        -1.195833    2.800452    5.127084
H        -0.313951    4.212317    2.489515
H        -0.021082    4.839633    4.212624
H        -2.781392    4.234820    2.874824
H        -2.535883    4.847423    4.597862
H         1.104606    2.076631    4.663481
H         2.292807    0.826777    4.753629
H         1.197813   -2.344712    1.875461
H         1.766115    3.068359   -0.831829
H         1.154310    0.119524   -0.075922
H         2.812359    0.874401   -0.359306
H         2.904575   -4.467301   -1.830190
H         3.843758   -3.223984   -2.670511
H         2.039201   -1.062373   -2.172360
H         2.263216    0.947154   -3.157851
H         1.112140    1.082534   -4.520050
H         2.835052    0.836537   -4.857496
H         1.143783   -3.350662   -0.436501
H        -1.708868   -4.045640   -1.023836
H        -1.108233   -3.333360    0.513106
H        -0.809690   -5.060478    0.138436
