-1 1
 OpenBabel05232413493D

 71 73  0  0  1  0  0  0  0  0999 V2000
    0.0219   -0.6772    2.6551 O   0  0  0  0  0  0  0  0  0  0  0  0
    0.0496    0.2997    1.9139 C   0  0  0  0  0  0  0  0  0  0  0  0
   -1.0907    0.9431    1.5225 N   0  0  0  0  0  0  0  0  0  0  0  0
   -1.1851    2.0663    0.5998 C   0  0  0  0  0  0  0  0  0  0  0  0
   -1.7870    1.6164   -0.7289 C   0  0  0  0  0  0  0  0  0  0  0  0
   -3.1432    0.9488   -0.5056 C   0  0  0  0  0  0  0  0  0  0  0  0
   -3.0922   -0.1484    0.5662 C   0  0  2  0  0  0  0  0  0  0  0  0
   -4.1169   -0.4430    0.8350 H   0  0  0  0  0  0  0  0  0  0  0  0
   -2.3704    0.3411    1.8326 C   0  0  0  0  0  0  0  0  0  0  0  0
   -2.4925   -1.3844    0.0777 N   0  0  0  0  0  0  0  0  0  0  0  0
   -1.1770   -1.4923   -0.1597 N   0  0  0  0  0  0  0  0  0  0  0  0
   -0.9170   -2.7465   -0.4603 C   0  0  0  0  0  0  0  0  0  0  0  0
    0.4740   -3.1739   -0.6969 C   0  0  0  0  0  0  0  0  0  0  0  0
    0.8083   -4.0170   -1.7648 C   0  0  0  0  0  0  0  0  0  0  0  0
    2.1278   -4.4101   -1.9668 C   0  0  0  0  0  0  0  0  0  0  0  0
    3.1264   -3.9532   -1.1059 C   0  0  0  0  0  0  0  0  0  0  0  0
    4.5439   -4.4254   -1.2895 C   0  0  0  0  0  0  0  0  0  0  0  0
    4.7718   -5.5671   -0.6199 F   0  0  0  0  0  0  0  0  0  0  0  0
    4.8273   -4.6734   -2.5744 F   0  0  0  0  0  0  0  0  0  0  0  0
    5.4346   -3.5342   -0.8474 F   0  0  0  0  0  0  0  0  0  0  0  0
    2.8025   -3.1016   -0.0478 C   0  0  0  0  0  0  0  0  0  0  0  0
    1.4829   -2.7167    0.1620 C   0  0  0  0  0  0  0  0  0  0  0  0
   -3.1166   -2.5796   -0.0726 C   0  0  0  0  0  0  0  0  0  0  0  0
   -2.1265   -3.5111   -0.4293 C   0  0  0  0  0  0  0  0  0  0  0  0
   -2.5767   -4.8501   -0.5521 C   0  0  2  0  0  3  0  0  0  0  0  0
   -1.7469   -5.8833   -0.8333 N   0  0  0  0  0  0  0  0  0  0  0  0
   -3.8726   -5.1194   -0.3942 N   0  0  0  0  0  0  0  0  0  0  0  0
   -4.7074   -4.1145   -0.0890 C   0  0  0  0  0  0  0  0  0  0  0  0
   -4.4196   -2.8414    0.1020 N   0  0  0  0  0  2  0  0  0  0  0  0
    1.3849    0.7905    1.4518 C   0  0  0  0  0  0  0  0  0  0  0  0
    1.7618    1.0484    0.1982 C   0  0  0  0  0  0  0  0  0  0  0  0
    1.2835    4.1708   -1.4541 S   0  0  0  0  0  1  0  0  0  0  0  0
    1.3209    5.8854   -0.7909 C   0  0  0  0  0  0  0  0  0  0  0  0
    0.4300    6.1123    0.4563 C   0  0  2  0  0  0  0  0  0  0  0  0
    0.6881    7.0675    0.9386 H   0  0  0  0  0  0  0  0  0  0  0  0
    0.6677    5.0246    1.3767 N   0  0  0  0  0  0  0  0  0  0  0  0
    0.1942    4.9828    2.6416 C   0  0  0  0  0  0  0  0  0  0  0  0
    0.4574    3.6775    3.3759 C   0  0  0  0  0  0  0  0  0  0  0  0
   -0.4132    5.9006    3.1671 O   0  0  0  0  0  0  0  0  0  0  0  0
   -1.0461    6.2769    0.0565 C   0  0  0  0  0  0  0  0  0  0  0  0
   -1.6070    5.1437   -0.4539 N   0  0  0  0  0  0  0  0  0  0  0  0
   -2.9180    5.1626   -1.0430 C   0  0  0  0  0  0  0  0  0  0  0  0
   -1.6296    7.3410    0.1582 O   0  0  0  0  0  0  0  0  0  0  0  0
   -0.2086    2.5330    0.4382 H   0  0  0  0  0  0  0  0  0  0  0  0
   -1.8271    2.8406    1.0573 H   0  0  0  0  0  0  0  0  0  0  0  0
   -1.0970    0.9129   -1.2180 H   0  0  0  0  0  0  0  0  0  0  0  0
   -1.8869    2.4812   -1.3996 H   0  0  0  0  0  0  0  0  0  0  0  0
   -3.5488    0.5292   -1.4390 H   0  0  0  0  0  0  0  0  0  0  0  0
   -3.8652    1.7076   -0.1568 H   0  0  0  0  0  0  0  0  0  0  0  0
   -2.2045   -0.4861    2.5327 H   0  0  0  0  0  0  0  0  0  0  0  0
   -3.0151    1.0940    2.3189 H   0  0  0  0  0  0  0  0  0  0  0  0
    0.0306   -4.3481   -2.4576 H   0  0  0  0  0  0  0  0  0  0  0  0
    2.3855   -5.0560   -2.8079 H   0  0  0  0  0  0  0  0  0  0  0  0
    3.5850   -2.7355    0.6187 H   0  0  0  0  0  0  0  0  0  0  0  0
    1.2169   -2.0684    1.0012 H   0  0  0  0  0  0  0  0  0  0  0  0
   -0.7470   -5.7681   -0.7458 H   0  0  0  0  0  0  0  0  0  0  0  0
   -2.1402   -6.8120   -0.7644 H   0  0  0  0  0  0  0  0  0  0  0  0
   -5.7602   -4.3984    0.0252 H   0  0  0  0  0  0  0  0  0  0  0  0
    2.1267    0.7830    2.2569 H   0  0  0  0  0  0  0  0  0  0  0  0
    1.0709    1.0215   -0.6461 H   0  0  0  0  0  0  0  0  0  0  0  0
    2.7956    1.3078   -0.0367 H   0  0  0  0  0  0  0  0  0  0  0  0
    1.0116    6.6090   -1.5614 H   0  0  0  0  0  0  0  0  0  0  0  0
    2.3547    6.1409   -0.5076 H   0  0  0  0  0  0  0  0  0  0  0  0
    1.0831    4.2032    0.9278 H   0  0  0  0  0  0  0  0  0  0  0  0
    1.3175    3.1267    2.9712 H   0  0  0  0  0  0  0  0  0  0  0  0
   -0.4303    3.0317    3.2909 H   0  0  0  0  0  0  0  0  0  0  0  0
    0.6159    3.8958    4.4397 H   0  0  0  0  0  0  0  0  0  0  0  0
   -0.9115    4.4697   -0.8120 H   0  0  0  0  0  0  0  0  0  0  0  0
   -3.5140    4.2916   -0.7205 H   0  0  0  0  0  0  0  0  0  0  0  0
   -2.8764    5.1600   -2.1464 H   0  0  0  0  0  0  0  0  0  0  0  0
   -3.4275    6.0800   -0.7192 H   0  0  0  0  0  0  0  0  0  0  0  0
  2  1  2  0  0  0  0
  3  9  1  0  0  0  0
  3  2  1  0  0  0  0
  4 45  1  0  0  0  0
  4  3  1  0  0  0  0
  5  6  1  0  0  0  0
  5  4  1  0  0  0  0
  6 49  1  0  0  0  0
  6  7  1  0  0  0  0
  7  8  1  1  0  0  0
  7  9  1  0  0  0  0
  9 51  1  0  0  0  0
  9 50  1  0  0  0  0
 10  7  1  0  0  0  0
 11 10  1  0  0  0  0
 12 24  1  0  0  0  0
 12 11  2  0  0  0  0
 13 12  1  0  0  0  0
 13 22  1  0  0  0  0
 14 13  2  0  0  0  0
 15 14  1  0  0  0  0
 15 16  2  0  0  0  0
 16 21  1  0  0  0  0
 17 16  1  0  0  0  0
 17 20  1  0  0  0  0
 17 18  1  0  0  0  0
 19 17  1  0  0  0  0
 21 22  2  0  0  0  0
 21 54  1  0  0  0  0
 22 55  1  0  0  0  0
 23 10  1  0  0  0  0
 23 29  1  0  0  0  0
 24 23  2  0  0  0  0
 25 26  1  6  0  0  0
 25 24  1  0  0  0  0
 25 27  1  0  0  0  0
 26 57  1  0  0  0  0
 26 56  1  0  0  0  0
 27 28  2  0  0  0  0
 28 58  1  0  0  0  0
 28 29  1  0  0  0  0
 30  2  1  0  0  0  0
 30 59  1  0  0  0  0
 31 30  2  0  0  0  0
 32 33  1  0  0  0  0
 33 63  1  0  0  0  0
 33 34  1  0  0  0  0
 34 35  1  1  0  0  0
 34 36  1  0  0  0  0
 36 37  1  0  0  0  0
 37 39  2  0  0  0  0
 37 38  1  0  0  0  0
 38 67  1  0  0  0  0
 40 43  2  0  0  0  0
 40 34  1  0  0  0  0
 41 40  1  0  0  0  0
 42 69  1  0  0  0  0
 42 71  1  0  0  0  0
 42 41  1  0  0  0  0
 44  4  1  0  0  0  0
 46  5  1  0  0  0  0
 47  5  1  0  0  0  0
 48  6  1  0  0  0  0
 52 14  1  0  0  0  0
 53 15  1  0  0  0  0
 60 31  1  0  0  0  0
 61 31  1  0  0  0  0
 62 33  1  0  0  0  0
 64 36  1  0  0  0  0
 65 38  1  0  0  0  0
 66 38  1  0  0  0  0
 68 41  1  0  0  0  0
 70 42  1  0  0  0  0
M  END
