71
-1 1
O         0.021942   -0.677234    2.655131
C         0.049598    0.299687    1.913946
N        -1.090707    0.943105    1.522453
C        -1.185054    2.066325    0.599793
C        -1.786981    1.616386   -0.728863
C        -3.143234    0.948848   -0.505560
C        -3.092227   -0.148375    0.566166
H        -4.116904   -0.442983    0.835034
C        -2.370411    0.341087    1.832597
N        -2.492548   -1.384369    0.077713
N        -1.176962   -1.492282   -0.159674
C        -0.916977   -2.746508   -0.460263
C         0.474036   -3.173895   -0.696925
C         0.808254   -4.017018   -1.764755
C         2.127769   -4.410101   -1.966850
C         3.126375   -3.953180   -1.105937
C         4.543935   -4.425439   -1.289541
F         4.771766   -5.567109   -0.619865
F         4.827290   -4.673443   -2.574434
F         5.434600   -3.534175   -0.847442
C         2.802462   -3.101603   -0.047801
C         1.482948   -2.716694    0.162022
C        -3.116596   -2.579589   -0.072627
C        -2.126465   -3.511073   -0.429311
C        -2.576653   -4.850118   -0.552095
N        -1.746916   -5.883309   -0.833323
N        -3.872568   -5.119424   -0.394199
C        -4.707383   -4.114508   -0.088962
N        -4.419607   -2.841445    0.102025
C         1.384948    0.790473    1.451782
C         1.761792    1.048392    0.198235
S         1.283456    4.170824   -1.454121
C         1.320912    5.885442   -0.790937
C         0.429962    6.112337    0.456260
H         0.688146    7.067508    0.938570
N         0.667728    5.024635    1.376679
C         0.194222    4.982817    2.641626
C         0.457362    3.677509    3.375853
O        -0.413214    5.900610    3.167111
C        -1.046087    6.276880    0.056531
N        -1.606965    5.143693   -0.453888
C        -2.917976    5.162566   -1.042972
O        -1.629590    7.341032    0.158181
H        -0.208590    2.533047    0.438159
H        -1.827079    2.840596    1.057268
H        -1.097034    0.912895   -1.218022
H        -1.886924    2.481182   -1.399558
H        -3.548754    0.529190   -1.439032
H        -3.865193    1.707551   -0.156764
H        -2.204516   -0.486089    2.532745
H        -3.015120    1.094012    2.318856
H         0.030582   -4.348122   -2.457596
H         2.385511   -5.056018   -2.807897
H         3.584955   -2.735478    0.618732
H         1.216861   -2.068352    1.001173
H        -0.747017   -5.768062   -0.745800
H        -2.140172   -6.811991   -0.764407
H        -5.760166   -4.398385    0.025234
H         2.126653    0.783035    2.256923
H         1.070904    1.021510   -0.646095
H         2.795632    1.307816   -0.036723
H         1.011598    6.608995   -1.561433
H         2.354659    6.140856   -0.507637
H         1.083128    4.203225    0.927846
H         1.317467    3.126727    2.971215
H        -0.430315    3.031664    3.290853
H         0.615867    3.895787    4.439725
H        -0.911526    4.469733   -0.812039
H        -3.514004    4.291601   -0.720475
H        -2.876394    5.159996   -2.146437
H        -3.427495    6.080030   -0.719171
