71
-1 1
O        -0.362989    0.167696    2.464453
C        -0.349104    0.822125    1.404511
N        -1.616838    1.184458    0.876787
C        -1.891185    2.101739   -0.197568
C        -2.471778    1.381841   -1.417737
C        -3.685960    0.537047   -1.019880
C        -3.445903   -0.325039    0.227043
H        -4.406437   -0.720990    0.587791
C        -2.782935    0.496294    1.347473
N        -2.661015   -1.522389   -0.049709
N        -1.406527   -1.461173   -0.519172
C        -0.888377   -2.670062   -0.461264
C         0.511650   -2.894937   -0.863316
C         0.883197   -4.008876   -1.628670
C         2.212412   -4.205050   -1.990525
C         3.181486   -3.280685   -1.597056
C         4.625141   -3.526086   -1.941425
F         5.228245   -4.301032   -1.024985
F         4.760007   -4.155782   -3.117725
F         5.329969   -2.393933   -2.013467
C         2.815457   -2.161882   -0.845648
C         1.489091   -1.968888   -0.474686
C        -2.979988   -2.785680    0.327911
C        -1.850777   -3.583405    0.075667
C        -1.963255   -4.933248    0.491815
N        -0.944942   -5.825445    0.386365
N        -3.115075   -5.366519    1.003125
C        -4.124898   -4.493409    1.142931
N        -4.139695   -3.207458    0.853748
C         0.857685    1.259863    0.787961
C         1.150437    1.520281   -0.635422
S         1.282977    3.320659   -1.293362
C         2.071765    4.213192    0.083004
C         1.113191    4.972274    1.011943
H         1.714156    5.577335    1.712450
N         0.289633    4.051262    1.751966
C        -0.280935    4.407798    2.936543
C        -1.056736    3.300715    3.621920
O        -0.218707    5.542606    3.382011
C         0.327527    6.006129    0.191580
N        -0.989774    5.739542    0.043408
C        -1.857336    6.528944   -0.783053
O         0.892121    6.967535   -0.303087
H        -0.995050    2.671871   -0.467257
H        -2.640366    2.846209    0.157293
H        -1.696113    0.732320   -1.848492
H        -2.761324    2.114884   -2.188293
H        -4.024682   -0.099197   -1.853144
H        -4.525264    1.211362   -0.773938
H        -2.478484   -0.144360    2.184864
H        -3.539491    1.218348    1.719514
H         0.120314   -4.717817   -1.959962
H         2.494676   -5.067890   -2.596564
H         3.569653   -1.433248   -0.543213
H         1.200713   -1.097576    0.125117
H        -0.000813   -5.485677    0.263424
H        -1.076443   -6.704528    0.868600
H        -5.048115   -4.909084    1.564075
H         1.721644    1.001599    1.407827
H         0.409047    1.104775   -1.335489
H         2.123453    1.091703   -0.915544
H         2.763013    4.939109   -0.364747
H         2.657036    3.494252    0.676435
H         0.408429    3.042382    1.521600
H        -0.591138    2.309548    3.513830
H        -2.055025    3.231416    3.160442
H        -1.180727    3.561124    4.680343
H        -1.314641    4.867672    0.443033
H        -2.747283    6.865814   -0.227139
H        -2.189226    5.970562   -1.674620
H        -1.290099    7.409056   -1.113794
