71
-1 1
O         0.442981    1.084685    0.046110
C        -0.756418    1.185672   -0.362165
N        -1.350060    2.470048   -0.216567
C        -2.762423    2.650922    0.057008
C        -3.056980    2.774510    1.556660
C        -2.147742    3.794229    2.250738
C        -0.672655    3.659171    1.861736
H        -0.115490    4.551923    2.183902
C        -0.537190    3.526330    0.328981
N        -0.014602    2.540452    2.528264
N        -0.642005    1.370081    2.728681
C         0.268851    0.451075    2.953182
C        -0.116079   -0.966307    3.064992
C        -1.057345   -1.477315    2.162445
C        -1.394816   -2.828305    2.205741
C        -2.362394   -3.368480    1.181770
F        -3.410544   -2.562537    1.010598
F        -1.782659   -3.527614   -0.011997
F        -2.844049   -4.572078    1.540824
C        -0.806143   -3.682410    3.140385
C         0.124622   -3.173005    4.042280
C         0.467063   -1.822328    4.007584
C         1.330656    2.385303    2.608506
C         1.573309    1.035123    2.900909
C         2.933236    0.652761    2.873840
N         3.345006   -0.638651    3.018914
N         3.872086    1.582978    2.700246
C         3.487343    2.851185    2.497401
N         2.260668    3.329974    2.415517
C        -1.478776    0.125170   -0.924996
C        -2.370864    0.221731   -2.097715
S        -1.506702   -0.215808   -3.732197
C         0.030840    0.742033   -3.578999
C         1.318117   -0.077761   -3.746505
H         2.156132    0.631075   -3.615014
N         1.420358   -0.680393   -5.052943
C         1.682900    0.010125   -6.181591
C         1.723025   -0.826797   -7.449730
O         1.846947    1.219830   -6.211648
C         1.517040   -1.225927   -2.734287
N         1.562225   -0.886372   -1.439949
C         1.635806   -1.909057   -0.426868
O         1.678993   -2.375717   -3.135348
H        -3.322739    1.801092   -0.343969
H        -3.114672    3.558144   -0.473530
H        -2.908513    1.789174    2.016673
H        -4.112194    3.061241    1.701759
H        -2.255660    3.733056    3.345414
H        -2.452020    4.814049    1.956011
H         0.511131    3.343250    0.067453
H        -0.847462    4.493895   -0.110690
H        -1.492418   -0.816947    1.402229
H        -1.075986   -4.739122    3.160477
H         0.582205   -3.833051    4.782556
H         1.194591   -1.422513    4.718650
H         2.681201   -1.373743    2.811363
H         4.305158   -0.806773    2.745937
H         4.302535    3.573104    2.366480
H        -0.961966   -0.834350   -0.847982
H        -2.799759    1.222279   -2.245998
H        -3.198137   -0.507256   -2.108442
H         0.022653    1.213097   -2.586656
H         0.050683    1.538283   -4.335317
H         1.407740   -1.697717   -5.022709
H         1.863787   -1.899626   -7.257724
H         2.529591   -0.453422   -8.094241
H         0.772175   -0.689623   -7.986290
H         1.222358    0.025730   -1.068976
H         2.581746   -2.471742   -0.485376
H         0.808318   -2.632741   -0.512790
H         1.559812   -1.408561    0.548194
