71
-1 1
O         0.278457    1.559022   -0.157679
C        -0.948726    1.617373   -0.249828
N        -1.615637    2.739003    0.187165
C        -3.022742    2.792888    0.553728
C        -3.198552    2.695742    2.072702
C        -2.274706    3.650237    2.841302
C        -0.835460    3.684509    2.315726
H        -0.301404    4.550170    2.734344
C        -0.836940    3.805197    0.781176
N        -0.055693    2.515958    2.708017
N        -0.610167    1.298134    2.835750
C         0.355878    0.405135    2.798468
C         0.033489   -1.029833    2.867985
C        -1.147442   -1.491268    2.278537
C        -1.441129   -2.851730    2.265679
C        -2.688736   -3.309435    1.552963
F        -3.758503   -2.601119    1.935222
F        -2.577135   -3.166337    0.230515
F        -2.960845   -4.598376    1.792872
C        -0.569563   -3.770628    2.850064
C         0.595821   -3.312657    3.460291
C         0.895569   -1.952537    3.473965
C         1.292773    2.421189    2.568238
C         1.617794    1.057619    2.614699
C         2.962359    0.760747    2.275495
N         3.426444   -0.503263    2.089798
N         3.827868    1.762741    2.120092
C         3.382464    3.021952    2.195271
N         2.141310    3.436809    2.377065
C        -1.704602    0.478910   -0.822186
C        -2.621922    0.552770   -1.798810
S        -1.333720    0.349627   -4.557693
C         0.218812    0.985263   -3.844146
C         1.411266    0.007046   -3.919801
H         2.341880    0.549705   -3.679712
N         1.530254   -0.502371   -5.254577
C         2.683640   -0.978048   -5.767853
C         2.519138   -1.747375   -7.068668
O         3.778544   -0.823400   -5.248854
C         1.343646   -1.162379   -2.917089
N         1.271104   -0.794201   -1.609163
C         1.146402   -1.791129   -0.583647
O         1.417862   -2.331292   -3.248850
H        -3.563129    1.979965    0.060464
H        -3.438577    3.743622    0.173946
H        -2.983270    1.664637    2.381611
H        -4.247879    2.910131    2.331179
H        -2.275758    3.404575    3.914189
H        -2.658078    4.680831    2.749293
H         0.186797    3.766928    0.393161
H        -1.283844    4.774993    0.503341
H        -1.816674   -0.774765    1.798930
H        -0.801791   -4.835764    2.825209
H         1.277730   -4.024139    3.930320
H         1.811138   -1.599995    3.954192
H         2.761811   -1.216530    1.816021
H         4.331334   -0.550120    1.635973
H         4.143638    3.799777    2.064026
H        -1.295299   -0.496395   -0.549045
H        -2.987802    1.503894   -2.191523
H        -3.035835   -0.350218   -2.243888
H         0.066506    1.267719   -2.789940
H         0.526993    1.904640   -4.368799
H         0.623910   -0.719602   -5.672791
H         2.302568   -2.798034   -6.821413
H         3.459348   -1.704828   -7.632883
H         1.691369   -1.361837   -7.681238
H         1.064359    0.166041   -1.339774
H         2.047272   -2.426254   -0.518176
H         0.290795   -2.466339   -0.758217
H         0.989780   -1.279722    0.376128
