-1 1
 OpenBabel05232413493D

 95 98  0  0  1  0  0  0  0  0999 V2000
  -10.2003   -0.9083   -7.5304 C   0  0  0  0  0  0  0  0  0  0  0  0
   -9.0158   -1.3424   -8.4005 C   0  0  0  0  0  0  0  0  0  0  0  0
   -7.6885   -1.0914   -7.7069 C   0  0  0  0  0  0  0  0  0  0  0  0
   -7.3534   -1.7398   -6.5132 C   0  0  0  0  0  0  0  0  0  0  0  0
   -6.1434   -1.5206   -5.8615 C   0  0  0  0  0  0  0  0  0  0  0  0
   -5.2159   -0.6232   -6.4084 C   0  0  0  0  0  0  0  0  0  0  0  0
   -3.9679   -0.3462   -5.8246 N   0  0  0  0  0  0  0  0  0  0  0  0
   -3.4352   -0.8318   -4.6586 C   0  0  0  0  0  0  0  0  0  0  0  0
   -2.0380   -0.3621   -4.3635 C   0  0  0  0  0  0  0  0  0  0  0  0
   -1.6783   -0.2552   -3.0179 C   0  0  0  0  0  0  0  0  0  0  0  0
   -0.3786    0.0880   -2.6414 C   0  0  0  0  0  0  0  0  0  0  0  0
    0.0086    0.1605   -1.2226 C   0  0  0  0  0  0  0  0  0  0  0  0
    0.9113    1.0431   -0.8357 N   0  0  0  0  0  0  0  0  0  0  0  0
    1.0782    0.9081    0.4856 N   0  0  0  0  0  0  0  0  0  0  0  0
    2.0067    1.7485    1.2249 C   0  0  2  0  0  0  0  0  0  0  0  0
    1.9129    1.4612    2.2817 H   0  0  0  0  0  0  0  0  0  0  0  0
    1.6686    3.2316    1.0661 C   0  0  0  0  0  0  0  0  0  0  0  0
    2.7264    4.1000    1.7483 C   0  0  0  0  0  0  0  0  0  0  0  0
    4.1285    3.7443    1.2527 C   0  0  0  0  0  0  0  0  0  0  0  0
    4.3768    2.3293    1.4597 N   0  0  0  0  0  0  0  0  0  0  0  0
    3.4457    1.4669    0.7758 C   0  0  0  0  0  0  0  0  0  0  0  0
    5.2885    1.9447    2.4225 C   0  0  0  0  0  0  0  0  0  0  0  0
    6.0995    2.7412    2.8646 O   0  0  0  0  0  0  0  0  0  0  0  0
    5.2417    0.5338    2.8956 C   0  0  0  0  0  0  0  0  0  0  0  0
    6.2139    0.0697    3.6905 C   0  0  0  0  0  0  0  0  0  0  0  0
    4.8394   -0.5975    7.4539 S   0  0  0  0  0  1  0  0  0  0  0  0
    3.9978    0.6992    6.4805 C   0  0  0  0  0  0  0  0  0  0  0  0
    2.6209    0.2837    5.9572 C   0  0  2  0  0  0  0  0  0  0  0  0
    1.9555    0.0951    6.8163 H   0  0  0  0  0  0  0  0  0  0  0  0
    2.7012   -0.9483    5.1886 N   0  0  0  0  0  0  0  0  0  0  0  0
    1.6574   -1.7739    5.0287 C   0  0  0  0  0  0  0  0  0  0  0  0
    1.9681   -3.0904    4.3494 C   0  0  0  0  0  0  0  0  0  0  0  0
    0.5043   -1.4927    5.3705 O   0  0  0  0  0  0  0  0  0  0  0  0
    1.9742    1.3721    5.0807 C   0  0  0  0  0  0  0  0  0  0  0  0
    0.6184    1.3563    5.1107 N   0  0  0  0  0  0  0  0  0  0  0  0
   -0.1712    2.2272    4.2831 C   0  0  0  0  0  0  0  0  0  0  0  0
    2.6199    2.1810    4.4246 O   0  0  0  0  0  0  0  0  0  0  0  0
    6.2342   -1.2695    4.3363 C   0  0  0  0  0  0  0  0  0  0  0  0
    5.2221   -2.1432    3.8845 O   0  0  0  0  0  0  0  0  0  0  0  0
   -0.4364   -0.6108   -0.0978 C   0  0  0  0  0  0  0  0  0  0  0  0
    0.2909   -0.0802    0.9839 C   0  0  0  0  0  0  0  0  0  0  0  0
    0.2269   -0.4741    2.2575 N   0  0  0  0  0  0  0  0  0  0  0  0
   -0.6273   -1.4644    2.4471 C   0  0  0  0  0  0  0  0  0  0  0  0
   -1.3580   -2.0966    1.5151 N   0  0  0  0  0  0  0  0  0  0  0  0
   -1.2708   -1.7163    0.2409 C   0  0  0  0  0  0  0  0  0  0  0  0
   -1.9910   -2.4272   -0.6547 N   0  0  0  0  0  0  0  0  0  0  0  0
    0.5584    0.3739   -3.6467 C   0  0  0  0  0  0  0  0  0  0  0  0
    0.2028    0.2853   -4.9878 C   0  0  0  0  0  0  0  0  0  0  0  0
   -1.0892   -0.0942   -5.3540 C   0  0  0  0  0  0  0  0  0  0  0  0
   -4.0185   -1.5807   -3.8986 O   0  0  0  0  0  0  0  0  0  0  0  0
   -5.5361    0.0339   -7.6028 C   0  0  0  0  0  0  0  0  0  0  0  0
   -6.7523   -0.1990   -8.2361 C   0  0  0  0  0  0  0  0  0  0  0  0
   -9.1555   -2.8021   -8.8460 C   0  0  0  0  0  0  0  0  0  0  0  0
  -10.1109    0.1479   -7.2361 H   0  0  0  0  0  0  0  0  0  0  0  0
  -10.2568   -1.5084   -6.6083 H   0  0  0  0  0  0  0  0  0  0  0  0
  -11.1515   -1.0365   -8.0705 H   0  0  0  0  0  0  0  0  0  0  0  0
   -9.0254   -0.7165   -9.3092 H   0  0  0  0  0  0  0  0  0  0  0  0
   -8.0584   -2.4445   -6.0634 H   0  0  0  0  0  0  0  0  0  0  0  0
   -5.9076   -2.0300   -4.9304 H   0  0  0  0  0  0  0  0  0  0  0  0
   -3.4160    0.3550   -6.3008 H   0  0  0  0  0  0  0  0  0  0  0  0
   -2.4457   -0.4321   -2.2621 H   0  0  0  0  0  0  0  0  0  0  0  0
    0.6700    3.4223    1.4896 H   0  0  0  0  0  0  0  0  0  0  0  0
    1.6169    3.4622   -0.0123 H   0  0  0  0  0  0  0  0  0  0  0  0
    2.6903    3.9220    2.8342 H   0  0  0  0  0  0  0  0  0  0  0  0
    2.5191    5.1657    1.5605 H   0  0  0  0  0  0  0  0  0  0  0  0
    4.9036    4.2954    1.7971 H   0  0  0  0  0  0  0  0  0  0  0  0
    4.2281    3.9781    0.1751 H   0  0  0  0  0  0  0  0  0  0  0  0
    3.6939    0.4126    0.9370 H   0  0  0  0  0  0  0  0  0  0  0  0
    3.5145    1.6516   -0.3129 H   0  0  0  0  0  0  0  0  0  0  0  0
    4.3573   -0.0799    2.7144 H   0  0  0  0  0  0  0  0  0  0  0  0
    7.0422    0.7452    3.9308 H   0  0  0  0  0  0  0  0  0  0  0  0
    4.6042    1.0184    5.6179 H   0  0  0  0  0  0  0  0  0  0  0  0
    3.8438    1.6063    7.0864 H   0  0  0  0  0  0  0  0  0  0  0  0
    3.6358   -1.3313    5.0466 H   0  0  0  0  0  0  0  0  0  0  0  0
    3.0425   -3.3156    4.3462 H   0  0  0  0  0  0  0  0  0  0  0  0
    1.6080   -3.0411    3.3100 H   0  0  0  0  0  0  0  0  0  0  0  0
    1.4124   -3.8874    4.8607 H   0  0  0  0  0  0  0  0  0  0  0  0
    0.2189    0.4659    5.4171 H   0  0  0  0  0  0  0  0  0  0  0  0
    0.3858    3.1589    4.1149 H   0  0  0  0  0  0  0  0  0  0  0  0
   -1.1219    2.4674    4.7828 H   0  0  0  0  0  0  0  0  0  0  0  0
   -0.3973    1.7735    3.3028 H   0  0  0  0  0  0  0  0  0  0  0  0
    6.0559   -1.1287    5.4336 H   0  0  0  0  0  0  0  0  0  0  0  0
    7.2384   -1.7238    4.2236 H   0  0  0  0  0  0  0  0  0  0  0  0
    5.2336   -2.1473    2.9220 H   0  0  0  0  0  0  0  0  0  0  0  0
   -0.7254   -1.8138    3.4821 H   0  0  0  0  0  0  0  0  0  0  0  0
   -2.5403   -3.1947   -0.2940 H   0  0  0  0  0  0  0  0  0  0  0  0
   -1.9614   -2.2590   -1.6481 H   0  0  0  0  0  0  0  0  0  0  0  0
    1.5711    0.6556   -3.3538 H   0  0  0  0  0  0  0  0  0  0  0  0
    0.9471    0.4896   -5.7604 H   0  0  0  0  0  0  0  0  0  0  0  0
   -1.3352   -0.2151   -6.4123 H   0  0  0  0  0  0  0  0  0  0  0  0
   -4.8239    0.7377   -8.0433 H   0  0  0  0  0  0  0  0  0  0  0  0
   -6.9761    0.3292   -9.1671 H   0  0  0  0  0  0  0  0  0  0  0  0
   -9.1683   -3.4823   -7.9795 H   0  0  0  0  0  0  0  0  0  0  0  0
   -8.3181   -3.1017   -9.4934 H   0  0  0  0  0  0  0  0  0  0  0  0
  -10.0935   -2.9542   -9.4027 H   0  0  0  0  0  0  0  0  0  0  0  0
  1 54  1  0  0  0  0
  1 55  1  0  0  0  0
  2  3  1  0  0  0  0
  2  1  1  0  0  0  0
  3  4  1  0  0  0  0
  4 58  1  0  0  0  0
  4  5  2  0  0  0  0
  5 59  1  0  0  0  0
  6  5  1  0  0  0  0
  6  7  1  0  0  0  0
  7  8  1  0  0  0  0
  8  9  1  0  0  0  0
  8 50  2  0  0  0  0
  9 10  1  0  0  0  0
 10 11  2  0  0  0  0
 10 61  1  0  0  0  0
 11 12  1  0  0  0  0
 12 13  2  0  0  0  0
 12 40  1  0  0  0  0
 13 14  1  0  0  0  0
 14 41  1  0  0  0  0
 14 15  1  0  0  0  0
 15 16  1  1  0  0  0
 17 15  1  0  0  0  0
 17 62  1  0  0  0  0
 17 18  1  0  0  0  0
 18 64  1  0  0  0  0
 19 20  1  0  0  0  0
 19 18  1  0  0  0  0
 19 66  1  0  0  0  0
 20 22  1  0  0  0  0
 21 68  1  0  0  0  0
 21 15  1  0  0  0  0
 21 20  1  0  0  0  0
 22 23  2  0  0  0  0
 22 24  1  0  0  0  0
 24 25  2  0  0  0  0
 25 71  1  0  0  0  0
 25 38  1  0  0  0  0
 27 73  1  0  0  0  0
 27 26  1  0  0  0  0
 28 27  1  0  0  0  0
 28 29  1  1  0  0  0
 30 28  1  0  0  0  0
 31 30  1  0  0  0  0
 31 33  2  0  0  0  0
 32 77  1  0  0  0  0
 32 31  1  0  0  0  0
 34 35  1  0  0  0  0
 34 28  1  0  0  0  0
 35 78  1  0  0  0  0
 36 80  1  0  0  0  0
 36 35  1  0  0  0  0
 37 34  2  0  0  0  0
 38 82  1  0  0  0  0
 39 38  1  0  0  0  0
 40 45  1  0  0  0  0
 40 41  2  0  0  0  0
 41 42  1  0  0  0  0
 42 43  2  0  0  0  0
 43 85  1  0  0  0  0
 44 43  1  0  0  0  0
 45 44  2  0  0  0  0
 46 86  1  0  0  0  0
 46 45  1  0  0  0  0
 47 88  1  0  0  0  0
 47 11  1  0  0  0  0
 48 47  2  0  0  0  0
 49 48  1  0  0  0  0
 49  9  2  0  0  0  0
 51  6  2  0  0  0  0
 52  3  2  0  0  0  0
 52 51  1  0  0  0  0
 53  2  1  0  0  0  0
 53 93  1  0  0  0  0
 56  1  1  0  0  0  0
 57  2  1  0  0  0  0
 60  7  1  0  0  0  0
 63 17  1  0  0  0  0
 65 18  1  0  0  0  0
 67 19  1  0  0  0  0
 69 21  1  0  0  0  0
 70 24  1  0  0  0  0
 72 27  1  0  0  0  0
 74 30  1  0  0  0  0
 75 32  1  0  0  0  0
 76 32  1  0  0  0  0
 79 36  1  0  0  0  0
 81 36  1  0  0  0  0
 83 38  1  0  0  0  0
 84 39  1  0  0  0  0
 87 46  1  0  0  0  0
 89 48  1  0  0  0  0
 90 49  1  0  0  0  0
 91 51  1  0  0  0  0
 92 52  1  0  0  0  0
 94 53  1  0  0  0  0
 95 53  1  0  0  0  0
M  END
