-1 1
 OpenBabel05192410563D

 74 78  0  0  1  0  0  0  0  0999 V2000
    1.0874    0.2304    0.0175 O   0  0  0  0  0  0  0  0  0  0  0  0
    0.3568   -0.4172   -0.7569 C   0  0  0  0  0  0  0  0  0  0  0  0
   -1.0620   -0.1202   -0.7246 N   0  0  0  0  0  0  0  0  0  0  0  0
   -2.0416   -1.1726   -0.5642 C   0  0  0  0  0  0  0  0  0  0  0  0
   -2.2746   -1.5063    0.9102 C   0  0  0  0  0  0  0  0  0  0  0  0
   -2.6405   -0.2645    1.7260 C   0  0  0  0  0  0  0  0  0  0  0  0
   -1.7625    0.9624    1.4460 C   0  0  2  0  0  0  0  0  0  0  0  0
   -2.3195    1.8636    1.7470 H   0  0  0  0  0  0  0  0  0  0  0  0
   -1.4537    1.0940   -0.0632 C   0  0  0  0  0  0  0  0  0  0  0  0
   -0.5342    1.0473    2.2408 N   0  0  0  0  0  0  0  0  0  0  0  0
    0.0888    2.2371    2.2044 N   0  0  0  0  0  0  0  0  0  0  0  0
    1.2982    2.0862    2.6949 C   0  0  0  0  0  0  0  0  0  0  0  0
    2.2338    3.2224    2.7347 C   0  0  0  0  0  0  0  0  0  0  0  0
    1.7649    4.5197    3.0880 C   0  0  0  0  0  0  0  0  0  0  0  0
    2.6210    5.5889    3.1306 C   0  0  0  0  0  0  0  0  0  0  0  0
    3.5619    3.0578    2.3978 C   0  0  0  0  0  0  0  0  0  0  0  0
    4.4742    4.1462    2.4401 C   0  0  0  0  0  0  0  0  0  0  0  0
    4.0013    5.4356    2.8199 C   0  0  0  0  0  0  0  0  0  0  0  0
    4.9188    6.5198    2.8650 C   0  0  0  0  0  0  0  0  0  0  0  0
    6.2423    6.3372    2.5435 C   0  0  0  0  0  0  0  0  0  0  0  0
    6.7113    5.0575    2.1571 C   0  0  0  0  0  0  0  0  0  0  0  0
    5.8479    3.9901    2.1051 C   0  0  0  0  0  0  0  0  0  0  0  0
    0.2790    0.0956    2.7712 C   0  0  0  0  0  0  0  0  0  0  0  0
    1.4861    0.7331    3.1086 C   0  0  0  0  0  0  0  0  0  0  0  0
    2.4395   -0.0680    3.7770 C   0  0  1  0  0  3  0  0  0  0  0  0
    3.6339    0.4079    4.2192 N   0  0  0  0  0  0  0  0  0  0  0  0
    2.1775   -1.3549    3.9999 N   0  0  0  0  0  0  0  0  0  0  0  0
    0.9925   -1.8360    3.5991 C   0  0  0  0  0  0  0  0  0  0  0  0
    0.0014   -1.1914    3.0195 N   0  0  0  0  0  2  0  0  0  0  0  0
    0.8070   -1.3603   -1.6981 C   0  0  0  0  0  3  0  0  0  0  0  0
    0.0665   -1.8226   -2.8629 C   0  0  0  0  0  0  0  0  0  0  0  0
   -0.4658   -3.6921   -2.8129 S   0  0  0  0  0  0  0  0  0  0  0  0
   -1.3699   -3.8190   -4.3815 C   0  0  0  0  0  0  0  0  0  0  0  0
   -2.7433   -3.1325   -4.3986 C   0  0  2  0  0  0  0  0  0  0  0  0
   -2.6184   -2.0369   -4.4651 H   0  0  0  0  0  0  0  0  0  0  0  0
   -3.4563   -3.4337   -3.1647 N   0  0  0  0  0  0  0  0  0  0  0  0
   -4.4703   -2.6844   -2.6767 C   0  0  0  0  0  0  0  0  0  0  0  0
   -4.9117   -3.0239   -1.2701 C   0  0  0  0  0  0  0  0  0  0  0  0
   -5.0460   -1.8167   -3.3265 O   0  0  0  0  0  0  0  0  0  0  0  0
   -3.5353   -3.5840   -5.6507 C   0  0  0  0  0  0  0  0  0  0  0  0
   -4.6609   -2.8656   -5.8751 N   0  0  0  0  0  0  0  0  0  0  0  0
   -5.5685   -3.1754   -6.9467 C   0  0  0  0  0  0  0  0  0  0  0  0
   -3.1510   -4.4877   -6.3733 O   0  0  0  0  0  0  0  0  0  0  0  0
   -1.7161   -2.0755   -1.0953 H   0  0  0  0  0  0  0  0  0  0  0  0
   -2.9926   -0.8429   -1.0336 H   0  0  0  0  0  0  0  0  0  0  0  0
   -1.3573   -1.9504    1.3196 H   0  0  0  0  0  0  0  0  0  0  0  0
   -3.0779   -2.2555    1.0154 H   0  0  0  0  0  0  0  0  0  0  0  0
   -2.6453   -0.4923    2.8028 H   0  0  0  0  0  0  0  0  0  0  0  0
   -3.6678    0.0417    1.4581 H   0  0  0  0  0  0  0  0  0  0  0  0
   -0.6674    1.8478   -0.1904 H   0  0  0  0  0  0  0  0  0  0  0  0
   -2.3827    1.4710   -0.5366 H   0  0  0  0  0  0  0  0  0  0  0  0
    0.7052    4.6382    3.3207 H   0  0  0  0  0  0  0  0  0  0  0  0
    2.2507    6.5796    3.4075 H   0  0  0  0  0  0  0  0  0  0  0  0
    3.9154    2.0791    2.0630 H   0  0  0  0  0  0  0  0  0  0  0  0
    4.5515    7.5072    3.1579 H   0  0  0  0  0  0  0  0  0  0  0  0
    6.9369    7.1798    2.5802 H   0  0  0  0  0  0  0  0  0  0  0  0
    7.7637    4.9230    1.8963 H   0  0  0  0  0  0  0  0  0  0  0  0
    6.2037    3.0021    1.8018 H   0  0  0  0  0  0  0  0  0  0  0  0
    3.8007    1.4021    4.2656 H   0  0  0  0  0  0  0  0  0  0  0  0
    4.1803   -0.2147    4.7971 H   0  0  0  0  0  0  0  0  0  0  0  0
    0.8259   -2.9011    3.8006 H   0  0  0  0  0  0  0  0  0  0  0  0
    1.8750   -1.5837   -1.6412 H   0  0  0  0  0  0  0  0  0  0  0  0
    0.6461   -1.8102   -3.8014 H   0  0  0  0  0  0  0  0  0  0  0  0
   -0.8702   -1.2653   -3.0149 H   0  0  0  0  0  0  0  0  0  0  0  0
   -1.5041   -4.8845   -4.6138 H   0  0  0  0  0  0  0  0  0  0  0  0
   -0.7606   -3.3994   -5.1960 H   0  0  0  0  0  0  0  0  0  0  0  0
   -2.8660   -3.9131   -2.4834 H   0  0  0  0  0  0  0  0  0  0  0  0
   -4.1626   -3.5983   -0.7094 H   0  0  0  0  0  0  0  0  0  0  0  0
   -5.8429   -3.6076   -1.3267 H   0  0  0  0  0  0  0  0  0  0  0  0
   -5.1300   -2.0903   -0.7363 H   0  0  0  0  0  0  0  0  0  0  0  0
   -4.9407   -2.2189   -5.1322 H   0  0  0  0  0  0  0  0  0  0  0  0
   -5.0956   -3.9293   -7.5893 H   0  0  0  0  0  0  0  0  0  0  0  0
   -5.7916   -2.2810   -7.5502 H   0  0  0  0  0  0  0  0  0  0  0  0
   -6.5225   -3.5833   -6.5711 H   0  0  0  0  0  0  0  0  0  0  0  0
  2  3  1  0  0  0  0
  2  1  2  0  0  0  0
  3  4  1  0  0  0  0
  3  9  1  0  0  0  0
  4  5  1  0  0  0  0
  5 47  1  0  0  0  0
  5 46  1  0  0  0  0
  5  6  1  0  0  0  0
  6 48  1  0  0  0  0
  7  6  1  0  0  0  0
  7  8  1  1  0  0  0
  7 10  1  0  0  0  0
  9  7  1  0  0  0  0
 10 23  1  0  0  0  0
 11 10  1  0  0  0  0
 11 12  2  0  0  0  0
 12 13  1  0  0  0  0
 12 24  1  0  0  0  0
 13 14  1  0  0  0  0
 14 15  2  0  0  0  0
 14 52  1  0  0  0  0
 15 53  1  0  0  0  0
 16 17  1  0  0  0  0
 16 13  2  0  0  0  0
 17 18  1  0  0  0  0
 18 19  2  0  0  0  0
 18 15  1  0  0  0  0
 19 55  1  0  0  0  0
 20 56  1  0  0  0  0
 20 19  1  0  0  0  0
 21 20  2  0  0  0  0
 22 21  1  0  0  0  0
 22 17  2  0  0  0  0
 23 29  1  0  0  0  0
 23 24  2  0  0  0  0
 24 25  1  0  0  0  0
 25 27  1  0  0  0  0
 25 26  1  1  0  0  0
 26 59  1  0  0  0  0
 26 60  1  0  0  0  0
 28 61  1  0  0  0  0
 28 27  2  0  0  0  0
 29 28  1  0  0  0  0
 30 62  1  0  0  0  0
 30  2  1  0  0  0  0
 31 32  1  0  0  0  0
 31 30  1  0  0  0  0
 33 32  1  0  0  0  0
 34 35  1  6  0  0  0
 34 33  1  0  0  0  0
 34 36  1  0  0  0  0
 36 37  1  0  0  0  0
 36 67  1  0  0  0  0
 37 38  1  0  0  0  0
 38 70  1  0  0  0  0
 38 68  1  0  0  0  0
 39 37  2  0  0  0  0
 40 34  1  0  0  0  0
 41 40  1  0  0  0  0
 41 71  1  0  0  0  0
 42 74  1  0  0  0  0
 42 41  1  0  0  0  0
 43 40  2  0  0  0  0
 44  4  1  0  0  0  0
 45  4  1  0  0  0  0
 49  6  1  0  0  0  0
 50  9  1  0  0  0  0
 51  9  1  0  0  0  0
 54 16  1  0  0  0  0
 57 21  1  0  0  0  0
 58 22  1  0  0  0  0
 63 31  1  0  0  0  0
 64 31  1  0  0  0  0
 65 33  1  0  0  0  0
 66 33  1  0  0  0  0
 69 38  1  0  0  0  0
 72 42  1  0  0  0  0
 73 42  1  0  0  0  0
M  END
