-1 1
 OpenBabel05232413493D

 74 77  0  0  1  0  0  0  0  0999 V2000
    1.6890   -1.5275   -1.0912 O   0  0  0  0  0  0  0  0  0  0  0  0
    0.8373   -2.3903   -0.9234 C   0  0  0  0  0  0  0  0  0  0  0  0
   -0.4866   -2.0811   -0.7640 N   0  0  0  0  0  0  0  0  0  0  0  0
   -1.5132   -2.9487   -0.1980 C   0  0  0  0  0  0  0  0  0  0  0  0
   -1.9956   -2.4316    1.1606 C   0  0  0  0  0  0  0  0  0  0  0  0
   -2.3412   -0.9418    1.1393 C   0  0  0  0  0  0  0  0  0  0  0  0
   -1.3080   -0.0632    0.4255 C   0  0  2  0  0  0  0  0  0  0  0  0
   -1.7820    0.8987    0.1933 H   0  0  0  0  0  0  0  0  0  0  0  0
   -0.8851   -0.6946   -0.9018 C   0  0  0  0  0  0  0  0  0  0  0  0
   -0.1543    0.3584    1.2376 N   0  0  0  0  0  0  0  0  0  0  0  0
    0.1146    1.6754    1.2606 N   0  0  0  0  0  0  0  0  0  0  0  0
    1.2580    1.8596    1.8878 C   0  0  0  0  0  0  0  0  0  0  0  0
    1.8071    3.2195    2.0373 C   0  0  0  0  0  0  0  0  0  0  0  0
    0.9202    4.3122    2.2598 C   0  0  0  0  0  0  0  0  0  0  0  0
    1.3998    5.5878    2.3991 C   0  0  0  0  0  0  0  0  0  0  0  0
    3.1607    3.4663    1.9322 C   0  0  0  0  0  0  0  0  0  0  0  0
    3.6874    4.7780    2.0797 C   0  0  0  0  0  0  0  0  0  0  0  0
    2.7945    5.8607    2.3235 C   0  0  0  0  0  0  0  0  0  0  0  0
    3.3247    7.1704    2.4734 C   0  0  0  0  0  0  0  0  0  0  0  0
    4.6768    7.3973    2.3812 C   0  0  0  0  0  0  0  0  0  0  0  0
    5.5645    6.3220    2.1314 C   0  0  0  0  0  0  0  0  0  0  0  0
    5.0810    5.0448    1.9827 C   0  0  0  0  0  0  0  0  0  0  0  0
    0.8345   -0.3426    1.8586 C   0  0  0  0  0  0  0  0  0  0  0  0
    1.7758    0.5984    2.3171 C   0  0  0  0  0  0  0  0  0  0  0  0
    2.8446    0.0690    3.0857 C   0  0  2  0  0  3  0  0  0  0  0  0
    3.7902    0.8453    3.6761 N   0  0  0  0  0  0  0  0  0  0  0  0
    2.9462   -1.2467    3.2482 N   0  0  0  0  0  0  0  0  0  0  0  0
    1.9996   -2.0302    2.7091 C   0  0  0  0  0  0  0  0  0  0  0  0
    0.9248   -1.6663    2.0444 N   0  0  0  0  0  2  0  0  0  0  0  0
    1.2673   -3.8235   -0.9477 C   0  0  0  0  0  0  0  0  0  0  0  0
    0.6596   -4.8256   -1.5875 C   0  0  0  0  0  0  0  0  0  0  0  0
   -2.8061   -5.3057   -3.0610 S   0  0  0  0  0  1  0  0  0  0  0  0
   -2.5721   -3.9455   -4.2636 C   0  0  0  0  0  0  0  0  0  0  0  0
   -2.9219   -2.5552   -3.6935 C   0  0  2  0  0  0  0  0  0  0  0  0
   -2.0857   -2.2206   -3.0515 H   0  0  0  0  0  0  0  0  0  0  0  0
   -4.1126   -2.7020   -2.8619 N   0  0  0  0  0  0  0  0  0  0  0  0
   -4.5196   -1.8783   -1.8916 C   0  0  0  0  0  0  0  0  0  0  0  0
   -5.5108   -2.4653   -0.9092 C   0  0  0  0  0  0  0  0  0  0  0  0
   -4.1312   -0.7108   -1.7439 O   0  0  0  0  0  0  0  0  0  0  0  0
   -3.0616   -1.5030   -4.8153 C   0  0  0  0  0  0  0  0  0  0  0  0
   -3.4127   -0.2635   -4.3859 N   0  0  0  0  0  0  0  0  0  0  0  0
   -3.5732    0.8429   -5.2881 C   0  0  0  0  0  0  0  0  0  0  0  0
   -2.8198   -1.7607   -5.9819 O   0  0  0  0  0  0  0  0  0  0  0  0
   -1.1168   -3.9603   -0.0851 H   0  0  0  0  0  0  0  0  0  0  0  0
   -2.3439   -3.0373   -0.9152 H   0  0  0  0  0  0  0  0  0  0  0  0
   -1.2101   -2.6191    1.9033 H   0  0  0  0  0  0  0  0  0  0  0  0
   -2.8851   -3.0112    1.4560 H   0  0  0  0  0  0  0  0  0  0  0  0
   -2.5170   -0.5599    2.1576 H   0  0  0  0  0  0  0  0  0  0  0  0
   -3.2712   -0.7931    0.5672 H   0  0  0  0  0  0  0  0  0  0  0  0
   -0.0539   -0.1356   -1.3456 H   0  0  0  0  0  0  0  0  0  0  0  0
   -1.7622   -0.6388   -1.5662 H   0  0  0  0  0  0  0  0  0  0  0  0
   -0.1499    4.1054    2.3132 H   0  0  0  0  0  0  0  0  0  0  0  0
    0.7096    6.4174    2.5733 H   0  0  0  0  0  0  0  0  0  0  0  0
    3.8484    2.6469    1.7076 H   0  0  0  0  0  0  0  0  0  0  0  0
    2.6358    7.9982    2.6610 H   0  0  0  0  0  0  0  0  0  0  0  0
    5.0719    8.4092    2.4963 H   0  0  0  0  0  0  0  0  0  0  0  0
    6.6372    6.5133    2.0542 H   0  0  0  0  0  0  0  0  0  0  0  0
    5.7627    4.2134    1.7855 H   0  0  0  0  0  0  0  0  0  0  0  0
    3.6285    1.8349    3.7948 H   0  0  0  0  0  0  0  0  0  0  0  0
    4.4175    0.3737    4.3132 H   0  0  0  0  0  0  0  0  0  0  0  0
    2.1345   -3.1071    2.8621 H   0  0  0  0  0  0  0  0  0  0  0  0
    2.2620   -3.9591   -0.5108 H   0  0  0  0  0  0  0  0  0  0  0  0
    1.1418   -5.8066   -1.6416 H   0  0  0  0  0  0  0  0  0  0  0  0
   -0.3246   -4.7468   -2.0753 H   0  0  0  0  0  0  0  0  0  0  0  0
   -3.1906   -4.1113   -5.1579 H   0  0  0  0  0  0  0  0  0  0  0  0
   -1.5320   -3.8965   -4.6161 H   0  0  0  0  0  0  0  0  0  0  0  0
   -4.2668   -3.7232   -2.7140 H   0  0  0  0  0  0  0  0  0  0  0  0
   -5.8950   -3.4456   -1.2210 H   0  0  0  0  0  0  0  0  0  0  0  0
   -6.3402   -1.7585   -0.7698 H   0  0  0  0  0  0  0  0  0  0  0  0
   -4.9995   -2.5739    0.0607 H   0  0  0  0  0  0  0  0  0  0  0  0
   -3.6310   -0.1569   -3.3908 H   0  0  0  0  0  0  0  0  0  0  0  0
   -3.2911    0.5058   -6.2942 H   0  0  0  0  0  0  0  0  0  0  0  0
   -2.9280    1.6913   -5.0049 H   0  0  0  0  0  0  0  0  0  0  0  0
   -4.6167    1.2017   -5.3170 H   0  0  0  0  0  0  0  0  0  0  0  0
  1  2  2  0  0  0  0
  2  3  1  0  0  0  0
  3  4  1  0  0  0  0
  4 44  1  0  0  0  0
  4  5  1  0  0  0  0
  5 47  1  0  0  0  0
  5 46  1  0  0  0  0
  6  5  1  0  0  0  0
  6 48  1  0  0  0  0
  7  8  1  6  0  0  0
  7  6  1  0  0  0  0
  7 10  1  0  0  0  0
  9  3  1  0  0  0  0
  9  7  1  0  0  0  0
 10 11  1  0  0  0  0
 10 23  1  0  0  0  0
 11 12  2  0  0  0  0
 12 13  1  0  0  0  0
 12 24  1  0  0  0  0
 13 14  1  0  0  0  0
 14 52  1  0  0  0  0
 14 15  2  0  0  0  0
 15 53  1  0  0  0  0
 16 13  2  0  0  0  0
 16 17  1  0  0  0  0
 17 18  1  0  0  0  0
 18 15  1  0  0  0  0
 18 19  2  0  0  0  0
 19 55  1  0  0  0  0
 20 19  1  0  0  0  0
 20 56  1  0  0  0  0
 21 20  2  0  0  0  0
 22 17  2  0  0  0  0
 22 21  1  0  0  0  0
 23 29  1  0  0  0  0
 23 24  2  0  0  0  0
 24 25  1  0  0  0  0
 25 27  1  0  0  0  0
 25 26  1  6  0  0  0
 26 59  1  0  0  0  0
 26 60  1  0  0  0  0
 28 61  1  0  0  0  0
 28 27  2  0  0  0  0
 29 28  1  0  0  0  0
 30  2  1  0  0  0  0
 30 62  1  0  0  0  0
 31 30  2  0  0  0  0
 33 34  1  0  0  0  0
 33 32  1  0  0  0  0
 34 35  1  1  0  0  0
 34 36  1  0  0  0  0
 36 67  1  0  0  0  0
 36 37  1  0  0  0  0
 37 39  2  0  0  0  0
 37 38  1  0  0  0  0
 38 69  1  0  0  0  0
 38 70  1  0  0  0  0
 40 41  1  0  0  0  0
 40 34  1  0  0  0  0
 41 71  1  0  0  0  0
 42 73  1  0  0  0  0
 42 41  1  0  0  0  0
 43 40  2  0  0  0  0
 45  4  1  0  0  0  0
 49  6  1  0  0  0  0
 50  9  1  0  0  0  0
 51  9  1  0  0  0  0
 54 16  1  0  0  0  0
 57 21  1  0  0  0  0
 58 22  1  0  0  0  0
 63 31  1  0  0  0  0
 64 31  1  0  0  0  0
 65 33  1  0  0  0  0
 66 33  1  0  0  0  0
 68 38  1  0  0  0  0
 72 42  1  0  0  0  0
 74 42  1  0  0  0  0
M  END
