79
-1 1
O        -1.015704    0.674907   -0.670830
C         0.161979    1.128771   -0.615683
N         0.269361    2.473331   -0.108416
C        -0.984126    3.105446    0.275771
C        -1.404541    2.709849    1.692669
C        -0.281020    2.944993    2.711078
C         1.096911    2.471447    2.236019
H         1.885441    2.923729    2.857480
C         1.334953    2.886363    0.769568
N         1.278867    1.028526    2.364205
N         0.250112    0.168584    2.278575
C         0.741173   -1.033252    2.075852
C        -0.153411   -2.176676    1.817037
C         0.013621   -3.403400    2.470789
C        -0.834289   -4.475060    2.193566
C        -1.850411   -4.310093    1.256909
O        -2.665418   -5.383291    0.959573
C        -3.881916   -5.486722    1.551757
C        -4.352318   -4.595135    2.520925
C        -5.616200   -4.794312    3.076824
C        -6.413727   -5.866475    2.683328
C        -5.933707   -6.751449    1.715343
C        -4.677204   -6.566881    1.150084
C        -2.022345   -3.097088    0.591703
C        -1.175315   -2.026689    0.865530
C         2.463604    0.385896    2.210297
C         2.169429   -0.972722    2.031709
C         3.276426   -1.792289    1.718385
N         3.153514   -3.117090    1.436780
N         4.500215   -1.261754    1.698320
C         4.632178    0.050944    1.938309
N         3.685725    0.937981    2.184045
C         1.272291    0.382597   -1.027542
C         2.671568    0.731452   -1.319742
S         3.122506    1.335956   -3.069180
C         2.745486    3.106561   -3.019629
C         1.266892    3.542285   -3.015290
H         0.914323    3.628803   -1.971449
N         0.427269    2.545949   -3.666217
C        -0.903813    2.418131   -3.431198
C        -1.484872    1.058036   -3.704973
O        -1.599763    3.331143   -2.989522
C         1.165762    4.945047   -3.668027
N        -0.054506    5.512964   -3.553470
C        -0.368953    6.783529   -4.146144
O         2.121990    5.493994   -4.195649
H        -1.752786    2.822122   -0.449769
H        -0.838556    4.201123    0.207207
H        -1.668157    1.644706    1.669454
H        -2.298334    3.279937    1.998158
H        -0.522398    2.477404    3.678775
H        -0.179591    4.029207    2.896116
H         2.306310    2.503836    0.447912
H         1.410074    3.990019    0.745442
H         0.810727   -3.518298    3.210161
H        -0.724025   -5.436065    2.699433
H        -3.737383   -3.750210    2.833336
H        -5.978047   -4.091403    3.830980
H        -7.402059   -6.011397    3.124036
H        -6.547008   -7.596678    1.393518
H        -4.285595   -7.245786    0.390612
H        -2.816863   -3.002326   -0.151391
H        -1.265105   -1.070959    0.323111
H         2.246067   -3.464911    1.154901
H         3.968916   -3.549389    1.022721
H         5.660106    0.431673    1.908994
H         0.974860   -0.617752   -1.357985
H         3.312879   -0.162163   -1.260656
H         3.150840    1.483234   -0.677798
H         3.228333    3.529929   -3.910703
H         3.248784    3.559576   -2.152983
H         0.933496    1.676079   -3.839959
H        -2.526341    1.165858   -4.032717
H        -1.463928    0.539153   -2.726607
H        -0.905234    0.485413   -4.441977
H        -0.802640    4.901265   -3.200146
H        -1.077022    6.679310   -4.986307
H         0.560376    7.227948   -4.525805
H        -0.815874    7.468663   -3.407195
