-1 1
 OpenBabel05232413493D

 79 82  0  0  1  0  0  0  0  0999 V2000
   -1.8391   -0.6450   -1.3679 O   0  0  0  0  0  0  0  0  0  0  0  0
   -0.7562   -0.0683   -1.3848 C   0  0  0  0  0  0  0  0  0  0  0  0
   -0.6578    1.2791   -1.1578 N   0  0  0  0  0  0  0  0  0  0  0  0
   -1.8699    1.9926   -0.7618 C   0  0  0  0  0  0  0  0  0  0  0  0
   -1.9642    2.0717    0.7633 C   0  0  0  0  0  0  0  0  0  0  0  0
   -0.6779    2.6370    1.3809 C   0  0  0  0  0  0  0  0  0  0  0  0
    0.6064    2.0232    0.8113 C   0  0  2  0  0  0  0  0  0  0  0  0
    1.4760    2.6335    1.0939 H   0  0  0  0  0  0  0  0  0  0  0  0
    0.5471    1.9684   -0.7225 C   0  0  0  0  0  0  0  0  0  0  0  0
    0.8975    0.6979    1.3481 N   0  0  0  0  0  0  0  0  0  0  0  0
   -0.0479   -0.2458    1.4851 N   0  0  0  0  0  0  0  0  0  0  0  0
    0.5494   -1.3923    1.7406 C   0  0  0  0  0  0  0  0  0  0  0  0
   -0.2486   -2.6190    1.9237 C   0  0  0  0  0  0  0  0  0  0  0  0
    0.0845   -3.5579    2.9085 C   0  0  0  0  0  0  0  0  0  0  0  0
   -0.6778   -4.7122    3.0807 C   0  0  0  0  0  0  0  0  0  0  0  0
   -1.7832   -4.9281    2.2639 C   0  0  0  0  0  0  0  0  0  0  0  0
   -2.4990   -6.0931    2.4127 O   0  0  0  0  0  0  0  0  0  0  0  0
   -3.7487   -6.0593    2.9486 C   0  0  0  0  0  0  0  0  0  0  0  0
   -4.2834   -4.9397    3.5922 C   0  0  0  0  0  0  0  0  0  0  0  0
   -5.5679   -5.0107    4.1315 C   0  0  0  0  0  0  0  0  0  0  0  0
   -6.3200   -6.1796    4.0409 C   0  0  0  0  0  0  0  0  0  0  0  0
   -5.7740   -7.2930    3.3990 C   0  0  0  0  0  0  0  0  0  0  0  0
   -4.4964   -7.2378    2.8530 C   0  0  0  0  0  0  0  0  0  0  0  0
   -2.1319   -4.0019    1.2805 C   0  0  0  0  0  0  0  0  0  0  0  0
   -1.3709   -2.8504    1.1112 C   0  0  0  0  0  0  0  0  0  0  0  0
    2.1381    0.1687    1.4995 C   0  0  0  0  0  0  0  0  0  0  0  0
    1.9687   -1.2019    1.7578 C   0  0  0  0  0  0  0  0  0  0  0  0
    3.1747   -1.9436    1.8405 C   0  0  2  0  0  3  0  0  0  0  0  0
    3.2038   -3.2931    2.0124 N   0  0  0  0  0  0  0  0  0  0  0  0
    4.3400   -1.3081    1.7554 N   0  0  0  0  0  0  0  0  0  0  0  0
    4.3407    0.0211    1.5588 C   0  0  0  0  0  0  0  0  0  0  0  0
    3.3030    0.8197    1.4113 N   0  0  0  0  0  2  0  0  0  0  0  0
    0.4679   -0.8770   -1.6786 C   0  0  0  0  0  0  0  0  0  0  0  0
    1.4894   -0.5496   -2.4718 C   0  0  0  0  0  0  0  0  0  0  0  0
    3.3803    2.3187   -3.3919 S   0  0  0  0  0  1  0  0  0  0  0  0
    3.4664    4.1305   -3.1528 C   0  0  0  0  0  0  0  0  0  0  0  0
    2.1045    4.7703   -2.8327 C   0  0  2  0  0  0  0  0  0  0  0  0
    1.8403    4.5617   -1.7785 H   0  0  0  0  0  0  0  0  0  0  0  0
    1.0965    4.1548   -3.6867 N   0  0  0  0  0  0  0  0  0  0  0  0
   -0.2073    4.0657   -3.3859 C   0  0  0  0  0  0  0  0  0  0  0  0
   -0.9838    3.0280   -4.1642 C   0  0  0  0  0  0  0  0  0  0  0  0
   -0.7603    4.7397   -2.5075 O   0  0  0  0  0  0  0  0  0  0  0  0
    2.1380    6.3076   -2.9809 C   0  0  0  0  0  0  0  0  0  0  0  0
    0.9920    6.9185   -2.5800 N   0  0  0  0  0  0  0  0  0  0  0  0
    0.7981    8.3371   -2.6926 C   0  0  0  0  0  0  0  0  0  0  0  0
    3.1150    6.9146   -3.3835 O   0  0  0  0  0  0  0  0  0  0  0  0
   -2.7327    1.4593   -1.1758 H   0  0  0  0  0  0  0  0  0  0  0  0
   -1.8220    3.0000   -1.2069 H   0  0  0  0  0  0  0  0  0  0  0  0
   -2.1517    1.0634    1.1565 H   0  0  0  0  0  0  0  0  0  0  0  0
   -2.8175    2.7095    1.0448 H   0  0  0  0  0  0  0  0  0  0  0  0
   -0.6893    2.5289    2.4768 H   0  0  0  0  0  0  0  0  0  0  0  0
   -0.6204    3.7167    1.1635 H   0  0  0  0  0  0  0  0  0  0  0  0
    1.4627    1.5374   -1.1406 H   0  0  0  0  0  0  0  0  0  0  0  0
    0.4966    3.0016   -1.0933 H   0  0  0  0  0  0  0  0  0  0  0  0
    0.9414   -3.3755    3.5616 H   0  0  0  0  0  0  0  0  0  0  0  0
   -0.4323   -5.4468    3.8495 H   0  0  0  0  0  0  0  0  0  0  0  0
   -3.7022   -4.0197    3.6685 H   0  0  0  0  0  0  0  0  0  0  0  0
   -5.9812   -4.1314    4.6309 H   0  0  0  0  0  0  0  0  0  0  0  0
   -7.3250   -6.2239    4.4650 H   0  0  0  0  0  0  0  0  0  0  0  0
   -6.3517   -8.2169    3.3182 H   0  0  0  0  0  0  0  0  0  0  0  0
   -4.0533   -8.0957    2.3445 H   0  0  0  0  0  0  0  0  0  0  0  0
   -2.9991   -4.1923    0.6451 H   0  0  0  0  0  0  0  0  0  0  0  0
   -1.6357   -2.1290    0.3311 H   0  0  0  0  0  0  0  0  0  0  0  0
    2.3803   -3.8327    1.7831 H   0  0  0  0  0  0  0  0  0  0  0  0
    4.1059   -3.7277    1.8669 H   0  0  0  0  0  0  0  0  0  0  0  0
    5.3295    0.4891    1.5010 H   0  0  0  0  0  0  0  0  0  0  0  0
    0.3918   -1.8880   -1.2646 H   0  0  0  0  0  0  0  0  0  0  0  0
    2.2771   -1.2796   -2.6771 H   0  0  0  0  0  0  0  0  0  0  0  0
    1.6199    0.4365   -2.9354 H   0  0  0  0  0  0  0  0  0  0  0  0
    3.8634    4.6203   -4.0543 H   0  0  0  0  0  0  0  0  0  0  0  0
    4.1515    4.3920   -2.3335 H   0  0  0  0  0  0  0  0  0  0  0  0
    1.5204    3.3410   -4.1695 H   0  0  0  0  0  0  0  0  0  0  0  0
   -2.0232    3.3608   -4.2762 H   0  0  0  0  0  0  0  0  0  0  0  0
   -0.9779    2.0951   -3.5788 H   0  0  0  0  0  0  0  0  0  0  0  0
   -0.5393    2.8224   -5.1470 H   0  0  0  0  0  0  0  0  0  0  0  0
    0.2076    6.3054   -2.3408 H   0  0  0  0  0  0  0  0  0  0  0  0
    0.0145    8.5887   -3.4283 H   0  0  0  0  0  0  0  0  0  0  0  0
    1.7446    8.7845   -3.0238 H   0  0  0  0  0  0  0  0  0  0  0  0
    0.5140    8.7850   -1.7255 H   0  0  0  0  0  0  0  0  0  0  0  0
  2  1  2  0  0  0  0
  2  3  1  0  0  0  0
  3  4  1  0  0  0  0
  3  9  1  0  0  0  0
  4  5  1  0  0  0  0
  5 50  1  0  0  0  0
  5 49  1  0  0  0  0
  5  6  1  0  0  0  0
  6 51  1  0  0  0  0
  7  8  1  1  0  0  0
  7 10  1  0  0  0  0
  7  6  1  0  0  0  0
  9  7  1  0  0  0  0
 10 11  1  0  0  0  0
 10 26  1  0  0  0  0
 11 12  2  0  0  0  0
 12 27  1  0  0  0  0
 12 13  1  0  0  0  0
 13 14  1  0  0  0  0
 14 15  2  0  0  0  0
 14 55  1  0  0  0  0
 15 56  1  0  0  0  0
 16 17  1  0  0  0  0
 16 15  1  0  0  0  0
 17 18  1  0  0  0  0
 18 19  1  0  0  0  0
 19 57  1  0  0  0  0
 19 20  2  0  0  0  0
 20 58  1  0  0  0  0
 21 20  1  0  0  0  0
 21 59  1  0  0  0  0
 22 21  2  0  0  0  0
 23 18  2  0  0  0  0
 23 22  1  0  0  0  0
 24 16  2  0  0  0  0
 25 24  1  0  0  0  0
 25 13  2  0  0  0  0
 26 27  2  0  0  0  0
 27 28  1  0  0  0  0
 28 29  1  1  0  0  0
 30 28  1  0  0  0  0
 31 30  2  0  0  0  0
 32 26  1  0  0  0  0
 32 31  1  0  0  0  0
 33  2  1  0  0  0  0
 33 67  1  0  0  0  0
 34 33  2  0  0  0  0
 35 36  1  0  0  0  0
 36 37  1  0  0  0  0
 36 71  1  0  0  0  0
 37 38  1  1  0  0  0
 39 40  1  0  0  0  0
 39 37  1  0  0  0  0
 40 42  2  0  0  0  0
 41 74  1  0  0  0  0
 41 40  1  0  0  0  0
 43 37  1  0  0  0  0
 43 44  1  0  0  0  0
 44 76  1  0  0  0  0
 45 44  1  0  0  0  0
 45 79  1  0  0  0  0
 46 43  2  0  0  0  0
 47  4  1  0  0  0  0
 48  4  1  0  0  0  0
 52  6  1  0  0  0  0
 53  9  1  0  0  0  0
 54  9  1  0  0  0  0
 60 22  1  0  0  0  0
 61 23  1  0  0  0  0
 62 24  1  0  0  0  0
 63 25  1  0  0  0  0
 64 29  1  0  0  0  0
 65 29  1  0  0  0  0
 66 31  1  0  0  0  0
 68 34  1  0  0  0  0
 69 34  1  0  0  0  0
 70 36  1  0  0  0  0
 72 39  1  0  0  0  0
 73 41  1  0  0  0  0
 75 41  1  0  0  0  0
 77 45  1  0  0  0  0
 78 45  1  0  0  0  0
M  END
