79
-1 1
O        -1.839086   -0.644958   -1.367936
C        -0.756236   -0.068323   -1.384809
N        -0.657838    1.279077   -1.157764
C        -1.869851    1.992587   -0.761830
C        -1.964188    2.071679    0.763263
C        -0.677872    2.636984    1.380870
C         0.606446    2.023182    0.811330
H         1.475956    2.633504    1.093922
C         0.547082    1.968433   -0.722472
N         0.897482    0.697883    1.348073
N        -0.047866   -0.245760    1.485120
C         0.549430   -1.392313    1.740555
C        -0.248602   -2.618998    1.923732
C         0.084476   -3.557942    2.908472
C        -0.677822   -4.712216    3.080661
C        -1.783177   -4.928124    2.263856
O        -2.498978   -6.093110    2.412701
C        -3.748664   -6.059280    2.948582
C        -4.283362   -4.939667    3.592178
C        -5.567856   -5.010696    4.131529
C        -6.320034   -6.179640    4.040863
C        -5.773974   -7.293025    3.398968
C        -4.496384   -7.237806    2.852973
C        -2.131914   -4.001918    1.280517
C        -1.370878   -2.850370    1.111228
C         2.138143    0.168656    1.499540
C         1.968704   -1.201929    1.757845
C         3.174742   -1.943599    1.840461
N         3.203809   -3.293111    2.012440
N         4.339982   -1.308100    1.755449
C         4.340739    0.021129    1.558811
N         3.303021    0.819653    1.411281
C         0.467862   -0.877047   -1.678636
C         1.489388   -0.549593   -2.471849
S         3.380295    2.318694   -3.391918
C         3.466372    4.130451   -3.152827
C         2.104543    4.770299   -2.832656
H         1.840254    4.561693   -1.778481
N         1.096493    4.154809   -3.686730
C        -0.207283    4.065694   -3.385912
C        -0.983780    3.027989   -4.164240
O        -0.760339    4.739725   -2.507457
C         2.138026    6.307627   -2.980932
N         0.992033    6.918486   -2.579987
C         0.798094    8.337147   -2.692611
O         3.115024    6.914591   -3.383460
H        -2.732682    1.459337   -1.175810
H        -1.822018    3.000003   -1.206942
H        -2.151731    1.063432    1.156451
H        -2.817527    2.709461    1.044786
H        -0.689318    2.528864    2.476795
H        -0.620377    3.716685    1.163490
H         1.462678    1.537374   -1.140600
H         0.496577    3.001649   -1.093333
H         0.941414   -3.375492    3.561588
H        -0.432258   -5.446820    3.849470
H        -3.702215   -4.019702    3.668498
H        -5.981246   -4.131353    4.630860
H        -7.324993   -6.223940    4.464980
H        -6.351689   -8.216852    3.318170
H        -4.053284   -8.095725    2.344520
H        -2.999118   -4.192288    0.645079
H        -1.635681   -2.129050    0.331088
H         2.380350   -3.832737    1.783106
H         4.105868   -3.727697    1.866859
H         5.329520    0.489095    1.500999
H         0.391764   -1.887991   -1.264618
H         2.277054   -1.279620   -2.677145
H         1.619880    0.436487   -2.935376
H         3.863435    4.620334   -4.054337
H         4.151453    4.392039   -2.333454
H         1.520377    3.340971   -4.169483
H        -2.023163    3.360785   -4.276197
H        -0.977938    2.095072   -3.578811
H        -0.539334    2.822374   -5.146968
H         0.207614    6.305360   -2.340753
H         0.014483    8.588655   -3.428321
H         1.744572    8.784513   -3.023815
H         0.514013    8.785041   -1.725482
