-1 1
 OpenBabel05232414493D

 79 82  0  0  1  0  0  0  0  0999 V2000
    4.1501   -1.2591   10.2854 O   0  0  0  0  0  0  0  0  0  0  0  0
    5.2466   -0.6799   10.3936 C   0  0  0  0  0  0  0  0  0  0  0  0
    5.2120    0.6613   10.8239 N   0  0  0  0  0  0  0  0  0  0  0  0
    3.9164    1.2018   11.2133 C   0  0  0  0  0  0  0  0  0  0  0  0
    3.6381    0.9717   12.6997 C   0  0  0  0  0  0  0  0  0  0  0  0
    4.7910    1.4726   13.5789 C   0  0  0  0  0  0  0  0  0  0  0  0
    6.1766    1.0777   13.0600 C   0  0  2  0  0  0  0  0  0  0  0  0
    6.9522    1.6783   13.5586 H   0  0  0  0  0  0  0  0  0  0  0  0
    6.2778    1.3172   11.5406 C   0  0  0  0  0  0  0  0  0  0  0  0
    6.5180   -0.3115   13.3501 N   0  0  0  0  0  0  0  0  0  0  0  0
    5.5920   -1.2860   13.3658 N   0  0  0  0  0  0  0  0  0  0  0  0
    6.2164   -2.4414   13.3077 C   0  0  0  0  0  0  0  0  0  0  0  0
    5.4556   -3.7006   13.2068 C   0  0  0  0  0  0  0  0  0  0  0  0
    5.7804   -4.8133   13.9927 C   0  0  0  0  0  0  0  0  0  0  0  0
    5.0610   -6.0013   13.8738 C   0  0  0  0  0  0  0  0  0  0  0  0
    4.0113   -6.0707   12.9626 C   0  0  0  0  0  0  0  0  0  0  0  0
    3.3262   -7.2586   12.8207 O   0  0  0  0  0  0  0  0  0  0  0  0
    2.1414   -7.4324   13.4606 C   0  0  0  0  0  0  0  0  0  0  0  0
    1.5915   -6.4981   14.3434 C   0  0  0  0  0  0  0  0  0  0  0  0
    0.3712   -6.7762   14.9599 C   0  0  0  0  0  0  0  0  0  0  0  0
   -0.3043   -7.9686   14.7106 C   0  0  0  0  0  0  0  0  0  0  0  0
    0.2547   -8.8951   13.8276 C   0  0  0  0  0  0  0  0  0  0  0  0
    1.4691   -8.6332   13.2038 C   0  0  0  0  0  0  0  0  0  0  0  0
    3.6800   -4.9741   12.1684 C   0  0  0  0  0  0  0  0  0  0  0  0
    4.4000   -3.7886   12.2848 C   0  0  0  0  0  0  0  0  0  0  0  0
    7.7679   -0.8318   13.2642 C   0  0  0  0  0  0  0  0  0  0  0  0
    7.6292   -2.2268   13.2504 C   0  0  0  0  0  0  0  0  0  0  0  0
    8.8246   -2.9464   13.0219 C   0  0  2  0  0  3  0  0  0  0  0  0
    8.8567   -4.2993   12.8939 N   0  0  0  0  0  0  0  0  0  0  0  0
    9.9787   -2.2852   12.9293 N   0  0  0  0  0  0  0  0  0  0  0  0
    9.9600   -0.9470   13.0107 C   0  0  0  0  0  0  0  0  0  0  0  0
    8.9176   -0.1508   13.1599 N   0  0  0  0  0  2  0  0  0  0  0  0
    6.4731   -1.3808   10.1055 C   0  0  0  0  0  3  0  0  0  0  0  0
    7.7489   -0.9462    9.7341 C   0  0  0  0  0  3  0  0  0  0  0  0
    8.0829   -0.4425    7.5189 S   0  0  0  0  0  1  0  0  0  0  0  0
    8.6424    1.2805    7.6747 C   0  0  0  0  0  0  0  0  0  0  0  0
    7.5673    2.2916    8.1284 C   0  0  2  0  0  0  0  0  0  0  0  0
    7.5095    2.3083    9.2314 H   0  0  0  0  0  0  0  0  0  0  0  0
    6.2650    1.8907    7.6194 N   0  0  0  0  0  0  0  0  0  0  0  0
    5.0894    2.2535    8.1745 C   0  0  0  0  0  0  0  0  0  0  0  0
    3.9079    1.3967    7.7839 C   0  0  0  0  0  0  0  0  0  0  0  0
    4.9674    3.2136    8.9382 O   0  0  0  0  0  0  0  0  0  0  0  0
    7.9709    3.7224    7.6893 C   0  0  0  0  0  0  0  0  0  0  0  0
    7.1678    4.6934    8.1861 N   0  0  0  0  0  0  0  0  0  0  0  0
    7.3376    6.0783    7.8424 C   0  0  0  0  0  0  0  0  0  0  0  0
    8.9473    3.9455    6.9930 O   0  0  0  0  0  0  0  0  0  0  0  0
    3.1437    0.7111   10.6130 H   0  0  0  0  0  0  0  0  0  0  0  0
    3.9210    2.2770   10.9670 H   0  0  0  0  0  0  0  0  0  0  0  0
    3.4952   -0.1047   12.8595 H   0  0  0  0  0  0  0  0  0  0  0  0
    2.7069    1.4869   12.9890 H   0  0  0  0  0  0  0  0  0  0  0  0
    4.6707    1.1318   14.6194 H   0  0  0  0  0  0  0  0  0  0  0  0
    4.7778    2.5762   13.5986 H   0  0  0  0  0  0  0  0  0  0  0  0
    7.2624    0.9931   11.1999 H   0  0  0  0  0  0  0  0  0  0  0  0
    6.2087    2.4026   11.3495 H   0  0  0  0  0  0  0  0  0  0  0  0
    6.6010   -4.7453   14.7117 H   0  0  0  0  0  0  0  0  0  0  0  0
    5.2977   -6.8748   14.4841 H   0  0  0  0  0  0  0  0  0  0  0  0
    2.1106   -5.5599   14.5436 H   0  0  0  0  0  0  0  0  0  0  0  0
   -0.0536   -6.0401   15.6465 H   0  0  0  0  0  0  0  0  0  0  0  0
   -1.2594   -8.1750   15.1974 H   0  0  0  0  0  0  0  0  0  0  0  0
   -0.2629   -9.8345   13.6191 H   0  0  0  0  0  0  0  0  0  0  0  0
    1.9208   -9.3431   12.5088 H   0  0  0  0  0  0  0  0  0  0  0  0
    2.8637   -5.0608   11.4487 H   0  0  0  0  0  0  0  0  0  0  0  0
    4.1721   -2.9309   11.6378 H   0  0  0  0  0  0  0  0  0  0  0  0
    7.9983   -4.7806   12.6592 H   0  0  0  0  0  0  0  0  0  0  0  0
    9.7192   -4.6780   12.5247 H   0  0  0  0  0  0  0  0  0  0  0  0
   10.9378   -0.4583   12.9258 H   0  0  0  0  0  0  0  0  0  0  0  0
    6.2562   -2.4360    9.9146 H   0  0  0  0  0  0  0  0  0  0  0  0
    8.5261   -1.7132    9.7091 H   0  0  0  0  0  0  0  0  0  0  0  0
    8.1517    0.0223   10.0372 H   0  0  0  0  0  0  0  0  0  0  0  0
    9.0326    1.6084    6.7021 H   0  0  0  0  0  0  0  0  0  0  0  0
    9.4877    1.3489    8.3768 H   0  0  0  0  0  0  0  0  0  0  0  0
    6.3136    0.9470    7.2115 H   0  0  0  0  0  0  0  0  0  0  0  0
    2.9821    1.9440    7.9967 H   0  0  0  0  0  0  0  0  0  0  0  0
    3.9178    0.4678    8.3771 H   0  0  0  0  0  0  0  0  0  0  0  0
    3.9470    1.1206    6.7206 H   0  0  0  0  0  0  0  0  0  0  0  0
    6.3155    4.3756    8.6615 H   0  0  0  0  0  0  0  0  0  0  0  0
    6.5169    6.4470    7.2030 H   0  0  0  0  0  0  0  0  0  0  0  0
    8.2817    6.1821    7.2917 H   0  0  0  0  0  0  0  0  0  0  0  0
    7.3791    6.7117    8.7437 H   0  0  0  0  0  0  0  0  0  0  0  0
  1  2  2  0  0  0  0
  2  3  1  0  0  0  0
  3  4  1  0  0  0  0
  3  9  1  0  0  0  0
  4  5  1  0  0  0  0
  5 49  1  0  0  0  0
  5 50  1  0  0  0  0
  5  6  1  0  0  0  0
  6 52  1  0  0  0  0
  6 51  1  0  0  0  0
  7 10  1  0  0  0  0
  7  8  1  1  0  0  0
  7  6  1  0  0  0  0
  9  7  1  0  0  0  0
 10 11  1  0  0  0  0
 12 11  2  0  0  0  0
 13 12  1  0  0  0  0
 13 14  1  0  0  0  0
 14 55  1  0  0  0  0
 15 14  2  0  0  0  0
 15 56  1  0  0  0  0
 16 15  1  0  0  0  0
 17 16  1  0  0  0  0
 17 18  1  0  0  0  0
 18 19  1  0  0  0  0
 19 57  1  0  0  0  0
 19 20  2  0  0  0  0
 20 58  1  0  0  0  0
 21 20  1  0  0  0  0
 21 59  1  0  0  0  0
 22 21  2  0  0  0  0
 23 18  2  0  0  0  0
 23 22  1  0  0  0  0
 24 25  1  0  0  0  0
 24 16  2  0  0  0  0
 25 13  2  0  0  0  0
 26 10  1  0  0  0  0
 27 26  2  0  0  0  0
 27 12  1  0  0  0  0
 28 29  1  1  0  0  0
 28 27  1  0  0  0  0
 30 31  2  0  0  0  0
 30 28  1  0  0  0  0
 31 32  1  0  0  0  0
 32 26  1  0  0  0  0
 33  2  1  0  0  0  0
 34 69  1  0  0  0  0
 34 33  1  0  0  0  0
 35 36  1  0  0  0  0
 36 37  1  0  0  0  0
 36 71  1  0  0  0  0
 37 38  1  1  0  0  0
 39 37  1  0  0  0  0
 39 40  1  0  0  0  0
 40 42  2  0  0  0  0
 41 73  1  0  0  0  0
 41 40  1  0  0  0  0
 41 74  1  0  0  0  0
 43 37  1  0  0  0  0
 43 44  1  0  0  0  0
 44 76  1  0  0  0  0
 45 44  1  0  0  0  0
 45 79  1  0  0  0  0
 46 43  2  0  0  0  0
 47  4  1  0  0  0  0
 48  4  1  0  0  0  0
 53  9  1  0  0  0  0
 54  9  1  0  0  0  0
 60 22  1  0  0  0  0
 61 23  1  0  0  0  0
 62 24  1  0  0  0  0
 63 25  1  0  0  0  0
 64 29  1  0  0  0  0
 65 29  1  0  0  0  0
 66 31  1  0  0  0  0
 67 33  1  0  0  0  0
 68 34  1  0  0  0  0
 70 36  1  0  0  0  0
 72 39  1  0  0  0  0
 75 41  1  0  0  0  0
 77 45  1  0  0  0  0
 78 45  1  0  0  0  0
M  END
