81
-1 1
O         5.130325   -8.718832    6.967984
C         5.455762   -8.822866    8.151115
N         5.925943  -10.101355    8.599058
C         5.217765  -10.978603    9.405649
C         5.596064  -12.333793    9.407826
C         4.910833  -13.241647   10.196600
O         5.315523  -14.573064   10.204785
C         4.920684  -15.360970    9.195247
C         5.333992  -16.703439    9.185512
Cl         6.347706  -17.344254   10.449199
C         4.905941  -17.500272    8.128564
C         4.102336  -16.967502    7.130657
C         3.739533  -15.607548    7.235377
N         2.949068  -15.008987    6.291198
C         2.515616  -13.658748    6.317364
C         3.420115  -12.598342    6.454309
C         2.985425  -11.283957    6.472742
C         1.614389  -10.964341    6.353173
N         1.189047   -9.631499    6.374283
C         1.884244   -8.718469    7.279992
C         1.561672   -7.264233    6.954442
N         0.136892   -6.974371    6.891974
C        -0.487342   -7.884532    5.954439
C        -0.228068   -9.366400    6.245035
C        -0.514718   -6.897570    8.179193
C         0.715890  -12.035703    6.202421
C         1.164220  -13.357044    6.186785
N         4.152052  -14.859142    8.255295
C         3.849002  -12.865096   11.010825
C         3.478002  -11.521815   11.006509
C         4.140902  -10.584124   10.221378
C         5.415296   -7.752935    9.102471
C         6.055229   -7.761058   10.331241
S         8.297578   -6.860743   10.160052
C         8.590921   -7.516821    8.495407
C         9.520489   -8.749259    8.422736
H         9.346140   -9.301074    7.490020
N         9.272719   -9.662945    9.516591
C         8.815069  -10.930120    9.382695
C         8.518145  -11.613302   10.704807
O         8.639880  -11.484195    8.306577
C        11.009758   -8.364832    8.397236
N        11.402068   -7.576139    9.433667
C        12.749060   -7.094264    9.570500
O        11.766452   -8.754261    7.525233
H         6.485003  -10.565487    7.888203
H         6.436682  -12.663160    8.793029
H         5.213714  -18.546975    8.092121
H         3.768853  -17.579139    6.290817
H         2.521310  -15.616974    5.608066
H         4.485775  -12.805676    6.554703
H         3.736988  -10.495767    6.556047
H         2.967937   -8.836620    7.181203
H         1.619752   -8.951034    8.333660
H         2.006901   -7.019895    5.975284
H         2.041418   -6.612257    7.700222
H        -0.093020   -7.660636    4.947847
H        -1.574459   -7.703106    5.930145
H        -0.632542   -9.947396    5.402668
H        -0.789206   -9.685614    7.152506
H        -0.025862   -6.124438    8.792337
H        -0.508677   -7.838088    8.770542
H        -1.567173   -6.599730    8.044220
H        -0.356339  -11.860354    6.124975
H         0.436186  -14.168382    6.097035
H         3.331221  -13.611310   11.613890
H         2.641835  -11.193117   11.628670
H         3.829188   -9.540139   10.229421
H         4.980584   -6.825319    8.721524
H         6.403271   -8.709001   10.744710
H         5.817692   -6.990442   11.064456
H         8.990290   -6.728960    7.838858
H         7.603497   -7.787904    8.081706
H         9.165342   -9.200033   10.418134
H         8.477473  -12.698043   10.551972
H         7.534750  -11.283319   11.072580
H         9.274282  -11.369299   11.464891
H        10.669507   -7.213511   10.047589
H        13.169646   -7.347272   10.557795
H        12.809221   -6.000369    9.440362
H        13.357435   -7.572877    8.791850
