-1 1
 OpenBabel05192410563D

 88 92  0  0  1  0  0  0  0  0999 V2000
   -0.5819    0.1528    0.4108 O   0  0  0  0  0  0  0  0  0  0  0  0
   -1.1067    0.3710    1.5281 C   0  0  0  0  0  0  0  0  0  0  0  0
   -2.2217   -0.4411    1.9492 N   0  0  0  0  0  0  0  0  0  0  0  0
   -2.8823   -1.4056    1.2235 C   0  0  0  0  0  0  0  0  0  0  0  0
   -3.0188   -1.3011   -0.1689 C   0  0  0  0  0  0  0  0  0  0  0  0
   -3.5910   -2.3420   -0.8891 C   0  0  0  0  0  0  0  0  0  0  0  0
   -3.6277   -2.3355   -2.2764 O   0  0  0  0  0  0  0  0  0  0  0  0
   -2.5445   -1.9301   -2.9724 C   0  0  0  0  0  0  0  0  0  0  0  0
   -2.6221   -1.8124   -4.3705 C   0  0  0  0  0  0  0  0  0  0  0  0
   -4.0710   -2.2377   -5.2452 Cl  0  0  0  0  0  0  0  0  0  0  0  0
   -1.4986   -1.3159   -5.0255 C   0  0  0  0  0  0  0  0  0  0  0  0
   -0.3604   -0.9366   -4.3196 C   0  0  0  0  0  0  0  0  0  0  0  0
   -0.3826   -1.0941   -2.9163 C   0  0  0  0  0  0  0  0  0  0  0  0
    0.5609   -0.6847   -2.0170 N   0  0  0  0  0  0  0  0  0  0  0  0
    1.7415    0.0209   -2.2472 C   0  0  0  0  0  0  0  0  0  0  0  0
    2.6174   -0.2418   -3.3027 C   0  0  0  0  0  0  0  0  0  0  0  0
    3.7982    0.4911   -3.4524 C   0  0  0  0  0  0  0  0  0  0  0  0
    4.1422    1.5045   -2.5517 C   0  0  0  0  0  0  0  0  0  0  0  0
    5.3166    2.2832   -2.6850 N   0  0  0  0  0  0  0  0  0  0  0  0
    6.0280    2.2136   -3.9434 C   0  0  0  0  0  0  0  0  0  0  0  0
    7.0511    3.3498   -4.0342 C   0  0  0  0  0  0  0  0  0  0  0  0
    7.9756    3.3959   -2.9154 N   0  0  0  0  0  0  0  0  0  0  0  0
    7.2242    3.4370   -1.6712 C   0  0  0  0  0  0  0  0  0  0  0  0
    6.2151    2.2985   -1.5385 C   0  0  0  0  0  0  0  0  0  0  0  0
    9.0315    2.3984   -2.9833 C   0  0  0  0  0  0  0  0  0  0  0  0
   10.0668    2.5470   -1.8903 C   0  0  0  0  0  0  0  0  0  0  0  0
   11.5317    2.4827   -2.2287 C   0  0  0  0  0  0  0  0  0  0  0  0
   10.9025    3.7922   -1.8395 C   0  0  0  0  0  0  0  0  0  0  0  0
    3.2590    1.7517   -1.4837 C   0  0  0  0  0  0  0  0  0  0  0  0
    2.0894    1.0282   -1.3278 C   0  0  0  0  0  0  0  0  0  0  0  0
   -1.4487   -1.6414   -2.3290 N   0  0  0  0  0  0  0  0  0  0  0  0
   -4.1771   -3.4388   -0.2567 C   0  0  0  0  0  0  0  0  0  0  0  0
   -4.1297   -3.4940    1.1351 C   0  0  0  0  0  0  0  0  0  0  0  0
   -3.4713   -2.5120    1.8706 C   0  0  0  0  0  0  0  0  0  0  0  0
   -0.7267    1.3292    2.4677 C   0  0  0  0  0  3  0  0  0  0  0  0
   -1.5163    1.6567    3.6609 C   0  0  0  0  0  0  0  0  0  0  0  0
   -1.3113    0.3826    5.0963 S   0  0  0  0  0  0  0  0  0  0  0  0
   -2.7457    0.7174    6.1760 C   0  0  0  0  0  0  0  0  0  0  0  0
   -4.0501    0.0189    5.7535 C   0  0  2  0  0  0  0  0  0  0  0  0
   -4.7636    0.0601    6.5916 H   0  0  0  0  0  0  0  0  0  0  0  0
   -3.8094   -1.3731    5.4574 N   0  0  0  0  0  0  0  0  0  0  0  0
   -4.6508   -2.3761    5.8406 C   0  0  0  0  0  0  0  0  0  0  0  0
   -4.1969   -3.7719    5.4584 C   0  0  0  0  0  0  0  0  0  0  0  0
   -5.7065   -2.1738    6.4080 O   0  0  0  0  0  0  0  0  0  0  0  0
   -4.7309    0.8146    4.6255 C   0  0  0  0  0  0  0  0  0  0  0  0
   -4.9869    0.1386    3.4872 N   0  0  0  0  0  0  0  0  0  0  0  0
   -5.4682    0.7781    2.2879 C   0  0  0  0  0  0  0  0  0  0  0  0
   -4.9933    1.9929    4.8002 O   0  0  0  0  0  0  0  0  0  0  0  0
   -2.2723   -0.5498    2.9570 H   0  0  0  0  0  0  0  0  0  0  0  0
   -2.5734   -0.4447   -0.6614 H   0  0  0  0  0  0  0  0  0  0  0  0
   -1.5311   -1.1965   -6.1105 H   0  0  0  0  0  0  0  0  0  0  0  0
    0.4819   -0.4827   -4.8375 H   0  0  0  0  0  0  0  0  0  0  0  0
    0.1634   -0.5868   -1.0647 H   0  0  0  0  0  0  0  0  0  0  0  0
    2.4073   -1.0552   -3.9990 H   0  0  0  0  0  0  0  0  0  0  0  0
    4.4605    0.2376   -4.2811 H   0  0  0  0  0  0  0  0  0  0  0  0
    5.3067    2.3132   -4.7688 H   0  0  0  0  0  0  0  0  0  0  0  0
    6.5409    1.2342   -4.0802 H   0  0  0  0  0  0  0  0  0  0  0  0
    6.5002    4.3056   -4.0652 H   0  0  0  0  0  0  0  0  0  0  0  0
    7.6199    3.2645   -4.9741 H   0  0  0  0  0  0  0  0  0  0  0  0
    6.6721    4.3919   -1.6403 H   0  0  0  0  0  0  0  0  0  0  0  0
    7.9168    3.4361   -0.8171 H   0  0  0  0  0  0  0  0  0  0  0  0
    5.6361    2.4330   -0.6156 H   0  0  0  0  0  0  0  0  0  0  0  0
    6.7456    1.3245   -1.4400 H   0  0  0  0  0  0  0  0  0  0  0  0
    9.5273    2.5270   -3.9609 H   0  0  0  0  0  0  0  0  0  0  0  0
    8.6582    1.3514   -2.9684 H   0  0  0  0  0  0  0  0  0  0  0  0
    9.7895    2.1117   -0.9248 H   0  0  0  0  0  0  0  0  0  0  0  0
   11.8087    2.3347   -3.2765 H   0  0  0  0  0  0  0  0  0  0  0  0
   12.2046    1.9977   -1.5172 H   0  0  0  0  0  0  0  0  0  0  0  0
   10.7218    4.5333   -2.6224 H   0  0  0  0  0  0  0  0  0  0  0  0
   11.1469    4.2178   -0.8633 H   0  0  0  0  0  0  0  0  0  0  0  0
    3.4823    2.5522   -0.7749 H   0  0  0  0  0  0  0  0  0  0  0  0
    1.3988    1.2214   -0.5008 H   0  0  0  0  0  0  0  0  0  0  0  0
   -4.6363   -4.2269   -0.8541 H   0  0  0  0  0  0  0  0  0  0  0  0
   -4.5808   -4.3425    1.6564 H   0  0  0  0  0  0  0  0  0  0  0  0
   -3.3716   -2.6160    2.9539 H   0  0  0  0  0  0  0  0  0  0  0  0
    0.2047    1.8656    2.2802 H   0  0  0  0  0  0  0  0  0  0  0  0
   -2.6019    1.6813    3.4897 H   0  0  0  0  0  0  0  0  0  0  0  0
   -1.2171    2.6114    4.1121 H   0  0  0  0  0  0  0  0  0  0  0  0
   -2.9309    1.7996    6.2234 H   0  0  0  0  0  0  0  0  0  0  0  0
   -2.4618    0.3767    7.1823 H   0  0  0  0  0  0  0  0  0  0  0  0
   -2.8818   -1.5848    5.0953 H   0  0  0  0  0  0  0  0  0  0  0  0
   -4.4695   -4.4656    6.2638 H   0  0  0  0  0  0  0  0  0  0  0  0
   -3.1193   -3.8403    5.2537 H   0  0  0  0  0  0  0  0  0  0  0  0
   -4.7418   -4.0790    4.5526 H   0  0  0  0  0  0  0  0  0  0  0  0
   -4.6815   -0.8241    3.4246 H   0  0  0  0  0  0  0  0  0  0  0  0
   -4.6654    0.8438    1.5362 H   0  0  0  0  0  0  0  0  0  0  0  0
   -5.7980    1.7904    2.5528 H   0  0  0  0  0  0  0  0  0  0  0  0
   -6.3121    0.2184    1.8583 H   0  0  0  0  0  0  0  0  0  0  0  0
  1  2  2  0  0  0  0
  2  3  1  0  0  0  0
  2 35  1  0  0  0  0
  3 49  1  0  0  0  0
  4 34  1  0  0  0  0
  4  3  1  0  0  0  0
  5  4  2  0  0  0  0
  6 32  2  0  0  0  0
  6  5  1  0  0  0  0
  7  6  1  0  0  0  0
  8 31  2  0  0  0  0
  8  7  1  0  0  0  0
  9  8  1  0  0  0  0
 10  9  1  0  0  0  0
 11  9  2  0  0  0  0
 11 12  1  0  0  0  0
 12 13  2  0  0  0  0
 13 31  1  0  0  0  0
 13 14  1  0  0  0  0
 14 53  1  0  0  0  0
 15 14  1  0  0  0  0
 15 30  1  0  0  0  0
 16 15  2  0  0  0  0
 17 16  1  0  0  0  0
 17 18  2  0  0  0  0
 18 29  1  0  0  0  0
 19 18  1  0  0  0  0
 19 24  1  0  0  0  0
 20 19  1  0  0  0  0
 21 20  1  0  0  0  0
 21 22  1  0  0  0  0
 22 23  1  0  0  0  0
 23 60  1  0  0  0  0
 23 24  1  0  0  0  0
 23 61  1  0  0  0  0
 24 63  1  0  0  0  0
 24 62  1  0  0  0  0
 25 65  1  0  0  0  0
 25 22  1  0  0  0  0
 25 26  1  0  0  0  0
 26 28  1  0  0  0  0
 26 66  1  0  0  0  0
 27 26  1  0  0  0  0
 27 28  1  0  0  0  0
 27 68  1  0  0  0  0
 28 70  1  0  0  0  0
 29 30  2  0  0  0  0
 29 71  1  0  0  0  0
 30 72  1  0  0  0  0
 32 33  1  0  0  0  0
 33 74  1  0  0  0  0
 33 34  2  0  0  0  0
 34 75  1  0  0  0  0
 35 36  1  0  0  0  0
 36 78  1  0  0  0  0
 36 37  1  0  0  0  0
 37 38  1  0  0  0  0
 38 79  1  0  0  0  0
 38 80  1  0  0  0  0
 39 38  1  0  0  0  0
 39 40  1  1  0  0  0
 41 39  1  0  0  0  0
 41 42  1  0  0  0  0
 42 44  2  0  0  0  0
 43 42  1  0  0  0  0
 43 82  1  0  0  0  0
 45 48  2  0  0  0  0
 45 39  1  0  0  0  0
 46 45  1  0  0  0  0
 47 87  1  0  0  0  0
 47 46  1  0  0  0  0
 50  5  1  0  0  0  0
 51 11  1  0  0  0  0
 52 12  1  0  0  0  0
 54 16  1  0  0  0  0
 55 17  1  0  0  0  0
 56 20  1  0  0  0  0
 57 20  1  0  0  0  0
 58 21  1  0  0  0  0
 59 21  1  0  0  0  0
 64 25  1  0  0  0  0
 67 27  1  0  0  0  0
 69 28  1  0  0  0  0
 73 32  1  0  0  0  0
 76 35  1  0  0  0  0
 77 36  1  0  0  0  0
 81 41  1  0  0  0  0
 83 43  1  0  0  0  0
 84 43  1  0  0  0  0
 85 46  1  0  0  0  0
 86 47  1  0  0  0  0
 88 47  1  0  0  0  0
M  END
