88
-1 1
O         7.428148  -15.078294    1.691020
C         6.879652  -14.859835    2.784674
N         5.760301  -15.620981    3.199496
C         5.114256  -16.612341    2.482655
C         4.979433  -16.525174    1.091911
C         4.419172  -17.581895    0.382897
O         4.369523  -17.587259   -1.002782
C         5.438728  -17.174191   -1.715075
C         5.342883  -17.077180   -3.113536
Cl         3.890501  -17.535592   -3.963220
C         6.451312  -16.574967   -3.788999
C         7.593800  -16.173740   -3.102195
C         7.591147  -16.314686   -1.697987
N         8.548085  -15.891795   -0.817896
C         9.723439  -15.182722   -1.068466
C        10.581460  -15.445935   -2.138042
C        11.756663  -14.709619   -2.310850
C        12.114324  -13.692133   -1.419590
N        13.281313  -12.909785   -1.578983
C        13.975377  -12.989570   -2.846859
C        14.987445  -11.846188   -2.967618
N        15.926281  -11.775968   -1.862530
C        15.191504  -11.721402   -0.609304
C        14.194782  -12.866772   -0.444698
C        16.989966  -12.765396   -1.929864
C        18.037105  -12.593212   -0.851792
C        19.498290  -12.650296   -1.207190
C        18.863189  -11.340658   -0.828210
C        11.250124  -13.446055   -0.335931
C        10.085523  -14.172921   -0.158211
N         6.537285  -16.859989   -1.087194
C         3.856555  -18.679603    1.031799
C         3.909435  -18.720328    2.424482
C         4.551918  -17.718945    3.147296
C         7.297790  -13.899543    3.748005
C         6.512632  -13.527856    4.855712
S         6.419574  -15.066907    6.478071
C         4.925986  -14.560499    7.398233
C         3.613909  -15.167547    6.867506
H         2.823439  -15.047057    7.625474
N         3.780804  -16.579782    6.623098
C         2.834519  -17.514920    6.908703
C         3.242569  -18.944257    6.600544
O         1.727845  -17.238099    7.331322
C         3.116424  -14.363202    5.654758
N         2.899421  -15.060776    4.519934
C         2.548738  -14.425089    3.275002
O         2.941277  -13.159758    5.755400
H         5.662427  -15.669675    4.214998
H         5.400211  -15.664013    0.586029
H         6.404110  -16.470645   -4.874911
H         8.425221  -15.718863   -3.636320
H         8.171309  -15.805829    0.138795
H        10.362474  -16.262413   -2.827798
H        12.404603  -14.964167   -3.150400
H        13.241661  -12.905818   -3.662875
H        14.493598  -13.966736   -2.978205
H        14.427912  -10.895621   -3.005246
H        15.543849  -11.940737   -3.914013
H        14.631334  -10.771023   -0.585974
H        15.895130  -11.702856    0.235336
H        13.627345  -12.721943    0.483621
H        14.735428  -13.833975   -0.337523
H        17.472556  -12.645982   -2.915148
H        16.625736  -13.815145   -1.896196
H        17.775260  -13.017590    0.122920
H        19.763783  -12.810380   -2.256173
H        20.183649  -13.120057   -0.497422
H        18.667188  -10.611874   -1.618880
H        19.115844  -10.899827    0.139016
H        11.482640  -12.644040    0.367905
H         9.413775  -13.976405    0.682788
H         3.407467  -19.481847    0.445415
H         3.476062  -19.571865    2.955199
H         4.652635  -17.800868    4.231696
H         8.321182  -13.532848    3.648580
H         5.425764  -13.487499    4.740420
H         6.893242  -12.711704    5.475142
H         4.822435  -13.465935    7.372206
H         5.058332  -14.858589    8.448968
H         4.739145  -16.848533    6.396072
H         2.797477  -19.610136    7.350607
H         4.331887  -19.087512    6.571360
H         2.829439  -19.220140    5.618018
H         3.140634  -16.043352    4.512997
H         3.442233  -14.246719    2.654173
H         2.077571  -13.459800    3.499868
H         1.848590  -15.056107    2.709784
