-1 1
 OpenBabel05232413493D

 88 91  0  0  1  0  0  0  0  0999 V2000
   -0.0728   -0.1039    1.1930 O   0  0  0  0  0  0  0  0  0  0  0  0
   -0.5779    0.0443    2.3069 C   0  0  0  0  0  0  0  0  0  0  0  0
   -1.5795   -0.7249    2.8101 N   0  0  0  0  0  0  0  0  0  0  0  0
   -2.2376   -1.7466    2.1074 C   0  0  0  0  0  0  0  0  0  0  0  0
   -2.5198   -1.6090    0.7474 C   0  0  0  0  0  0  0  0  0  0  0  0
   -3.0937   -2.6687    0.0493 C   0  0  0  0  0  0  0  0  0  0  0  0
   -3.3107   -2.6101   -1.3192 O   0  0  0  0  0  0  0  0  0  0  0  0
   -2.3559   -2.1156   -2.1314 C   0  0  0  0  0  0  0  0  0  0  0  0
   -2.6231   -1.9772   -3.5043 C   0  0  0  0  0  0  0  0  0  0  0  0
   -4.1424   -2.4834   -4.1903 Cl  0  0  0  0  0  0  0  0  0  0  0  0
   -1.6301   -1.3965   -4.2865 C   0  0  0  0  0  0  0  0  0  0  0  0
   -0.4315   -0.9637   -3.7250 C   0  0  0  0  0  0  0  0  0  0  0  0
   -0.2587   -1.1547   -2.3394 C   0  0  0  0  0  0  0  0  0  0  0  0
    0.7882   -0.7264   -1.5670 N   0  0  0  0  0  0  0  0  0  0  0  0
    1.9089    0.0234   -1.9260 C   0  0  0  0  0  0  0  0  0  0  0  0
    2.6338   -0.1734   -3.1031 C   0  0  0  0  0  0  0  0  0  0  0  0
    3.7649    0.5966   -3.3846 C   0  0  0  0  0  0  0  0  0  0  0  0
    4.2138    1.5832   -2.4990 C   0  0  0  0  0  0  0  0  0  0  0  0
    5.3383    2.3956   -2.7644 N   0  0  0  0  0  0  0  0  0  0  0  0
    5.8747    2.3819   -4.1098 C   0  0  0  0  0  0  0  0  0  0  0  0
    6.8471    3.5496   -4.3035 C   0  0  0  0  0  0  0  0  0  0  0  0
    7.9112    3.5946   -3.3175 N   0  0  0  0  0  0  0  0  0  0  0  0
    7.3326    3.5881   -1.9845 C   0  0  0  0  0  0  0  0  0  0  0  0
    6.3811    2.4173   -1.7463 C   0  0  0  0  0  0  0  0  0  0  0  0
    8.9735    2.6294   -3.5523 C   0  0  0  0  0  0  0  0  0  0  0  0
   10.1379    2.7761   -2.5982 C   0  0  0  0  0  0  0  0  0  0  0  0
   11.5476    2.7601   -3.1247 C   0  0  0  0  0  0  0  0  0  0  0  0
   10.9449    4.0413   -2.6179 C   0  0  0  0  0  0  0  0  0  0  0  0
    3.4845    1.7632   -1.3086 C   0  0  0  0  0  0  0  0  0  0  0  0
    2.3628    1.0028   -1.0249 C   0  0  0  0  0  0  0  0  0  0  0  0
   -1.2067   -1.7621   -1.6235 N   0  0  0  0  0  0  0  0  0  0  0  0
   -3.4962   -3.8275    0.7037 C   0  0  0  0  0  0  0  0  0  0  0  0
   -3.2824   -3.9243    2.0802 C   0  0  0  0  0  0  0  0  0  0  0  0
   -2.6390   -2.9100    2.7825 C   0  0  0  0  0  0  0  0  0  0  0  0
   -0.0778    1.1329    3.1933 C   0  0  0  0  0  0  0  0  0  0  0  0
   -0.8058    1.7982    4.0920 C   0  0  0  0  0  0  0  0  0  0  0  0
   -2.3851   -1.0295    5.9176 S   0  0  0  0  0  1  0  0  0  0  0  0
   -3.8584   -0.0111    6.2995 C   0  0  0  0  0  0  0  0  0  0  0  0
   -4.9284   -0.0266    5.1914 C   0  0  2  0  0  0  0  0  0  0  0  0
   -5.8828    0.3601    5.5858 H   0  0  0  0  0  0  0  0  0  0  0  0
   -5.1447   -1.3788    4.7399 N   0  0  0  0  0  0  0  0  0  0  0  0
   -6.3624   -1.9091    4.4650 C   0  0  0  0  0  0  0  0  0  0  0  0
   -6.3310   -3.3803    4.0867 C   0  0  0  0  0  0  0  0  0  0  0  0
   -7.3970   -1.2645    4.4662 O   0  0  0  0  0  0  0  0  0  0  0  0
   -4.5471    0.9481    4.0693 C   0  0  0  0  0  0  0  0  0  0  0  0
   -4.5382    0.4461    2.8146 N   0  0  0  0  0  0  0  0  0  0  0  0
   -4.1503    1.2462    1.6846 C   0  0  0  0  0  0  0  0  0  0  0  0
   -4.2931    2.1182    4.3157 O   0  0  0  0  0  0  0  0  0  0  0  0
   -1.8055   -0.6681    3.8374 H   0  0  0  0  0  0  0  0  0  0  0  0
   -2.2271   -0.6998    0.2356 H   0  0  0  0  0  0  0  0  0  0  0  0
   -1.8129   -1.2582   -5.3540 H   0  0  0  0  0  0  0  0  0  0  0  0
    0.3094   -0.4525   -4.3358 H   0  0  0  0  0  0  0  0  0  0  0  0
    0.5387   -0.7147   -0.5716 H   0  0  0  0  0  0  0  0  0  0  0  0
    2.3471   -0.9651   -3.7967 H   0  0  0  0  0  0  0  0  0  0  0  0
    4.3085    0.3923   -4.3076 H   0  0  0  0  0  0  0  0  0  0  0  0
    5.0463    2.4845   -4.8269 H   0  0  0  0  0  0  0  0  0  0  0  0
    6.3876    1.4216   -4.3438 H   0  0  0  0  0  0  0  0  0  0  0  0
    6.2728    4.4895   -4.2344 H   0  0  0  0  0  0  0  0  0  0  0  0
    7.2857    3.5031   -5.3131 H   0  0  0  0  0  0  0  0  0  0  0  0
    6.7650    4.5256   -1.8564 H   0  0  0  0  0  0  0  0  0  0  0  0
    8.1326    3.5887   -1.2303 H   0  0  0  0  0  0  0  0  0  0  0  0
    5.9278    2.5175   -0.7518 H   0  0  0  0  0  0  0  0  0  0  0  0
    6.9460    1.4584   -1.7418 H   0  0  0  0  0  0  0  0  0  0  0  0
    9.3344    2.7989   -4.5813 H   0  0  0  0  0  0  0  0  0  0  0  0
    8.6302    1.5725   -3.5222 H   0  0  0  0  0  0  0  0  0  0  0  0
    9.9986    2.3071   -1.6186 H   0  0  0  0  0  0  0  0  0  0  0  0
   11.6896    2.6481   -4.2034 H   0  0  0  0  0  0  0  0  0  0  0  0
   12.3178    2.2737   -2.5210 H   0  0  0  0  0  0  0  0  0  0  0  0
   10.6481    4.7985   -3.3481 H   0  0  0  0  0  0  0  0  0  0  0  0
   11.3043    4.4463   -1.6690 H   0  0  0  0  0  0  0  0  0  0  0  0
    3.7870    2.5398   -0.6032 H   0  0  0  0  0  0  0  0  0  0  0  0
    1.7991    1.1552   -0.1005 H   0  0  0  0  0  0  0  0  0  0  0  0
   -3.9542   -4.6361    0.1325 H   0  0  0  0  0  0  0  0  0  0  0  0
   -3.5977   -4.8257    2.6106 H   0  0  0  0  0  0  0  0  0  0  0  0
   -2.4375   -2.9946    3.8528 H   0  0  0  0  0  0  0  0  0  0  0  0
    0.9620    1.4075    2.9923 H   0  0  0  0  0  0  0  0  0  0  0  0
   -1.8588    1.5842    4.2908 H   0  0  0  0  0  0  0  0  0  0  0  0
   -0.3584    2.6125    4.6679 H   0  0  0  0  0  0  0  0  0  0  0  0
   -3.5829    1.0398    6.4675 H   0  0  0  0  0  0  0  0  0  0  0  0
   -4.3225   -0.3844    7.2261 H   0  0  0  0  0  0  0  0  0  0  0  0
   -4.3150   -1.9668    4.8731 H   0  0  0  0  0  0  0  0  0  0  0  0
   -7.3060   -3.8270    4.3174 H   0  0  0  0  0  0  0  0  0  0  0  0
   -5.5312   -3.9286    4.6046 H   0  0  0  0  0  0  0  0  0  0  0  0
   -6.1539   -3.4682    3.0033 H   0  0  0  0  0  0  0  0  0  0  0  0
   -4.6331   -0.5568    2.7142 H   0  0  0  0  0  0  0  0  0  0  0  0
   -3.0534    1.2972    1.5694 H   0  0  0  0  0  0  0  0  0  0  0  0
   -4.5180    2.2713    1.8274 H   0  0  0  0  0  0  0  0  0  0  0  0
   -4.5804    0.8266    0.7650 H   0  0  0  0  0  0  0  0  0  0  0  0
  1  2  2  0  0  0  0
  2  3  1  0  0  0  0
  2 35  1  0  0  0  0
  3 49  1  0  0  0  0
  4 34  1  0  0  0  0
  4  3  1  0  0  0  0
  5  4  2  0  0  0  0
  6 32  2  0  0  0  0
  6  5  1  0  0  0  0
  7  6  1  0  0  0  0
  8 31  2  0  0  0  0
  8  7  1  0  0  0  0
  9  8  1  0  0  0  0
 10  9  1  0  0  0  0
 11 12  1  0  0  0  0
 11  9  2  0  0  0  0
 12 13  2  0  0  0  0
 13 31  1  0  0  0  0
 13 14  1  0  0  0  0
 14 53  1  0  0  0  0
 15 14  1  0  0  0  0
 15 30  1  0  0  0  0
 16 15  2  0  0  0  0
 17 16  1  0  0  0  0
 17 18  2  0  0  0  0
 18 29  1  0  0  0  0
 19 18  1  0  0  0  0
 19 24  1  0  0  0  0
 20 19  1  0  0  0  0
 21 58  1  0  0  0  0
 21 20  1  0  0  0  0
 21 22  1  0  0  0  0
 22 23  1  0  0  0  0
 23 60  1  0  0  0  0
 23 24  1  0  0  0  0
 23 61  1  0  0  0  0
 24 63  1  0  0  0  0
 24 62  1  0  0  0  0
 25 65  1  0  0  0  0
 25 22  1  0  0  0  0
 25 26  1  0  0  0  0
 26 66  1  0  0  0  0
 27 28  1  0  0  0  0
 27 26  1  0  0  0  0
 27 68  1  0  0  0  0
 28 26  1  0  0  0  0
 28 70  1  0  0  0  0
 29 30  2  0  0  0  0
 29 71  1  0  0  0  0
 30 72  1  0  0  0  0
 32 33  1  0  0  0  0
 33 74  1  0  0  0  0
 33 34  2  0  0  0  0
 34 75  1  0  0  0  0
 35 36  2  0  0  0  0
 36 77  1  0  0  0  0
 36 78  1  0  0  0  0
 37 38  1  0  0  0  0
 38 79  1  0  0  0  0
 38 80  1  0  0  0  0
 39 40  1  1  0  0  0
 39 38  1  0  0  0  0
 41 81  1  0  0  0  0
 41 39  1  0  0  0  0
 42 44  2  0  0  0  0
 42 41  1  0  0  0  0
 43 82  1  0  0  0  0
 43 42  1  0  0  0  0
 43 83  1  0  0  0  0
 45 48  2  0  0  0  0
 45 39  1  0  0  0  0
 46 45  1  0  0  0  0
 47 87  1  0  0  0  0
 47 46  1  0  0  0  0
 50  5  1  0  0  0  0
 51 11  1  0  0  0  0
 52 12  1  0  0  0  0
 54 16  1  0  0  0  0
 55 17  1  0  0  0  0
 56 20  1  0  0  0  0
 57 20  1  0  0  0  0
 59 21  1  0  0  0  0
 64 25  1  0  0  0  0
 67 27  1  0  0  0  0
 69 28  1  0  0  0  0
 73 32  1  0  0  0  0
 76 35  1  0  0  0  0
 84 43  1  0  0  0  0
 85 46  1  0  0  0  0
 86 47  1  0  0  0  0
 88 47  1  0  0  0  0
M  END
