-1 1
 OpenBabel05232414493D

 88 92  0  0  1  0  0  0  0  0999 V2000
    7.4281  -15.0783    1.6910 O   0  0  0  0  0  0  0  0  0  0  0  0
    6.8797  -14.8598    2.7847 C   0  0  0  0  0  0  0  0  0  0  0  0
    5.7603  -15.6210    3.1995 N   0  0  0  0  0  0  0  0  0  0  0  0
    5.1143  -16.6123    2.4827 C   0  0  0  0  0  0  0  0  0  0  0  0
    4.9794  -16.5252    1.0919 C   0  0  0  0  0  0  0  0  0  0  0  0
    4.4192  -17.5819    0.3829 C   0  0  0  0  0  0  0  0  0  0  0  0
    4.3695  -17.5873   -1.0028 O   0  0  0  0  0  0  0  0  0  0  0  0
    5.4387  -17.1742   -1.7151 C   0  0  0  0  0  0  0  0  0  0  0  0
    5.3429  -17.0772   -3.1135 C   0  0  0  0  0  0  0  0  0  0  0  0
    3.8905  -17.5356   -3.9632 Cl  0  0  0  0  0  0  0  0  0  0  0  0
    6.4513  -16.5750   -3.7890 C   0  0  0  0  0  0  0  0  0  0  0  0
    7.5938  -16.1737   -3.1022 C   0  0  0  0  0  0  0  0  0  0  0  0
    7.5911  -16.3147   -1.6980 C   0  0  0  0  0  0  0  0  0  0  0  0
    8.5481  -15.8918   -0.8179 N   0  0  0  0  0  0  0  0  0  0  0  0
    9.7234  -15.1827   -1.0685 C   0  0  0  0  0  0  0  0  0  0  0  0
   10.5815  -15.4459   -2.1380 C   0  0  0  0  0  0  0  0  0  0  0  0
   11.7567  -14.7096   -2.3108 C   0  0  0  0  0  0  0  0  0  0  0  0
   12.1143  -13.6921   -1.4196 C   0  0  0  0  0  0  0  0  0  0  0  0
   13.2813  -12.9098   -1.5790 N   0  0  0  0  0  0  0  0  0  0  0  0
   13.9754  -12.9896   -2.8469 C   0  0  0  0  0  0  0  0  0  0  0  0
   14.9874  -11.8462   -2.9676 C   0  0  0  0  0  0  0  0  0  0  0  0
   15.9263  -11.7760   -1.8625 N   0  0  0  0  0  0  0  0  0  0  0  0
   15.1915  -11.7214   -0.6093 C   0  0  0  0  0  0  0  0  0  0  0  0
   14.1948  -12.8668   -0.4447 C   0  0  0  0  0  0  0  0  0  0  0  0
   16.9900  -12.7654   -1.9299 C   0  0  0  0  0  0  0  0  0  0  0  0
   18.0371  -12.5932   -0.8518 C   0  0  0  0  0  0  0  0  0  0  0  0
   19.4983  -12.6503   -1.2072 C   0  0  0  0  0  0  0  0  0  0  0  0
   18.8632  -11.3407   -0.8282 C   0  0  0  0  0  0  0  0  0  0  0  0
   11.2501  -13.4461   -0.3359 C   0  0  0  0  0  0  0  0  0  0  0  0
   10.0855  -14.1729   -0.1582 C   0  0  0  0  0  0  0  0  0  0  0  0
    6.5373  -16.8600   -1.0872 N   0  0  0  0  0  0  0  0  0  0  0  0
    3.8566  -18.6796    1.0318 C   0  0  0  0  0  0  0  0  0  0  0  0
    3.9094  -18.7203    2.4245 C   0  0  0  0  0  0  0  0  0  0  0  0
    4.5519  -17.7189    3.1473 C   0  0  0  0  0  0  0  0  0  0  0  0
    7.2978  -13.8995    3.7480 C   0  0  0  0  0  3  0  0  0  0  0  0
    6.5126  -13.5279    4.8557 C   0  0  0  0  0  0  0  0  0  0  0  0
    6.4196  -15.0669    6.4781 S   0  0  0  0  0  0  0  0  0  0  0  0
    4.9260  -14.5605    7.3982 C   0  0  0  0  0  0  0  0  0  0  0  0
    3.6139  -15.1675    6.8675 C   0  0  2  0  0  0  0  0  0  0  0  0
    2.8234  -15.0471    7.6255 H   0  0  0  0  0  0  0  0  0  0  0  0
    3.7808  -16.5798    6.6231 N   0  0  0  0  0  0  0  0  0  0  0  0
    2.8345  -17.5149    6.9087 C   0  0  0  0  0  0  0  0  0  0  0  0
    3.2426  -18.9443    6.6005 C   0  0  0  0  0  0  0  0  0  0  0  0
    1.7278  -17.2381    7.3313 O   0  0  0  0  0  0  0  0  0  0  0  0
    3.1164  -14.3632    5.6548 C   0  0  0  0  0  0  0  0  0  0  0  0
    2.8994  -15.0608    4.5199 N   0  0  0  0  0  0  0  0  0  0  0  0
    2.5487  -14.4251    3.2750 C   0  0  0  0  0  0  0  0  0  0  0  0
    2.9413  -13.1598    5.7554 O   0  0  0  0  0  0  0  0  0  0  0  0
    5.6624  -15.6697    4.2150 H   0  0  0  0  0  0  0  0  0  0  0  0
    5.4002  -15.6640    0.5860 H   0  0  0  0  0  0  0  0  0  0  0  0
    6.4041  -16.4706   -4.8749 H   0  0  0  0  0  0  0  0  0  0  0  0
    8.4252  -15.7189   -3.6363 H   0  0  0  0  0  0  0  0  0  0  0  0
    8.1713  -15.8058    0.1388 H   0  0  0  0  0  0  0  0  0  0  0  0
   10.3625  -16.2624   -2.8278 H   0  0  0  0  0  0  0  0  0  0  0  0
   12.4046  -14.9642   -3.1504 H   0  0  0  0  0  0  0  0  0  0  0  0
   13.2417  -12.9058   -3.6629 H   0  0  0  0  0  0  0  0  0  0  0  0
   14.4936  -13.9667   -2.9782 H   0  0  0  0  0  0  0  0  0  0  0  0
   14.4279  -10.8956   -3.0052 H   0  0  0  0  0  0  0  0  0  0  0  0
   15.5438  -11.9407   -3.9140 H   0  0  0  0  0  0  0  0  0  0  0  0
   14.6313  -10.7710   -0.5860 H   0  0  0  0  0  0  0  0  0  0  0  0
   15.8951  -11.7029    0.2353 H   0  0  0  0  0  0  0  0  0  0  0  0
   13.6273  -12.7219    0.4836 H   0  0  0  0  0  0  0  0  0  0  0  0
   14.7354  -13.8340   -0.3375 H   0  0  0  0  0  0  0  0  0  0  0  0
   17.4726  -12.6460   -2.9151 H   0  0  0  0  0  0  0  0  0  0  0  0
   16.6257  -13.8151   -1.8962 H   0  0  0  0  0  0  0  0  0  0  0  0
   17.7753  -13.0176    0.1229 H   0  0  0  0  0  0  0  0  0  0  0  0
   19.7638  -12.8104   -2.2562 H   0  0  0  0  0  0  0  0  0  0  0  0
   20.1836  -13.1201   -0.4974 H   0  0  0  0  0  0  0  0  0  0  0  0
   18.6672  -10.6119   -1.6189 H   0  0  0  0  0  0  0  0  0  0  0  0
   19.1158  -10.8998    0.1390 H   0  0  0  0  0  0  0  0  0  0  0  0
   11.4826  -12.6440    0.3679 H   0  0  0  0  0  0  0  0  0  0  0  0
    9.4138  -13.9764    0.6828 H   0  0  0  0  0  0  0  0  0  0  0  0
    3.4075  -19.4818    0.4454 H   0  0  0  0  0  0  0  0  0  0  0  0
    3.4761  -19.5719    2.9552 H   0  0  0  0  0  0  0  0  0  0  0  0
    4.6526  -17.8009    4.2317 H   0  0  0  0  0  0  0  0  0  0  0  0
    8.3212  -13.5328    3.6486 H   0  0  0  0  0  0  0  0  0  0  0  0
    5.4258  -13.4875    4.7404 H   0  0  0  0  0  0  0  0  0  0  0  0
    6.8932  -12.7117    5.4751 H   0  0  0  0  0  0  0  0  0  0  0  0
    4.8224  -13.4659    7.3722 H   0  0  0  0  0  0  0  0  0  0  0  0
    5.0583  -14.8586    8.4490 H   0  0  0  0  0  0  0  0  0  0  0  0
    4.7391  -16.8485    6.3961 H   0  0  0  0  0  0  0  0  0  0  0  0
    2.7975  -19.6101    7.3506 H   0  0  0  0  0  0  0  0  0  0  0  0
    4.3319  -19.0875    6.5714 H   0  0  0  0  0  0  0  0  0  0  0  0
    2.8294  -19.2201    5.6180 H   0  0  0  0  0  0  0  0  0  0  0  0
    3.1406  -16.0434    4.5130 H   0  0  0  0  0  0  0  0  0  0  0  0
    3.4422  -14.2467    2.6542 H   0  0  0  0  0  0  0  0  0  0  0  0
    2.0776  -13.4598    3.4999 H   0  0  0  0  0  0  0  0  0  0  0  0
    1.8486  -15.0561    2.7098 H   0  0  0  0  0  0  0  0  0  0  0  0
  1  2  2  0  0  0  0
  2  3  1  0  0  0  0
  2 35  1  0  0  0  0
  3 49  1  0  0  0  0
  4 34  1  0  0  0  0
  4  3  1  0  0  0  0
  5  4  2  0  0  0  0
  6 32  2  0  0  0  0
  6  5  1  0  0  0  0
  7  6  1  0  0  0  0
  8 31  2  0  0  0  0
  8  7  1  0  0  0  0
  9  8  1  0  0  0  0
 10  9  1  0  0  0  0
 11  9  2  0  0  0  0
 11 12  1  0  0  0  0
 12 13  2  0  0  0  0
 13 31  1  0  0  0  0
 13 14  1  0  0  0  0
 14 53  1  0  0  0  0
 15 14  1  0  0  0  0
 15 30  1  0  0  0  0
 16 15  2  0  0  0  0
 17 16  1  0  0  0  0
 17 18  2  0  0  0  0
 18 29  1  0  0  0  0
 19 18  1  0  0  0  0
 19 24  1  0  0  0  0
 20 19  1  0  0  0  0
 21 20  1  0  0  0  0
 21 22  1  0  0  0  0
 22 23  1  0  0  0  0
 23 60  1  0  0  0  0
 23 24  1  0  0  0  0
 23 61  1  0  0  0  0
 24 63  1  0  0  0  0
 24 62  1  0  0  0  0
 25 65  1  0  0  0  0
 25 22  1  0  0  0  0
 25 26  1  0  0  0  0
 26 28  1  0  0  0  0
 26 66  1  0  0  0  0
 27 26  1  0  0  0  0
 27 28  1  0  0  0  0
 27 68  1  0  0  0  0
 28 70  1  0  0  0  0
 29 30  2  0  0  0  0
 29 71  1  0  0  0  0
 30 72  1  0  0  0  0
 32 33  1  0  0  0  0
 33 74  1  0  0  0  0
 33 34  2  0  0  0  0
 34 75  1  0  0  0  0
 35 36  1  0  0  0  0
 36 78  1  0  0  0  0
 36 37  1  0  0  0  0
 37 38  1  0  0  0  0
 38 80  1  0  0  0  0
 39 38  1  0  0  0  0
 39 40  1  1  0  0  0
 41 39  1  0  0  0  0
 41 42  1  0  0  0  0
 42 44  2  0  0  0  0
 43 42  1  0  0  0  0
 43 82  1  0  0  0  0
 45 48  2  0  0  0  0
 45 39  1  0  0  0  0
 46 45  1  0  0  0  0
 47 87  1  0  0  0  0
 47 46  1  0  0  0  0
 50  5  1  0  0  0  0
 51 11  1  0  0  0  0
 52 12  1  0  0  0  0
 54 16  1  0  0  0  0
 55 17  1  0  0  0  0
 56 20  1  0  0  0  0
 57 20  1  0  0  0  0
 58 21  1  0  0  0  0
 59 21  1  0  0  0  0
 64 25  1  0  0  0  0
 67 27  1  0  0  0  0
 69 28  1  0  0  0  0
 73 32  1  0  0  0  0
 76 35  1  0  0  0  0
 77 36  1  0  0  0  0
 79 38  1  0  0  0  0
 81 41  1  0  0  0  0
 83 43  1  0  0  0  0
 84 43  1  0  0  0  0
 85 46  1  0  0  0  0
 86 47  1  0  0  0  0
 88 47  1  0  0  0  0
M  END
