88
-1 1
O        -0.072827   -0.103902    1.192991
C        -0.577905    0.044280    2.306871
N        -1.579520   -0.724950    2.810129
C        -2.237568   -1.746617    2.107397
C        -2.519850   -1.608998    0.747377
C        -3.093664   -2.668702    0.049305
O        -3.310734   -2.610052   -1.319188
C        -2.355904   -2.115606   -2.131412
C        -2.623052   -1.977245   -3.504338
Cl        -4.142396   -2.483399   -4.190316
C        -1.630141   -1.396514   -4.286472
C        -0.431482   -0.963670   -3.724958
C        -0.258711   -1.154739   -2.339388
N         0.788184   -0.726433   -1.567006
C         1.908914    0.023430   -1.926047
C         2.633835   -0.173415   -3.103092
C         3.764905    0.596608   -3.384627
C         4.213775    1.583177   -2.499028
N         5.338333    2.395596   -2.764444
C         5.874725    2.381907   -4.109780
C         6.847083    3.549591   -4.303455
N         7.911152    3.594632   -3.317493
C         7.332645    3.588077   -1.984478
C         6.381145    2.417314   -1.746312
C         8.973524    2.629357   -3.552343
C        10.137940    2.776127   -2.598152
C        11.547596    2.760087   -3.124668
C        10.944929    4.041346   -2.617909
C         3.484527    1.763164   -1.308628
C         2.362769    1.002844   -1.024921
N        -1.206705   -1.762116   -1.623522
C        -3.496231   -3.827538    0.703741
C        -3.282372   -3.924337    2.080176
C        -2.639043   -2.910029    2.782490
C        -0.077758    1.132897    3.193330
C        -0.805789    1.798195    4.091994
S        -2.385073   -1.029457    5.917627
C        -3.858416   -0.011074    6.299477
C        -4.928374   -0.026611    5.191382
H        -5.882769    0.360093    5.585836
N        -5.144737   -1.378799    4.739910
C        -6.362437   -1.909096    4.465015
C        -6.330959   -3.380287    4.086678
O        -7.397034   -1.264544    4.466158
C        -4.547092    0.948096    4.069303
N        -4.538228    0.446067    2.814553
C        -4.150335    1.246185    1.684595
O        -4.293073    2.118211    4.315674
H        -1.805518   -0.668050    3.837411
H        -2.227142   -0.699815    0.235590
H        -1.812938   -1.258179   -5.353963
H         0.309356   -0.452477   -4.335839
H         0.538710   -0.714710   -0.571586
H         2.347082   -0.965063   -3.796670
H         4.308515    0.392257   -4.307566
H         5.046313    2.484548   -4.826909
H         6.387584    1.421584   -4.343787
H         6.272818    4.489523   -4.234436
H         7.285741    3.503130   -5.313072
H         6.765050    4.525646   -1.856359
H         8.132574    3.588687   -1.230267
H         5.927766    2.517478   -0.751763
H         6.945980    1.458364   -1.741833
H         9.334442    2.798934   -4.581302
H         8.630178    1.572452   -3.522156
H         9.998612    2.307144   -1.618649
H        11.689616    2.648136   -4.203415
H        12.317781    2.273734   -2.521044
H        10.648108    4.798533   -3.348144
H        11.304315    4.446338   -1.668984
H         3.786990    2.539836   -0.603167
H         1.799058    1.155159   -0.100524
H        -3.954167   -4.636123    0.132457
H        -3.597682   -4.825718    2.610622
H        -2.437456   -2.994565    3.852847
H         0.962022    1.407479    2.992272
H        -1.858801    1.584155    4.290844
H        -0.358354    2.612492    4.667860
H        -3.582919    1.039786    6.467477
H        -4.322471   -0.384372    7.226062
H        -4.314971   -1.966821    4.873107
H        -7.306008   -3.826975    4.317371
H        -5.531156   -3.928622    4.604601
H        -6.153917   -3.468183    3.003344
H        -4.633070   -0.556774    2.714161
H        -3.053443    1.297217    1.569410
H        -4.518030    2.271295    1.827398
H        -4.580408    0.826594    0.764989
