-1 1
 OpenBabel05232414493D

 88 90  0  0  1  0  0  0  0  0999 V2000
    2.5559    5.3276  -17.1181 O   0  0  0  0  0  0  0  0  0  0  0  0
    2.1106    4.2259  -16.7680 C   0  0  0  0  0  0  0  0  0  0  0  0
    2.5959    3.7769  -15.5027 N   0  0  0  0  0  0  0  0  0  0  0  0
    3.0716    2.5676  -15.0187 C   0  0  0  0  0  0  0  0  0  0  0  0
    3.5377    2.5347  -13.6892 C   0  0  0  0  0  0  0  0  0  0  0  0
    4.0847    1.3724  -13.1699 C   0  0  0  0  0  0  0  0  0  0  0  0
    4.4451    1.3866  -11.8278 O   0  0  0  0  0  0  0  0  0  0  0  0
    5.7269    1.3936  -11.4510 C   0  0  0  0  0  0  0  0  0  0  0  0
    5.9751    1.4489  -10.0664 C   0  0  0  0  0  0  0  0  0  0  0  0
    4.8573    1.4979   -9.0712 C   0  0  0  0  0  0  0  0  0  0  0  0
    4.0593    0.4256   -9.1330 F   0  0  0  0  0  0  0  0  0  0  0  0
    5.3361    1.5471   -7.8130 F   0  0  0  0  0  0  0  0  0  0  0  0
    4.0745    2.5729   -9.2228 F   0  0  0  0  0  0  0  0  0  0  0  0
    7.3154    1.4671   -9.6736 C   0  0  0  0  0  0  0  0  0  0  0  0
    8.3227    1.4266  -10.6153 C   0  0  0  0  0  0  0  0  0  0  0  0
    7.9568    1.3660  -11.9838 C   0  0  0  0  0  0  0  0  0  0  0  0
    8.9423    1.3169  -12.9176 N   0  0  0  0  0  0  0  0  0  0  0  0
    8.9125    1.2008  -14.3173 C   0  0  0  0  0  0  0  0  0  0  0  0
   10.1813    1.1228  -14.9370 C   0  0  0  0  0  0  0  0  0  0  0  0
   11.2458    1.1890  -14.0809 O   0  0  0  0  0  0  0  0  0  0  0  0
   12.5409    1.1219  -14.5999 C   0  0  0  0  0  0  0  0  0  0  0  0
   10.3015    1.0044  -16.3117 C   0  0  0  0  0  0  0  0  0  0  0  0
    9.1569    0.9406  -17.1343 C   0  0  0  0  0  0  0  0  0  0  0  0
    9.3224    0.8393  -18.5257 N   0  0  0  0  0  0  0  0  0  0  0  0
    8.1372    1.0301  -19.3506 C   0  0  0  0  0  0  0  0  0  0  0  0
    8.5215    1.2211  -20.8144 C   0  0  0  0  0  0  0  0  0  0  0  0
    9.3488    0.1443  -21.3383 N   0  0  0  0  0  0  0  0  0  0  0  0
   10.5076   -0.0400  -20.4901 C   0  0  0  0  0  0  0  0  0  0  0  0
   10.1641   -0.2454  -19.0121 C   0  0  0  0  0  0  0  0  0  0  0  0
    8.6255   -1.0720  -21.6410 C   0  0  0  0  0  0  0  0  0  0  0  0
    7.9012    1.0155  -16.5201 C   0  0  0  0  0  0  0  0  0  0  0  0
    7.7843    1.1533  -15.1325 C   0  0  0  0  0  0  0  0  0  0  0  0
    6.6766    1.3560  -12.3638 N   0  0  0  0  0  0  0  0  0  0  0  0
    4.1915    0.2059  -13.9198 C   0  0  0  0  0  0  0  0  0  0  0  0
    3.7273    0.2437  -15.2330 C   0  0  0  0  0  0  0  0  0  0  0  0
    3.1722    1.3952  -15.7808 C   0  0  0  0  0  0  0  0  0  0  0  0
    1.0906    3.5428  -17.4977 C   0  0  0  0  0  3  0  0  0  0  0  0
    0.4711    2.3077  -17.2590 C   0  0  0  0  0  3  0  0  0  0  0  0
    1.2114    0.6431  -18.6097 S   0  0  0  0  0  1  0  0  0  0  0  0
    2.0346    1.6887  -19.8305 C   0  0  0  0  0  0  0  0  0  0  0  0
    3.5150    1.3635  -20.0656 C   0  0  2  0  0  0  0  0  0  0  0  0
    3.8763    1.9486  -20.9274 H   0  0  0  0  0  0  0  0  0  0  0  0
    3.6846   -0.0266  -20.3952 N   0  0  0  0  0  0  0  0  0  0  0  0
    4.7546   -0.4773  -21.0906 C   0  0  0  0  0  0  0  0  0  0  0  0
    4.9898   -1.9715  -21.0057 C   0  0  0  0  0  0  0  0  0  0  0  0
    5.4907    0.2532  -21.7381 O   0  0  0  0  0  0  0  0  0  0  0  0
    4.4543    1.7223  -18.8932 C   0  0  0  0  0  0  0  0  0  0  0  0
    4.4369    3.0089  -18.4882 N   0  0  0  0  0  0  0  0  0  0  0  0
    5.3202    3.5042  -17.4559 C   0  0  0  0  0  0  0  0  0  0  0  0
    5.2116    0.8897  -18.4176 O   0  0  0  0  0  0  0  0  0  0  0  0
    3.0097    4.5810  -15.0436 H   0  0  0  0  0  0  0  0  0  0  0  0
    3.4666    3.4169  -13.0499 H   0  0  0  0  0  0  0  0  0  0  0  0
    7.5595    1.5131   -8.6113 H   0  0  0  0  0  0  0  0  0  0  0  0
    9.3732    1.4366  -10.3209 H   0  0  0  0  0  0  0  0  0  0  0  0
    9.8871    1.3335  -12.5555 H   0  0  0  0  0  0  0  0  0  0  0  0
   13.2295    1.1788  -13.7470 H   0  0  0  0  0  0  0  0  0  0  0  0
   12.7522    1.9616  -15.2854 H   0  0  0  0  0  0  0  0  0  0  0  0
   12.7173    0.1744  -15.1393 H   0  0  0  0  0  0  0  0  0  0  0  0
   11.2870    0.9941  -16.7751 H   0  0  0  0  0  0  0  0  0  0  0  0
    7.5959    1.9187  -19.0005 H   0  0  0  0  0  0  0  0  0  0  0  0
    7.4243    0.1888  -19.2509 H   0  0  0  0  0  0  0  0  0  0  0  0
    9.0862    2.1656  -20.9138 H   0  0  0  0  0  0  0  0  0  0  0  0
    7.6013    1.2982  -21.4098 H   0  0  0  0  0  0  0  0  0  0  0  0
   11.1443    0.8598  -20.5700 H   0  0  0  0  0  0  0  0  0  0  0  0
   11.0980   -0.8976  -20.8538 H   0  0  0  0  0  0  0  0  0  0  0  0
   11.0971   -0.2921  -18.4334 H   0  0  0  0  0  0  0  0  0  0  0  0
    9.6551   -1.2245  -18.8724 H   0  0  0  0  0  0  0  0  0  0  0  0
    7.7312   -0.8235  -22.2300 H   0  0  0  0  0  0  0  0  0  0  0  0
    8.2717   -1.6376  -20.7521 H   0  0  0  0  0  0  0  0  0  0  0  0
    9.2663   -1.7501  -22.2297 H   0  0  0  0  0  0  0  0  0  0  0  0
    6.9828    0.9601  -17.1089 H   0  0  0  0  0  0  0  0  0  0  0  0
    6.7959    1.2060  -14.6786 H   0  0  0  0  0  0  0  0  0  0  0  0
    4.6348   -0.6907  -13.4863 H   0  0  0  0  0  0  0  0  0  0  0  0
    3.8088   -0.6401  -15.8689 H   0  0  0  0  0  0  0  0  0  0  0  0
    2.8264    1.3701  -16.8125 H   0  0  0  0  0  0  0  0  0  0  0  0
    0.7450    4.1429  -18.3437 H   0  0  0  0  0  0  0  0  0  0  0  0
   -0.5511    2.1907  -17.6218 H   0  0  0  0  0  0  0  0  0  0  0  0
    0.6520    1.7973  -16.3093 H   0  0  0  0  0  0  0  0  0  0  0  0
    1.9406    2.7310  -19.4679 H   0  0  0  0  0  0  0  0  0  0  0  0
    1.5132    1.6295  -20.7975 H   0  0  0  0  0  0  0  0  0  0  0  0
    3.2035   -0.6598  -19.7620 H   0  0  0  0  0  0  0  0  0  0  0  0
    4.0680   -2.5355  -20.8056 H   0  0  0  0  0  0  0  0  0  0  0  0
    5.6944   -2.1546  -20.1798 H   0  0  0  0  0  0  0  0  0  0  0  0
    5.4481   -2.3224  -21.9386 H   0  0  0  0  0  0  0  0  0  0  0  0
    3.6928    3.6241  -18.7958 H   0  0  0  0  0  0  0  0  0  0  0  0
    5.3631    2.8008  -16.6120 H   0  0  0  0  0  0  0  0  0  0  0  0
    4.9252    4.4664  -17.1070 H   0  0  0  0  0  0  0  0  0  0  0  0
    6.3468    3.6409  -17.8347 H   0  0  0  0  0  0  0  0  0  0  0  0
  1  2  2  0  0  0  0
  2  3  1  0  0  0  0
  3 51  1  0  0  0  0
  3  4  1  0  0  0  0
  4  5  1  0  0  0  0
  5  6  2  0  0  0  0
  5 52  1  0  0  0  0
  6  7  1  0  0  0  0
  7  8  1  0  0  0  0
  8  9  1  0  0  0  0
  9 14  2  0  0  0  0
  9 10  1  0  0  0  0
 10 12  1  0  0  0  0
 11 10  1  0  0  0  0
 13 10  1  0  0  0  0
 14 53  1  0  0  0  0
 15 54  1  0  0  0  0
 15 14  1  0  0  0  0
 16 15  2  0  0  0  0
 17 55  1  0  0  0  0
 17 16  1  0  0  0  0
 18 17  1  0  0  0  0
 19 18  1  0  0  0  0
 19 20  1  0  0  0  0
 21 20  1  0  0  0  0
 21 56  1  0  0  0  0
 22 19  2  0  0  0  0
 23 31  2  0  0  0  0
 23 22  1  0  0  0  0
 24 23  1  0  0  0  0
 25 61  1  0  0  0  0
 25 60  1  0  0  0  0
 25 24  1  0  0  0  0
 26 25  1  0  0  0  0
 27 26  1  0  0  0  0
 27 28  1  0  0  0  0
 28 29  1  0  0  0  0
 29 67  1  0  0  0  0
 29 24  1  0  0  0  0
 29 66  1  0  0  0  0
 30 27  1  0  0  0  0
 30 69  1  0  0  0  0
 31 32  1  0  0  0  0
 32 72  1  0  0  0  0
 32 18  2  0  0  0  0
 33 16  1  0  0  0  0
 33  8  2  0  0  0  0
 34 73  1  0  0  0  0
 34  6  1  0  0  0  0
 35 34  2  0  0  0  0
 36 35  1  0  0  0  0
 36  4  2  0  0  0  0
 37 38  1  0  0  0  0
 37  2  1  0  0  0  0
 38 78  1  0  0  0  0
 40 79  1  0  0  0  0
 40 39  1  0  0  0  0
 41 42  1  6  0  0  0
 41 40  1  0  0  0  0
 41 47  1  0  0  0  0
 43 41  1  0  0  0  0
 43 81  1  0  0  0  0
 44 45  1  0  0  0  0
 44 43  1  0  0  0  0
 45 82  1  0  0  0  0
 45 83  1  0  0  0  0
 46 44  2  0  0  0  0
 47 48  1  0  0  0  0
 47 50  2  0  0  0  0
 48 49  1  0  0  0  0
 49 87  1  0  0  0  0
 49 86  1  0  0  0  0
 57 21  1  0  0  0  0
 58 21  1  0  0  0  0
 59 22  1  0  0  0  0
 62 26  1  0  0  0  0
 63 26  1  0  0  0  0
 64 28  1  0  0  0  0
 65 28  1  0  0  0  0
 68 30  1  0  0  0  0
 70 30  1  0  0  0  0
 71 31  1  0  0  0  0
 74 35  1  0  0  0  0
 75 36  1  0  0  0  0
 76 37  1  0  0  0  0
 77 38  1  0  0  0  0
 80 40  1  0  0  0  0
 84 45  1  0  0  0  0
 85 48  1  0  0  0  0
 88 49  1  0  0  0  0
M  END
