88
-1 1
O        -3.249197    4.154482   -1.234660
C        -3.589550    3.073683   -0.768283
N        -2.919468    2.621027    0.356825
C        -2.601924    1.342874    0.857782
C        -2.167741    1.270964    2.189281
C        -1.756119    0.054291    2.713633
O        -1.413852    0.013908    4.057629
C        -0.130658    0.031176    4.438420
C         0.115567    0.072042    5.822591
C        -1.002627    0.104063    6.817885
F        -1.793301   -0.972768    6.746340
F        -0.524958    0.146919    8.076103
F        -1.793063    1.175213    6.673729
C         1.456672    0.095306    6.214732
C         2.462849    0.074109    5.271897
C         2.097587    0.027786    3.901869
N         3.082166   -0.001255    2.968653
C         3.057390   -0.112170    1.567521
C         4.329096   -0.194695    0.955265
O         5.389027   -0.134688    1.817556
C         6.686815   -0.218654    1.307199
C         4.456925   -0.312890   -0.418482
C         3.317486   -0.370763   -1.249354
N         3.491034   -0.473556   -2.637217
C         2.311878   -0.294209   -3.474172
C         2.708832   -0.088377   -4.932368
N         3.557379   -1.149348   -5.453972
C         4.711005   -1.319321   -4.596646
C         4.357927   -1.539057   -3.122701
C         2.856119   -2.376113   -5.768494
C         2.057479   -0.288703   -0.642158
C         1.933867   -0.152390    0.745044
N         0.816273    0.012519    3.523035
C        -1.770056   -1.110809    1.955464
C        -2.213883   -1.029462    0.637808
C        -2.623493    0.179756    0.083993
C        -4.746292    2.360987   -1.350447
C        -5.413011    1.298231   -0.881040
S        -4.470773   -1.151898   -2.701987
C        -3.838284    0.101324   -3.858451
C        -2.346696   -0.076026   -4.220021
H        -2.095823    0.558455   -5.087898
N        -2.102996   -1.443063   -4.575149
C        -1.025293   -1.844773   -5.270722
C        -0.796796   -3.343279   -5.296850
O        -0.263550   -1.074109   -5.846210
C        -1.389067    0.347018   -3.091617
N        -1.425748    1.663130   -2.760506
C        -0.498368    2.243928   -1.818900
O        -0.622092   -0.432932   -2.553999
H        -2.308973    3.356928    0.696797
H        -2.156955    2.157648    2.825972
H         1.701499    0.130044    7.277256
H         3.513376    0.088000    5.565692
H         4.026744    0.012434    3.332005
H         7.370168   -0.169328    2.164765
H         6.913280    0.617466    0.622341
H         6.854607   -1.168985    0.770299
H         5.445633   -0.328772   -0.874234
H         1.756262    0.585291   -3.125383
H         1.608006   -1.144210   -3.386824
H         3.261188    0.864880   -5.019935
H         1.792165   -0.022639   -5.534084
H         5.334244   -0.409086   -4.665569
H         5.318576   -2.165500   -4.958765
H         5.287047   -1.572133   -2.536910
H         3.865827   -2.527705   -2.992784
H         1.951079   -2.137078   -6.344561
H         2.521302   -2.959954   -4.884088
H         3.505720   -3.033479   -6.371113
H         1.142351   -0.343439   -1.236412
H         0.943190   -0.098659    1.193556
H        -1.437732   -2.051466    2.395939
H        -2.243899   -1.914404   -0.000666
H        -2.983466    0.170868   -0.946213
H        -5.084247    2.854056   -2.265440
H        -6.285415    0.916971   -1.411210
H        -5.134800    0.776826    0.035773
H        -3.971538    1.114121   -3.436285
H        -4.406579    0.078739   -4.802724
H        -2.666585   -2.092399   -4.018062
H        -1.697556   -3.917328   -5.040044
H        -0.011102   -3.579594   -4.563203
H        -0.435584   -3.637372   -6.291045
H        -2.097979    2.268961   -3.211656
H        -0.432140    1.623129   -0.913415
H        -0.856802    3.245090   -1.547471
H         0.517136    2.326973   -2.242202
