88
-1 1
O         2.555877    5.327644  -17.118110
C         2.110557    4.225942  -16.768050
N         2.595918    3.776898  -15.502749
C         3.071614    2.567557  -15.018688
C         3.537682    2.534721  -13.689221
C         4.084678    1.372403  -13.169850
O         4.445089    1.386594  -11.827762
C         5.726930    1.393585  -11.451016
C         5.975076    1.448927  -10.066430
C         4.857337    1.497861   -9.071217
F         4.059295    0.425603   -9.132973
F         5.336062    1.547129   -7.813006
F         4.074528    2.572936   -9.222764
C         7.315395    1.467147   -9.673570
C         8.322735    1.426614  -10.615272
C         7.956772    1.366031  -11.983846
N         8.942276    1.316879  -12.917574
C         8.912508    1.200839  -14.317274
C        10.181340    1.122835  -14.937011
O        11.245838    1.189024  -14.080885
C        12.540908    1.121947  -14.599937
C        10.301490    1.004352  -16.311735
C         9.156885    0.940648  -17.134268
N         9.322374    0.839345  -18.525666
C         8.137178    1.030143  -19.350562
C         8.521484    1.221060  -20.814363
N         9.348752    0.144280  -21.338312
C        10.507648   -0.040015  -20.490133
C        10.164054   -0.245361  -19.012142
C         8.625475   -1.071985  -21.641041
C         7.901198    1.015492  -16.520141
C         7.784333    1.153315  -15.132493
N         6.676625    1.355977  -12.363840
C         4.191525    0.205916  -13.919772
C         3.727294    0.243718  -15.233032
C         3.172217    1.395238  -15.780844
C         1.090582    3.542777  -17.497713
C         0.471121    2.307742  -17.259044
S         1.211388    0.643053  -18.609750
C         2.034614    1.688680  -19.830521
C         3.514980    1.363541  -20.065617
H         3.876251    1.948561  -20.927443
N         3.684588   -0.026582  -20.395243
C         4.754587   -0.477333  -21.090551
C         4.989828   -1.971471  -21.005672
O         5.490683    0.253183  -21.738122
C         4.454262    1.722342  -18.893182
N         4.436858    3.008883  -18.488227
C         5.320180    3.504236  -17.455869
O         5.211587    0.889709  -18.417611
H         3.009728    4.580961  -15.043593
H         3.466554    3.416950  -13.049936
H         7.559500    1.513061   -8.611292
H         9.373173    1.436562  -10.320917
H         9.887104    1.333518  -12.555468
H        13.229470    1.178771  -13.746996
H        12.752235    1.961600  -15.285372
H        12.717268    0.174421  -15.139250
H        11.286957    0.994101  -16.775084
H         7.595939    1.918659  -19.000466
H         7.424308    0.188754  -19.250865
H         9.086212    2.165563  -20.913775
H         7.601250    1.298171  -21.409818
H        11.144342    0.859761  -20.570011
H        11.097989   -0.897599  -20.853751
H        11.097113   -0.292128  -18.433353
H         9.655063   -1.224527  -18.872353
H         7.731207   -0.823538  -22.230039
H         8.271722   -1.637636  -20.752068
H         9.266274   -1.750105  -22.229717
H         6.982830    0.960073  -17.108869
H         6.795904    1.205959  -14.678627
H         4.634832   -0.690750  -13.486343
H         3.808828   -0.640088  -15.868928
H         2.826409    1.370088  -16.812523
H         0.744961    4.142930  -18.343704
H        -0.551104    2.190690  -17.621839
H         0.652011    1.797332  -16.309345
H         1.940583    2.730957  -19.467950
H         1.513164    1.629504  -20.797462
H         3.203524   -0.659817  -19.761989
H         4.068041   -2.535488  -20.805557
H         5.694401   -2.154571  -20.179829
H         5.448127   -2.322421  -21.938552
H         3.692834    3.624143  -18.795838
H         5.363113    2.800771  -16.611952
H         4.925209    4.466396  -17.107034
H         6.346805    3.640871  -17.834722
