-1 1
 OpenBabel05192410563D

 89 93  0  0  1  0  0  0  0  0999 V2000
    0.3580    3.6890   -0.0319 O   0  0  0  0  0  0  0  0  0  0  0  0
   -0.4098    3.8805    0.9502 C   0  0  0  0  0  0  0  0  0  0  0  0
   -1.6633    4.4689    0.6840 N   0  0  0  0  0  0  0  0  0  0  0  0
   -1.8518    5.1814   -0.5589 C   0  0  0  0  0  0  0  0  0  0  0  0
   -2.6699    4.3835   -1.5730 C   0  0  0  0  0  0  0  0  0  0  0  0
   -4.0062    3.9785   -0.9554 C   0  0  0  0  0  0  0  0  0  0  0  0
   -3.7831    3.1973    0.3459 C   0  0  2  0  0  0  0  0  0  0  0  0
   -4.7514    3.0244    0.8417 H   0  0  0  0  0  0  0  0  0  0  0  0
   -2.8683    3.9831    1.3121 C   0  0  0  0  0  0  0  0  0  0  0  0
   -3.2328    1.8731    0.0398 N   0  0  0  0  0  0  0  0  0  0  0  0
   -1.9706    1.5544    0.3490 N   0  0  0  0  0  0  0  0  0  0  0  0
   -1.7089    0.3570   -0.1176 C   0  0  0  0  0  0  0  0  0  0  0  0
   -0.3953   -0.2706    0.1075 C   0  0  0  0  0  0  0  0  0  0  0  0
   -0.3191   -1.6544    0.2729 C   0  0  0  0  0  0  0  0  0  0  0  0
    0.9118   -2.2956    0.4432 C   0  0  0  0  0  0  0  0  0  0  0  0
    1.0304   -3.7891    0.5354 C   0  0  0  0  0  0  0  0  0  0  0  0
   -0.0523   -4.4716    0.0216 N   0  0  0  0  0  0  0  0  0  0  0  0
   -0.2829   -5.8506   -0.0321 C   0  0  0  0  0  0  0  0  0  0  0  0
    0.6154   -6.8126    0.4463 C   0  0  0  0  0  0  0  0  0  0  0  0
    0.2914   -8.1650    0.3468 C   0  0  0  0  0  0  0  0  0  0  0  0
   -0.9057   -8.6095   -0.2183 C   0  0  0  0  0  0  0  0  0  0  0  0
   -1.2321  -10.0895   -0.3139 C   0  0  0  0  0  0  0  0  0  0  0  0
   -2.4773  -10.4512    0.5031 C   0  0  0  0  0  0  0  0  0  0  0  0
   -1.3684  -10.5491   -1.7696 C   0  0  0  0  0  0  0  0  0  0  0  0
   -1.7927   -7.6342   -0.6919 C   0  0  0  0  0  0  0  0  0  0  0  0
   -1.4922   -6.2819   -0.6016 C   0  0  0  0  0  0  0  0  0  0  0  0
    2.0119   -4.3406    0.9929 O   0  0  0  0  0  0  0  0  0  0  0  0
    2.0719   -1.5200    0.5295 C   0  0  0  0  0  0  0  0  0  0  0  0
    2.0007   -0.1311    0.4140 C   0  0  0  0  0  0  0  0  0  0  0  0
    0.7762    0.4980    0.1872 C   0  0  0  0  0  0  0  0  0  0  0  0
   -3.8312    0.8698   -0.6501 C   0  0  0  0  0  0  0  0  0  0  0  0
   -2.8690   -0.1504   -0.7986 C   0  0  0  0  0  0  0  0  0  0  0  0
   -3.2739   -1.2355   -1.6104 C   0  0  2  0  0  3  0  0  0  0  0  0
   -2.4336   -2.2600   -1.9693 N   0  0  0  0  0  0  0  0  0  0  0  0
   -4.5232   -1.2855   -2.0674 N   0  0  0  0  0  0  0  0  0  0  0  0
   -5.3542   -0.2712   -1.7815 C   0  0  0  0  0  0  0  0  0  0  0  0
   -5.0885    0.8362   -1.1164 N   0  0  0  0  0  2  0  0  0  0  0  0
   -0.1819    3.4537    2.2648 C   0  0  0  0  0  3  0  0  0  0  0  0
    0.7621    3.6958    3.1559 C   0  0  0  0  0  0  0  0  0  0  0  0
    2.1967    4.8219    2.8986 S   0  0  0  0  0  0  0  0  0  0  0  0
    3.3595    3.5978    2.1833 C   0  0  0  0  0  0  0  0  0  0  0  0
    4.0006    4.0305    0.8704 C   0  0  2  0  0  0  0  0  0  0  0  0
    4.6254    4.9272    1.0288 H   0  0  0  0  0  0  0  0  0  0  0  0
    3.0065    4.3615   -0.1310 N   0  0  0  0  0  0  0  0  0  0  0  0
    3.2710    5.2085   -1.1382 C   0  0  0  0  0  0  0  0  0  0  0  0
    2.0782    5.6043   -1.9805 C   0  0  0  0  0  0  0  0  0  0  0  0
    4.3973    5.6585   -1.3733 O   0  0  0  0  0  0  0  0  0  0  0  0
    4.9253    2.9128    0.3380 C   0  0  0  0  0  0  0  0  0  0  0  0
    5.7935    3.3439   -0.6080 N   0  0  0  0  0  0  0  0  0  0  0  0
    6.6326    2.4380   -1.3456 C   0  0  0  0  0  0  0  0  0  0  0  0
    4.8643    1.7564    0.7284 O   0  0  0  0  0  0  0  0  0  0  0  0
   -0.8634    5.4269   -0.9630 H   0  0  0  0  0  0  0  0  0  0  0  0
   -2.3786    6.1344   -0.3470 H   0  0  0  0  0  0  0  0  0  0  0  0
   -2.0935    3.4889   -1.8605 H   0  0  0  0  0  0  0  0  0  0  0  0
   -2.8347    4.9778   -2.4865 H   0  0  0  0  0  0  0  0  0  0  0  0
   -4.6232    3.3819   -1.6440 H   0  0  0  0  0  0  0  0  0  0  0  0
   -4.5881    4.8834   -0.7056 H   0  0  0  0  0  0  0  0  0  0  0  0
   -2.5688    3.3601    2.1653 H   0  0  0  0  0  0  0  0  0  0  0  0
   -3.4779    4.8244    1.6948 H   0  0  0  0  0  0  0  0  0  0  0  0
   -1.2538   -2.2176    0.3118 H   0  0  0  0  0  0  0  0  0  0  0  0
   -0.7801   -3.9059   -0.3963 H   0  0  0  0  0  0  0  0  0  0  0  0
    1.5548   -6.4878    0.8873 H   0  0  0  0  0  0  0  0  0  0  0  0
    1.0067   -8.9004    0.7271 H   0  0  0  0  0  0  0  0  0  0  0  0
   -0.3788  -10.6333    0.1259 H   0  0  0  0  0  0  0  0  0  0  0  0
   -3.3734   -9.9488    0.1045 H   0  0  0  0  0  0  0  0  0  0  0  0
   -2.3637  -10.1456    1.5537 H   0  0  0  0  0  0  0  0  0  0  0  0
   -2.6644  -11.5365    0.4771 H   0  0  0  0  0  0  0  0  0  0  0  0
   -2.2168  -10.0503   -2.2654 H   0  0  0  0  0  0  0  0  0  0  0  0
   -1.5419  -11.6356   -1.8255 H   0  0  0  0  0  0  0  0  0  0  0  0
   -0.4608  -10.3146   -2.3453 H   0  0  0  0  0  0  0  0  0  0  0  0
   -2.7449   -7.9309   -1.1407 H   0  0  0  0  0  0  0  0  0  0  0  0
   -2.2048   -5.5393   -0.9732 H   0  0  0  0  0  0  0  0  0  0  0  0
    3.0279   -2.0226    0.6877 H   0  0  0  0  0  0  0  0  0  0  0  0
    2.9132    0.4678    0.4955 H   0  0  0  0  0  0  0  0  0  0  0  0
    0.7138    1.5863    0.0709 H   0  0  0  0  0  0  0  0  0  0  0  0
   -1.4432   -2.0448   -1.9962 H   0  0  0  0  0  0  0  0  0  0  0  0
   -2.7826   -2.8182   -2.7399 H   0  0  0  0  0  0  0  0  0  0  0  0
   -6.3737   -0.3748   -2.1714 H   0  0  0  0  0  0  0  0  0  0  0  0
    0.8476    3.1737    4.1182 H   0  0  0  0  0  0  0  0  0  0  0  0
    2.7948    2.6690    2.0260 H   0  0  0  0  0  0  0  0  0  0  0  0
    4.1596    3.3708    2.9013 H   0  0  0  0  0  0  0  0  0  0  0  0
    2.0231    4.0497    0.0191 H   0  0  0  0  0  0  0  0  0  0  0  0
    1.7723    6.6202   -1.6872 H   0  0  0  0  0  0  0  0  0  0  0  0
    1.2301    4.9245   -1.8279 H   0  0  0  0  0  0  0  0  0  0  0  0
    2.3806    5.6351   -3.0357 H   0  0  0  0  0  0  0  0  0  0  0  0
    5.6259    4.2928   -0.9597 H   0  0  0  0  0  0  0  0  0  0  0  0
    6.6191    1.4656   -0.8364 H   0  0  0  0  0  0  0  0  0  0  0  0
    7.6702    2.8055   -1.3889 H   0  0  0  0  0  0  0  0  0  0  0  0
    6.2742    2.2946   -2.3795 H   0  0  0  0  0  0  0  0  0  0  0  0
  1  2  2  0  0  0  0
  2 38  1  0  0  0  0
  3  2  1  0  0  0  0
  3  9  1  0  0  0  0
  4 53  1  0  0  0  0
  4  3  1  0  0  0  0
  5  6  1  0  0  0  0
  5  4  1  0  0  0  0
  6 57  1  0  0  0  0
  6  7  1  0  0  0  0
  7  8  1  1  0  0  0
  7  9  1  0  0  0  0
  9 59  1  0  0  0  0
  9 58  1  0  0  0  0
 10  7  1  0  0  0  0
 10 11  1  0  0  0  0
 12 13  1  0  0  0  0
 12 11  2  0  0  0  0
 13 30  2  0  0  0  0
 13 14  1  0  0  0  0
 14 60  1  0  0  0  0
 14 15  2  0  0  0  0
 15 28  1  0  0  0  0
 15 16  1  0  0  0  0
 16 27  2  0  0  0  0
 17 16  1  0  0  0  0
 18 17  1  0  0  0  0
 18 19  1  0  0  0  0
 19 62  1  0  0  0  0
 20 19  2  0  0  0  0
 20 63  1  0  0  0  0
 21 20  1  0  0  0  0
 22 21  1  0  0  0  0
 22 64  1  0  0  0  0
 22 23  1  0  0  0  0
 23 66  1  0  0  0  0
 24 22  1  0  0  0  0
 25 26  1  0  0  0  0
 25 21  2  0  0  0  0
 26 18  2  0  0  0  0
 28 73  1  0  0  0  0
 29 74  1  0  0  0  0
 29 28  2  0  0  0  0
 30 29  1  0  0  0  0
 31 10  1  0  0  0  0
 32 31  2  0  0  0  0
 32 12  1  0  0  0  0
 33 34  1  6  0  0  0
 33 32  1  0  0  0  0
 35 36  2  0  0  0  0
 35 33  1  0  0  0  0
 36 37  1  0  0  0  0
 37 31  1  0  0  0  0
 38 39  2  0  0  0  0
 39 79  1  0  0  0  0
 40 39  1  0  0  0  0
 41 40  1  0  0  0  0
 41 81  1  0  0  0  0
 42 43  1  1  0  0  0
 42 41  1  0  0  0  0
 44 82  1  0  0  0  0
 44 42  1  0  0  0  0
 45 44  1  0  0  0  0
 46 84  1  0  0  0  0
 46 83  1  0  0  0  0
 46 45  1  0  0  0  0
 47 45  2  0  0  0  0
 48 51  2  0  0  0  0
 48 42  1  0  0  0  0
 49 48  1  0  0  0  0
 50 87  1  0  0  0  0
 50 49  1  0  0  0  0
 52  4  1  0  0  0  0
 54  5  1  0  0  0  0
 55  5  1  0  0  0  0
 56  6  1  0  0  0  0
 61 17  1  0  0  0  0
 65 23  1  0  0  0  0
 67 23  1  0  0  0  0
 68 24  1  0  0  0  0
 69 24  1  0  0  0  0
 70 24  1  0  0  0  0
 71 25  1  0  0  0  0
 72 26  1  0  0  0  0
 75 30  1  0  0  0  0
 76 34  1  0  0  0  0
 77 34  1  0  0  0  0
 78 36  1  0  0  0  0
 80 41  1  0  0  0  0
 85 46  1  0  0  0  0
 86 49  1  0  0  0  0
 88 50  1  0  0  0  0
 89 50  1  0  0  0  0
M  END
