89
-1 1
O        -0.146875    4.994775   -1.241136
C        -0.776511    4.596908   -0.273481
N        -2.148588    4.565074   -0.258032
C        -2.881502    5.121733   -1.379871
C        -3.897895    4.123753   -1.924567
C        -4.795880    3.602552   -0.806111
C        -3.957405    2.999497    0.328046
H        -4.615814    2.733388    1.171783
C        -2.939027    4.031872    0.828374
N        -3.277580    1.776058   -0.110148
N        -1.994640    1.544445    0.232093
C        -1.650426    0.363391   -0.226426
C        -0.325207   -0.236278    0.011498
C        -0.266501   -1.610539    0.258463
C         0.956653   -2.268230    0.403184
C         1.045263   -3.759531    0.565374
N        -0.049456   -4.439170    0.074743
C        -0.304166   -5.816231    0.072686
C         0.566586   -6.772203    0.609646
C         0.220136   -8.121728    0.559382
C        -0.973046   -8.568497   -0.012170
C        -1.324007  -10.045353   -0.053928
C        -2.592933  -10.351217    0.749140
C        -1.436807  -10.562189   -1.492310
C        -1.832353   -7.598855   -0.544526
C        -1.508993   -6.249387   -0.503972
O         2.014146   -4.306537    1.050640
C         2.134604   -1.516392    0.382462
C         2.088413   -0.135947    0.187321
C         0.863886    0.503540   -0.009955
C        -3.798459    0.718082   -0.786997
C        -2.762474   -0.224715   -0.919437
C        -3.071140   -1.352610   -1.720206
N        -2.156347   -2.309219   -2.060516
N        -4.311774   -1.509181   -2.178257
C        -5.222602   -0.566993   -1.900700
N        -5.049996    0.565954   -1.247040
C        -0.098995    4.177423    0.942172
C         0.564088    3.903738    1.923443
S         3.253601    3.609886    3.715999
C         3.796725    2.634667    2.271971
C         4.506673    3.452215    1.192976
H         5.327629    4.023029    1.659638
N         3.584018    4.410792    0.598445
C         3.954706    5.591223    0.064121
C         2.819702    6.559714   -0.184307
O         5.123422    5.873296   -0.198656
C         5.123868    2.572454    0.086797
N         5.979999    3.245238   -0.719289
C         6.578109    2.647258   -1.881211
O         4.875552    1.381297   -0.049984
H        -2.145907    5.413690   -2.138212
H        -3.408139    6.036965   -1.044664
H        -3.365535    3.282931   -2.398735
H        -4.503927    4.602903   -2.708778
H        -5.513869    2.860991   -1.177287
H        -5.373482    4.436664   -0.371921
H        -2.272489    3.598083    1.581572
H        -3.518438    4.842211    1.308914
H        -1.206508   -2.154851    0.368204
H        -0.756687   -3.879029   -0.385131
H         1.503229   -6.446621    1.056085
H         0.914088   -8.852663    0.984747
H        -0.490379  -10.584848    0.426826
H        -3.471175   -9.851115    0.309989
H        -2.496769  -10.004322    1.788607
H        -2.798518  -11.433373    0.763780
H        -2.265368  -10.070312   -2.027010
H        -1.628129  -11.646960   -1.507386
H        -0.512879  -10.367134   -2.056691
H        -2.780187   -7.897653   -1.001045
H        -2.200041   -5.511121   -0.921972
H         3.089704   -2.026844    0.518003
H         3.021625    0.437843    0.172141
H         0.826458    1.582542   -0.176230
H        -1.175863   -2.054222   -2.034609
H        -2.449008   -2.918186   -2.815465
H        -6.231759   -0.759533   -2.282904
H         1.297712    3.734266    2.761370
H         2.936455    2.126679    1.795690
H         4.478656    1.828182    2.578263
H         2.609129    4.303697    0.860841
H         2.519842    7.008528    0.775412
H         1.940133    6.054461   -0.612018
H         3.168284    7.352109   -0.857379
H         6.005771    4.262346   -0.592403
H         6.361739    1.571173   -1.862285
H         7.670991    2.790565   -1.887385
H         6.171220    3.070522   -2.815772
