89
-1 1
O        -0.390326   -4.697289    1.950454
C        -1.236839   -4.746065    2.849656
N        -2.520012   -4.281531    2.622346
C        -2.816623   -3.572645    1.394665
C        -3.709126   -4.395274    0.467773
C        -4.971262   -4.837605    1.204332
C        -4.609651   -5.604886    2.483034
H        -5.525473   -5.814176    3.058360
C        -3.659696   -4.770132    3.362648
N        -4.013357   -6.898526    2.140794
N        -2.744335   -7.189891    2.465846
C        -2.447858   -8.373582    1.984223
C        -1.128909   -8.988134    2.214781
C        -1.058079  -10.368546    2.414221
C         0.170642  -11.010121    2.592231
C         0.281784  -12.502236    2.723726
N        -0.794485  -13.192229    2.207020
C        -1.030323  -14.572032    2.183844
C        -0.146507  -15.524351    2.705989
C        -0.474499  -16.877555    2.635150
C        -1.661570  -17.331879    2.056874
C        -1.992657  -18.812544    1.993222
C        -3.256001  -19.147549    2.793505
C        -2.101007  -19.309321    0.547459
C        -2.534041  -16.365971    1.539312
C        -2.229229  -15.012986    1.600569
O         1.252340  -13.043975    3.213028
C         1.334479  -10.237641    2.649940
C         1.272533   -8.851986    2.496512
C         0.047653   -8.226518    2.262348
C        -4.577187   -7.909641    1.432765
C        -3.586896   -8.900072    1.284111
C        -3.953317   -9.992347    0.461062
N        -3.086377  -10.990845    0.109335
N        -5.197101  -10.070069   -0.008527
C        -6.057008   -9.081298    0.276370
N        -5.828873   -7.972851    0.955137
C        -0.950595   -5.271725    4.144359
C        -0.272761   -5.436970    5.163270
S         1.964526   -4.157507    5.413868
C         2.757598   -5.423347    4.365741
C         3.432524   -4.867124    3.115433
H         4.173573   -4.107223    3.415888
N         2.476609   -4.207828    2.240231
C         2.816886   -3.193146    1.429367
C         1.660918   -2.446583    0.799265
O         3.984332   -2.857573    1.212631
C         4.188096   -5.955901    2.325912
N         5.066833   -5.448476    1.426534
C         5.780510   -6.276947    0.494301
O         4.016864   -7.156692    2.489517
H        -1.864268   -3.325681    0.912437
H        -3.330628   -2.625633    1.649962
H        -3.145524   -5.276238    0.118578
H        -3.972527   -3.804974   -0.423828
H        -5.623158   -5.459304    0.574220
H        -5.559088   -3.951810    1.502092
H        -3.295810   -5.354151    4.217583
H        -4.253536   -3.923898    3.754022
H        -1.994279  -10.927856    2.472651
H        -1.509040  -12.634899    1.756565
H         0.785305  -15.192419    3.157788
H         0.229451  -17.605418    3.049287
H        -1.151031  -19.347957    2.464569
H        -4.141605  -18.652776    2.363210
H        -3.162786  -18.814896    3.837890
H        -3.447031  -20.232482    2.792281
H        -2.936856  -18.820526    0.021363
H        -2.278033  -20.396192    0.516428
H        -1.180693  -19.093613   -0.015310
H        -3.477868  -16.670605    1.078357
H        -2.930771  -14.277999    1.194321
H         2.290104  -10.738696    2.814486
H         2.190092   -8.255461    2.548308
H         0.000679   -7.143649    2.118539
H        -2.096643  -10.773210    0.126004
H        -3.407454  -11.566984   -0.659804
H        -7.069328   -9.208327   -0.124641
H         0.010846   -5.903991    6.090137
H         2.016307   -6.179580    4.051678
H         3.526624   -5.970830    4.930903
H         1.482633   -4.424230    2.365437
H         1.427004   -1.579375    1.435706
H         0.762019   -3.072234    0.727563
H         1.968893   -2.078158   -0.187719
H         5.017010   -4.434197    1.283842
H         5.640490   -7.324680    0.790912
H         6.858329   -6.046418    0.498142
H         5.407000   -6.152881   -0.537126
