89
-1 1
O         0.358029    3.689033   -0.031900
C        -0.409845    3.880528    0.950162
N        -1.663341    4.468948    0.683979
C        -1.851765    5.181374   -0.558882
C        -2.669900    4.383459   -1.573031
C        -4.006246    3.978468   -0.955388
C        -3.783116    3.197306    0.345911
H        -4.751363    3.024372    0.841670
C        -2.868275    3.983073    1.312125
N        -3.232821    1.873069    0.039758
N        -1.970582    1.554402    0.349039
C        -1.708938    0.356964   -0.117621
C        -0.395267   -0.270625    0.107512
C        -0.319055   -1.654374    0.272851
C         0.911824   -2.295640    0.443189
C         1.030432   -3.789105    0.535408
N        -0.052343   -4.471556    0.021609
C        -0.282917   -5.850594   -0.032105
C         0.615357   -6.812633    0.446277
C         0.291422   -8.165023    0.346780
C        -0.905672   -8.609482   -0.218318
C        -1.232123  -10.089479   -0.313881
C        -2.477317  -10.451159    0.503088
C        -1.368428  -10.549105   -1.769560
C        -1.792657   -7.634176   -0.691890
C        -1.492232   -6.281887   -0.601564
O         2.011907   -4.340564    0.992935
C         2.071942   -1.520034    0.529533
C         2.000680   -0.131115    0.414034
C         0.776227    0.497972    0.187173
C        -3.831194    0.869793   -0.650119
C        -2.869029   -0.150352   -0.798647
C        -3.273888   -1.235485   -1.610441
N        -2.433580   -2.259996   -1.969302
N        -4.523249   -1.285515   -2.067380
C        -5.354240   -0.271232   -1.781518
N        -5.088547    0.836170   -1.116358
C        -0.181932    3.453719    2.264754
C         0.762070    3.695763    3.155912
S         2.196663    4.821931    2.898578
C         3.359520    3.597831    2.183267
C         4.000636    4.030541    0.870366
H         4.625379    4.927184    1.028763
N         3.006529    4.361508   -0.131003
C         3.270971    5.208483   -1.138159
C         2.078229    5.604253   -1.980508
O         4.397265    5.658525   -1.373271
C         4.925257    2.912764    0.338008
N         5.793515    3.343911   -0.608031
C         6.632617    2.438028   -1.345586
O         4.864271    1.756378    0.728437
H        -0.863366    5.426932   -0.962977
H        -2.378623    6.134360   -0.346996
H        -2.093488    3.488910   -1.860508
H        -2.834719    4.977833   -2.486463
H        -4.623206    3.381947   -1.643977
H        -4.588086    4.883426   -0.705567
H        -2.568846    3.360085    2.165305
H        -3.477945    4.824406    1.694841
H        -1.253760   -2.217558    0.311787
H        -0.780142   -3.905892   -0.396323
H         1.554783   -6.487776    0.887321
H         1.006707   -8.900381    0.727063
H        -0.378768  -10.633252    0.125884
H        -3.373432   -9.948839    0.104502
H        -2.363695  -10.145639    1.553725
H        -2.664382  -11.536535    0.477090
H        -2.216772  -10.050337   -2.265418
H        -1.541877  -11.635623   -1.825456
H        -0.460797  -10.314583   -2.345285
H        -2.744860   -7.930859   -1.140731
H        -2.204842   -5.539319   -0.973240
H         3.027893   -2.022600    0.687748
H         2.913238    0.467792    0.495542
H         0.713785    1.586280    0.070942
H        -1.443243   -2.044836   -1.996184
H        -2.782640   -2.818195   -2.739898
H        -6.373724   -0.374765   -2.171407
H         0.847632    3.173707    4.118156
H         2.794799    2.668993    2.025954
H         4.159631    3.370844    2.901347
H         2.023052    4.049710    0.019099
H         1.772349    6.620195   -1.687179
H         1.230104    4.924499   -1.827876
H         2.380597    5.635066   -3.035725
H         5.625890    4.292789   -0.959689
H         6.619132    1.465605   -0.836424
H         7.670224    2.805541   -1.388870
H         6.274173    2.294563   -2.379474
