-1 1
 OpenBabel05192410563D

 93 96  0  0  1  0  0  0  0  0999 V2000
    1.7268    4.3491    2.4449 O   0  0  0  0  0  0  0  0  0  0  0  0
    1.4113    3.3290    1.8127 C   0  0  0  0  0  0  0  0  0  0  0  0
    2.2964    3.0211    0.6895 N   0  0  0  0  0  0  0  0  0  0  0  0
    1.9803    2.7119   -0.6143 C   0  0  0  0  0  0  0  0  0  0  0  0
    0.6546    2.5471   -1.0629 C   0  0  0  0  0  0  0  0  0  0  0  0
    0.4030    2.1316   -2.3592 C   0  0  0  0  0  0  0  0  0  0  0  0
   -0.9218    1.9465   -2.7337 O   0  0  0  0  0  0  0  0  0  0  0  0
   -1.4188    0.6890   -2.7510 C   0  0  0  0  0  0  0  0  0  0  0  0
   -2.7700    0.5263   -3.1276 C   0  0  0  0  0  0  0  0  0  0  0  0
   -3.5996    1.6459   -3.3394 N   0  0  0  0  0  0  0  0  0  0  0  0
   -5.0078    1.4602   -3.0975 C   0  0  0  0  0  0  0  0  0  0  0  0
   -3.2952    2.4647   -4.4910 C   0  0  0  0  0  0  0  0  0  0  0  0
   -3.2072   -0.7976   -3.1867 C   0  0  0  0  0  0  0  0  0  0  0  0
   -2.3719   -1.8607   -2.8488 C   0  0  0  0  0  0  0  0  0  0  0  0
   -1.0668   -1.5621   -2.4337 C   0  0  0  0  0  0  0  0  0  0  0  0
   -0.1898   -2.5578   -2.0268 N   0  0  0  0  0  0  0  0  0  0  0  0
    0.9184   -2.2979   -1.1901 C   0  0  0  0  0  0  0  0  0  0  0  0
    1.0500   -3.0259    0.0064 C   0  0  0  0  0  0  0  0  0  0  0  0
    0.1476   -4.0335    0.1754 O   0  0  0  0  0  0  0  0  0  0  0  0
    0.2165   -4.8266    1.3301 C   0  0  0  0  0  0  0  0  0  0  0  0
    2.0028   -2.6742    0.9580 C   0  0  0  0  0  0  0  0  0  0  0  0
    2.8625   -1.5710    0.7557 C   0  0  0  0  0  0  0  0  0  0  0  0
    3.6920   -1.1026    1.7793 N   0  0  0  0  0  0  0  0  0  0  0  0
    3.2438   -1.3985    3.1399 C   0  0  0  0  0  0  0  0  0  0  0  0
    4.1428   -0.7849    4.2158 C   0  0  0  0  0  0  0  0  0  0  0  0
    4.4641    0.6092    4.0011 N   0  0  0  0  0  0  0  0  0  0  0  0
    5.1239    0.7128    2.7175 C   0  0  0  0  0  0  0  0  0  0  0  0
    4.2791    0.2161    1.5475 C   0  0  0  0  0  0  0  0  0  0  0  0
    3.3312    1.5090    4.1643 C   0  0  0  0  0  0  0  0  0  0  0  0
    2.8032   -0.9346   -0.4953 C   0  0  0  0  0  0  0  0  0  0  0  0
    1.8499   -1.2963   -1.4403 C   0  0  0  0  0  0  0  0  0  0  0  0
   -0.6290   -0.3054   -2.4229 N   0  0  0  0  0  0  0  0  0  0  0  0
    1.4190    1.9370   -3.2911 C   0  0  0  0  0  0  0  0  0  0  0  0
    2.7303    2.1613   -2.8702 C   0  0  0  0  0  0  0  0  0  0  0  0
    3.0141    2.5318   -1.5608 C   0  0  0  0  0  0  0  0  0  0  0  0
    0.3708    2.4285    2.0549 C   0  0  0  0  0  3  0  0  0  0  0  0
    0.2772    1.0590    1.4772 C   0  0  0  0  0  0  0  0  0  0  0  0
   -0.4907   -0.1040    2.6852 S   0  0  0  0  0  0  0  0  0  0  0  0
   -1.2370   -1.2985    1.5362 C   0  0  0  0  0  0  0  0  0  0  0  0
   -2.7644   -1.2357    1.3390 C   0  0  2  0  0  0  0  0  0  0  0  0
   -3.2488   -1.3062    2.3293 H   0  0  0  0  0  0  0  0  0  0  0  0
   -3.1804   -2.3445    0.5105 N   0  0  0  0  0  0  0  0  0  0  0  0
   -3.0962   -3.6413    0.8690 C   0  0  0  0  0  0  0  0  0  0  0  0
   -3.4205   -4.6290   -0.2365 C   0  0  0  0  0  0  0  0  0  0  0  0
   -2.7418   -4.0182    1.9765 O   0  0  0  0  0  0  0  0  0  0  0  0
   -3.2991    0.0273    0.6289 C   0  0  0  0  0  0  0  0  0  0  0  0
   -2.8861    1.2085    1.1045 N   0  0  0  0  0  0  0  0  0  0  0  0
   -3.1274    2.4483    0.4005 C   0  0  0  0  0  0  0  0  0  0  0  0
   -4.0612   -0.0830   -0.3261 O   0  0  0  0  0  0  0  0  0  0  0  0
    3.1682    3.5261    0.8075 H   0  0  0  0  0  0  0  0  0  0  0  0
   -0.1724    2.7379   -0.3824 H   0  0  0  0  0  0  0  0  0  0  0  0
   -5.1431    0.9296   -2.1446 H   0  0  0  0  0  0  0  0  0  0  0  0
   -5.5320    0.9027   -3.9073 H   0  0  0  0  0  0  0  0  0  0  0  0
   -5.4930    2.4466   -3.0192 H   0  0  0  0  0  0  0  0  0  0  0  0
   -3.8060    3.4367   -4.4002 H   0  0  0  0  0  0  0  0  0  0  0  0
   -3.6196    1.9959   -5.4464 H   0  0  0  0  0  0  0  0  0  0  0  0
   -2.2165    2.6574   -4.5431 H   0  0  0  0  0  0  0  0  0  0  0  0
   -4.2413   -1.0041   -3.4674 H   0  0  0  0  0  0  0  0  0  0  0  0
   -2.7306   -2.8918   -2.8769 H   0  0  0  0  0  0  0  0  0  0  0  0
   -0.6355   -3.4425   -1.8227 H   0  0  0  0  0  0  0  0  0  0  0  0
   -0.6178   -5.5355    1.2791 H   0  0  0  0  0  0  0  0  0  0  0  0
    0.0840   -4.2275    2.2459 H   0  0  0  0  0  0  0  0  0  0  0  0
    1.1765   -5.3701    1.3846 H   0  0  0  0  0  0  0  0  0  0  0  0
    2.0310   -3.2192    1.8965 H   0  0  0  0  0  0  0  0  0  0  0  0
    3.2534   -2.4885    3.2986 H   0  0  0  0  0  0  0  0  0  0  0  0
    2.1958   -1.0658    3.2777 H   0  0  0  0  0  0  0  0  0  0  0  0
    5.0922   -1.3486    4.2604 H   0  0  0  0  0  0  0  0  0  0  0  0
    3.6457   -0.9078    5.1916 H   0  0  0  0  0  0  0  0  0  0  0  0
    6.0634    0.1333    2.7701 H   0  0  0  0  0  0  0  0  0  0  0  0
    5.3977    1.7623    2.5241 H   0  0  0  0  0  0  0  0  0  0  0  0
    4.9300    0.1646    0.6603 H   0  0  0  0  0  0  0  0  0  0  0  0
    3.4936    0.9636    1.3235 H   0  0  0  0  0  0  0  0  0  0  0  0
    2.9798    1.4660    5.2070 H   0  0  0  0  0  0  0  0  0  0  0  0
    2.4618    1.3018    3.5107 H   0  0  0  0  0  0  0  0  0  0  0  0
    3.6329    2.5453    3.9532 H   0  0  0  0  0  0  0  0  0  0  0  0
    3.4400   -0.0875   -0.7345 H   0  0  0  0  0  0  0  0  0  0  0  0
    1.7856   -0.7236   -2.3627 H   0  0  0  0  0  0  0  0  0  0  0  0
    1.1836    1.6014   -4.3017 H   0  0  0  0  0  0  0  0  0  0  0  0
    3.5537    2.0236   -3.5761 H   0  0  0  0  0  0  0  0  0  0  0  0
    4.0516    2.6714   -1.2444 H   0  0  0  0  0  0  0  0  0  0  0  0
   -0.3155    2.7110    2.8582 H   0  0  0  0  0  0  0  0  0  0  0  0
    1.2609    0.6501    1.1938 H   0  0  0  0  0  0  0  0  0  0  0  0
   -0.3501    0.9395    0.5716 H   0  0  0  0  0  0  0  0  0  0  0  0
   -1.0160   -2.3015    1.9162 H   0  0  0  0  0  0  0  0  0  0  0  0
   -0.7353   -1.1922    0.5647 H   0  0  0  0  0  0  0  0  0  0  0  0
   -3.5587   -2.0627   -0.3911 H   0  0  0  0  0  0  0  0  0  0  0  0
   -4.0699   -4.2083   -1.0170 H   0  0  0  0  0  0  0  0  0  0  0  0
   -3.8900   -5.5182    0.2027 H   0  0  0  0  0  0  0  0  0  0  0  0
   -2.4690   -4.9368   -0.6979 H   0  0  0  0  0  0  0  0  0  0  0  0
   -2.2311    1.2025    1.8876 H   0  0  0  0  0  0  0  0  0  0  0  0
   -3.0154    2.3047   -0.6856 H   0  0  0  0  0  0  0  0  0  0  0  0
   -2.3860    3.1820    0.7461 H   0  0  0  0  0  0  0  0  0  0  0  0
   -4.1408    2.8385    0.5916 H   0  0  0  0  0  0  0  0  0  0  0  0
  2 36  1  0  0  0  0
  2  1  2  0  0  0  0
  3 50  1  0  0  0  0
  3  2  1  0  0  0  0
  4  3  1  0  0  0  0
  5  4  1  0  0  0  0
  5 51  1  0  0  0  0
  6  5  2  0  0  0  0
  7  6  1  0  0  0  0
  8  7  1  0  0  0  0
  8 32  2  0  0  0  0
  9  8  1  0  0  0  0
 10  9  1  0  0  0  0
 10 11  1  0  0  0  0
 11 54  1  0  0  0  0
 11 52  1  0  0  0  0
 12 55  1  0  0  0  0
 12 10  1  0  0  0  0
 13  9  2  0  0  0  0
 13 14  1  0  0  0  0
 14 15  2  0  0  0  0
 15 32  1  0  0  0  0
 15 16  1  0  0  0  0
 16 60  1  0  0  0  0
 16 17  1  0  0  0  0
 17 18  1  0  0  0  0
 18 19  1  0  0  0  0
 18 21  2  0  0  0  0
 19 20  1  0  0  0  0
 20 63  1  0  0  0  0
 20 62  1  0  0  0  0
 21 64  1  0  0  0  0
 22 21  1  0  0  0  0
 22 23  1  0  0  0  0
 23 24  1  0  0  0  0
 24 66  1  0  0  0  0
 24 65  1  0  0  0  0
 24 25  1  0  0  0  0
 25 67  1  0  0  0  0
 25 68  1  0  0  0  0
 26 29  1  0  0  0  0
 26 25  1  0  0  0  0
 27 69  1  0  0  0  0
 27 26  1  0  0  0  0
 28 23  1  0  0  0  0
 28 27  1  0  0  0  0
 29 73  1  0  0  0  0
 30 22  2  0  0  0  0
 31 17  2  0  0  0  0
 31 30  1  0  0  0  0
 33 34  2  0  0  0  0
 33  6  1  0  0  0  0
 34 35  1  0  0  0  0
 35 80  1  0  0  0  0
 35  4  2  0  0  0  0
 36 81  1  0  0  0  0
 37 36  1  0  0  0  0
 37 38  1  0  0  0  0
 39 84  1  0  0  0  0
 39 38  1  0  0  0  0
 40 39  1  0  0  0  0
 40 41  1  1  0  0  0
 42 43  1  0  0  0  0
 42 40  1  0  0  0  0
 43 45  2  0  0  0  0
 44 88  1  0  0  0  0
 44 43  1  0  0  0  0
 46 47  1  0  0  0  0
 46 40  1  0  0  0  0
 47 90  1  0  0  0  0
 48 93  1  0  0  0  0
 48 92  1  0  0  0  0
 48 47  1  0  0  0  0
 49 46  2  0  0  0  0
 53 11  1  0  0  0  0
 56 12  1  0  0  0  0
 57 12  1  0  0  0  0
 58 13  1  0  0  0  0
 59 14  1  0  0  0  0
 61 20  1  0  0  0  0
 70 27  1  0  0  0  0
 71 28  1  0  0  0  0
 72 28  1  0  0  0  0
 74 29  1  0  0  0  0
 75 29  1  0  0  0  0
 76 30  1  0  0  0  0
 77 31  1  0  0  0  0
 78 33  1  0  0  0  0
 79 34  1  0  0  0  0
 82 37  1  0  0  0  0
 83 37  1  0  0  0  0
 85 39  1  0  0  0  0
 86 42  1  0  0  0  0
 87 44  1  0  0  0  0
 89 44  1  0  0  0  0
 91 48  1  0  0  0  0
M  END
