93
-1 1
O         7.006391    0.227760   17.483493
C         6.600632   -0.863516   17.096507
N         7.467971   -1.561742   16.179488
C         7.204828   -2.076307   14.920881
C         5.911694   -2.232466   14.384788
C         5.751357   -2.791911   13.125028
O         4.463874   -2.965317   12.634325
C         3.934452   -4.209451   12.710641
C         2.704256   -4.455046   12.061190
N         2.014639   -3.426208   11.385062
C         0.601212   -3.608564   11.195360
C         2.682882   -2.858536   10.233406
C         2.233688   -5.767747   12.183884
C         2.928772   -6.734699   12.903535
C         4.146515   -6.364788   13.501463
N         4.883977   -7.266974   14.226398
C         5.950668   -7.033206   15.110021
C         6.301512   -8.098792   15.969140
O         5.597525   -9.255393   15.780962
C         5.945873  -10.383033   16.543219
C         7.290194   -7.948607   16.929434
C         7.952827   -6.717444   17.106213
N         8.870752   -6.568262   18.161757
C         8.391531   -6.985289   19.483025
C         9.542361   -7.015971   20.484977
N        10.258571   -5.755136   20.580854
C        10.705727   -5.364943   19.255776
C         9.587050   -5.302289   18.214834
C         9.527514   -4.717343   21.284685
C         7.647511   -5.686941   16.214354
C         6.675761   -5.849016   15.227313
N         4.605531   -5.121499   13.371433
C         6.830031   -3.175929   12.333913
C         8.110044   -3.004598   12.855447
C         8.299650   -2.472925   14.124351
C         5.392861   -1.504536   17.508273
C         5.144864   -2.876044   17.425328
S         5.862256   -4.194349   19.136917
C         4.980034   -5.649035   18.501994
C         3.711815   -6.087628   19.264250
H         3.994113   -6.285787   20.313012
N         3.142196   -7.277659   18.673200
C         3.703582   -8.500576   18.656984
C         2.922983   -9.531440   17.858680
O         4.770531   -8.774630   19.191589
C         2.568659   -5.052220   19.254693
N         2.869584   -3.861663   19.803111
C         1.973999   -2.735094   19.728309
O         1.471761   -5.334522   18.782414
H         8.397282   -1.163201   16.258522
H         5.035191   -1.937467   14.959231
H         0.127517   -3.924190   12.136703
H         0.341676   -4.356215   10.411014
H         0.147808   -2.651363   10.892738
H         2.193701   -1.912816    9.950742
H         2.659073   -3.534632    9.350463
H         3.728330   -2.633233   10.475635
H         1.288544   -6.043424   11.712134
H         2.532834   -7.746316   13.010486
H         4.501671   -8.199622   14.303451
H         5.285827  -11.197386   16.215579
H         5.791763  -10.198322   17.619515
H         6.994173  -10.678912   16.360388
H         7.526579   -8.778906   17.590463
H         7.937200   -7.982376   19.424610
H         7.600938   -6.293226   19.833789
H        10.261484   -7.796837   20.177787
H         9.156129   -7.292569   21.479216
H        11.457199   -6.101335   18.918320
H        11.206264   -4.384953   19.313893
H        10.037514   -5.106841   17.229681
H         8.896046   -4.463291   18.435346
H         9.300881   -5.061087   22.306592
H         8.570804   -4.413699   20.813546
H        10.159891   -3.819355   21.368679
H         8.110582   -4.705650   16.301561
H         6.446337   -5.018025   14.568767
H         6.659440   -3.628998   11.356686
H         8.979727   -3.307377   12.267246
H         9.311046   -2.365547   14.524954
H         4.749888   -0.877364   18.131405
H         5.696588   -3.479084   16.699701
H         4.114056   -3.213733   17.563946
H         5.654295   -6.514094   18.503767
H         4.707798   -5.467916   17.446629
H         2.216464   -7.115796   18.281864
H         1.841399   -9.335224   17.852956
H         3.117683  -10.529392   18.270903
H         3.290874   -9.501103   16.821863
H         3.876540   -3.690783   19.953944
H         0.962043   -3.101337   19.514130
H         2.271392   -2.035561   18.928613
H         1.966677   -2.185276   20.681371
