100
-1 1
O         2.280282   -2.693645   -3.300953
C         1.115576   -2.333662   -3.236559
N         0.677828   -1.621110   -2.142634
C        -0.605003   -1.463497   -1.587981
C        -0.829137   -0.340639   -0.787542
C        -2.057947   -0.180468   -0.158850
O        -2.328143    0.942029    0.595564
C        -1.692211    1.147366    1.771299
C        -2.090034    2.267109    2.541736
N        -3.049555    3.178721    2.076327
C        -3.062949    4.494387    2.682504
C        -3.830029    5.494069    1.820940
C        -5.242742    4.997241    1.523947
C        -5.176278    3.598318    0.916798
C        -4.387198    2.656841    1.816927
C        -1.404583    2.408950    3.752003
C        -0.390726    1.532315    4.127972
C        -0.089168    0.464496    3.271951
N         0.917779   -0.422348    3.596064
C         1.546854   -1.377044    2.791179
C         2.850211   -1.770786    3.180557
O         3.321043   -1.159094    4.305801
C         4.618050   -1.440545    4.740889
C         3.574273   -2.692800    2.439339
C         3.028187   -3.278289    1.278872
N         3.811459   -4.173659    0.525102
C         3.362401   -4.485409   -0.820485
C         4.493862   -5.142238   -1.608798
N         5.056135   -6.318470   -0.960167
C         5.452006   -5.987560    0.395740
C         4.337282   -5.338441    1.219329
C         4.248319   -7.510651   -1.075386
C         1.733487   -2.909518    0.911649
C         1.006829   -1.974337    1.655511
N        -0.766004    0.292428    2.137910
C        -3.082678   -1.105585   -0.326781
C        -2.849924   -2.222369   -1.126683
C        -1.618333   -2.418868   -1.741800
C         0.188828   -2.608405   -4.369744
C        -0.722111   -1.755837   -4.844891
S        -1.473859    1.830788   -5.004262
C        -0.411507    1.891669   -3.518290
C        -1.037795    2.683527   -2.357464
H        -1.881553    2.105733   -1.933768
N        -1.565175    3.923706   -2.916002
C        -2.497292    4.704935   -2.358918
C        -3.189846    5.665822   -3.303007
O        -2.817338    4.672249   -1.165816
C        -0.026304    2.880137   -1.211507
N        -0.451501    3.624571   -0.170500
C         0.401209    3.831201    0.968749
O         1.073266    2.338420   -1.210002
H         1.442213   -1.255395   -1.581714
H        -0.037921    0.399682   -0.656859
H        -2.023709    4.835910    2.805484
H        -3.515941    4.466242    3.703253
H        -3.297996    5.621747    0.866329
H        -3.854369    6.467203    2.338541
H        -5.755515    5.692515    0.840674
H        -5.834434    4.969784    2.459006
H        -4.666080    3.653906   -0.056846
H        -6.186594    3.187852    0.758092
H        -4.296202    1.674936    1.340308
H        -4.928837    2.513181    2.781222
H        -1.653765    3.239187    4.414174
H         0.156213    1.676808    5.061637
H         1.464752   -0.172178    4.408565
H         4.788172   -0.840974    5.644334
H         5.372897   -1.165768    3.983174
H         4.743787   -2.508799    4.992850
H         4.598261   -2.938172    2.719016
H         3.068722   -3.566304   -1.345777
H         2.471646   -5.153087   -0.809312
H         5.299902   -4.399836   -1.735687
H         4.134257   -5.406451   -2.614400
H         6.295588   -5.276646    0.344863
H         5.813004   -6.896420    0.904513
H         4.738030   -5.044949    2.199605
H         3.527887   -6.077261    1.416507
H         4.070581   -7.731823   -2.139402
H         3.255142   -7.461621   -0.579649
H         4.789373   -8.368155   -0.643382
H         1.258893   -3.342696    0.031660
H         0.004488   -1.697282    1.341862
H        -4.040759   -0.943500    0.168376
H        -3.640468   -2.963530   -1.262680
H        -1.444454   -3.308845   -2.345277
H         0.430223   -3.533720   -4.901720
H        -0.953033   -0.776483   -4.408308
H        -1.271277   -1.993603   -5.759720
H         0.560948    2.351707   -3.753859
H        -0.178232    0.885967   -3.140419
H        -1.603285    3.818548   -3.946918
H        -4.185363    5.258088   -3.534791
H        -2.643922    5.805137   -4.245122
H        -3.326799    6.630611   -2.796944
H        -1.413644    3.977016   -0.196920
H        -0.088132    4.525585    1.664132
H         1.371791    4.253958    0.663477
H         0.610622    2.890164    1.505509
