100
-1 1
O         1.745321   -2.498779   -2.872929
C         0.782874   -1.737774   -3.099076
N         0.277312   -1.025411   -1.931410
C        -0.992391   -1.049784   -1.398059
C        -1.253842   -0.239522   -0.276766
C        -2.524384   -0.187154    0.275301
O        -2.834707    0.687902    1.293337
C        -1.985807    0.973813    2.301017
C        -2.157947    2.225655    2.936069
N        -3.023632    3.186124    2.402525
C        -2.713141    4.588161    2.551573
C        -3.242497    5.369882    1.349326
C        -4.739183    5.128052    1.155163
C        -5.031021    3.629492    1.079444
C        -4.444094    2.905503    2.286592
C        -1.324046    2.446602    4.037392
C        -0.347658    1.524392    4.401896
C        -0.235686    0.342158    3.649848
N         0.764659   -0.566963    3.921283
C         1.378752   -1.461632    3.026217
C         2.701788   -1.849958    3.330893
O         3.207383   -1.314640    4.483704
C         4.524785   -1.599110    4.845906
C         3.419826   -2.692753    2.493486
C         2.854342   -3.190621    1.298706
N         3.612429   -3.987881    0.434589
C         3.015763   -4.379912   -0.834229
C         4.097729   -4.830446   -1.809608
N         4.969197   -5.880098   -1.292401
C         5.517552   -5.463904   -0.017223
C         4.461141   -5.020794    0.999850
C         4.376380   -7.196741   -1.285673
C         1.534261   -2.820079    1.011443
C         0.814024   -1.979056    1.862694
N        -1.090208    0.082764    2.660641
C        -3.576590   -0.933138   -0.250432
C        -3.317167   -1.733902   -1.362968
C        -2.054095   -1.802471   -1.940010
C         0.186582   -1.472495   -4.330316
C        -0.796491   -0.424120   -4.643430
S        -0.108650    1.251329   -5.247378
C         0.679676    1.835610   -3.727723
C        -0.284528    2.246361   -2.608787
H        -0.712604    1.345275   -2.146330
N        -1.379855    3.042939   -3.150125
C        -2.562481    3.207710   -2.522318
C        -3.688501    3.766389   -3.366473
O        -2.748646    2.929059   -1.342076
C         0.494042    3.004097   -1.508496
N        -0.133765    3.036083   -0.307002
C         0.437234    3.713844    0.826345
O         1.594106    3.490386   -1.706555
H         1.015766   -0.901363   -1.245727
H        -0.452474    0.375345    0.132532
H        -1.622377    4.705995    2.620175
H        -3.146393    5.011760    3.488852
H        -2.702145    5.024107    0.452975
H        -3.031117    6.443764    1.482314
H        -5.094415    5.638884    0.245530
H        -5.292882    5.571847    2.004345
H        -4.564124    3.212963    0.173091
H        -6.116914    3.446486    1.028836
H        -4.587237    1.824442    2.182909
H        -4.973195    3.226635    3.214403
H        -1.409990    3.383637    4.591951
H         0.338795    1.731205    5.225313
H         1.383224   -0.304003    4.677031
H         4.718951   -1.067562    5.786699
H         5.245393   -1.250739    4.084644
H         4.682217   -2.680348    5.009524
H         4.453683   -2.930895    2.735363
H         2.494266   -3.534560   -1.309546
H         2.267932   -5.190157   -0.682960
H         4.720296   -3.954871   -2.058335
H         3.624885   -5.160696   -2.745902
H         6.193746   -4.609112   -0.196201
H         6.121681   -6.282313    0.409225
H         4.978007   -4.652834    1.895974
H         3.852414   -5.895245    1.323192
H         4.063269   -7.462573   -2.307482
H         3.486358   -7.313735   -0.630363
H         5.123752   -7.939963   -0.961703
H         1.044322   -3.169388    0.103287
H        -0.208546   -1.712324    1.609491
H        -4.568055   -0.861977    0.197750
H        -4.128275   -2.326964   -1.794116
H        -1.862295   -2.424664   -2.815147
H         0.616011   -2.027792   -5.168487
H        -1.464261   -0.157042   -3.812365
H        -1.440417   -0.692901   -5.495494
H         1.317038    2.690435   -3.993016
H         1.336012    1.038597   -3.350818
H        -1.379419    3.078624   -4.168817
H        -4.439572    2.974059   -3.498812
H        -3.362162    4.119136   -4.353869
H        -4.166190    4.589516   -2.818084
H        -1.122993    2.776869   -0.297717
H         0.058501    4.746763    0.929935
H         1.525241    3.765799    0.692093
H         0.210172    3.163506    1.750925
