-1 1
 OpenBabel05192410563D

100104  0  0  1  0  0  0  0  0999 V2000
    1.7453   -2.4988   -2.8729 O   0  0  0  0  0  0  0  0  0  0  0  0
    0.7829   -1.7378   -3.0991 C   0  0  0  0  0  0  0  0  0  0  0  0
    0.2773   -1.0254   -1.9314 N   0  0  0  0  0  0  0  0  0  0  0  0
   -0.9924   -1.0498   -1.3981 C   0  0  0  0  0  0  0  0  0  0  0  0
   -1.2538   -0.2395   -0.2768 C   0  0  0  0  0  0  0  0  0  0  0  0
   -2.5244   -0.1872    0.2753 C   0  0  0  0  0  0  0  0  0  0  0  0
   -2.8347    0.6879    1.2933 O   0  0  0  0  0  0  0  0  0  0  0  0
   -1.9858    0.9738    2.3010 C   0  0  0  0  0  0  0  0  0  0  0  0
   -2.1579    2.2257    2.9361 C   0  0  0  0  0  0  0  0  0  0  0  0
   -3.0236    3.1861    2.4025 N   0  0  0  0  0  0  0  0  0  0  0  0
   -2.7131    4.5882    2.5516 C   0  0  0  0  0  0  0  0  0  0  0  0
   -3.2425    5.3699    1.3493 C   0  0  0  0  0  0  0  0  0  0  0  0
   -4.7392    5.1281    1.1552 C   0  0  0  0  0  0  0  0  0  0  0  0
   -5.0310    3.6295    1.0794 C   0  0  0  0  0  0  0  0  0  0  0  0
   -4.4441    2.9055    2.2866 C   0  0  0  0  0  0  0  0  0  0  0  0
   -1.3240    2.4466    4.0374 C   0  0  0  0  0  0  0  0  0  0  0  0
   -0.3477    1.5244    4.4019 C   0  0  0  0  0  0  0  0  0  0  0  0
   -0.2357    0.3422    3.6498 C   0  0  0  0  0  0  0  0  0  0  0  0
    0.7647   -0.5670    3.9213 N   0  0  0  0  0  0  0  0  0  0  0  0
    1.3788   -1.4616    3.0262 C   0  0  0  0  0  0  0  0  0  0  0  0
    2.7018   -1.8500    3.3309 C   0  0  0  0  0  0  0  0  0  0  0  0
    3.2074   -1.3146    4.4837 O   0  0  0  0  0  0  0  0  0  0  0  0
    4.5248   -1.5991    4.8459 C   0  0  0  0  0  0  0  0  0  0  0  0
    3.4198   -2.6928    2.4935 C   0  0  0  0  0  0  0  0  0  0  0  0
    2.8543   -3.1906    1.2987 C   0  0  0  0  0  0  0  0  0  0  0  0
    3.6124   -3.9879    0.4346 N   0  0  0  0  0  0  0  0  0  0  0  0
    3.0158   -4.3799   -0.8342 C   0  0  0  0  0  0  0  0  0  0  0  0
    4.0977   -4.8304   -1.8096 C   0  0  0  0  0  0  0  0  0  0  0  0
    4.9692   -5.8801   -1.2924 N   0  0  0  0  0  0  0  0  0  0  0  0
    5.5176   -5.4639   -0.0172 C   0  0  0  0  0  0  0  0  0  0  0  0
    4.4611   -5.0208    0.9999 C   0  0  0  0  0  0  0  0  0  0  0  0
    4.3764   -7.1967   -1.2857 C   0  0  0  0  0  0  0  0  0  0  0  0
    1.5343   -2.8201    1.0114 C   0  0  0  0  0  0  0  0  0  0  0  0
    0.8140   -1.9791    1.8627 C   0  0  0  0  0  0  0  0  0  0  0  0
   -1.0902    0.0828    2.6606 N   0  0  0  0  0  0  0  0  0  0  0  0
   -3.5766   -0.9331   -0.2504 C   0  0  0  0  0  0  0  0  0  0  0  0
   -3.3172   -1.7339   -1.3630 C   0  0  0  0  0  0  0  0  0  0  0  0
   -2.0541   -1.8025   -1.9400 C   0  0  0  0  0  0  0  0  0  0  0  0
    0.1866   -1.4725   -4.3303 C   0  0  0  0  0  3  0  0  0  0  0  0
   -0.7965   -0.4241   -4.6434 C   0  0  0  0  0  0  0  0  0  0  0  0
   -0.1086    1.2513   -5.2474 S   0  0  0  0  0  0  0  0  0  0  0  0
    0.6797    1.8356   -3.7277 C   0  0  0  0  0  0  0  0  0  0  0  0
   -0.2845    2.2464   -2.6088 C   0  0  2  0  0  0  0  0  0  0  0  0
   -0.7126    1.3453   -2.1463 H   0  0  0  0  0  0  0  0  0  0  0  0
   -1.3799    3.0429   -3.1501 N   0  0  0  0  0  0  0  0  0  0  0  0
   -2.5625    3.2077   -2.5223 C   0  0  0  0  0  0  0  0  0  0  0  0
   -3.6885    3.7664   -3.3665 C   0  0  0  0  0  0  0  0  0  0  0  0
   -2.7486    2.9291   -1.3421 O   0  0  0  0  0  0  0  0  0  0  0  0
    0.4940    3.0041   -1.5085 C   0  0  0  0  0  0  0  0  0  0  0  0
   -0.1338    3.0361   -0.3070 N   0  0  0  0  0  0  0  0  0  0  0  0
    0.4372    3.7138    0.8263 C   0  0  0  0  0  0  0  0  0  0  0  0
    1.5941    3.4904   -1.7066 O   0  0  0  0  0  0  0  0  0  0  0  0
    1.0158   -0.9014   -1.2457 H   0  0  0  0  0  0  0  0  0  0  0  0
   -0.4525    0.3753    0.1325 H   0  0  0  0  0  0  0  0  0  0  0  0
   -1.6224    4.7060    2.6202 H   0  0  0  0  0  0  0  0  0  0  0  0
   -3.1464    5.0118    3.4889 H   0  0  0  0  0  0  0  0  0  0  0  0
   -2.7021    5.0241    0.4530 H   0  0  0  0  0  0  0  0  0  0  0  0
   -3.0311    6.4438    1.4823 H   0  0  0  0  0  0  0  0  0  0  0  0
   -5.0944    5.6389    0.2455 H   0  0  0  0  0  0  0  0  0  0  0  0
   -5.2929    5.5718    2.0043 H   0  0  0  0  0  0  0  0  0  0  0  0
   -4.5641    3.2130    0.1731 H   0  0  0  0  0  0  0  0  0  0  0  0
   -6.1169    3.4465    1.0288 H   0  0  0  0  0  0  0  0  0  0  0  0
   -4.5872    1.8244    2.1829 H   0  0  0  0  0  0  0  0  0  0  0  0
   -4.9732    3.2266    3.2144 H   0  0  0  0  0  0  0  0  0  0  0  0
   -1.4100    3.3836    4.5920 H   0  0  0  0  0  0  0  0  0  0  0  0
    0.3388    1.7312    5.2253 H   0  0  0  0  0  0  0  0  0  0  0  0
    1.3832   -0.3040    4.6770 H   0  0  0  0  0  0  0  0  0  0  0  0
    4.7190   -1.0676    5.7867 H   0  0  0  0  0  0  0  0  0  0  0  0
    5.2454   -1.2507    4.0846 H   0  0  0  0  0  0  0  0  0  0  0  0
    4.6822   -2.6803    5.0095 H   0  0  0  0  0  0  0  0  0  0  0  0
    4.4537   -2.9309    2.7354 H   0  0  0  0  0  0  0  0  0  0  0  0
    2.4943   -3.5346   -1.3095 H   0  0  0  0  0  0  0  0  0  0  0  0
    2.2679   -5.1902   -0.6830 H   0  0  0  0  0  0  0  0  0  0  0  0
    4.7203   -3.9549   -2.0583 H   0  0  0  0  0  0  0  0  0  0  0  0
    3.6249   -5.1607   -2.7459 H   0  0  0  0  0  0  0  0  0  0  0  0
    6.1937   -4.6091   -0.1962 H   0  0  0  0  0  0  0  0  0  0  0  0
    6.1217   -6.2823    0.4092 H   0  0  0  0  0  0  0  0  0  0  0  0
    4.9780   -4.6528    1.8960 H   0  0  0  0  0  0  0  0  0  0  0  0
    3.8524   -5.8952    1.3232 H   0  0  0  0  0  0  0  0  0  0  0  0
    4.0633   -7.4626   -2.3075 H   0  0  0  0  0  0  0  0  0  0  0  0
    3.4864   -7.3137   -0.6304 H   0  0  0  0  0  0  0  0  0  0  0  0
    5.1238   -7.9400   -0.9617 H   0  0  0  0  0  0  0  0  0  0  0  0
    1.0443   -3.1694    0.1033 H   0  0  0  0  0  0  0  0  0  0  0  0
   -0.2085   -1.7123    1.6095 H   0  0  0  0  0  0  0  0  0  0  0  0
   -4.5681   -0.8620    0.1978 H   0  0  0  0  0  0  0  0  0  0  0  0
   -4.1283   -2.3270   -1.7941 H   0  0  0  0  0  0  0  0  0  0  0  0
   -1.8623   -2.4247   -2.8151 H   0  0  0  0  0  0  0  0  0  0  0  0
    0.6160   -2.0278   -5.1685 H   0  0  0  0  0  0  0  0  0  0  0  0
   -1.4643   -0.1570   -3.8124 H   0  0  0  0  0  0  0  0  0  0  0  0
   -1.4404   -0.6929   -5.4955 H   0  0  0  0  0  0  0  0  0  0  0  0
    1.3170    2.6904   -3.9930 H   0  0  0  0  0  0  0  0  0  0  0  0
    1.3360    1.0386   -3.3508 H   0  0  0  0  0  0  0  0  0  0  0  0
   -1.3794    3.0786   -4.1688 H   0  0  0  0  0  0  0  0  0  0  0  0
   -4.4396    2.9741   -3.4988 H   0  0  0  0  0  0  0  0  0  0  0  0
   -3.3622    4.1191   -4.3539 H   0  0  0  0  0  0  0  0  0  0  0  0
   -4.1662    4.5895   -2.8181 H   0  0  0  0  0  0  0  0  0  0  0  0
   -1.1230    2.7769   -0.2977 H   0  0  0  0  0  0  0  0  0  0  0  0
    0.0585    4.7468    0.9299 H   0  0  0  0  0  0  0  0  0  0  0  0
    1.5252    3.7658    0.6921 H   0  0  0  0  0  0  0  0  0  0  0  0
    0.2102    3.1635    1.7509 H   0  0  0  0  0  0  0  0  0  0  0  0
  2  1  2  0  0  0  0
  2  3  1  0  0  0  0
  3  4  1  0  0  0  0
  3 53  1  0  0  0  0
  4  5  1  0  0  0  0
  5 54  1  0  0  0  0
  5  6  2  0  0  0  0
  6  7  1  0  0  0  0
  7  8  1  0  0  0  0
  8 35  2  0  0  0  0
  8  9  1  0  0  0  0
  9 16  2  0  0  0  0
 10 11  1  0  0  0  0
 10  9  1  0  0  0  0
 11 55  1  0  0  0  0
 11 56  1  0  0  0  0
 12 58  1  0  0  0  0
 12 11  1  0  0  0  0
 13 12  1  0  0  0  0
 13 60  1  0  0  0  0
 14 13  1  0  0  0  0
 14 15  1  0  0  0  0
 15 10  1  0  0  0  0
 15 64  1  0  0  0  0
 16 17  1  0  0  0  0
 16 65  1  0  0  0  0
 17 66  1  0  0  0  0
 18 19  1  0  0  0  0
 18 17  2  0  0  0  0
 19 67  1  0  0  0  0
 20 21  1  0  0  0  0
 20 19  1  0  0  0  0
 21 22  1  0  0  0  0
 22 23  1  0  0  0  0
 23 70  1  0  0  0  0
 23 68  1  0  0  0  0
 24 71  1  0  0  0  0
 24 21  2  0  0  0  0
 25 24  1  0  0  0  0
 26 31  1  0  0  0  0
 26 25  1  0  0  0  0
 27 73  1  0  0  0  0
 27 26  1  0  0  0  0
 28 29  1  0  0  0  0
 28 27  1  0  0  0  0
 29 32  1  0  0  0  0
 29 30  1  0  0  0  0
 30 77  1  0  0  0  0
 30 31  1  0  0  0  0
 31 79  1  0  0  0  0
 31 78  1  0  0  0  0
 32 82  1  0  0  0  0
 32 81  1  0  0  0  0
 33 25  2  0  0  0  0
 33 34  1  0  0  0  0
 34 20  2  0  0  0  0
 35 18  1  0  0  0  0
 36 85  1  0  0  0  0
 36  6  1  0  0  0  0
 37 36  2  0  0  0  0
 38  4  2  0  0  0  0
 38 37  1  0  0  0  0
 39  2  1  0  0  0  0
 40 39  1  0  0  0  0
 40 89  1  0  0  0  0
 41 40  1  0  0  0  0
 41 42  1  0  0  0  0
 42 92  1  0  0  0  0
 42 43  1  0  0  0  0
 43 44  1  1  0  0  0
 43 49  1  0  0  0  0
 45 43  1  0  0  0  0
 45 46  1  0  0  0  0
 46 48  2  0  0  0  0
 47 96  1  0  0  0  0
 47 46  1  0  0  0  0
 49 50  1  0  0  0  0
 50 97  1  0  0  0  0
 50 51  1  0  0  0  0
 51 98  1  0  0  0  0
 51100  1  0  0  0  0
 52 49  2  0  0  0  0
 57 12  1  0  0  0  0
 59 13  1  0  0  0  0
 61 14  1  0  0  0  0
 62 14  1  0  0  0  0
 63 15  1  0  0  0  0
 69 23  1  0  0  0  0
 72 27  1  0  0  0  0
 74 28  1  0  0  0  0
 75 28  1  0  0  0  0
 76 30  1  0  0  0  0
 80 32  1  0  0  0  0
 83 33  1  0  0  0  0
 84 34  1  0  0  0  0
 86 37  1  0  0  0  0
 87 38  1  0  0  0  0
 88 39  1  0  0  0  0
 90 40  1  0  0  0  0
 91 42  1  0  0  0  0
 93 45  1  0  0  0  0
 94 47  1  0  0  0  0
 95 47  1  0  0  0  0
 99 51  1  0  0  0  0
M  END
