-1 1
 OpenBabel05232414493D

100103  0  0  1  0  0  0  0  0999 V2000
   -1.5929   -2.8265  -10.9104 O   0  0  0  0  0  0  0  0  0  0  0  0
   -1.6959   -3.7642  -10.1203 C   0  0  0  0  0  0  0  0  0  0  0  0
   -0.7463   -3.7425   -9.0482 N   0  0  0  0  0  0  0  0  0  0  0  0
   -0.8487   -3.9926   -7.6894 C   0  0  0  0  0  0  0  0  0  0  0  0
    0.2871   -3.7832   -6.8859 C   0  0  0  0  0  0  0  0  0  0  0  0
    0.2362   -3.9831   -5.5122 C   0  0  0  0  0  0  0  0  0  0  0  0
    1.4188   -3.7668   -4.8245 O   0  0  0  0  0  0  0  0  0  0  0  0
    1.4512   -3.0423   -3.6870 C   0  0  0  0  0  0  0  0  0  0  0  0
    0.6672   -1.8840   -3.4902 C   0  0  0  0  0  0  0  0  0  0  0  0
   -0.1747   -1.3753   -4.4819 N   0  0  0  0  0  0  0  0  0  0  0  0
    0.3411   -0.6907   -5.6490 C   0  0  0  0  0  0  0  0  0  0  0  0
   -0.9142   -0.4528   -6.4839 C   0  0  0  0  0  0  0  0  0  0  0  0
   -1.9910   -0.2202   -5.4205 C   0  0  0  0  0  0  0  0  0  0  0  0
   -1.6032   -1.1859   -4.2949 C   0  0  0  0  0  0  0  0  0  0  0  0
    0.8056   -1.2711   -2.2375 C   0  0  0  0  0  0  0  0  0  0  0  0
    1.6747   -1.7645   -1.2794 C   0  0  0  0  0  0  0  0  0  0  0  0
    2.4503   -2.8894   -1.6219 C   0  0  0  0  0  0  0  0  0  0  0  0
    3.3634   -3.3756   -0.7094 N   0  0  0  0  0  0  0  0  0  0  0  0
    4.1798   -4.5035   -0.7487 C   0  0  0  0  0  0  0  0  0  0  0  0
    5.0577   -4.6737    0.3438 C   0  0  0  0  0  0  0  0  0  0  0  0
    5.0619   -3.7088    1.3257 O   0  0  0  0  0  0  0  0  0  0  0  0
    6.0737   -2.7386    1.1754 C   0  0  0  0  0  0  0  0  0  0  0  0
    5.9009   -5.7680    0.4374 C   0  0  0  0  0  0  0  0  0  0  0  0
    5.9117   -6.7602   -0.5576 C   0  0  0  0  0  0  0  0  0  0  0  0
    6.7902   -7.8592   -0.4364 N   0  0  0  0  0  0  0  0  0  0  0  0
    6.9871   -8.6905   -1.6081 C   0  0  0  0  0  0  0  0  0  0  0  0
    8.2053   -9.5959   -1.4083 C   0  0  0  0  0  0  0  0  0  0  0  0
    8.1423  -10.4028   -0.2031 N   0  0  0  0  0  0  0  0  0  0  0  0
    7.9013   -9.5504    0.9469 C   0  0  0  0  0  0  0  0  0  0  0  0
    6.6805   -8.6441    0.7868 C   0  0  0  0  0  0  0  0  0  0  0  0
    7.2725  -11.5547   -0.2924 C   0  0  0  0  0  0  0  0  0  0  0  0
    5.0508   -6.5847   -1.6468 C   0  0  0  0  0  0  0  0  0  0  0  0
    4.2041   -5.4791   -1.7490 C   0  0  0  0  0  0  0  0  0  0  0  0
    2.3220   -3.4928   -2.7964 N   0  0  0  0  0  0  0  0  0  0  0  0
   -0.9006   -4.4937   -4.8729 C   0  0  0  0  0  0  0  0  0  0  0  0
   -0.9298   -4.8622   -3.4136 C   0  0  0  0  0  0  0  0  0  0  0  0
   -2.0220   -4.6780   -5.6891 C   0  0  0  0  0  0  0  0  0  0  0  0
   -2.0258   -4.4104   -7.0522 C   0  0  0  0  0  0  0  0  0  0  0  0
   -2.5766   -4.8771  -10.3312 C   0  0  0  0  0  3  0  0  0  0  0  0
   -2.6172   -6.1053   -9.6795 C   0  0  0  0  0  3  0  0  0  0  0  0
   -4.5013   -6.4342   -8.3057 S   0  0  0  0  0  1  0  0  0  0  0  0
   -4.3745   -8.2062   -7.9345 C   0  0  0  0  0  0  0  0  0  0  0  0
   -3.6186   -8.5425   -6.6524 C   0  0  2  0  0  0  0  0  0  0  0  0
   -4.0317   -7.9486   -5.8198 H   0  0  0  0  0  0  0  0  0  0  0  0
   -2.2117   -8.1861   -6.7852 N   0  0  0  0  0  0  0  0  0  0  0  0
   -1.3998   -7.8792   -5.7501 C   0  0  0  0  0  0  0  0  0  0  0  0
   -0.0128   -7.4190   -6.1373 C   0  0  0  0  0  0  0  0  0  0  0  0
   -1.7476   -8.0055   -4.5779 O   0  0  0  0  0  0  0  0  0  0  0  0
   -3.7568  -10.0363   -6.2820 C   0  0  0  0  0  0  0  0  0  0  0  0
   -3.3181  -10.3214   -5.0282 N   0  0  0  0  0  0  0  0  0  0  0  0
   -3.2733  -11.6632   -4.5147 C   0  0  0  0  0  0  0  0  0  0  0  0
   -4.2244  -10.8681   -7.0402 O   0  0  0  0  0  0  0  0  0  0  0  0
   -0.0337   -3.0622   -9.2887 H   0  0  0  0  0  0  0  0  0  0  0  0
    1.2279   -3.4492   -7.3288 H   0  0  0  0  0  0  0  0  0  0  0  0
    1.0849   -1.3083   -6.1799 H   0  0  0  0  0  0  0  0  0  0  0  0
    0.8382    0.2685   -5.3843 H   0  0  0  0  0  0  0  0  0  0  0  0
   -1.1473   -1.3578   -7.0648 H   0  0  0  0  0  0  0  0  0  0  0  0
   -0.8098    0.3857   -7.1869 H   0  0  0  0  0  0  0  0  0  0  0  0
   -3.0084   -0.3993   -5.7949 H   0  0  0  0  0  0  0  0  0  0  0  0
   -1.9436    0.8206   -5.0585 H   0  0  0  0  0  0  0  0  0  0  0  0
   -2.1401   -2.1480   -4.3894 H   0  0  0  0  0  0  0  0  0  0  0  0
   -1.8465   -0.7683   -3.3002 H   0  0  0  0  0  0  0  0  0  0  0  0
    0.2107   -0.3784   -2.0289 H   0  0  0  0  0  0  0  0  0  0  0  0
    1.7720   -1.2904   -0.3007 H   0  0  0  0  0  0  0  0  0  0  0  0
    3.4024   -2.8939    0.1795 H   0  0  0  0  0  0  0  0  0  0  0  0
    7.0783   -3.1930    1.2273 H   0  0  0  0  0  0  0  0  0  0  0  0
    5.9645   -2.0196    1.9986 H   0  0  0  0  0  0  0  0  0  0  0  0
    5.9812   -2.2052    0.2125 H   0  0  0  0  0  0  0  0  0  0  0  0
    6.5701   -5.8282    1.2977 H   0  0  0  0  0  0  0  0  0  0  0  0
    7.1602   -8.0445   -2.4816 H   0  0  0  0  0  0  0  0  0  0  0  0
    6.0892   -9.3077   -1.8344 H   0  0  0  0  0  0  0  0  0  0  0  0
    9.1023   -8.9553   -1.3482 H   0  0  0  0  0  0  0  0  0  0  0  0
    8.3275  -10.2544   -2.2825 H   0  0  0  0  0  0  0  0  0  0  0  0
    8.7884   -8.9096    1.0942 H   0  0  0  0  0  0  0  0  0  0  0  0
    7.7897  -10.1746    1.8476 H   0  0  0  0  0  0  0  0  0  0  0  0
    6.6122   -7.9746    1.6545 H   0  0  0  0  0  0  0  0  0  0  0  0
    5.7486   -9.2515    0.7808 H   0  0  0  0  0  0  0  0  0  0  0  0
    7.5852  -12.1872   -1.1378 H   0  0  0  0  0  0  0  0  0  0  0  0
    6.1948  -11.3260   -0.4311 H   0  0  0  0  0  0  0  0  0  0  0  0
    7.3652  -12.1581    0.6243 H   0  0  0  0  0  0  0  0  0  0  0  0
    5.0122   -7.3252   -2.4458 H   0  0  0  0  0  0  0  0  0  0  0  0
    3.5478   -5.3631   -2.6084 H   0  0  0  0  0  0  0  0  0  0  0  0
   -1.2112   -4.0091   -2.7725 H   0  0  0  0  0  0  0  0  0  0  0  0
    0.0516   -5.2165   -3.0663 H   0  0  0  0  0  0  0  0  0  0  0  0
   -1.6482   -5.6780   -3.2548 H   0  0  0  0  0  0  0  0  0  0  0  0
   -2.9393   -5.0761   -5.2458 H   0  0  0  0  0  0  0  0  0  0  0  0
   -2.9385   -4.5824   -7.6179 H   0  0  0  0  0  0  0  0  0  0  0  0
   -3.2292   -4.7238  -11.1939 H   0  0  0  0  0  0  0  0  0  0  0  0
   -1.8486   -6.3094   -8.9269 H   0  0  0  0  0  0  0  0  0  0  0  0
   -2.9477   -6.9812  -10.2423 H   0  0  0  0  0  0  0  0  0  0  0  0
   -3.8955   -8.7440   -8.7745 H   0  0  0  0  0  0  0  0  0  0  0  0
   -5.3817   -8.6376   -7.8552 H   0  0  0  0  0  0  0  0  0  0  0  0
   -1.8947   -7.9703   -7.7222 H   0  0  0  0  0  0  0  0  0  0  0  0
    0.5264   -8.2388   -6.6370 H   0  0  0  0  0  0  0  0  0  0  0  0
    0.5312   -7.1218   -5.2345 H   0  0  0  0  0  0  0  0  0  0  0  0
   -0.0592   -6.5623   -6.8256 H   0  0  0  0  0  0  0  0  0  0  0  0
   -2.8574   -9.5611   -4.5232 H   0  0  0  0  0  0  0  0  0  0  0  0
   -3.7884  -11.7387   -3.5432 H   0  0  0  0  0  0  0  0  0  0  0  0
   -2.2371  -12.0192   -4.3822 H   0  0  0  0  0  0  0  0  0  0  0  0
   -3.7785  -12.3193   -5.2355 H   0  0  0  0  0  0  0  0  0  0  0  0
  1  2  2  0  0  0  0
  2  3  1  0  0  0  0
  3  4  1  0  0  0  0
  4 38  2  0  0  0  0
  4  5  1  0  0  0  0
  5  6  2  0  0  0  0
  6 35  1  0  0  0  0
  6  7  1  0  0  0  0
  7  8  1  0  0  0  0
  8  9  1  0  0  0  0
  8 34  2  0  0  0  0
  9 15  2  0  0  0  0
 10 14  1  0  0  0  0
 10  9  1  0  0  0  0
 11 56  1  0  0  0  0
 11 10  1  0  0  0  0
 12 11  1  0  0  0  0
 12 13  1  0  0  0  0
 13 60  1  0  0  0  0
 13 14  1  0  0  0  0
 14 62  1  0  0  0  0
 15 63  1  0  0  0  0
 15 16  1  0  0  0  0
 16 64  1  0  0  0  0
 17 16  2  0  0  0  0
 17 18  1  0  0  0  0
 18 65  1  0  0  0  0
 19 18  1  0  0  0  0
 19 20  1  0  0  0  0
 20 23  2  0  0  0  0
 20 21  1  0  0  0  0
 22 66  1  0  0  0  0
 22 21  1  0  0  0  0
 22 67  1  0  0  0  0
 23 69  1  0  0  0  0
 24 25  1  0  0  0  0
 24 23  1  0  0  0  0
 25 30  1  0  0  0  0
 26 27  1  0  0  0  0
 26 25  1  0  0  0  0
 27 72  1  0  0  0  0
 27 28  1  0  0  0  0
 28 29  1  0  0  0  0
 29 74  1  0  0  0  0
 29 75  1  0  0  0  0
 30 29  1  0  0  0  0
 30 76  1  0  0  0  0
 31 28  1  0  0  0  0
 31 80  1  0  0  0  0
 32 24  2  0  0  0  0
 33 32  1  0  0  0  0
 33 19  2  0  0  0  0
 34 17  1  0  0  0  0
 35 36  1  0  0  0  0
 36 85  1  0  0  0  0
 36 84  1  0  0  0  0
 36 83  1  0  0  0  0
 37 86  1  0  0  0  0
 37 35  2  0  0  0  0
 38 37  1  0  0  0  0
 39  2  1  0  0  0  0
 39 40  1  0  0  0  0
 40 89  1  0  0  0  0
 41 42  1  0  0  0  0
 42 92  1  0  0  0  0
 42 43  1  0  0  0  0
 43 49  1  0  0  0  0
 43 44  1  1  0  0  0
 45 43  1  0  0  0  0
 45 46  1  0  0  0  0
 46 48  2  0  0  0  0
 47 46  1  0  0  0  0
 47 95  1  0  0  0  0
 49 50  1  0  0  0  0
 50 97  1  0  0  0  0
 50 51  1  0  0  0  0
 51 99  1  0  0  0  0
 51 98  1  0  0  0  0
 52 49  2  0  0  0  0
 53  3  1  0  0  0  0
 54  5  1  0  0  0  0
 55 11  1  0  0  0  0
 57 12  1  0  0  0  0
 58 12  1  0  0  0  0
 59 13  1  0  0  0  0
 61 14  1  0  0  0  0
 68 22  1  0  0  0  0
 70 26  1  0  0  0  0
 71 26  1  0  0  0  0
 73 27  1  0  0  0  0
 77 30  1  0  0  0  0
 78 31  1  0  0  0  0
 79 31  1  0  0  0  0
 81 32  1  0  0  0  0
 82 33  1  0  0  0  0
 87 38  1  0  0  0  0
 88 39  1  0  0  0  0
 90 40  1  0  0  0  0
 91 42  1  0  0  0  0
 93 45  1  0  0  0  0
 94 47  1  0  0  0  0
 96 47  1  0  0  0  0
100 51  1  0  0  0  0
M  END
