100
-1 1
O        -1.592904   -2.826537  -10.910361
C        -1.695943   -3.764196  -10.120343
N        -0.746299   -3.742521   -9.048173
C        -0.848707   -3.992581   -7.689437
C         0.287110   -3.783185   -6.885944
C         0.236182   -3.983054   -5.512194
O         1.418827   -3.766769   -4.824483
C         1.451217   -3.042299   -3.686992
C         0.667227   -1.884002   -3.490195
N        -0.174746   -1.375283   -4.481857
C         0.341147   -0.690744   -5.649035
C        -0.914246   -0.452794   -6.483932
C        -1.991039   -0.220166   -5.420515
C        -1.603193   -1.185928   -4.294943
C         0.805606   -1.271147   -2.237457
C         1.674726   -1.764510   -1.279370
C         2.450280   -2.889374   -1.621926
N         3.363416   -3.375563   -0.709354
C         4.179846   -4.503483   -0.748685
C         5.057725   -4.673745    0.343829
O         5.061892   -3.708806    1.325697
C         6.073683   -2.738628    1.175413
C         5.900864   -5.767973    0.437358
C         5.911691   -6.760183   -0.557603
N         6.790228   -7.859212   -0.436355
C         6.987137   -8.690508   -1.608120
C         8.205345   -9.595896   -1.408325
N         8.142313  -10.402832   -0.203083
C         7.901305   -9.550365    0.946943
C         6.680496   -8.644076    0.786780
C         7.272517  -11.554731   -0.292397
C         5.050841   -6.584698   -1.646807
C         4.204112   -5.479148   -1.749015
N         2.322024   -3.492760   -2.796406
C        -0.900632   -4.493729   -4.872918
C        -0.929786   -4.862156   -3.413586
C        -2.022021   -4.678034   -5.689084
C        -2.025845   -4.410415   -7.052163
C        -2.576601   -4.877121  -10.331220
C        -2.617179   -6.105261   -9.679523
S        -4.501274   -6.434210   -8.305706
C        -4.374493   -8.206205   -7.934516
C        -3.618556   -8.542513   -6.652371
H        -4.031711   -7.948611   -5.819848
N        -2.211711   -8.186051   -6.785192
C        -1.399797   -7.879167   -5.750069
C        -0.012845   -7.418971   -6.137344
O        -1.747568   -8.005459   -4.577910
C        -3.756814  -10.036320   -6.281956
N        -3.318075  -10.321359   -5.028151
C        -3.273279  -11.663185   -4.514672
O        -4.224353  -10.868063   -7.040152
H        -0.033695   -3.062185   -9.288672
H         1.227881   -3.449241   -7.328820
H         1.084851   -1.308312   -6.179905
H         0.838222    0.268518   -5.384329
H        -1.147257   -1.357796   -7.064761
H        -0.809833    0.385745   -7.186897
H        -3.008370   -0.399271   -5.794927
H        -1.943552    0.820550   -5.058482
H        -2.140145   -2.148045   -4.389398
H        -1.846520   -0.768262   -3.300205
H         0.210719   -0.378386   -2.028893
H         1.772010   -1.290358   -0.300671
H         3.402363   -2.893916    0.179527
H         7.078271   -3.192998    1.227273
H         5.964463   -2.019587    1.998564
H         5.981246   -2.205190    0.212542
H         6.570120   -5.828215    1.297693
H         7.160153   -8.044532   -2.481629
H         6.089246   -9.307654   -1.834374
H         9.102347   -8.955302   -1.348196
H         8.327524  -10.254426   -2.282537
H         8.788417   -8.909563    1.094190
H         7.789742  -10.174649    1.847647
H         6.612222   -7.974561    1.654504
H         5.748606   -9.251510    0.780771
H         7.585244  -12.187183   -1.137791
H         6.194771  -11.326030   -0.431098
H         7.365153  -12.158102    0.624303
H         5.012187   -7.325158   -2.445770
H         3.547816   -5.363070   -2.608378
H        -1.211241   -4.009078   -2.772495
H         0.051555   -5.216514   -3.066276
H        -1.648214   -5.678032   -3.254781
H        -2.939278   -5.076100   -5.245801
H        -2.938496   -4.582441   -7.617944
H        -3.229190   -4.723761  -11.193856
H        -1.848552   -6.309446   -8.926872
H        -2.947670   -6.981233  -10.242301
H        -3.895462   -8.744044   -8.774538
H        -5.381675   -8.637611   -7.855229
H        -1.894657   -7.970250   -7.722165
H         0.526356   -8.238806   -6.637011
H         0.531248   -7.121781   -5.234457
H        -0.059206   -6.562278   -6.825600
H        -2.857408   -9.561115   -4.523245
H        -3.788419  -11.738671   -3.543166
H        -2.237116  -12.019222   -4.382169
H        -3.778546  -12.319282   -5.235496
