-1 1
 OpenBabel05192410563D

101105  0  0  1  0  0  0  0  0999 V2000
   -1.7122   -3.2839    2.8664 O   0  0  0  0  0  0  0  0  0  0  0  0
   -1.3211   -2.1809    2.4382 C   0  0  0  0  0  0  0  0  0  0  0  0
   -1.1768   -2.1015    0.9923 N   0  0  0  0  0  0  0  0  0  0  0  0
   -0.0249   -1.8424    0.2745 C   0  0  0  0  0  0  0  0  0  0  0  0
   -0.0812   -1.9005   -1.1410 C   0  0  0  0  0  0  0  0  0  0  0  0
   -1.3789   -2.2422   -1.8190 C   0  0  0  0  0  0  0  0  0  0  0  0
    1.0744   -1.6327   -1.8726 C   0  0  0  0  0  0  0  0  0  0  0  0
    2.2826   -1.3080   -1.2611 C   0  0  0  0  0  0  0  0  0  0  0  0
    2.3123   -1.2445    0.1274 C   0  0  0  0  0  0  0  0  0  0  0  0
    3.5069   -0.9646    0.7852 O   0  0  0  0  0  0  0  0  0  0  0  0
    4.0153    0.2804    0.6871 C   0  0  0  0  0  0  0  0  0  0  0  0
    5.3223    0.5064    1.1825 C   0  0  0  0  0  0  0  0  0  0  0  0
    6.0445   -0.5305    1.8064 N   0  0  0  0  0  0  0  0  0  0  0  0
    7.1205   -0.1581    2.6950 C   0  0  0  0  0  0  0  0  0  0  0  0
    7.5381   -1.3688    3.5207 C   0  0  0  0  0  0  0  0  0  0  0  0
    7.9004   -2.4510    2.7048 O   0  0  0  0  0  0  0  0  0  0  0  0
    6.8430   -2.8251    1.8537 C   0  0  0  0  0  0  0  0  0  0  0  0
    6.4003   -1.6690    0.9726 C   0  0  0  0  0  0  0  0  0  0  0  0
    5.7913    1.8134    1.0324 C   0  0  0  0  0  0  0  0  0  0  0  0
    5.0110    2.8081    0.4435 C   0  0  0  0  0  0  0  0  0  0  0  0
    3.7354    2.4512   -0.0153 C   0  0  0  0  0  0  0  0  0  0  0  0
    2.8908    3.3675   -0.6155 N   0  0  0  0  0  0  0  0  0  0  0  0
    1.6697    3.0041   -1.2189 C   0  0  0  0  0  0  0  0  0  0  0  0
    1.4451    3.3522   -2.5648 C   0  0  0  0  0  0  0  0  0  0  0  0
    2.4445    4.0698   -3.1537 O   0  0  0  0  0  0  0  0  0  0  0  0
    2.3020    4.4498   -4.4893 C   0  0  0  0  0  0  0  0  0  0  0  0
    0.2622    2.9924   -3.2015 C   0  0  0  0  0  0  0  0  0  0  0  0
   -0.7208    2.2452   -2.5239 C   0  0  0  0  0  0  0  0  0  0  0  0
   -1.9009    1.8926   -3.2082 N   0  0  0  0  0  0  0  0  0  0  0  0
   -3.0290    1.4722   -2.3914 C   0  0  0  0  0  0  0  0  0  0  0  0
   -4.3045    1.4230   -3.2294 C   0  0  0  0  0  0  0  0  0  0  0  0
   -4.1869    0.5910   -4.4162 N   0  0  0  0  0  0  0  0  0  0  0  0
   -3.0314    0.9993   -5.1910 C   0  0  0  0  0  0  0  0  0  0  0  0
   -1.7324    1.0475   -4.3832 C   0  0  0  0  0  0  0  0  0  0  0  0
   -4.2611   -0.8317   -4.1543 C   0  0  0  0  0  0  0  0  0  0  0  0
   -0.4982    1.9126   -1.1844 C   0  0  0  0  0  0  0  0  0  0  0  0
    0.6762    2.3023   -0.5457 C   0  0  0  0  0  0  0  0  0  0  0  0
    3.2843    1.2087    0.1249 N   0  0  0  0  0  0  0  0  0  0  0  0
    1.1905   -1.5034    0.8970 C   0  0  0  0  0  0  0  0  0  0  0  0
   -1.1495   -1.0015    3.1663 C   0  0  0  0  0  3  0  0  0  0  0  0
   -0.9032    0.3536    2.6239 C   0  0  0  0  0  0  0  0  0  0  0  0
   -2.3819    1.5177    2.4735 S   0  0  0  0  0  0  0  0  0  0  0  0
   -3.3345    0.6881    1.1674 C   0  0  0  0  0  0  0  0  0  0  0  0
   -4.5571   -0.1033    1.6284 C   0  0  2  0  0  0  0  0  0  0  0  0
   -5.3079    0.5784    2.0686 H   0  0  0  0  0  0  0  0  0  0  0  0
   -4.1781   -1.0746    2.6328 N   0  0  0  0  0  0  0  0  0  0  0  0
   -5.0263   -1.6256    3.5207 C   0  0  0  0  0  0  0  0  0  0  0  0
   -4.3543   -2.4203    4.6144 C   0  0  0  0  0  0  0  0  0  0  0  0
   -6.2520   -1.4918    3.4533 O   0  0  0  0  0  0  0  0  0  0  0  0
   -5.2241   -0.7737    0.4030 C   0  0  0  0  0  0  0  0  0  0  0  0
   -6.3885   -1.3905    0.6906 N   0  0  0  0  0  0  0  0  0  0  0  0
   -7.1229   -2.1538   -0.2819 C   0  0  0  0  0  0  0  0  0  0  0  0
   -4.7389   -0.7249   -0.7213 O   0  0  0  0  0  0  0  0  0  0  0  0
   -1.7842   -2.7954    0.5699 H   0  0  0  0  0  0  0  0  0  0  0  0
   -1.6755   -3.2908   -1.6355 H   0  0  0  0  0  0  0  0  0  0  0  0
   -1.3003   -2.1131   -2.9082 H   0  0  0  0  0  0  0  0  0  0  0  0
   -2.2105   -1.6157   -1.4532 H   0  0  0  0  0  0  0  0  0  0  0  0
    1.0222   -1.6659   -2.9648 H   0  0  0  0  0  0  0  0  0  0  0  0
    3.1727   -1.0726   -1.8455 H   0  0  0  0  0  0  0  0  0  0  0  0
    6.7786    0.6437    3.3680 H   0  0  0  0  0  0  0  0  0  0  0  0
    8.0130    0.2190    2.1443 H   0  0  0  0  0  0  0  0  0  0  0  0
    6.6990   -1.6522    4.1875 H   0  0  0  0  0  0  0  0  0  0  0  0
    8.4114   -1.1245    4.1433 H   0  0  0  0  0  0  0  0  0  0  0  0
    5.9753   -3.1720    2.4487 H   0  0  0  0  0  0  0  0  0  0  0  0
    7.2037   -3.6625    1.2396 H   0  0  0  0  0  0  0  0  0  0  0  0
    5.5276   -1.9749    0.3819 H   0  0  0  0  0  0  0  0  0  0  0  0
    7.2230   -1.4042    0.2718 H   0  0  0  0  0  0  0  0  0  0  0  0
    6.7933    2.0675    1.3840 H   0  0  0  0  0  0  0  0  0  0  0  0
    5.3825    3.8294    0.3425 H   0  0  0  0  0  0  0  0  0  0  0  0
    3.3465    4.1645   -1.0388 H   0  0  0  0  0  0  0  0  0  0  0  0
    3.2169    4.9893   -4.7671 H   0  0  0  0  0  0  0  0  0  0  0  0
    1.4351    5.1183   -4.6392 H   0  0  0  0  0  0  0  0  0  0  0  0
    2.1885    3.5756   -5.1553 H   0  0  0  0  0  0  0  0  0  0  0  0
    0.0659    3.2991   -4.2286 H   0  0  0  0  0  0  0  0  0  0  0  0
   -3.1615    2.1995   -1.5772 H   0  0  0  0  0  0  0  0  0  0  0  0
   -2.8676    0.4856   -1.9162 H   0  0  0  0  0  0  0  0  0  0  0  0
   -4.5560    2.4492   -3.5527 H   0  0  0  0  0  0  0  0  0  0  0  0
   -5.1223    1.0456   -2.5992 H   0  0  0  0  0  0  0  0  0  0  0  0
   -3.2216    2.0122   -5.5900 H   0  0  0  0  0  0  0  0  0  0  0  0
   -2.9094    0.3207   -6.0513 H   0  0  0  0  0  0  0  0  0  0  0  0
   -0.9248    1.4438   -5.0155 H   0  0  0  0  0  0  0  0  0  0  0  0
   -1.4289    0.0206   -4.0836 H   0  0  0  0  0  0  0  0  0  0  0  0
   -5.1797   -1.0528   -3.5924 H   0  0  0  0  0  0  0  0  0  0  0  0
   -3.4235   -1.2425   -3.5579 H   0  0  0  0  0  0  0  0  0  0  0  0
   -4.2983   -1.3795   -5.1103 H   0  0  0  0  0  0  0  0  0  0  0  0
   -1.2275    1.3344   -0.6200 H   0  0  0  0  0  0  0  0  0  0  0  0
    0.8338    2.0227    0.4951 H   0  0  0  0  0  0  0  0  0  0  0  0
    1.2491   -1.4514    1.9844 H   0  0  0  0  0  0  0  0  0  0  0  0
   -1.2368   -1.1061    4.2515 H   0  0  0  0  0  0  0  0  0  0  0  0
   -0.4591    0.3499    1.6193 H   0  0  0  0  0  0  0  0  0  0  0  0
   -0.2341    0.9503    3.2645 H   0  0  0  0  0  0  0  0  0  0  0  0
   -2.6566    0.0059    0.6329 H   0  0  0  0  0  0  0  0  0  0  0  0
   -3.6628    1.4491    0.4492 H   0  0  0  0  0  0  0  0  0  0  0  0
   -3.1662   -1.1621    2.8223 H   0  0  0  0  0  0  0  0  0  0  0  0
   -4.0652   -1.7332    5.4250 H   0  0  0  0  0  0  0  0  0  0  0  0
   -3.4418   -2.9131    4.2354 H   0  0  0  0  0  0  0  0  0  0  0  0
   -5.0680   -3.1516    5.0136 H   0  0  0  0  0  0  0  0  0  0  0  0
   -6.6444   -1.4290    1.6862 H   0  0  0  0  0  0  0  0  0  0  0  0
   -8.1547   -1.7809   -0.3898 H   0  0  0  0  0  0  0  0  0  0  0  0
   -7.1694   -3.2195   -0.0039 H   0  0  0  0  0  0  0  0  0  0  0  0
   -6.6132   -2.0649   -1.2499 H   0  0  0  0  0  0  0  0  0  0  0  0
  2  1  2  0  0  0  0
  2 40  1  0  0  0  0
  3  2  1  0  0  0  0
  4 39  1  0  0  0  0
  4  3  1  0  0  0  0
  5  4  2  0  0  0  0
  6 55  1  0  0  0  0
  6 57  1  0  0  0  0
  6  5  1  0  0  0  0
  7  8  2  0  0  0  0
  7  5  1  0  0  0  0
  8  9  1  0  0  0  0
  9 10  1  0  0  0  0
  9 39  2  0  0  0  0
 11 10  1  0  0  0  0
 11 12  1  0  0  0  0
 12 13  1  0  0  0  0
 13 14  1  0  0  0  0
 14 60  1  0  0  0  0
 14 15  1  0  0  0  0
 15 63  1  0  0  0  0
 15 62  1  0  0  0  0
 16 15  1  0  0  0  0
 17 64  1  0  0  0  0
 17 16  1  0  0  0  0
 18 13  1  0  0  0  0
 18 17  1  0  0  0  0
 19 12  2  0  0  0  0
 19 68  1  0  0  0  0
 20 19  1  0  0  0  0
 21 38  1  0  0  0  0
 21 20  2  0  0  0  0
 22 21  1  0  0  0  0
 23 22  1  0  0  0  0
 23 37  1  0  0  0  0
 24 23  2  0  0  0  0
 25 24  1  0  0  0  0
 26 25  1  0  0  0  0
 27 24  1  0  0  0  0
 27 28  2  0  0  0  0
 28 36  1  0  0  0  0
 29 28  1  0  0  0  0
 29 30  1  0  0  0  0
 30 76  1  0  0  0  0
 30 75  1  0  0  0  0
 31 78  1  0  0  0  0
 31 30  1  0  0  0  0
 32 35  1  0  0  0  0
 32 31  1  0  0  0  0
 33 32  1  0  0  0  0
 33 34  1  0  0  0  0
 34 82  1  0  0  0  0
 34 29  1  0  0  0  0
 35 83  1  0  0  0  0
 35 84  1  0  0  0  0
 36 86  1  0  0  0  0
 36 37  2  0  0  0  0
 37 87  1  0  0  0  0
 38 11  2  0  0  0  0
 39 88  1  0  0  0  0
 40 89  1  0  0  0  0
 41 40  1  0  0  0  0
 41 91  1  0  0  0  0
 42 41  1  0  0  0  0
 43 44  1  0  0  0  0
 43 42  1  0  0  0  0
 44 45  1  1  0  0  0
 44 46  1  0  0  0  0
 46 94  1  0  0  0  0
 46 47  1  0  0  0  0
 47 48  1  0  0  0  0
 48 97  1  0  0  0  0
 48 95  1  0  0  0  0
 49 47  2  0  0  0  0
 50 51  1  0  0  0  0
 50 44  1  0  0  0  0
 51 98  1  0  0  0  0
 52100  1  0  0  0  0
 52 51  1  0  0  0  0
 53 50  2  0  0  0  0
 54  3  1  0  0  0  0
 56  6  1  0  0  0  0
 58  7  1  0  0  0  0
 59  8  1  0  0  0  0
 61 14  1  0  0  0  0
 65 17  1  0  0  0  0
 66 18  1  0  0  0  0
 67 18  1  0  0  0  0
 69 20  1  0  0  0  0
 70 22  1  0  0  0  0
 71 26  1  0  0  0  0
 72 26  1  0  0  0  0
 73 26  1  0  0  0  0
 74 27  1  0  0  0  0
 77 31  1  0  0  0  0
 79 33  1  0  0  0  0
 80 33  1  0  0  0  0
 81 34  1  0  0  0  0
 85 35  1  0  0  0  0
 90 41  1  0  0  0  0
 92 43  1  0  0  0  0
 93 43  1  0  0  0  0
 96 48  1  0  0  0  0
 99 52  1  0  0  0  0
101 52  1  0  0  0  0
M  END
