101
-1 1
O        -1.712163   -3.283933    2.866418
C        -1.321106   -2.180855    2.438242
N        -1.176756   -2.101500    0.992251
C        -0.024947   -1.842430    0.274486
C        -0.081224   -1.900478   -1.141033
C        -1.378916   -2.242250   -1.818966
C         1.074423   -1.632661   -1.872566
C         2.282554   -1.307968   -1.261124
C         2.312340   -1.244539    0.127387
O         3.506864   -0.964558    0.785241
C         4.015323    0.280375    0.687084
C         5.322255    0.506359    1.182477
N         6.044481   -0.530550    1.806409
C         7.120519   -0.158058    2.694958
C         7.538059   -1.368827    3.520690
O         7.900432   -2.451013    2.704798
C         6.842951   -2.825069    1.853695
C         6.400290   -1.669017    0.972636
C         5.791347    1.813392    1.032403
C         5.011041    2.808073    0.443502
C         3.735359    2.451229   -0.015323
N         2.890797    3.367458   -0.615479
C         1.669694    3.004095   -1.218862
C         1.445127    3.352241   -2.564766
O         2.444521    4.069848   -3.153749
C         2.301961    4.449765   -4.489344
C         0.262222    2.992416   -3.201466
C        -0.720838    2.245214   -2.523927
N        -1.900932    1.892566   -3.208197
C        -3.028980    1.472218   -2.391405
C        -4.304521    1.422960   -3.229366
N        -4.186891    0.591000   -4.416186
C        -3.031424    0.999252   -5.191006
C        -1.732394    1.047491   -4.383204
C        -4.261064   -0.831665   -4.154302
C        -0.498187    1.912554   -1.184410
C         0.676246    2.302261   -0.545662
N         3.284292    1.208726    0.124911
C         1.190481   -1.503438    0.897016
C        -1.149510   -1.001511    3.166333
C        -0.903214    0.353608    2.623901
S        -2.381930    1.517694    2.473536
C        -3.334466    0.688134    1.167445
C        -4.557067   -0.103320    1.628366
H        -5.307948    0.578397    2.068620
N        -4.178068   -1.074617    2.632779
C        -5.026262   -1.625566    3.520704
C        -4.354301   -2.420253    4.614367
O        -6.251983   -1.491797    3.453304
C        -5.224146   -0.773697    0.402965
N        -6.388508   -1.390481    0.690552
C        -7.122935   -2.153811   -0.281934
O        -4.738932   -0.724949   -0.721340
H        -1.784155   -2.795371    0.569936
H        -1.675505   -3.290831   -1.635520
H        -1.300277   -2.113105   -2.908197
H        -2.210543   -1.615717   -1.453229
H         1.022240   -1.665897   -2.964775
H         3.172674   -1.072571   -1.845491
H         6.778598    0.643718    3.368037
H         8.013020    0.218970    2.144289
H         6.698991   -1.652231    4.187470
H         8.411424   -1.124456    4.143330
H         5.975328   -3.172007    2.448703
H         7.203704   -3.662507    1.239602
H         5.527632   -1.974923    0.381894
H         7.222952   -1.404188    0.271792
H         6.793283    2.067536    1.383971
H         5.382498    3.829358    0.342459
H         3.346518    4.164537   -1.038820
H         3.216907    4.989321   -4.767128
H         1.435103    5.118345   -4.639222
H         2.188546    3.575645   -5.155276
H         0.065946    3.299107   -4.228605
H        -3.161474    2.199546   -1.577177
H        -2.867593    0.485644   -1.916220
H        -4.555989    2.449189   -3.552720
H        -5.122260    1.045633   -2.599248
H        -3.221576    2.012179   -5.589968
H        -2.909387    0.320730   -6.051280
H        -0.924841    1.443791   -5.015542
H        -1.428905    0.020636   -4.083648
H        -5.179672   -1.052834   -3.592442
H        -3.423466   -1.242520   -3.557851
H        -4.298322   -1.379514   -5.110337
H        -1.227548    1.334445   -0.619956
H         0.833784    2.022742    0.495112
H         1.249054   -1.451429    1.984423
H        -1.236809   -1.106087    4.251526
H        -0.459096    0.349938    1.619262
H        -0.234125    0.950286    3.264548
H        -2.656625    0.005916    0.632923
H        -3.662775    1.449113    0.449212
H        -3.166244   -1.162127    2.822274
H        -4.065203   -1.733171    5.424956
H        -3.441798   -2.913073    4.235377
H        -5.068034   -3.151620    5.013634
H        -6.644386   -1.429032    1.686207
H        -8.154699   -1.780948   -0.389809
H        -7.169354   -3.219523   -0.003910
H        -6.613181   -2.064938   -1.249922
