-1 1
 OpenBabel05232414493D

101104  0  0  1  0  0  0  0  0999 V2000
    1.0476   -9.0545   15.0758 O   0  0  0  0  0  0  0  0  0  0  0  0
    1.5084   -8.2646   14.2585 C   0  0  0  0  0  0  0  0  0  0  0  0
    1.7416   -8.7324   12.9313 N   0  0  0  0  0  0  0  0  0  0  0  0
    2.9153   -8.6734   12.2073 C   0  0  0  0  0  0  0  0  0  0  0  0
    2.8981   -9.0069   10.8299 C   0  0  0  0  0  0  0  0  0  0  0  0
    1.5996   -9.3470   10.1520 C   0  0  0  0  0  0  0  0  0  0  0  0
    4.1028   -9.0055   10.1262 C   0  0  0  0  0  0  0  0  0  0  0  0
    5.3164   -8.6741   10.7221 C   0  0  0  0  0  0  0  0  0  0  0  0
    5.3048   -8.3184   12.0657 C   0  0  0  0  0  0  0  0  0  0  0  0
    6.4967   -7.9910   12.7037 O   0  0  0  0  0  0  0  0  0  0  0  0
    7.0330   -6.7774   12.4542 C   0  0  0  0  0  0  0  0  0  0  0  0
    8.3040   -6.4882   12.9990 C   0  0  0  0  0  0  0  0  0  0  0  0
    8.9692   -7.4270   13.8136 N   0  0  0  0  0  0  0  0  0  0  0  0
    9.9836   -6.9321   14.7151 C   0  0  0  0  0  0  0  0  0  0  0  0
   10.3313   -8.0142   15.7299 C   0  0  0  0  0  0  0  0  0  0  0  0
   10.7406   -9.1998   15.1013 O   0  0  0  0  0  0  0  0  0  0  0  0
    9.7430   -9.6910   14.2380 C   0  0  0  0  0  0  0  0  0  0  0  0
    9.3728   -8.6705   13.1747 C   0  0  0  0  0  0  0  0  0  0  0  0
    8.7982   -5.2159   12.6957 C   0  0  0  0  0  0  0  0  0  0  0  0
    8.0720   -4.3149   11.9223 C   0  0  0  0  0  0  0  0  0  0  0  0
    6.8210   -4.7275   11.4294 C   0  0  0  0  0  0  0  0  0  0  0  0
    6.0588   -3.8942   10.6527 N   0  0  0  0  0  0  0  0  0  0  0  0
    4.7799   -4.0898   10.1125 C   0  0  0  0  0  0  0  0  0  0  0  0
    4.3397   -3.1098    9.1919 C   0  0  0  0  0  0  0  0  0  0  0  0
    5.2347   -2.1040    8.9511 O   0  0  0  0  0  0  0  0  0  0  0  0
    4.8632   -1.0566    8.1063 C   0  0  0  0  0  0  0  0  0  0  0  0
    3.0775   -3.1773    8.6206 C   0  0  0  0  0  0  0  0  0  0  0  0
    2.2005   -4.2352    8.9318 C   0  0  0  0  0  0  0  0  0  0  0  0
    0.9139   -4.2532    8.3603 N   0  0  0  0  0  0  0  0  0  0  0  0
   -0.0784   -5.1012    8.9994 C   0  0  0  0  0  0  0  0  0  0  0  0
   -1.4727   -4.7247    8.5048 C   0  0  0  0  0  0  0  0  0  0  0  0
   -1.6095   -4.7554    7.0539 N   0  0  0  0  0  0  0  0  0  0  0  0
   -0.5758   -3.9382    6.4465 C   0  0  0  0  0  0  0  0  0  0  0  0
    0.8390   -4.2936    6.9097 C   0  0  0  0  0  0  0  0  0  0  0  0
   -1.7276   -6.0828    6.4948 C   0  0  0  0  0  0  0  0  0  0  0  0
    2.6394   -5.2050    9.8326 C   0  0  0  0  0  0  0  0  0  0  0  0
    3.9045   -5.1311   10.4173 C   0  0  0  0  0  0  0  0  0  0  0  0
    6.3521   -5.9411   11.7095 N   0  0  0  0  0  0  0  0  0  0  0  0
    4.1364   -8.3149   12.8095 C   0  0  0  0  0  0  0  0  0  0  0  0
    1.7341   -6.8642   14.5199 C   0  0  0  0  0  3  0  0  0  0  0  0
    1.8262   -5.8702   13.5555 C   0  0  0  0  0  3  0  0  0  0  0  0
   -0.3057   -4.9786   12.7516 S   0  0  0  0  0  1  0  0  0  0  0  0
   -0.9098   -6.5823   12.1517 C   0  0  0  0  0  0  0  0  0  0  0  0
   -1.8644   -7.3410   13.0811 C   0  0  2  0  0  0  0  0  0  0  0  0
   -2.8789   -6.9097   13.0299 H   0  0  0  0  0  0  0  0  0  0  0  0
   -1.4100   -7.2612   14.4529 N   0  0  0  0  0  0  0  0  0  0  0  0
   -2.1495   -7.5420   15.5370 C   0  0  0  0  0  0  0  0  0  0  0  0
   -1.4120   -7.3635   16.8455 C   0  0  0  0  0  0  0  0  0  0  0  0
   -3.3177   -7.9324   15.4821 O   0  0  0  0  0  0  0  0  0  0  0  0
   -1.9505   -8.8304   12.6647 C   0  0  0  0  0  0  0  0  0  0  0  0
   -3.0177   -9.4798   13.1827 N   0  0  0  0  0  0  0  0  0  0  0  0
   -3.1555  -10.9087   13.0702 C   0  0  0  0  0  0  0  0  0  0  0  0
   -1.1224   -9.3722   11.9431 O   0  0  0  0  0  0  0  0  0  0  0  0
    1.0016   -9.3445   12.5941 H   0  0  0  0  0  0  0  0  0  0  0  0
    1.1654  -10.2881   10.5295 H   0  0  0  0  0  0  0  0  0  0  0  0
    1.7409   -9.4521    9.0670 H   0  0  0  0  0  0  0  0  0  0  0  0
    0.8314   -8.5795   10.3345 H   0  0  0  0  0  0  0  0  0  0  0  0
    4.0847   -9.2594    9.0626 H   0  0  0  0  0  0  0  0  0  0  0  0
    6.2462   -8.6497   10.1528 H   0  0  0  0  0  0  0  0  0  0  0  0
    9.6025   -6.0438   15.2429 H   0  0  0  0  0  0  0  0  0  0  0  0
   10.9161   -6.6357   14.1817 H   0  0  0  0  0  0  0  0  0  0  0  0
    9.4450   -8.2024   16.3688 H   0  0  0  0  0  0  0  0  0  0  0  0
   11.1608   -7.6841   16.3725 H   0  0  0  0  0  0  0  0  0  0  0  0
    8.8327   -9.9526   14.8127 H   0  0  0  0  0  0  0  0  0  0  0  0
   10.1393  -10.6056   13.7743 H   0  0  0  0  0  0  0  0  0  0  0  0
    8.5404   -9.0576   12.5732 H   0  0  0  0  0  0  0  0  0  0  0  0
   10.2440   -8.5062   12.5024 H   0  0  0  0  0  0  0  0  0  0  0  0
    9.7761   -4.9154   13.0772 H   0  0  0  0  0  0  0  0  0  0  0  0
    8.4628   -3.3191   11.7052 H   0  0  0  0  0  0  0  0  0  0  0  0
    6.4757   -3.0110   10.3932 H   0  0  0  0  0  0  0  0  0  0  0  0
    5.7143   -0.3645    8.0624 H   0  0  0  0  0  0  0  0  0  0  0  0
    3.9803   -0.5138    8.4881 H   0  0  0  0  0  0  0  0  0  0  0  0
    4.6412   -1.4123    7.0842 H   0  0  0  0  0  0  0  0  0  0  0  0
    2.7283   -2.3880    7.9553 H   0  0  0  0  0  0  0  0  0  0  0  0
   -0.0290   -4.9476   10.0897 H   0  0  0  0  0  0  0  0  0  0  0  0
    0.1150   -6.1795    8.8020 H   0  0  0  0  0  0  0  0  0  0  0  0
   -1.6976   -3.7023    8.8525 H   0  0  0  0  0  0  0  0  0  0  0  0
   -2.2207   -5.3948    8.9559 H   0  0  0  0  0  0  0  0  0  0  0  0
   -0.7670   -2.8845    6.7165 H   0  0  0  0  0  0  0  0  0  0  0  0
   -0.6434   -4.0187    5.3489 H   0  0  0  0  0  0  0  0  0  0  0  0
    1.5529   -3.5783    6.4760 H   0  0  0  0  0  0  0  0  0  0  0  0
    1.1256   -5.2993    6.5267 H   0  0  0  0  0  0  0  0  0  0  0  0
   -2.5863   -6.5986    6.9523 H   0  0  0  0  0  0  0  0  0  0  0  0
   -0.8410   -6.7372    6.6337 H   0  0  0  0  0  0  0  0  0  0  0  0
   -1.9196   -6.0128    5.4116 H   0  0  0  0  0  0  0  0  0  0  0  0
    1.9973   -6.0408   10.1094 H   0  0  0  0  0  0  0  0  0  0  0  0
    4.2165   -5.9052   11.1122 H   0  0  0  0  0  0  0  0  0  0  0  0
    4.1705   -8.0307   13.8608 H   0  0  0  0  0  0  0  0  0  0  0  0
    1.6584   -6.5853   15.5752 H   0  0  0  0  0  0  0  0  0  0  0  0
    2.0626   -6.1252   12.5224 H   0  0  0  0  0  0  0  0  0  0  0  0
    2.1311   -4.8658   13.8508 H   0  0  0  0  0  0  0  0  0  0  0  0
   -0.0444   -7.2341   11.9706 H   0  0  0  0  0  0  0  0  0  0  0  0
   -1.4173   -6.4677   11.1807 H   0  0  0  0  0  0  0  0  0  0  0  0
   -0.4697   -6.8899   14.5838 H   0  0  0  0  0  0  0  0  0  0  0  0
   -1.1440   -6.3064   16.9932 H   0  0  0  0  0  0  0  0  0  0  0  0
   -0.4815   -7.9518   16.8053 H   0  0  0  0  0  0  0  0  0  0  0  0
   -2.0508   -7.7012   17.6698 H   0  0  0  0  0  0  0  0  0  0  0  0
   -3.4899   -8.9925   13.9524 H   0  0  0  0  0  0  0  0  0  0  0  0
   -4.2178  -11.1857   12.9973 H   0  0  0  0  0  0  0  0  0  0  0  0
   -2.7146  -11.4362   13.9338 H   0  0  0  0  0  0  0  0  0  0  0  0
   -2.6321  -11.2436   12.1655 H   0  0  0  0  0  0  0  0  0  0  0  0
  2 40  1  0  0  0  0
  2  1  2  0  0  0  0
  3  2  1  0  0  0  0
  4 39  1  0  0  0  0
  4  3  1  0  0  0  0
  5  4  2  0  0  0  0
  6 57  1  0  0  0  0
  6 55  1  0  0  0  0
  6  5  1  0  0  0  0
  7  8  2  0  0  0  0
  7  5  1  0  0  0  0
  8  9  1  0  0  0  0
  9 10  1  0  0  0  0
  9 39  2  0  0  0  0
 11 10  1  0  0  0  0
 11 12  1  0  0  0  0
 12 13  1  0  0  0  0
 13 14  1  0  0  0  0
 14 60  1  0  0  0  0
 14 15  1  0  0  0  0
 15 62  1  0  0  0  0
 15 63  1  0  0  0  0
 16 15  1  0  0  0  0
 17 64  1  0  0  0  0
 17 16  1  0  0  0  0
 18 13  1  0  0  0  0
 18 17  1  0  0  0  0
 19 12  2  0  0  0  0
 19 68  1  0  0  0  0
 20 19  1  0  0  0  0
 21 38  1  0  0  0  0
 21 20  2  0  0  0  0
 22 21  1  0  0  0  0
 23 37  1  0  0  0  0
 23 22  1  0  0  0  0
 24 23  2  0  0  0  0
 25 24  1  0  0  0  0
 26 72  1  0  0  0  0
 26 25  1  0  0  0  0
 27 28  2  0  0  0  0
 27 24  1  0  0  0  0
 28 36  1  0  0  0  0
 29 28  1  0  0  0  0
 29 30  1  0  0  0  0
 30 75  1  0  0  0  0
 31 77  1  0  0  0  0
 31 78  1  0  0  0  0
 31 30  1  0  0  0  0
 32 31  1  0  0  0  0
 33 79  1  0  0  0  0
 33 34  1  0  0  0  0
 33 32  1  0  0  0  0
 34 29  1  0  0  0  0
 35 84  1  0  0  0  0
 35 83  1  0  0  0  0
 35 32  1  0  0  0  0
 36 86  1  0  0  0  0
 36 37  2  0  0  0  0
 37 87  1  0  0  0  0
 38 11  2  0  0  0  0
 39 88  1  0  0  0  0
 40 89  1  0  0  0  0
 41 91  1  0  0  0  0
 41 40  1  0  0  0  0
 43 42  1  0  0  0  0
 43 44  1  0  0  0  0
 44 45  1  6  0  0  0
 44 46  1  0  0  0  0
 46 94  1  0  0  0  0
 46 47  1  0  0  0  0
 47 48  1  0  0  0  0
 48 95  1  0  0  0  0
 48 97  1  0  0  0  0
 49 47  2  0  0  0  0
 50 44  1  0  0  0  0
 50 51  1  0  0  0  0
 51 98  1  0  0  0  0
 52 51  1  0  0  0  0
 52100  1  0  0  0  0
 53 50  2  0  0  0  0
 54  3  1  0  0  0  0
 56  6  1  0  0  0  0
 58  7  1  0  0  0  0
 59  8  1  0  0  0  0
 61 14  1  0  0  0  0
 65 17  1  0  0  0  0
 66 18  1  0  0  0  0
 67 18  1  0  0  0  0
 69 20  1  0  0  0  0
 70 22  1  0  0  0  0
 71 26  1  0  0  0  0
 73 26  1  0  0  0  0
 74 27  1  0  0  0  0
 76 30  1  0  0  0  0
 80 33  1  0  0  0  0
 81 34  1  0  0  0  0
 82 34  1  0  0  0  0
 85 35  1  0  0  0  0
 90 41  1  0  0  0  0
 92 43  1  0  0  0  0
 93 43  1  0  0  0  0
 96 48  1  0  0  0  0
 99 52  1  0  0  0  0
101 52  1  0  0  0  0
M  END
