99
-1 1
O         6.656883  -17.971910   -0.428549
C         6.287026  -16.790910   -0.390661
N         7.198289  -15.843847    0.125607
C         6.945249  -14.817330    1.022036
C         7.825196  -13.710542    1.094642
C         8.943573  -13.576526    0.100933
C         7.588463  -12.731535    2.060516
C         6.493089  -12.782072    2.921979
C         5.617144  -13.851754    2.795733
O         4.494460  -13.919877    3.613405
C         3.336027  -13.440763    3.106309
C         2.154938  -13.638431    3.846713
N         2.103735  -14.324157    5.090086
C         2.773876  -13.650613    6.194709
C         2.377093  -14.284039    7.525065
C         2.664089  -15.785000    7.518103
C         2.000609  -16.447097    6.311211
C         2.409810  -15.748521    5.018247
C         0.996872  -13.116644    3.265372
C         1.026730  -12.456901    2.044521
C         2.276411  -12.327049    1.400407
N         2.378265  -11.689906    0.191777
C         3.500627  -11.555724   -0.655985
C         3.274541  -11.404297   -2.026333
C         4.318930  -11.243182   -2.928488
C         5.662510  -11.222166   -2.503756
N         6.719074  -11.034354   -3.399209
C         6.404169  -11.137716   -4.818586
C         7.585822  -10.731363   -5.698297
N         8.830291  -11.395883   -5.369505
C         9.126844  -11.128309   -3.975908
C         8.025608  -11.555898   -3.006075
C         8.858027  -12.806033   -5.716683
C         5.875172  -11.399313   -1.122292
C         4.830057  -11.548883   -0.218430
N         3.383902  -12.813516    1.952563
C         5.838501  -14.869198    1.882538
C         5.058633  -16.312380   -0.960765
C         4.873008  -15.008087   -1.386672
S         6.026423  -14.556211   -3.519127
C         6.393491  -16.279801   -3.914089
C         7.707499  -16.841555   -3.343921
H         7.668677  -16.813850   -2.254855
N         8.872403  -16.078008   -3.709521
C         9.822201  -15.740425   -2.813840
C        10.949700  -14.879810   -3.348102
O         9.788193  -16.060746   -1.632115
C         7.859135  -18.296795   -3.794228
N         7.320333  -19.187598   -2.932332
C         7.298932  -20.598996   -3.200172
O         8.372009  -18.587096   -4.866402
H         8.167681  -16.050914   -0.113511
H         8.542535  -13.652042   -0.923212
H         9.695578  -14.376423    0.184067
H         9.454276  -12.608764    0.213485
H         8.271833  -11.879320    2.118012
H         6.294729  -11.994408    3.649797
H         2.482544  -12.589191    6.176585
H         3.878685  -13.687846    6.083729
H         1.298770  -14.117080    7.690054
H         2.917140  -13.787080    8.347245
H         2.324322  -16.252063    8.456706
H         3.755951  -15.943361    7.461214
H         0.903676  -16.387585    6.416351
H         2.268998  -17.514159    6.255127
H         1.861952  -16.174343    4.164255
H         3.490304  -15.922759    4.830730
H         0.056729  -13.253402    3.804843
H         0.115873  -12.059308    1.592535
H         1.497902  -11.434224   -0.231570
H         2.250771  -11.439001   -2.412440
H         4.066091  -11.172669   -3.983869
H         5.578357  -10.448967   -5.052578
H         6.065756  -12.163820   -5.065506
H         7.749375   -9.643045   -5.599139
H         7.328676  -10.928460   -6.751687
H         9.299684  -10.042126   -3.870573
H        10.064989  -11.633931   -3.694454
H         8.295741  -11.160111   -2.017378
H         7.978513  -12.660249   -2.923300
H         8.635079  -12.919255   -6.789406
H         8.143902  -13.438954   -5.149169
H         9.873725  -13.197333   -5.547346
H         6.883529  -11.444453   -0.714810
H         5.061729  -11.704207    0.831779
H         5.130490  -15.694997    1.812669
H         4.371850  -17.100476   -1.280155
H         5.445584  -14.187228   -0.959519
H         3.910333  -14.713379   -1.805537
H         6.392287  -16.424205   -5.007553
H         5.590792  -16.918374   -3.505584
H         8.999368  -15.850241   -4.685911
H        11.874624  -15.141236   -2.819424
H        10.714561  -13.827565   -3.126763
H        11.097909  -14.983113   -4.432167
H         6.984838  -18.842698   -2.023215
H         6.272822  -21.000344   -3.158846
H         7.913936  -21.159322   -2.475860
H         7.705940  -20.763144   -4.206765
