-1 1
 OpenBabel05232414493D

 99102  0  0  1  0  0  0  0  0999 V2000
    6.6569  -17.9719   -0.4285 O   0  0  0  0  0  0  0  0  0  0  0  0
    6.2870  -16.7909   -0.3907 C   0  0  0  0  0  0  0  0  0  0  0  0
    7.1983  -15.8438    0.1256 N   0  0  0  0  0  0  0  0  0  0  0  0
    6.9452  -14.8173    1.0220 C   0  0  0  0  0  0  0  0  0  0  0  0
    7.8252  -13.7105    1.0946 C   0  0  0  0  0  0  0  0  0  0  0  0
    8.9436  -13.5765    0.1009 C   0  0  0  0  0  0  0  0  0  0  0  0
    7.5885  -12.7315    2.0605 C   0  0  0  0  0  0  0  0  0  0  0  0
    6.4931  -12.7821    2.9220 C   0  0  0  0  0  0  0  0  0  0  0  0
    5.6171  -13.8518    2.7957 C   0  0  0  0  0  0  0  0  0  0  0  0
    4.4945  -13.9199    3.6134 O   0  0  0  0  0  0  0  0  0  0  0  0
    3.3360  -13.4408    3.1063 C   0  0  0  0  0  0  0  0  0  0  0  0
    2.1549  -13.6384    3.8467 C   0  0  0  0  0  0  0  0  0  0  0  0
    2.1037  -14.3242    5.0901 N   0  0  0  0  0  0  0  0  0  0  0  0
    2.7739  -13.6506    6.1947 C   0  0  0  0  0  0  0  0  0  0  0  0
    2.3771  -14.2840    7.5251 C   0  0  0  0  0  0  0  0  0  0  0  0
    2.6641  -15.7850    7.5181 C   0  0  0  0  0  0  0  0  0  0  0  0
    2.0006  -16.4471    6.3112 C   0  0  0  0  0  0  0  0  0  0  0  0
    2.4098  -15.7485    5.0182 C   0  0  0  0  0  0  0  0  0  0  0  0
    0.9969  -13.1166    3.2654 C   0  0  0  0  0  0  0  0  0  0  0  0
    1.0267  -12.4569    2.0445 C   0  0  0  0  0  0  0  0  0  0  0  0
    2.2764  -12.3270    1.4004 C   0  0  0  0  0  0  0  0  0  0  0  0
    2.3783  -11.6899    0.1918 N   0  0  0  0  0  0  0  0  0  0  0  0
    3.5006  -11.5557   -0.6560 C   0  0  0  0  0  0  0  0  0  0  0  0
    3.2745  -11.4043   -2.0263 C   0  0  0  0  0  0  0  0  0  0  0  0
    4.3189  -11.2432   -2.9285 C   0  0  0  0  0  0  0  0  0  0  0  0
    5.6625  -11.2222   -2.5038 C   0  0  0  0  0  0  0  0  0  0  0  0
    6.7191  -11.0344   -3.3992 N   0  0  0  0  0  0  0  0  0  0  0  0
    6.4042  -11.1377   -4.8186 C   0  0  0  0  0  0  0  0  0  0  0  0
    7.5858  -10.7314   -5.6983 C   0  0  0  0  0  0  0  0  0  0  0  0
    8.8303  -11.3959   -5.3695 N   0  0  0  0  0  0  0  0  0  0  0  0
    9.1268  -11.1283   -3.9759 C   0  0  0  0  0  0  0  0  0  0  0  0
    8.0256  -11.5559   -3.0061 C   0  0  0  0  0  0  0  0  0  0  0  0
    8.8580  -12.8060   -5.7167 C   0  0  0  0  0  0  0  0  0  0  0  0
    5.8752  -11.3993   -1.1223 C   0  0  0  0  0  0  0  0  0  0  0  0
    4.8301  -11.5489   -0.2184 C   0  0  0  0  0  0  0  0  0  0  0  0
    3.3839  -12.8135    1.9526 N   0  0  0  0  0  0  0  0  0  0  0  0
    5.8385  -14.8692    1.8825 C   0  0  0  0  0  0  0  0  0  0  0  0
    5.0586  -16.3124   -0.9608 C   0  0  0  0  0  3  0  0  0  0  0  0
    4.8730  -15.0081   -1.3867 C   0  0  0  0  0  3  0  0  0  0  0  0
    6.0264  -14.5562   -3.5191 S   0  0  0  0  0  1  0  0  0  0  0  0
    6.3935  -16.2798   -3.9141 C   0  0  0  0  0  0  0  0  0  0  0  0
    7.7075  -16.8416   -3.3439 C   0  0  2  0  0  0  0  0  0  0  0  0
    7.6687  -16.8138   -2.2549 H   0  0  0  0  0  0  0  0  0  0  0  0
    8.8724  -16.0780   -3.7095 N   0  0  0  0  0  0  0  0  0  0  0  0
    9.8222  -15.7404   -2.8138 C   0  0  0  0  0  0  0  0  0  0  0  0
   10.9497  -14.8798   -3.3481 C   0  0  0  0  0  0  0  0  0  0  0  0
    9.7882  -16.0607   -1.6321 O   0  0  0  0  0  0  0  0  0  0  0  0
    7.8591  -18.2968   -3.7942 C   0  0  0  0  0  0  0  0  0  0  0  0
    7.3203  -19.1876   -2.9323 N   0  0  0  0  0  0  0  0  0  0  0  0
    7.2989  -20.5990   -3.2002 C   0  0  0  0  0  0  0  0  0  0  0  0
    8.3720  -18.5871   -4.8664 O   0  0  0  0  0  0  0  0  0  0  0  0
    8.1677  -16.0509   -0.1135 H   0  0  0  0  0  0  0  0  0  0  0  0
    8.5425  -13.6520   -0.9232 H   0  0  0  0  0  0  0  0  0  0  0  0
    9.6956  -14.3764    0.1841 H   0  0  0  0  0  0  0  0  0  0  0  0
    9.4543  -12.6088    0.2135 H   0  0  0  0  0  0  0  0  0  0  0  0
    8.2718  -11.8793    2.1180 H   0  0  0  0  0  0  0  0  0  0  0  0
    6.2947  -11.9944    3.6498 H   0  0  0  0  0  0  0  0  0  0  0  0
    2.4825  -12.5892    6.1766 H   0  0  0  0  0  0  0  0  0  0  0  0
    3.8787  -13.6878    6.0837 H   0  0  0  0  0  0  0  0  0  0  0  0
    1.2988  -14.1171    7.6901 H   0  0  0  0  0  0  0  0  0  0  0  0
    2.9171  -13.7871    8.3472 H   0  0  0  0  0  0  0  0  0  0  0  0
    2.3243  -16.2521    8.4567 H   0  0  0  0  0  0  0  0  0  0  0  0
    3.7560  -15.9434    7.4612 H   0  0  0  0  0  0  0  0  0  0  0  0
    0.9037  -16.3876    6.4164 H   0  0  0  0  0  0  0  0  0  0  0  0
    2.2690  -17.5142    6.2551 H   0  0  0  0  0  0  0  0  0  0  0  0
    1.8620  -16.1743    4.1643 H   0  0  0  0  0  0  0  0  0  0  0  0
    3.4903  -15.9228    4.8307 H   0  0  0  0  0  0  0  0  0  0  0  0
    0.0567  -13.2534    3.8048 H   0  0  0  0  0  0  0  0  0  0  0  0
    0.1159  -12.0593    1.5925 H   0  0  0  0  0  0  0  0  0  0  0  0
    1.4979  -11.4342   -0.2316 H   0  0  0  0  0  0  0  0  0  0  0  0
    2.2508  -11.4390   -2.4124 H   0  0  0  0  0  0  0  0  0  0  0  0
    4.0661  -11.1727   -3.9839 H   0  0  0  0  0  0  0  0  0  0  0  0
    5.5784  -10.4490   -5.0526 H   0  0  0  0  0  0  0  0  0  0  0  0
    6.0658  -12.1638   -5.0655 H   0  0  0  0  0  0  0  0  0  0  0  0
    7.7494   -9.6430   -5.5991 H   0  0  0  0  0  0  0  0  0  0  0  0
    7.3287  -10.9285   -6.7517 H   0  0  0  0  0  0  0  0  0  0  0  0
    9.2997  -10.0421   -3.8706 H   0  0  0  0  0  0  0  0  0  0  0  0
   10.0650  -11.6339   -3.6945 H   0  0  0  0  0  0  0  0  0  0  0  0
    8.2957  -11.1601   -2.0174 H   0  0  0  0  0  0  0  0  0  0  0  0
    7.9785  -12.6602   -2.9233 H   0  0  0  0  0  0  0  0  0  0  0  0
    8.6351  -12.9193   -6.7894 H   0  0  0  0  0  0  0  0  0  0  0  0
    8.1439  -13.4390   -5.1492 H   0  0  0  0  0  0  0  0  0  0  0  0
    9.8737  -13.1973   -5.5473 H   0  0  0  0  0  0  0  0  0  0  0  0
    6.8835  -11.4445   -0.7148 H   0  0  0  0  0  0  0  0  0  0  0  0
    5.0617  -11.7042    0.8318 H   0  0  0  0  0  0  0  0  0  0  0  0
    5.1305  -15.6950    1.8127 H   0  0  0  0  0  0  0  0  0  0  0  0
    4.3719  -17.1005   -1.2802 H   0  0  0  0  0  0  0  0  0  0  0  0
    5.4456  -14.1872   -0.9595 H   0  0  0  0  0  0  0  0  0  0  0  0
    3.9103  -14.7134   -1.8055 H   0  0  0  0  0  0  0  0  0  0  0  0
    6.3923  -16.4242   -5.0076 H   0  0  0  0  0  0  0  0  0  0  0  0
    5.5908  -16.9184   -3.5056 H   0  0  0  0  0  0  0  0  0  0  0  0
    8.9994  -15.8502   -4.6859 H   0  0  0  0  0  0  0  0  0  0  0  0
   11.8746  -15.1412   -2.8194 H   0  0  0  0  0  0  0  0  0  0  0  0
   10.7146  -13.8276   -3.1268 H   0  0  0  0  0  0  0  0  0  0  0  0
   11.0979  -14.9831   -4.4322 H   0  0  0  0  0  0  0  0  0  0  0  0
    6.9848  -18.8427   -2.0232 H   0  0  0  0  0  0  0  0  0  0  0  0
    6.2728  -21.0003   -3.1588 H   0  0  0  0  0  0  0  0  0  0  0  0
    7.9139  -21.1593   -2.4759 H   0  0  0  0  0  0  0  0  0  0  0  0
    7.7059  -20.7631   -4.2068 H   0  0  0  0  0  0  0  0  0  0  0  0
  1  2  2  0  0  0  0
  2  3  1  0  0  0  0
  3  4  1  0  0  0  0
  4  5  2  0  0  0  0
  4 37  1  0  0  0  0
  5  7  1  0  0  0  0
  6 54  1  0  0  0  0
  6 55  1  0  0  0  0
  6  5  1  0  0  0  0
  7 56  1  0  0  0  0
  7  8  2  0  0  0  0
  8 57  1  0  0  0  0
  9  8  1  0  0  0  0
  9 10  1  0  0  0  0
 11 10  1  0  0  0  0
 11 12  1  0  0  0  0
 12 13  1  0  0  0  0
 13 14  1  0  0  0  0
 14 15  1  0  0  0  0
 15 60  1  0  0  0  0
 15 61  1  0  0  0  0
 16 15  1  0  0  0  0
 16 62  1  0  0  0  0
 17 64  1  0  0  0  0
 17 16  1  0  0  0  0
 18 13  1  0  0  0  0
 18 17  1  0  0  0  0
 19 68  1  0  0  0  0
 19 12  2  0  0  0  0
 20 19  1  0  0  0  0
 21 36  1  0  0  0  0
 21 20  2  0  0  0  0
 22 21  1  0  0  0  0
 23 35  1  0  0  0  0
 23 22  1  0  0  0  0
 24 23  2  0  0  0  0
 25 26  2  0  0  0  0
 25 24  1  0  0  0  0
 26 34  1  0  0  0  0
 27 32  1  0  0  0  0
 27 26  1  0  0  0  0
 28 27  1  0  0  0  0
 29 75  1  0  0  0  0
 29 30  1  0  0  0  0
 29 28  1  0  0  0  0
 30 31  1  0  0  0  0
 31 77  1  0  0  0  0
 31 78  1  0  0  0  0
 31 32  1  0  0  0  0
 32 80  1  0  0  0  0
 32 79  1  0  0  0  0
 33 83  1  0  0  0  0
 33 30  1  0  0  0  0
 33 82  1  0  0  0  0
 34 84  1  0  0  0  0
 34 35  2  0  0  0  0
 35 85  1  0  0  0  0
 36 11  2  0  0  0  0
 37  9  2  0  0  0  0
 38  2  1  0  0  0  0
 39 38  1  0  0  0  0
 39 88  1  0  0  0  0
 41 40  1  0  0  0  0
 41 91  1  0  0  0  0
 41 42  1  0  0  0  0
 42 43  1  1  0  0  0
 44 42  1  0  0  0  0
 44 45  1  0  0  0  0
 45 47  2  0  0  0  0
 46 94  1  0  0  0  0
 46 93  1  0  0  0  0
 46 45  1  0  0  0  0
 48 42  1  0  0  0  0
 48 49  1  0  0  0  0
 49 96  1  0  0  0  0
 50 97  1  0  0  0  0
 50 49  1  0  0  0  0
 50 98  1  0  0  0  0
 51 48  2  0  0  0  0
 52  3  1  0  0  0  0
 53  6  1  0  0  0  0
 58 14  1  0  0  0  0
 59 14  1  0  0  0  0
 63 16  1  0  0  0  0
 65 17  1  0  0  0  0
 66 18  1  0  0  0  0
 67 18  1  0  0  0  0
 69 20  1  0  0  0  0
 70 22  1  0  0  0  0
 71 24  1  0  0  0  0
 72 25  1  0  0  0  0
 73 28  1  0  0  0  0
 74 28  1  0  0  0  0
 76 29  1  0  0  0  0
 81 33  1  0  0  0  0
 86 37  1  0  0  0  0
 87 38  1  0  0  0  0
 89 39  1  0  0  0  0
 90 41  1  0  0  0  0
 92 44  1  0  0  0  0
 95 46  1  0  0  0  0
 99 50  1  0  0  0  0
M  END
