99
-1 1
O         1.296406   -3.285018    0.219022
C         0.722623   -2.197324   -0.061685
N         1.456970   -0.989105    0.278769
C         1.197802   -0.189590    1.356964
C         2.107317    0.849051    1.706965
C         3.359325    1.041073    0.897054
C         1.814623    1.663798    2.797106
C         0.659847    1.502964    3.566831
C        -0.210314    0.482258    3.207410
O        -1.366727    0.291288    3.964240
C        -2.521479    0.783367    3.475399
C        -3.710166    0.538552    4.193302
N        -3.765767   -0.208481    5.400995
C        -3.103932    0.414360    6.540185
C        -3.499758   -0.287729    7.835877
C        -3.198959   -1.783870    7.755130
C        -3.852189   -2.390712    6.513971
C        -3.445120   -1.624845    5.258959
C        -4.866783    1.081609    3.631614
C        -4.834775    1.802553    2.443836
C        -3.581798    1.969729    1.819201
N        -3.464835    2.656951    0.635433
C        -2.341676    2.735075   -0.218258
C        -2.564106    2.847595   -1.592008
C        -1.514353    2.946679   -2.499593
C        -0.172644    2.936735   -2.072060
N         0.893489    3.055097   -2.968988
C         0.562540    3.051501   -4.382946
C         1.773021    3.397247   -5.246803
N         2.937647    2.581088   -4.977421
C         3.281173    2.725328   -3.573760
C         2.146829    2.393674   -2.603413
C         2.804926    1.205226   -5.414845
C         0.037118    2.804367   -0.685253
C        -1.010884    2.718483    0.221778
N        -2.475347    1.471374    2.357423
C         0.035000   -0.355891    2.133535
C        -0.469093   -2.024455   -0.738822
C        -0.861730   -0.771988   -1.413632
S        -0.065629   -0.498842   -3.140166
C         0.533273   -2.157414   -3.557278
C         1.908020   -2.554802   -2.991091
H         1.970574   -2.267345   -1.941566
N         3.026265   -1.943099   -3.673553
C         3.942821   -1.174024   -3.038165
C         5.238144   -0.950618   -3.798668
O         3.786984   -0.701130   -1.923246
C         2.062559   -4.075392   -3.115959
N         1.649676   -4.764874   -2.043506
C         1.668532   -6.202755   -2.013542
O         2.493105   -4.562257   -4.160055
H         2.400172   -0.975082   -0.099273
H         3.143003    1.112097   -0.180494
H         4.049177    0.185632    1.000935
H         3.898668    1.947403    1.208718
H         2.518599    2.461255    3.054499
H         0.429438    2.153662    4.410980
H        -3.403679    1.473102    6.573995
H        -1.998799    0.391096    6.431172
H        -4.580197   -0.138867    8.004913
H        -2.966844    0.172415    8.683819
H        -3.537470   -2.300454    8.668015
H        -2.105557   -1.929132    7.694191
H        -4.950061   -2.346518    6.618084
H        -3.573461   -3.451087    6.405665
H        -3.986281   -2.012559    4.382868
H        -2.362894   -1.779012    5.066003
H        -5.809280    0.910935    4.157272
H        -5.745989    2.212355    2.003523
H        -4.340685    2.914379    0.203714
H        -3.588962    2.832298   -1.976484
H        -1.764294    2.995139   -3.557421
H        -0.207355    3.815849   -4.571009
H         0.135025    2.075364   -4.692168
H         2.047765    4.452128   -5.067963
H         1.494397    3.306562   -6.309486
H         3.601661    3.770593   -3.415269
H         4.138021    2.077900   -3.330929
H         2.467378    2.743335   -1.613381
H         2.000550    1.299252   -2.526762
H         2.511838    1.186982   -6.476486
H         2.070098    0.601375   -4.845468
H         3.779493    0.702470   -5.334205
H         1.044788    2.750777   -0.276409
H        -0.781809    2.598573    1.277711
H        -0.686543   -1.126908    1.862735
H        -1.022524   -2.938546   -0.973910
H        -0.557213    0.131820   -0.871565
H        -1.941374   -0.714897   -1.604766
H         0.563032   -2.221460   -4.656033
H        -0.206605   -2.887426   -3.203279
H         3.304304   -2.439724   -4.514849
H         6.023542   -1.549363   -3.313442
H         5.527875    0.105028   -3.716460
H         5.179882   -1.235588   -4.858270
H         1.432920   -4.246821   -1.154448
H         0.701597   -6.596579   -1.662705
H         2.453540   -6.583584   -1.338156
H         1.867603   -6.579403   -3.025711
