-1 1
 OpenBabel05232414493D

 91 94  0  0  1  0  0  0  0  0999 V2000
    5.5694    4.9262   -8.0275 O   0  0  0  0  0  0  0  0  0  0  0  0
    4.9420    5.0376   -9.0948 C   0  0  0  0  0  0  0  0  0  0  0  0
    4.5694    3.8787   -9.7622 N   0  0  0  0  0  0  0  0  0  0  0  0
    4.3172    3.7941  -11.1891 C   0  0  0  0  0  0  0  0  0  0  0  0
    5.5176    3.2023  -11.9384 C   0  0  0  0  0  0  0  0  0  0  0  0
    6.0687    1.9318  -11.2787 C   0  0  0  0  0  0  0  0  0  0  0  0
    6.1893    2.0287   -9.7544 C   0  0  2  0  0  0  0  0  0  0  0  0
    6.3625    1.0309   -9.3251 H   0  0  0  0  0  0  0  0  0  0  0  0
    4.8918    2.6069   -9.1620 C   0  0  0  0  0  0  0  0  0  0  0  0
    7.3232    2.8363   -9.3209 N   0  0  0  0  0  0  0  0  0  0  0  0
    7.6946    3.9511   -9.9758 N   0  0  0  0  0  0  0  0  0  0  0  0
    8.4530    4.6610   -9.1732 C   0  0  0  0  0  0  0  0  0  0  0  0
    8.9983    5.9666   -9.5690 C   0  0  0  0  0  0  0  0  0  0  0  0
   10.2588    6.3422   -9.1036 C   0  0  0  0  0  0  0  0  0  0  0  0
   10.7636    7.6227   -9.3323 C   0  0  0  0  0  0  0  0  0  0  0  0
   12.0677    8.0763   -8.7381 C   0  0  0  0  0  0  0  0  0  0  0  0
   12.4051    7.4110   -7.5840 N   0  0  0  0  0  0  0  0  0  0  0  0
   13.5485    7.5521   -6.7851 C   0  0  0  0  0  0  0  0  0  0  0  0
   14.5879    8.4508   -7.0630 C   0  0  0  0  0  0  0  0  0  0  0  0
   15.6863    8.5147   -6.2102 C   0  0  0  0  0  0  0  0  0  0  0  0
   15.7965    7.7099   -5.0711 C   0  0  0  0  0  0  0  0  0  0  0  0
   17.0019    7.7971   -4.1515 C   0  0  0  0  0  0  0  0  0  0  0  0
   18.2959    7.4042   -4.8726 C   0  0  0  0  0  0  0  0  0  0  0  0
   17.1229    9.1808   -3.5038 C   0  0  0  0  0  0  0  0  0  0  0  0
   14.7499    6.8208   -4.8099 C   0  0  0  0  0  0  0  0  0  0  0  0
   13.6441    6.7378   -5.6485 C   0  0  0  0  0  0  0  0  0  0  0  0
   12.7290    8.9692   -9.2307 O   0  0  0  0  0  0  0  0  0  0  0  0
   10.0277    8.5132  -10.1185 C   0  0  0  0  0  0  0  0  0  0  0  0
    8.7859    8.1299  -10.6236 C   0  0  0  0  0  0  0  0  0  0  0  0
    8.2582    6.8715  -10.3393 C   0  0  0  0  0  0  0  0  0  0  0  0
    7.8366    2.8201   -8.0641 C   0  0  0  0  0  0  0  0  0  0  0  0
    8.5887    3.9955   -7.9103 C   0  0  0  0  0  0  0  0  0  0  0  0
    9.0733    4.2229   -6.6016 C   0  0  1  0  0  3  0  0  0  0  0  0
    9.6924    5.3914   -6.2148 N   0  0  0  0  0  0  0  0  0  0  0  0
    8.9237    3.2782   -5.6782 N   0  0  0  0  0  0  0  0  0  0  0  0
    8.2433    2.1667   -5.9938 C   0  0  0  0  0  0  0  0  0  0  0  0
    7.6470    1.8770   -7.1350 N   0  0  0  0  0  2  0  0  0  0  0  0
    4.5545    6.3359   -9.6174 C   0  0  0  0  0  3  0  0  0  0  0  0
    3.2524    6.6158   -9.9823 C   0  0  0  0  0  3  0  0  0  0  0  0
    1.7221    6.6118   -8.0948 S   0  0  0  0  0  1  0  0  0  0  0  0
    2.4011    7.9452   -7.0398 C   0  0  0  0  0  0  0  0  0  0  0  0
    3.4450    7.6188   -5.9470 C   0  0  2  0  0  0  0  0  0  0  0  0
    3.5901    8.5407   -5.3684 H   0  0  0  0  0  0  0  0  0  0  0  0
    4.7566    7.2873   -6.4706 N   0  0  0  0  0  0  0  0  0  0  0  0
    5.7689    8.1863   -6.4596 C   0  0  0  0  0  0  0  0  0  0  0  0
    7.0761    7.6864   -7.0555 C   0  0  0  0  0  0  0  0  0  0  0  0
    5.6777    9.3210   -6.0170 O   0  0  0  0  0  0  0  0  0  0  0  0
    3.0400    6.5650   -4.9043 C   0  0  0  0  0  0  0  0  0  0  0  0
    2.7581    5.3427   -5.4199 N   0  0  0  0  0  0  0  0  0  0  0  0
    2.3588    4.2384   -4.5920 C   0  0  0  0  0  0  0  0  0  0  0  0
    3.0404    6.8139   -3.7090 O   0  0  0  0  0  0  0  0  0  0  0  0
    4.1055    4.7943  -11.5787 H   0  0  0  0  0  0  0  0  0  0  0  0
    3.4154    3.1737  -11.3511 H   0  0  0  0  0  0  0  0  0  0  0  0
    6.3108    3.9601  -11.9683 H   0  0  0  0  0  0  0  0  0  0  0  0
    5.2241    2.9802  -12.9774 H   0  0  0  0  0  0  0  0  0  0  0  0
    7.0421    1.6609  -11.7164 H   0  0  0  0  0  0  0  0  0  0  0  0
    5.3841    1.0892  -11.4777 H   0  0  0  0  0  0  0  0  0  0  0  0
    4.9922    2.7375   -8.0786 H   0  0  0  0  0  0  0  0  0  0  0  0
    4.0726    1.8921   -9.3585 H   0  0  0  0  0  0  0  0  0  0  0  0
   10.8443    5.6033   -8.5538 H   0  0  0  0  0  0  0  0  0  0  0  0
   11.7215    6.7519   -7.2272 H   0  0  0  0  0  0  0  0  0  0  0  0
   14.5174    9.0892   -7.9406 H   0  0  0  0  0  0  0  0  0  0  0  0
   16.4825    9.2255   -6.4499 H   0  0  0  0  0  0  0  0  0  0  0  0
   16.8399    7.0658   -3.3412 H   0  0  0  0  0  0  0  0  0  0  0  0
   18.5236    8.1074   -5.6898 H   0  0  0  0  0  0  0  0  0  0  0  0
   18.2155    6.3984   -5.3110 H   0  0  0  0  0  0  0  0  0  0  0  0
   19.1512    7.4111   -4.1783 H   0  0  0  0  0  0  0  0  0  0  0  0
   17.3003    9.9597   -4.2626 H   0  0  0  0  0  0  0  0  0  0  0  0
   17.9633    9.2103   -2.7922 H   0  0  0  0  0  0  0  0  0  0  0  0
   16.2030    9.4466   -2.9623 H   0  0  0  0  0  0  0  0  0  0  0  0
   14.7974    6.1742   -3.9291 H   0  0  0  0  0  0  0  0  0  0  0  0
   12.8397    6.0311   -5.4242 H   0  0  0  0  0  0  0  0  0  0  0  0
   10.4363    9.5076  -10.3079 H   0  0  0  0  0  0  0  0  0  0  0  0
    8.2020    8.8353  -11.2184 H   0  0  0  0  0  0  0  0  0  0  0  0
    7.2543    6.5944  -10.6721 H   0  0  0  0  0  0  0  0  0  0  0  0
    9.3387    6.2254   -6.6752 H   0  0  0  0  0  0  0  0  0  0  0  0
    9.7250    5.4798   -5.2036 H   0  0  0  0  0  0  0  0  0  0  0  0
    8.1565    1.4238   -5.1926 H   0  0  0  0  0  0  0  0  0  0  0  0
    5.1511    7.1552   -9.2097 H   0  0  0  0  0  0  0  0  0  0  0  0
    2.6070    5.8493  -10.4160 H   0  0  0  0  0  0  0  0  0  0  0  0
    2.9794    7.6383  -10.2506 H   0  0  0  0  0  0  0  0  0  0  0  0
    1.5522    8.4400   -6.5414 H   0  0  0  0  0  0  0  0  0  0  0  0
    2.8711    8.7056   -7.6859 H   0  0  0  0  0  0  0  0  0  0  0  0
    4.9186    6.3768   -6.9116 H   0  0  0  0  0  0  0  0  0  0  0  0
    7.3050    8.2826   -7.9513 H   0  0  0  0  0  0  0  0  0  0  0  0
    7.0376    6.6237   -7.3329 H   0  0  0  0  0  0  0  0  0  0  0  0
    7.8724    7.8866   -6.3223 H   0  0  0  0  0  0  0  0  0  0  0  0
    2.5452    5.3193   -6.4252 H   0  0  0  0  0  0  0  0  0  0  0  0
    2.8743    3.3142   -4.8984 H   0  0  0  0  0  0  0  0  0  0  0  0
    1.2702    4.0584   -4.6364 H   0  0  0  0  0  0  0  0  0  0  0  0
    2.6260    4.4721   -3.5531 H   0  0  0  0  0  0  0  0  0  0  0  0
  2  1  2  0  0  0  0
  3  9  1  0  0  0  0
  3  2  1  0  0  0  0
  4  3  1  0  0  0  0
  5  6  1  0  0  0  0
  5  4  1  0  0  0  0
  6  7  1  0  0  0  0
  7  8  1  1  0  0  0
  7 10  1  0  0  0  0
  7  9  1  0  0  0  0
  9 58  1  0  0  0  0
 10 31  1  0  0  0  0
 11 10  1  0  0  0  0
 11 12  2  0  0  0  0
 12 32  1  0  0  0  0
 13 12  1  0  0  0  0
 13 14  1  0  0  0  0
 14 60  1  0  0  0  0
 15 14  2  0  0  0  0
 15 16  1  0  0  0  0
 16 17  1  0  0  0  0
 17 61  1  0  0  0  0
 17 18  1  0  0  0  0
 18 26  1  0  0  0  0
 19 18  2  0  0  0  0
 19 20  1  0  0  0  0
 20 21  2  0  0  0  0
 21 25  1  0  0  0  0
 21 22  1  0  0  0  0
 22 24  1  0  0  0  0
 22 64  1  0  0  0  0
 23 67  1  0  0  0  0
 23 22  1  0  0  0  0
 24 70  1  0  0  0  0
 24 69  1  0  0  0  0
 25 71  1  0  0  0  0
 26 72  1  0  0  0  0
 26 25  2  0  0  0  0
 27 16  2  0  0  0  0
 28 15  1  0  0  0  0
 29 30  1  0  0  0  0
 29 28  2  0  0  0  0
 30 13  2  0  0  0  0
 31 32  2  0  0  0  0
 31 37  1  0  0  0  0
 32 33  1  0  0  0  0
 33 34  1  1  0  0  0
 33 35  1  0  0  0  0
 34 77  1  0  0  0  0
 36 35  2  0  0  0  0
 36 78  1  0  0  0  0
 37 36  1  0  0  0  0
 38 79  1  0  0  0  0
 38  2  1  0  0  0  0
 39 38  1  0  0  0  0
 40 41  1  0  0  0  0
 41 82  1  0  0  0  0
 41 42  1  0  0  0  0
 42 43  1  1  0  0  0
 42 48  1  0  0  0  0
 44 45  1  0  0  0  0
 44 42  1  0  0  0  0
 45 47  2  0  0  0  0
 46 45  1  0  0  0  0
 46 87  1  0  0  0  0
 48 51  2  0  0  0  0
 49 48  1  0  0  0  0
 49 50  1  0  0  0  0
 50 91  1  0  0  0  0
 52  4  1  0  0  0  0
 53  4  1  0  0  0  0
 54  5  1  0  0  0  0
 55  5  1  0  0  0  0
 56  6  1  0  0  0  0
 57  6  1  0  0  0  0
 59  9  1  0  0  0  0
 62 19  1  0  0  0  0
 63 20  1  0  0  0  0
 65 23  1  0  0  0  0
 66 23  1  0  0  0  0
 68 24  1  0  0  0  0
 73 28  1  0  0  0  0
 74 29  1  0  0  0  0
 75 30  1  0  0  0  0
 76 34  1  0  0  0  0
 80 39  1  0  0  0  0
 81 39  1  0  0  0  0
 83 41  1  0  0  0  0
 84 44  1  0  0  0  0
 85 46  1  0  0  0  0
 86 46  1  0  0  0  0
 88 49  1  0  0  0  0
 89 50  1  0  0  0  0
 90 50  1  0  0  0  0
M  END
