-1 1
 OpenBabel05232414493D

100103  0  0  1  0  0  0  0  0999 V2000
    9.6035  -14.9973   -1.2962 O   0  0  0  0  0  0  0  0  0  0  0  0
    9.4042  -14.8201   -0.0949 C   0  0  0  0  0  0  0  0  0  0  0  0
    8.0334  -14.5613    0.2533 N   0  0  0  0  0  0  0  0  0  0  0  0
    7.3809  -13.8709    1.2481 C   0  0  0  0  0  0  0  0  0  0  0  0
    7.7741  -12.6267    1.8004 C   0  0  0  0  0  0  0  0  0  0  0  0
    8.9350  -11.8011    1.3059 C   0  0  0  0  0  0  0  0  0  0  0  0
    9.2453  -12.0533    0.0281 F   0  0  0  0  0  0  0  0  0  0  0  0
    8.6244  -10.4857    1.3516 F   0  0  0  0  0  0  0  0  0  0  0  0
   10.0492  -11.9340    2.0236 F   0  0  0  0  0  0  0  0  0  0  0  0
    7.0160  -12.0571    2.8294 C   0  0  0  0  0  0  0  0  0  0  0  0
    5.8275  -12.6181    3.2706 C   0  0  0  0  0  0  0  0  0  0  0  0
    5.3978  -13.7900    2.6558 C   0  0  0  0  0  0  0  0  0  0  0  0
    4.2253  -14.3735    3.0835 O   0  0  0  0  0  0  0  0  0  0  0  0
    3.1392  -14.3174    2.2795 C   0  0  0  0  0  0  0  0  0  0  0  0
    1.9568  -14.9389    2.7477 C   0  0  0  0  0  0  0  0  0  0  0  0
    1.9484  -15.6723    3.9381 N   0  0  0  0  0  0  0  0  0  0  0  0
    0.8445  -16.5573    4.2269 C   0  0  0  0  0  0  0  0  0  0  0  0
    1.2728  -17.2328    5.5344 C   0  0  0  0  0  0  0  0  0  0  0  0
    2.2079  -16.2048    6.2129 C   0  0  0  0  0  0  0  0  0  0  0  0
    2.3415  -15.0577    5.2032 C   0  0  0  0  0  0  0  0  0  0  0  0
    0.8594  -14.8155    1.8906 C   0  0  0  0  0  0  0  0  0  0  0  0
    0.9628  -14.1619    0.6612 C   0  0  0  0  0  0  0  0  0  0  0  0
    2.1999  -13.6088    0.3076 C   0  0  0  0  0  0  0  0  0  0  0  0
    2.3965  -12.9850   -0.9111 N   0  0  0  0  0  0  0  0  0  0  0  0
    3.6447  -12.5983   -1.4283 C   0  0  0  0  0  0  0  0  0  0  0  0
    3.7803  -11.3265   -2.0188 C   0  0  0  0  0  0  0  0  0  0  0  0
    2.6425  -10.5755   -2.0405 O   0  0  0  0  0  0  0  0  0  0  0  0
    2.6962   -9.2875   -2.5768 C   0  0  0  0  0  0  0  0  0  0  0  0
    4.9955  -10.9182   -2.5601 C   0  0  0  0  0  0  0  0  0  0  0  0
    6.1293  -11.7548   -2.5097 C   0  0  0  0  0  0  0  0  0  0  0  0
    7.3448  -11.3190   -3.0602 N   0  0  0  0  0  0  0  0  0  0  0  0
    8.3849  -12.3227   -3.2608 C   0  0  0  0  0  0  0  0  0  0  0  0
    9.4764  -11.7616   -4.1728 C   0  0  0  0  0  0  0  0  0  0  0  0
   10.0435  -10.5043   -3.7146 N   0  0  0  0  0  0  0  0  0  0  0  0
    8.9817   -9.5444   -3.4829 C   0  0  0  0  0  0  0  0  0  0  0  0
    7.8788  -10.0574   -2.5560 C   0  0  0  0  0  0  0  0  0  0  0  0
   10.9824  -10.6372   -2.6173 C   0  0  0  0  0  0  0  0  0  0  0  0
    5.9857  -13.0222   -1.9359 C   0  0  0  0  0  0  0  0  0  0  0  0
    4.7596  -13.4306   -1.4169 C   0  0  0  0  0  0  0  0  0  0  0  0
    3.2402  -13.6879    1.1373 N   0  0  0  0  0  0  0  0  0  0  0  0
    6.1640  -14.4175    1.6967 C   0  0  0  0  0  0  0  0  0  0  0  0
   10.3739  -14.9668    0.9382 C   0  0  0  0  0  3  0  0  0  0  0  0
   10.1589  -14.9643    2.3170 C   0  0  0  0  0  3  0  0  0  0  0  0
    9.2649  -16.8860    3.2789 S   0  0  0  0  0  1  0  0  0  0  0  0
    8.9174  -16.0815    4.8793 C   0  0  0  0  0  0  0  0  0  0  0  0
    7.6357  -15.2222    4.8976 C   0  0  2  0  0  0  0  0  0  0  0  0
    7.6353  -14.6245    3.9737 H   0  0  0  0  0  0  0  0  0  0  0  0
    7.5743  -14.3230    6.0267 N   0  0  0  0  0  0  0  0  0  0  0  0
    8.2288  -13.1399    6.0554 C   0  0  0  0  0  0  0  0  0  0  0  0
    7.8360  -12.2189    7.1991 C   0  0  0  0  0  0  0  0  0  0  0  0
    9.0553  -12.8046    5.2244 O   0  0  0  0  0  0  0  0  0  0  0  0
    6.3303  -16.0297    4.9298 C   0  0  0  0  0  0  0  0  0  0  0  0
    6.1612  -16.8928    3.9217 N   0  0  0  0  0  0  0  0  0  0  0  0
    4.9616  -17.6797    3.7908 C   0  0  0  0  0  0  0  0  0  0  0  0
    5.5013  -15.8606    5.8246 O   0  0  0  0  0  0  0  0  0  0  0  0
    7.4276  -15.1180   -0.3360 H   0  0  0  0  0  0  0  0  0  0  0  0
    7.3632  -11.1250    3.2751 H   0  0  0  0  0  0  0  0  0  0  0  0
    5.2288  -12.1596    4.0572 H   0  0  0  0  0  0  0  0  0  0  0  0
    0.6845  -17.2660    3.3986 H   0  0  0  0  0  0  0  0  0  0  0  0
   -0.1098  -16.0007    4.3763 H   0  0  0  0  0  0  0  0  0  0  0  0
    1.8195  -18.1609    5.3125 H   0  0  0  0  0  0  0  0  0  0  0  0
    0.4050  -17.5033    6.1538 H   0  0  0  0  0  0  0  0  0  0  0  0
    3.2038  -16.6281    6.4000 H   0  0  0  0  0  0  0  0  0  0  0  0
    1.8084  -15.8466    7.1728 H   0  0  0  0  0  0  0  0  0  0  0  0
    3.3679  -14.6779    5.1553 H   0  0  0  0  0  0  0  0  0  0  0  0
    1.6564  -14.2182    5.4520 H   0  0  0  0  0  0  0  0  0  0  0  0
   -0.0958  -15.2607    2.1749 H   0  0  0  0  0  0  0  0  0  0  0  0
    0.1107  -14.1092   -0.0188 H   0  0  0  0  0  0  0  0  0  0  0  0
    1.5934  -12.5343   -1.3265 H   0  0  0  0  0  0  0  0  0  0  0  0
    1.6950   -8.8520   -2.4609 H   0  0  0  0  0  0  0  0  0  0  0  0
    2.9581   -9.2963   -3.6504 H   0  0  0  0  0  0  0  0  0  0  0  0
    3.4250   -8.6513   -2.0439 H   0  0  0  0  0  0  0  0  0  0  0  0
    5.0818   -9.9489   -3.0499 H   0  0  0  0  0  0  0  0  0  0  0  0
    7.9397  -13.2028   -3.7474 H   0  0  0  0  0  0  0  0  0  0  0  0
    8.8215  -12.6828   -2.3101 H   0  0  0  0  0  0  0  0  0  0  0  0
    9.0428  -11.5943   -5.1756 H   0  0  0  0  0  0  0  0  0  0  0  0
   10.2790  -12.5075   -4.2758 H   0  0  0  0  0  0  0  0  0  0  0  0
    8.5225   -9.2951   -4.4571 H   0  0  0  0  0  0  0  0  0  0  0  0
    9.4114   -8.6169   -3.0707 H   0  0  0  0  0  0  0  0  0  0  0  0
    7.0769   -9.3076   -2.5032 H   0  0  0  0  0  0  0  0  0  0  0  0
    8.2693  -10.1838   -1.5263 H   0  0  0  0  0  0  0  0  0  0  0  0
   11.7966  -11.3157   -2.9148 H   0  0  0  0  0  0  0  0  0  0  0  0
   10.5548  -11.0310   -1.6764 H   0  0  0  0  0  0  0  0  0  0  0  0
   11.4306   -9.6543   -2.3995 H   0  0  0  0  0  0  0  0  0  0  0  0
    6.8471  -13.6833   -1.8622 H   0  0  0  0  0  0  0  0  0  0  0  0
    4.6714  -14.4165   -0.9603 H   0  0  0  0  0  0  0  0  0  0  0  0
    5.8278  -15.3717    1.2902 H   0  0  0  0  0  0  0  0  0  0  0  0
   11.3522  -15.2684    0.5567 H   0  0  0  0  0  0  0  0  0  0  0  0
    9.3646  -14.3723    2.7683 H   0  0  0  0  0  0  0  0  0  0  0  0
   11.0484  -15.0048    2.9496 H   0  0  0  0  0  0  0  0  0  0  0  0
    9.7493  -15.3971    5.1079 H   0  0  0  0  0  0  0  0  0  0  0  0
    8.8779  -16.8318    5.6854 H   0  0  0  0  0  0  0  0  0  0  0  0
    6.7806  -14.4966    6.6384 H   0  0  0  0  0  0  0  0  0  0  0  0
    7.3989  -12.7550    8.0533 H   0  0  0  0  0  0  0  0  0  0  0  0
    7.0973  -11.4929    6.8255 H   0  0  0  0  0  0  0  0  0  0  0  0
    8.7227  -11.6599    7.5239 H   0  0  0  0  0  0  0  0  0  0  0  0
    6.9745  -17.0405    3.3083 H   0  0  0  0  0  0  0  0  0  0  0  0
    4.0698  -17.0323    3.7842 H   0  0  0  0  0  0  0  0  0  0  0  0
    4.8525  -18.4046    4.6158 H   0  0  0  0  0  0  0  0  0  0  0  0
    5.0056  -18.2348    2.8444 H   0  0  0  0  0  0  0  0  0  0  0  0
  1  2  2  0  0  0  0
  2  3  1  0  0  0  0
  2 42  1  0  0  0  0
  3  4  1  0  0  0  0
  4 41  2  0  0  0  0
  4  5  1  0  0  0  0
  5 10  2  0  0  0  0
  6  8  1  0  0  0  0
  6  5  1  0  0  0  0
  6  9  1  0  0  0  0
  7  6  1  0  0  0  0
 10 11  1  0  0  0  0
 10 57  1  0  0  0  0
 11 58  1  0  0  0  0
 12 13  1  0  0  0  0
 12 11  2  0  0  0  0
 14 15  1  0  0  0  0
 14 13  1  0  0  0  0
 15 16  1  0  0  0  0
 16 17  1  0  0  0  0
 16 20  1  0  0  0  0
 17 60  1  0  0  0  0
 17 18  1  0  0  0  0
 18 62  1  0  0  0  0
 18 19  1  0  0  0  0
 19 63  1  0  0  0  0
 19 64  1  0  0  0  0
 20 66  1  0  0  0  0
 20 19  1  0  0  0  0
 21 67  1  0  0  0  0
 21 15  2  0  0  0  0
 22 21  1  0  0  0  0
 23 22  2  0  0  0  0
 23 40  1  0  0  0  0
 24 23  1  0  0  0  0
 25 39  1  0  0  0  0
 25 24  1  0  0  0  0
 26 25  2  0  0  0  0
 27 26  1  0  0  0  0
 28 70  1  0  0  0  0
 28 72  1  0  0  0  0
 28 27  1  0  0  0  0
 29 30  2  0  0  0  0
 29 26  1  0  0  0  0
 30 38  1  0  0  0  0
 31 36  1  0  0  0  0
 31 30  1  0  0  0  0
 32 31  1  0  0  0  0
 32 75  1  0  0  0  0
 33 34  1  0  0  0  0
 33 32  1  0  0  0  0
 34 35  1  0  0  0  0
 34 37  1  0  0  0  0
 35 79  1  0  0  0  0
 35 36  1  0  0  0  0
 36 80  1  0  0  0  0
 36 81  1  0  0  0  0
 37 84  1  0  0  0  0
 37 83  1  0  0  0  0
 38 85  1  0  0  0  0
 38 39  2  0  0  0  0
 39 86  1  0  0  0  0
 40 14  2  0  0  0  0
 41 12  1  0  0  0  0
 42 43  1  0  0  0  0
 43 89  1  0  0  0  0
 43 90  1  0  0  0  0
 44 45  1  0  0  0  0
 45 46  1  0  0  0  0
 45 91  1  0  0  0  0
 45 92  1  0  0  0  0
 46 47  1  6  0  0  0
 46 52  1  0  0  0  0
 46 48  1  0  0  0  0
 48 49  1  0  0  0  0
 48 93  1  0  0  0  0
 49 50  1  0  0  0  0
 50 96  1  0  0  0  0
 50 94  1  0  0  0  0
 51 49  2  0  0  0  0
 52 55  2  0  0  0  0
 53 52  1  0  0  0  0
 54 53  1  0  0  0  0
 54 99  1  0  0  0  0
 56  3  1  0  0  0  0
 59 17  1  0  0  0  0
 61 18  1  0  0  0  0
 65 20  1  0  0  0  0
 68 22  1  0  0  0  0
 69 24  1  0  0  0  0
 71 28  1  0  0  0  0
 73 29  1  0  0  0  0
 74 32  1  0  0  0  0
 76 33  1  0  0  0  0
 77 33  1  0  0  0  0
 78 35  1  0  0  0  0
 82 37  1  0  0  0  0
 87 41  1  0  0  0  0
 88 42  1  0  0  0  0
 95 50  1  0  0  0  0
 97 53  1  0  0  0  0
 98 54  1  0  0  0  0
100 54  1  0  0  0  0
M  END
