100
-1 1
O         3.684129   -1.390662   -2.653068
C         3.330890   -1.165336   -1.512309
N         1.972360   -1.162185   -1.213091
C         1.228110   -0.563953   -0.185725
C         1.464102    0.716323    0.355955
C         2.495142    1.710631   -0.124267
F         2.926010    1.470116   -1.373970
F         1.958598    2.948144   -0.162786
F         3.568423    1.801581    0.654444
C         0.629556    1.187808    1.375645
C        -0.495011    0.492888    1.783952
C        -0.787681   -0.711935    1.154598
O        -1.953847   -1.363230    1.483393
C        -3.060296   -1.048239    0.768703
C        -4.313153   -1.436693    1.294028
N        -4.400628   -2.085410    2.527372
C        -5.615837   -2.768348    2.903247
C        -5.249920   -3.376333    4.259189
C        -4.249352   -2.368240    4.867682
C        -3.902934   -1.404193    3.722806
C        -5.406583   -1.133767    0.476410
C        -5.244757   -0.481396   -0.745356
C        -3.949584   -0.105982   -1.128617
N        -3.724396    0.577354   -2.308252
C        -2.495662    0.998170   -2.830769
C        -2.488758    2.174600   -3.615404
O        -3.708586    2.763556   -3.776395
C        -3.798283    3.935035   -4.531997
C        -1.313196    2.646294   -4.186100
C        -0.092187    1.976702   -3.977888
N         1.086085    2.500541   -4.554066
C         2.200069    1.574209   -4.713038
C         3.279919    2.212654   -5.586772
N         3.747727    3.494562   -5.085493
C         2.618926    4.384377   -4.885698
C         1.516505    3.786836   -4.011051
C         4.642163    3.399701   -3.949066
C        -0.103273    0.809249   -3.217014
C        -1.288625    0.324546   -2.663323
N        -2.901926   -0.408157   -0.364434
C         0.087419   -1.264363    0.236941
C         4.287955   -0.944819   -0.402635
C         4.120509   -1.432609    0.828267
S         2.549315   -4.340523    2.398442
C         2.451918   -3.087386    3.733655
C         1.336701   -2.039600    3.535560
H         1.428176   -1.673498    2.500574
N         1.435703   -0.909622    4.434551
C         2.240889    0.149272    4.210535
C         2.001215    1.337665    5.129966
O         3.082795    0.195622    3.328155
C        -0.083002   -2.596970    3.722279
N        -0.376140   -3.662096    2.976092
C        -1.647746   -4.328050    3.064369
O        -0.874739   -2.065684    4.509905
H         1.427778   -1.628857   -1.930011
H         0.847550    2.158882    1.821240
H        -1.165568    0.881854    2.550056
H        -5.896330   -3.516849    2.145039
H        -6.476471   -2.068005    3.016687
H        -4.764006   -4.350787    4.103952
H        -6.135987   -3.543607    4.889147
H        -3.331831   -2.860274    5.217012
H        -4.681577   -1.826253    5.721442
H        -2.821295   -1.233597    3.662925
H        -4.421733   -0.429521    3.847981
H        -6.410823   -1.412177    0.801363
H        -6.104429   -0.261867   -1.381174
H        -4.526435    1.035827   -2.717851
H        -4.850937    4.245533   -4.514986
H        -3.490636    3.773302   -5.580534
H        -3.180614    4.745268   -4.105676
H        -1.315769    3.534399   -4.818034
H         1.832953    0.655324   -5.193969
H         2.639702    1.271227   -3.743601
H         2.865797    2.369506   -6.598609
H         4.133516    1.523498   -5.678069
H         2.184714    4.618581   -5.874358
H         2.973343    5.330456   -4.445589
H         0.660310    4.476648   -3.980495
H         1.871560    3.670055   -2.965977
H         5.509308    2.776740   -4.217534
H         4.196514    2.965842   -3.032419
H         5.019330    4.403208   -3.695198
H         0.826556    0.276778   -3.024184
H        -1.269881   -0.574606   -2.053192
H        -0.122984   -2.252131   -0.173763
H         5.200779   -0.421403   -0.698647
H         3.256156   -2.041169    1.120056
H         4.880913   -1.286766    1.597260
H         3.393136   -2.517790    3.773720
H         2.319166   -3.563078    4.721267
H         0.636492   -0.827572    5.059012
H         1.549572    1.053372    6.090970
H         1.325861    2.044493    4.622604
H         2.956172    1.849570    5.303274
H         0.446438   -4.118628    2.515927
H        -2.467350   -3.665010    2.744538
H        -1.864069   -4.668920    4.092365
H        -1.627535   -5.207296    2.406211
