100
-1 1
O         3.138499   -1.253262   -2.767102
C         3.020865   -1.230931   -1.530294
N         1.635405   -1.028418   -1.070500
C         1.026848   -0.278177   -0.118465
C         1.495789    0.943296    0.444178
C         2.668334    1.725418   -0.088967
F         2.867827    1.522402   -1.394910
F         2.443030    3.054034    0.042880
F         3.825767    1.500146    0.537123
C         0.785982    1.540874    1.492428
C        -0.422932    1.045771    1.958124
C        -0.935161   -0.083889    1.322812
O        -2.136062   -0.603651    1.758770
C        -3.192307   -0.618461    0.912657
C        -4.359784   -1.288057    1.350629
N        -4.369539   -2.031059    2.536827
C        -5.447828   -2.957463    2.791754
C        -5.035931   -3.632284    4.107693
C        -4.082172   -2.620127    4.785027
C        -4.015093   -1.432812    3.818901
C        -5.436123   -1.217280    0.460707
C        -5.321032   -0.579794   -0.775347
C        -4.092554    0.009489   -1.105062
N        -3.875402    0.600224   -2.334062
C        -2.619853    0.987906   -2.838223
C        -2.482105    2.252900   -3.440759
O        -3.620994    3.002830   -3.482596
C        -3.560682    4.284015   -4.033049
C        -1.262944    2.653725   -3.978441
C        -0.129897    1.817112   -3.911403
N         1.083811    2.248733   -4.468413
C         2.109310    1.232463   -4.693344
C         3.202977    1.796691   -5.599108
N         3.792951    3.034370   -5.113261
C         2.746356    4.006295   -4.862493
C         1.634944    3.494750   -3.944734
C         4.720948    2.855651   -4.012676
C        -0.271239    0.556581   -3.319500
C        -1.502950    0.157549   -2.805690
N        -3.080957   -0.005759   -0.237382
C        -0.229943   -0.736329    0.338956
C         3.974516   -1.465812   -0.548557
C         3.767349   -1.525305    0.910513
S         2.969750   -3.124923    1.557597
C         2.618619   -2.597029    3.268333
C         1.353498   -1.726328    3.419384
H         1.335468   -1.021467    2.572957
N         1.339423   -0.973751    4.650456
C         2.046540    0.171708    4.807516
C         1.694019    0.975407    6.047289
O         2.888586    0.552378    4.014462
C         0.042017   -2.525832    3.397938
N        -0.165046   -3.277835    2.308359
C        -1.401096   -3.992843    2.103006
O        -0.755051   -2.459293    4.330456
H         1.021143   -1.675328   -1.549556
H         1.191576    2.451007    1.934768
H        -0.978930    1.529552    2.760537
H        -5.561091   -3.663689    1.953687
H        -6.424286   -2.435475    2.917651
H        -4.512455   -4.577095    3.901417
H        -5.913946   -3.874471    4.724535
H        -3.072598   -3.038089    4.896599
H        -4.432874   -2.311300    5.780419
H        -3.015417   -0.987002    3.781636
H        -4.748565   -0.643774    4.095222
H        -6.380770   -1.697983    0.721524
H        -6.152648   -0.574394   -1.482170
H        -4.678650    1.001582   -2.796735
H        -4.562168    4.722545   -3.931049
H        -3.289096    4.263252   -5.104153
H        -2.835444    4.925603   -3.501507
H        -1.170797    3.615448   -4.482250
H         1.645268    0.371001   -5.195992
H         2.544238    0.834343   -3.757372
H         2.770474    1.996293   -6.596809
H         3.993526    1.040702   -5.721485
H         2.291823    4.281085   -5.832184
H         3.190854    4.919155   -4.432928
H         0.842997    4.255118   -3.881900
H         2.023366    3.348178   -2.917292
H         5.528730    2.175999   -4.325009
H         4.280595    2.436415   -3.089058
H         5.179328    3.825883   -3.760779
H         0.592532   -0.102666   -3.227042
H        -1.597103   -0.823183   -2.338248
H        -0.645848   -1.648059   -0.091850
H         4.981219   -1.658079   -0.926616
H         3.138231   -0.736482    1.343913
H         4.729347   -1.478477    1.439361
H         3.473047   -1.994775    3.609219
H         2.557226   -3.491005    3.907386
H         0.539987   -1.184562    5.242821
H         1.261671    0.359716    6.848633
H         0.961870    1.747995    5.766043
H         2.597198    1.481406    6.410460
H         0.569722   -3.279216    1.598927
H        -2.266735   -3.322768    2.231274
H        -1.508390   -4.830984    2.811551
H        -1.409710   -4.396930    1.082379
