-1 1
 OpenBabel05192410563D

100104  0  0  1  0  0  0  0  0999 V2000
    3.1385   -1.2533   -2.7671 O   0  0  0  0  0  0  0  0  0  0  0  0
    3.0209   -1.2309   -1.5303 C   0  0  0  0  0  0  0  0  0  0  0  0
    1.6354   -1.0284   -1.0705 N   0  0  0  0  0  0  0  0  0  0  0  0
    1.0268   -0.2782   -0.1185 C   0  0  0  0  0  0  0  0  0  0  0  0
    1.4958    0.9433    0.4442 C   0  0  0  0  0  0  0  0  0  0  0  0
    2.6683    1.7254   -0.0890 C   0  0  0  0  0  0  0  0  0  0  0  0
    2.8678    1.5224   -1.3949 F   0  0  0  0  0  0  0  0  0  0  0  0
    2.4430    3.0540    0.0429 F   0  0  0  0  0  0  0  0  0  0  0  0
    3.8258    1.5001    0.5371 F   0  0  0  0  0  0  0  0  0  0  0  0
    0.7860    1.5409    1.4924 C   0  0  0  0  0  0  0  0  0  0  0  0
   -0.4229    1.0458    1.9581 C   0  0  0  0  0  0  0  0  0  0  0  0
   -0.9352   -0.0839    1.3228 C   0  0  0  0  0  0  0  0  0  0  0  0
   -2.1361   -0.6037    1.7588 O   0  0  0  0  0  0  0  0  0  0  0  0
   -3.1923   -0.6185    0.9127 C   0  0  0  0  0  0  0  0  0  0  0  0
   -4.3598   -1.2881    1.3506 C   0  0  0  0  0  0  0  0  0  0  0  0
   -4.3695   -2.0311    2.5368 N   0  0  0  0  0  0  0  0  0  0  0  0
   -5.4478   -2.9575    2.7918 C   0  0  0  0  0  0  0  0  0  0  0  0
   -5.0359   -3.6323    4.1077 C   0  0  0  0  0  0  0  0  0  0  0  0
   -4.0822   -2.6201    4.7850 C   0  0  0  0  0  0  0  0  0  0  0  0
   -4.0151   -1.4328    3.8189 C   0  0  0  0  0  0  0  0  0  0  0  0
   -5.4361   -1.2173    0.4607 C   0  0  0  0  0  0  0  0  0  0  0  0
   -5.3210   -0.5798   -0.7753 C   0  0  0  0  0  0  0  0  0  0  0  0
   -4.0926    0.0095   -1.1051 C   0  0  0  0  0  0  0  0  0  0  0  0
   -3.8754    0.6002   -2.3341 N   0  0  0  0  0  0  0  0  0  0  0  0
   -2.6199    0.9879   -2.8382 C   0  0  0  0  0  0  0  0  0  0  0  0
   -2.4821    2.2529   -3.4408 C   0  0  0  0  0  0  0  0  0  0  0  0
   -3.6210    3.0028   -3.4826 O   0  0  0  0  0  0  0  0  0  0  0  0
   -3.5607    4.2840   -4.0330 C   0  0  0  0  0  0  0  0  0  0  0  0
   -1.2629    2.6537   -3.9784 C   0  0  0  0  0  0  0  0  0  0  0  0
   -0.1299    1.8171   -3.9114 C   0  0  0  0  0  0  0  0  0  0  0  0
    1.0838    2.2487   -4.4684 N   0  0  0  0  0  0  0  0  0  0  0  0
    2.1093    1.2325   -4.6933 C   0  0  0  0  0  0  0  0  0  0  0  0
    3.2030    1.7967   -5.5991 C   0  0  0  0  0  0  0  0  0  0  0  0
    3.7930    3.0344   -5.1133 N   0  0  0  0  0  0  0  0  0  0  0  0
    2.7464    4.0063   -4.8625 C   0  0  0  0  0  0  0  0  0  0  0  0
    1.6349    3.4947   -3.9447 C   0  0  0  0  0  0  0  0  0  0  0  0
    4.7209    2.8557   -4.0127 C   0  0  0  0  0  0  0  0  0  0  0  0
   -0.2712    0.5566   -3.3195 C   0  0  0  0  0  0  0  0  0  0  0  0
   -1.5030    0.1575   -2.8057 C   0  0  0  0  0  0  0  0  0  0  0  0
   -3.0810   -0.0058   -0.2374 N   0  0  0  0  0  0  0  0  0  0  0  0
   -0.2299   -0.7363    0.3390 C   0  0  0  0  0  0  0  0  0  0  0  0
    3.9745   -1.4658   -0.5486 C   0  0  0  0  0  3  0  0  0  0  0  0
    3.7673   -1.5253    0.9105 C   0  0  0  0  0  0  0  0  0  0  0  0
    2.9697   -3.1249    1.5576 S   0  0  0  0  0  0  0  0  0  0  0  0
    2.6186   -2.5970    3.2683 C   0  0  0  0  0  0  0  0  0  0  0  0
    1.3535   -1.7263    3.4194 C   0  0  2  0  0  0  0  0  0  0  0  0
    1.3355   -1.0215    2.5730 H   0  0  0  0  0  0  0  0  0  0  0  0
    1.3394   -0.9738    4.6505 N   0  0  0  0  0  0  0  0  0  0  0  0
    2.0465    0.1717    4.8075 C   0  0  0  0  0  0  0  0  0  0  0  0
    1.6940    0.9754    6.0473 C   0  0  0  0  0  0  0  0  0  0  0  0
    2.8886    0.5524    4.0145 O   0  0  0  0  0  0  0  0  0  0  0  0
    0.0420   -2.5258    3.3979 C   0  0  0  0  0  0  0  0  0  0  0  0
   -0.1650   -3.2778    2.3084 N   0  0  0  0  0  0  0  0  0  0  0  0
   -1.4011   -3.9928    2.1030 C   0  0  0  0  0  0  0  0  0  0  0  0
   -0.7551   -2.4593    4.3305 O   0  0  0  0  0  0  0  0  0  0  0  0
    1.0211   -1.6753   -1.5496 H   0  0  0  0  0  0  0  0  0  0  0  0
    1.1916    2.4510    1.9348 H   0  0  0  0  0  0  0  0  0  0  0  0
   -0.9789    1.5296    2.7605 H   0  0  0  0  0  0  0  0  0  0  0  0
   -5.5611   -3.6637    1.9537 H   0  0  0  0  0  0  0  0  0  0  0  0
   -6.4243   -2.4355    2.9177 H   0  0  0  0  0  0  0  0  0  0  0  0
   -4.5125   -4.5771    3.9014 H   0  0  0  0  0  0  0  0  0  0  0  0
   -5.9139   -3.8745    4.7245 H   0  0  0  0  0  0  0  0  0  0  0  0
   -3.0726   -3.0381    4.8966 H   0  0  0  0  0  0  0  0  0  0  0  0
   -4.4329   -2.3113    5.7804 H   0  0  0  0  0  0  0  0  0  0  0  0
   -3.0154   -0.9870    3.7816 H   0  0  0  0  0  0  0  0  0  0  0  0
   -4.7486   -0.6438    4.0952 H   0  0  0  0  0  0  0  0  0  0  0  0
   -6.3808   -1.6980    0.7215 H   0  0  0  0  0  0  0  0  0  0  0  0
   -6.1526   -0.5744   -1.4822 H   0  0  0  0  0  0  0  0  0  0  0  0
   -4.6787    1.0016   -2.7967 H   0  0  0  0  0  0  0  0  0  0  0  0
   -4.5622    4.7225   -3.9310 H   0  0  0  0  0  0  0  0  0  0  0  0
   -3.2891    4.2633   -5.1042 H   0  0  0  0  0  0  0  0  0  0  0  0
   -2.8354    4.9256   -3.5015 H   0  0  0  0  0  0  0  0  0  0  0  0
   -1.1708    3.6154   -4.4822 H   0  0  0  0  0  0  0  0  0  0  0  0
    1.6453    0.3710   -5.1960 H   0  0  0  0  0  0  0  0  0  0  0  0
    2.5442    0.8343   -3.7574 H   0  0  0  0  0  0  0  0  0  0  0  0
    2.7705    1.9963   -6.5968 H   0  0  0  0  0  0  0  0  0  0  0  0
    3.9935    1.0407   -5.7215 H   0  0  0  0  0  0  0  0  0  0  0  0
    2.2918    4.2811   -5.8322 H   0  0  0  0  0  0  0  0  0  0  0  0
    3.1909    4.9192   -4.4329 H   0  0  0  0  0  0  0  0  0  0  0  0
    0.8430    4.2551   -3.8819 H   0  0  0  0  0  0  0  0  0  0  0  0
    2.0234    3.3482   -2.9173 H   0  0  0  0  0  0  0  0  0  0  0  0
    5.5287    2.1760   -4.3250 H   0  0  0  0  0  0  0  0  0  0  0  0
    4.2806    2.4364   -3.0891 H   0  0  0  0  0  0  0  0  0  0  0  0
    5.1793    3.8259   -3.7608 H   0  0  0  0  0  0  0  0  0  0  0  0
    0.5925   -0.1027   -3.2270 H   0  0  0  0  0  0  0  0  0  0  0  0
   -1.5971   -0.8232   -2.3382 H   0  0  0  0  0  0  0  0  0  0  0  0
   -0.6458   -1.6481   -0.0919 H   0  0  0  0  0  0  0  0  0  0  0  0
    4.9812   -1.6581   -0.9266 H   0  0  0  0  0  0  0  0  0  0  0  0
    3.1382   -0.7365    1.3439 H   0  0  0  0  0  0  0  0  0  0  0  0
    4.7293   -1.4785    1.4394 H   0  0  0  0  0  0  0  0  0  0  0  0
    3.4730   -1.9948    3.6092 H   0  0  0  0  0  0  0  0  0  0  0  0
    2.5572   -3.4910    3.9074 H   0  0  0  0  0  0  0  0  0  0  0  0
    0.5400   -1.1846    5.2428 H   0  0  0  0  0  0  0  0  0  0  0  0
    1.2617    0.3597    6.8486 H   0  0  0  0  0  0  0  0  0  0  0  0
    0.9619    1.7480    5.7660 H   0  0  0  0  0  0  0  0  0  0  0  0
    2.5972    1.4814    6.4105 H   0  0  0  0  0  0  0  0  0  0  0  0
    0.5697   -3.2792    1.5989 H   0  0  0  0  0  0  0  0  0  0  0  0
   -2.2667   -3.3228    2.2313 H   0  0  0  0  0  0  0  0  0  0  0  0
   -1.5084   -4.8310    2.8116 H   0  0  0  0  0  0  0  0  0  0  0  0
   -1.4097   -4.3969    1.0824 H   0  0  0  0  0  0  0  0  0  0  0  0
  1  2  2  0  0  0  0
  2  3  1  0  0  0  0
  2 42  1  0  0  0  0
  3  4  1  0  0  0  0
  4 41  2  0  0  0  0
  4  5  1  0  0  0  0
  5 10  2  0  0  0  0
  6  8  1  0  0  0  0
  6  5  1  0  0  0  0
  6  9  1  0  0  0  0
  7  6  1  0  0  0  0
 10 57  1  0  0  0  0
 10 11  1  0  0  0  0
 11 58  1  0  0  0  0
 12 13  1  0  0  0  0
 12 11  2  0  0  0  0
 14 15  1  0  0  0  0
 14 13  1  0  0  0  0
 15 16  1  0  0  0  0
 16 17  1  0  0  0  0
 16 20  1  0  0  0  0
 17 60  1  0  0  0  0
 17 18  1  0  0  0  0
 18 62  1  0  0  0  0
 18 19  1  0  0  0  0
 19 63  1  0  0  0  0
 19 64  1  0  0  0  0
 20 66  1  0  0  0  0
 20 19  1  0  0  0  0
 21 67  1  0  0  0  0
 21 15  2  0  0  0  0
 22 21  1  0  0  0  0
 23 22  2  0  0  0  0
 23 40  1  0  0  0  0
 24 23  1  0  0  0  0
 25 39  1  0  0  0  0
 25 24  1  0  0  0  0
 26 25  2  0  0  0  0
 27 26  1  0  0  0  0
 28 70  1  0  0  0  0
 28 72  1  0  0  0  0
 28 27  1  0  0  0  0
 29 30  2  0  0  0  0
 29 26  1  0  0  0  0
 30 38  1  0  0  0  0
 31 36  1  0  0  0  0
 31 30  1  0  0  0  0
 32 31  1  0  0  0  0
 32 75  1  0  0  0  0
 33 34  1  0  0  0  0
 33 32  1  0  0  0  0
 34 35  1  0  0  0  0
 34 37  1  0  0  0  0
 35 79  1  0  0  0  0
 35 36  1  0  0  0  0
 36 80  1  0  0  0  0
 36 81  1  0  0  0  0
 37 84  1  0  0  0  0
 37 83  1  0  0  0  0
 38 85  1  0  0  0  0
 38 39  2  0  0  0  0
 39 86  1  0  0  0  0
 40 14  2  0  0  0  0
 41 12  1  0  0  0  0
 42 43  1  0  0  0  0
 43 89  1  0  0  0  0
 43 90  1  0  0  0  0
 43 44  1  0  0  0  0
 44 45  1  0  0  0  0
 45 46  1  0  0  0  0
 45 91  1  0  0  0  0
 45 92  1  0  0  0  0
 46 47  1  6  0  0  0
 46 48  1  0  0  0  0
 48 49  1  0  0  0  0
 48 93  1  0  0  0  0
 49 50  1  0  0  0  0
 50 96  1  0  0  0  0
 50 94  1  0  0  0  0
 51 49  2  0  0  0  0
 52 46  1  0  0  0  0
 52 55  2  0  0  0  0
 53 52  1  0  0  0  0
 54 98  1  0  0  0  0
 54 53  1  0  0  0  0
 54 99  1  0  0  0  0
 56  3  1  0  0  0  0
 59 17  1  0  0  0  0
 61 18  1  0  0  0  0
 65 20  1  0  0  0  0
 68 22  1  0  0  0  0
 69 24  1  0  0  0  0
 71 28  1  0  0  0  0
 73 29  1  0  0  0  0
 74 32  1  0  0  0  0
 76 33  1  0  0  0  0
 77 33  1  0  0  0  0
 78 35  1  0  0  0  0
 82 37  1  0  0  0  0
 87 41  1  0  0  0  0
 88 42  1  0  0  0  0
 95 50  1  0  0  0  0
 97 53  1  0  0  0  0
100 54  1  0  0  0  0
M  END
