-1 1
 OpenBabel05232413493D

 92 94  0  0  1  0  0  0  0  0999 V2000
   -0.7534   -2.4863    2.5569 O   0  0  0  0  0  0  0  0  0  0  0  0
   -1.0893   -1.4208    2.0636 C   0  0  0  0  0  0  0  0  0  0  0  0
   -2.2997   -1.3226    1.4082 N   0  0  0  0  0  0  0  0  0  0  0  0
   -2.7414   -0.4146    0.4276 C   0  0  0  0  0  0  0  0  0  0  0  0
   -4.1062   -0.0773    0.3893 C   0  0  0  0  0  0  0  0  0  0  0  0
   -4.9809   -0.6450    1.3570 N   0  0  0  0  0  0  0  0  0  0  0  0
   -6.3493   -0.8686    0.9350 C   0  0  0  0  0  0  0  0  0  0  0  0
   -6.9788   -2.0682    1.6436 C   0  0  0  0  0  0  0  0  0  0  0  0
   -8.3252   -2.3517    1.1802 N   0  0  0  0  0  0  0  0  0  0  0  0
   -9.3097   -1.4250    1.6890 C   0  0  0  0  0  0  0  0  0  0  0  0
   -8.7140   -3.7211    1.4200 C   0  0  0  0  0  0  0  0  0  0  0  0
   -4.8588   -0.0216    2.6661 C   0  0  0  0  0  0  0  0  0  0  0  0
   -4.5327    0.8134   -0.6030 C   0  0  0  0  0  0  0  0  0  0  0  0
   -3.6415    1.3543   -1.5204 C   0  0  0  0  0  0  0  0  0  0  0  0
   -4.0806    2.2379   -2.4760 O   0  0  0  0  0  0  0  0  0  0  0  0
   -4.4732    1.6291   -3.6842 C   0  0  0  0  0  0  0  0  0  0  0  0
   -2.2732    1.0215   -1.4786 C   0  0  0  0  0  0  0  0  0  0  0  0
   -1.4398    1.6337   -2.4086 N   0  0  0  0  0  0  0  0  0  0  0  0
   -0.0960    1.4512   -2.6432 C   0  0  0  0  0  0  0  0  0  0  0  0
    0.5295    0.4413   -2.0539 N   0  0  0  0  0  0  0  0  0  0  0  0
    1.8389    0.2850   -2.2828 C   0  0  0  0  0  0  0  0  0  0  0  0
    2.4874   -0.8071   -1.5638 C   0  0  0  0  0  0  0  0  0  0  0  0
    2.0464   -1.2703   -0.3445 C   0  0  0  0  0  0  0  0  0  0  0  0
    2.8754   -2.2319    0.1431 N   0  0  0  0  0  0  0  0  0  0  0  0
    2.7472   -2.8658    1.4387 C   0  0  0  0  0  0  0  0  0  0  0  0
    3.6793   -1.5545   -1.8656 C   0  0  0  0  0  0  0  0  0  0  0  0
    3.8952   -2.4242   -0.7624 C   0  0  0  0  0  0  0  0  0  0  0  0
    4.9849   -3.3015   -0.7090 C   0  0  0  0  0  0  0  0  0  0  0  0
    5.8489   -3.3244   -1.7953 C   0  0  0  0  0  0  0  0  0  0  0  0
    5.6290   -2.5005   -2.9162 C   0  0  0  0  0  0  0  0  0  0  0  0
    4.5573   -1.6210   -2.9599 C   0  0  0  0  0  0  0  0  0  0  0  0
    2.5182    1.1725   -3.1257 C   0  0  0  0  0  0  0  0  0  0  0  0
    1.7534    2.1793   -3.7077 C   0  0  0  0  0  0  0  0  0  0  0  0
    0.4517    2.3282   -3.4963 N   0  0  0  0  0  0  0  0  0  0  0  0
   -1.8539    0.1075   -0.5107 C   0  0  0  0  0  0  0  0  0  0  0  0
   -0.2379   -0.2088    2.2292 C   0  0  0  0  0  0  0  0  0  0  0  0
   -0.6645    1.0575    2.2463 C   0  0  0  0  0  0  0  0  0  0  0  0
    1.5212    3.7453    1.4120 S   0  0  0  0  0  1  0  0  0  0  0  0
    2.3533    2.3624    0.5452 C   0  0  0  0  0  0  0  0  0  0  0  0
    3.6265    1.8483    1.2587 C   0  0  2  0  0  0  0  0  0  0  0  0
    4.1970    2.7468    1.5519 H   0  0  0  0  0  0  0  0  0  0  0  0
    4.4734    0.9974    0.4492 N   0  0  0  0  0  0  0  0  0  0  0  0
    5.3316    1.4595   -0.4872 C   0  0  0  0  0  0  0  0  0  0  0  0
    6.3588    0.4498   -0.9748 C   0  0  0  0  0  0  0  0  0  0  0  0
    5.3354    2.6077   -0.8994 O   0  0  0  0  0  0  0  0  0  0  0  0
    3.2992    1.0358    2.5191 C   0  0  0  0  0  0  0  0  0  0  0  0
    2.6013    1.7022    3.4491 N   0  0  0  0  0  0  0  0  0  0  0  0
    2.1440    1.0921    4.6683 C   0  0  0  0  0  0  0  0  0  0  0  0
    3.6605   -0.1389    2.6377 O   0  0  0  0  0  0  0  0  0  0  0  0
   -2.9216   -2.1073    1.5806 H   0  0  0  0  0  0  0  0  0  0  0  0
   -6.3584   -1.0893   -0.1416 H   0  0  0  0  0  0  0  0  0  0  0  0
   -6.9736    0.0395    1.0794 H   0  0  0  0  0  0  0  0  0  0  0  0
   -6.9540   -1.9320    2.7486 H   0  0  0  0  0  0  0  0  0  0  0  0
   -6.3412   -2.9386    1.4268 H   0  0  0  0  0  0  0  0  0  0  0  0
   -9.0401   -0.3891    1.4403 H   0  0  0  0  0  0  0  0  0  0  0  0
   -9.4298   -1.4863    2.7959 H   0  0  0  0  0  0  0  0  0  0  0  0
  -10.2911   -1.6276    1.2328 H   0  0  0  0  0  0  0  0  0  0  0  0
   -8.7685   -3.9794    2.5030 H   0  0  0  0  0  0  0  0  0  0  0  0
   -7.9988   -4.4100    0.9461 H   0  0  0  0  0  0  0  0  0  0  0  0
   -9.7063   -3.9139    0.9827 H   0  0  0  0  0  0  0  0  0  0  0  0
   -3.8012    0.0330    2.9564 H   0  0  0  0  0  0  0  0  0  0  0  0
   -5.3807   -0.6163    3.4299 H   0  0  0  0  0  0  0  0  0  0  0  0
   -5.2770    1.0065    2.6779 H   0  0  0  0  0  0  0  0  0  0  0  0
   -5.5776    1.1217   -0.6674 H   0  0  0  0  0  0  0  0  0  0  0  0
   -4.7850    2.4294   -4.3690 H   0  0  0  0  0  0  0  0  0  0  0  0
   -5.3207    0.9379   -3.5283 H   0  0  0  0  0  0  0  0  0  0  0  0
   -3.6417    1.0656   -4.1435 H   0  0  0  0  0  0  0  0  0  0  0  0
   -1.8307    2.4459   -2.8714 H   0  0  0  0  0  0  0  0  0  0  0  0
    1.1937   -0.9282    0.2351 H   0  0  0  0  0  0  0  0  0  0  0  0
    1.7034   -2.7932    1.7747 H   0  0  0  0  0  0  0  0  0  0  0  0
    3.3854   -2.3598    2.1767 H   0  0  0  0  0  0  0  0  0  0  0  0
    3.0101   -3.9302    1.3569 H   0  0  0  0  0  0  0  0  0  0  0  0
    5.1506   -3.9443    0.1576 H   0  0  0  0  0  0  0  0  0  0  0  0
    6.7107   -3.9957   -1.7818 H   0  0  0  0  0  0  0  0  0  0  0  0
    6.3210   -2.5497   -3.7601 H   0  0  0  0  0  0  0  0  0  0  0  0
    4.4001   -0.9861   -3.8340 H   0  0  0  0  0  0  0  0  0  0  0  0
    3.5969    1.1268   -3.2661 H   0  0  0  0  0  0  0  0  0  0  0  0
    2.2238    2.9117   -4.3730 H   0  0  0  0  0  0  0  0  0  0  0  0
   -0.8117   -0.1873   -0.5036 H   0  0  0  0  0  0  0  0  0  0  0  0
    0.8088   -0.4415    2.4519 H   0  0  0  0  0  0  0  0  0  0  0  0
    0.0227    1.9068    2.3834 H   0  0  0  0  0  0  0  0  0  0  0  0
   -1.7117    1.3118    2.0596 H   0  0  0  0  0  0  0  0  0  0  0  0
    2.6763    2.6927   -0.4524 H   0  0  0  0  0  0  0  0  0  0  0  0
    1.6598    1.5146    0.4007 H   0  0  0  0  0  0  0  0  0  0  0  0
    4.5616    0.0491    0.8040 H   0  0  0  0  0  0  0  0  0  0  0  0
    6.4177    0.4963   -2.0698 H   0  0  0  0  0  0  0  0  0  0  0  0
    6.1503   -0.5846   -0.6703 H   0  0  0  0  0  0  0  0  0  0  0  0
    7.3400    0.7515   -0.5771 H   0  0  0  0  0  0  0  0  0  0  0  0
    2.2011    2.6113    3.1237 H   0  0  0  0  0  0  0  0  0  0  0  0
    2.5993    0.0972    4.7595 H   0  0  0  0  0  0  0  0  0  0  0  0
    1.0476    0.9760    4.6750 H   0  0  0  0  0  0  0  0  0  0  0  0
    2.4315    1.6990    5.5421 H   0  0  0  0  0  0  0  0  0  0  0  0
  2 36  1  0  0  0  0
  2  1  2  0  0  0  0
  3 50  1  0  0  0  0
  3  2  1  0  0  0  0
  4  3  1  0  0  0  0
  5  4  1  0  0  0  0
  5  6  1  0  0  0  0
  6 12  1  0  0  0  0
  7 52  1  0  0  0  0
  7  6  1  0  0  0  0
  7  8  1  0  0  0  0
  8 53  1  0  0  0  0
  9 11  1  0  0  0  0
  9  8  1  0  0  0  0
  9 10  1  0  0  0  0
 10 56  1  0  0  0  0
 11 58  1  0  0  0  0
 12 63  1  0  0  0  0
 12 61  1  0  0  0  0
 12 62  1  0  0  0  0
 13  5  2  0  0  0  0
 14 17  2  0  0  0  0
 14 13  1  0  0  0  0
 15 14  1  0  0  0  0
 16 66  1  0  0  0  0
 16 15  1  0  0  0  0
 17 35  1  0  0  0  0
 18 17  1  0  0  0  0
 19 18  1  0  0  0  0
 19 20  2  0  0  0  0
 21 20  1  0  0  0  0
 21 22  1  0  0  0  0
 22 23  2  0  0  0  0
 23 24  1  0  0  0  0
 23 69  1  0  0  0  0
 24 25  1  0  0  0  0
 25 70  1  0  0  0  0
 25 71  1  0  0  0  0
 26 22  1  0  0  0  0
 26 27  1  0  0  0  0
 27 28  2  0  0  0  0
 27 24  1  0  0  0  0
 28 73  1  0  0  0  0
 29 74  1  0  0  0  0
 29 28  1  0  0  0  0
 30 29  2  0  0  0  0
 31 30  1  0  0  0  0
 31 26  2  0  0  0  0
 32 21  2  0  0  0  0
 33 34  2  0  0  0  0
 33 32  1  0  0  0  0
 34 19  1  0  0  0  0
 35 79  1  0  0  0  0
 35  4  2  0  0  0  0
 36 37  2  0  0  0  0
 36 80  1  0  0  0  0
 37 81  1  0  0  0  0
 39 40  1  0  0  0  0
 39 38  1  0  0  0  0
 40 41  1  1  0  0  0
 40 46  1  0  0  0  0
 42 85  1  0  0  0  0
 42 40  1  0  0  0  0
 43 42  1  0  0  0  0
 44 87  1  0  0  0  0
 44 88  1  0  0  0  0
 44 43  1  0  0  0  0
 45 43  2  0  0  0  0
 46 49  2  0  0  0  0
 46 47  1  0  0  0  0
 47 48  1  0  0  0  0
 48 91  1  0  0  0  0
 48 90  1  0  0  0  0
 48 92  1  0  0  0  0
 51  7  1  0  0  0  0
 54  8  1  0  0  0  0
 55 10  1  0  0  0  0
 57 10  1  0  0  0  0
 59 11  1  0  0  0  0
 60 11  1  0  0  0  0
 64 13  1  0  0  0  0
 65 16  1  0  0  0  0
 67 16  1  0  0  0  0
 68 18  1  0  0  0  0
 72 25  1  0  0  0  0
 75 30  1  0  0  0  0
 76 31  1  0  0  0  0
 77 32  1  0  0  0  0
 78 33  1  0  0  0  0
 82 37  1  0  0  0  0
 83 39  1  0  0  0  0
 84 39  1  0  0  0  0
 86 44  1  0  0  0  0
 89 47  1  0  0  0  0
M  END
