92
-1 1
O         9.143957   10.094195    0.285000
C         8.765640   11.267927    0.280176
N         7.453804   11.523935   -0.159261
C         7.036698   12.458805   -1.115826
C         5.652700   12.719754   -1.236945
N         4.755152   12.075670   -0.342112
C         3.402215   11.886373   -0.817902
C         2.686772   10.743669   -0.096950
N         1.484624   10.303462   -0.782339
C         0.431807   11.291926   -0.784245
C         1.019305    9.031540   -0.284837
C         4.841011   12.568687    1.023521
C         5.227694   13.575996   -2.256505
C         6.131994   14.132181   -3.154504
O         5.688394   14.944655   -4.173671
C         5.379654   14.252845   -5.359289
C         7.505157   13.871286   -3.037135
N         8.348439   14.434269   -3.995217
C         9.590912   14.035963   -4.410666
N        10.142457   12.953345   -3.874244
C        11.381829   12.616548   -4.252613
C        12.014622   11.525058   -3.517286
C        11.552198   11.084437   -2.291940
N        12.450761   10.258704   -1.697649
C        12.340633    9.741767   -0.347437
C        13.286776   10.872682   -3.714805
C        13.534171   10.117986   -2.535857
C        14.710133    9.383547   -2.347769
C        15.637879    9.372584   -3.380288
C        15.390145   10.066040   -4.579970
C        14.230386   10.807585   -4.754733
C        12.044970   13.371173   -5.231695
C        11.353969   14.460318   -5.751645
N        10.135961   14.810462   -5.365554
C         7.939948   13.059678   -1.989252
C         9.548024   12.342098    0.851793
C         9.090066   13.600954    1.168427
S        10.122726   15.447734   -0.219754
C        11.295851   14.368568   -1.070385
C        12.748670   14.365246   -0.537359
H        13.070067   15.415534   -0.447625
N        13.666137   13.681899   -1.418341
C        14.313871   14.305303   -2.430234
C        15.421315   13.499198   -3.084643
O        14.064035   15.445081   -2.784431
C        12.861811   13.676710    0.825068
N        12.255128   14.328855    1.835233
C        12.135023   13.735780    3.141884
O        13.465229   12.616095    0.967897
H         6.893024   10.676354   -0.170513
H         3.439575   11.617452   -1.883778
H         2.807308   12.823505   -0.737901
H         2.460700   11.021371    0.958827
H         3.393063    9.899786   -0.057626
H         0.761186   12.217673   -1.276324
H         0.084182   11.558111    0.241850
H        -0.436790   10.913328   -1.344813
H         0.700086    9.067716    0.783215
H         1.814611    8.275826   -0.370224
H         0.158833    8.684127   -0.877991
H         5.894740   12.642837    1.320325
H         4.352570   11.872246    1.720993
H         4.365889   13.566136    1.135481
H         4.172776   13.824450   -2.380994
H         5.053716   14.996106   -6.100288
H         4.564926   13.523534   -5.199480
H         6.257813   13.712309   -5.755338
H         7.986037   15.244579   -4.482149
H        10.625884   11.335266   -1.783260
H        11.285691    9.781273   -0.035479
H        12.942594   10.354565    0.341350
H        12.680283    8.695981   -0.322414
H        14.889565    8.837950   -1.419560
H        16.566996    8.809745   -3.263973
H        16.127112   10.022615   -5.385369
H        14.059230   11.330116   -5.697054
H        13.069221   13.164932   -5.532058
H        11.822506   15.093199   -6.514290
H         8.997628   12.846536   -1.896871
H        10.530217   12.015678    1.204565
H         9.546292   14.149631    1.987861
H         8.066517   13.895915    0.927122
H        11.355412   14.650440   -2.130018
H        10.913236   13.331965   -1.018379
H        13.966168   12.767287   -1.094606
H        15.251284   13.477244   -4.169040
H        15.501153   12.467257   -2.717563
H        16.371336   14.025869   -2.910073
H        11.582690   15.049206    1.532335
H        13.066444   13.209147    3.390079
H        11.310034   13.002856    3.196564
H        11.955533   14.521962    3.888814
