-1 1
 OpenBabel05232414493D

 92 94  0  0  1  0  0  0  0  0999 V2000
    9.1440   10.0942    0.2850 O   0  0  0  0  0  0  0  0  0  0  0  0
    8.7656   11.2679    0.2802 C   0  0  0  0  0  0  0  0  0  0  0  0
    7.4538   11.5239   -0.1593 N   0  0  0  0  0  0  0  0  0  0  0  0
    7.0367   12.4588   -1.1158 C   0  0  0  0  0  0  0  0  0  0  0  0
    5.6527   12.7198   -1.2369 C   0  0  0  0  0  0  0  0  0  0  0  0
    4.7552   12.0757   -0.3421 N   0  0  0  0  0  0  0  0  0  0  0  0
    3.4022   11.8864   -0.8179 C   0  0  0  0  0  0  0  0  0  0  0  0
    2.6868   10.7437   -0.0969 C   0  0  0  0  0  0  0  0  0  0  0  0
    1.4846   10.3035   -0.7823 N   0  0  0  0  0  0  0  0  0  0  0  0
    0.4318   11.2919   -0.7842 C   0  0  0  0  0  0  0  0  0  0  0  0
    1.0193    9.0315   -0.2848 C   0  0  0  0  0  0  0  0  0  0  0  0
    4.8410   12.5687    1.0235 C   0  0  0  0  0  0  0  0  0  0  0  0
    5.2277   13.5760   -2.2565 C   0  0  0  0  0  0  0  0  0  0  0  0
    6.1320   14.1322   -3.1545 C   0  0  0  0  0  0  0  0  0  0  0  0
    5.6884   14.9447   -4.1737 O   0  0  0  0  0  0  0  0  0  0  0  0
    5.3797   14.2528   -5.3593 C   0  0  0  0  0  0  0  0  0  0  0  0
    7.5052   13.8713   -3.0371 C   0  0  0  0  0  0  0  0  0  0  0  0
    8.3484   14.4343   -3.9952 N   0  0  0  0  0  0  0  0  0  0  0  0
    9.5909   14.0360   -4.4107 C   0  0  0  0  0  0  0  0  0  0  0  0
   10.1425   12.9533   -3.8742 N   0  0  0  0  0  0  0  0  0  0  0  0
   11.3818   12.6165   -4.2526 C   0  0  0  0  0  0  0  0  0  0  0  0
   12.0146   11.5251   -3.5173 C   0  0  0  0  0  0  0  0  0  0  0  0
   11.5522   11.0844   -2.2919 C   0  0  0  0  0  0  0  0  0  0  0  0
   12.4508   10.2587   -1.6976 N   0  0  0  0  0  0  0  0  0  0  0  0
   12.3406    9.7418   -0.3474 C   0  0  0  0  0  0  0  0  0  0  0  0
   13.2868   10.8727   -3.7148 C   0  0  0  0  0  0  0  0  0  0  0  0
   13.5342   10.1180   -2.5359 C   0  0  0  0  0  0  0  0  0  0  0  0
   14.7101    9.3835   -2.3478 C   0  0  0  0  0  0  0  0  0  0  0  0
   15.6379    9.3726   -3.3803 C   0  0  0  0  0  0  0  0  0  0  0  0
   15.3901   10.0660   -4.5800 C   0  0  0  0  0  0  0  0  0  0  0  0
   14.2304   10.8076   -4.7547 C   0  0  0  0  0  0  0  0  0  0  0  0
   12.0450   13.3712   -5.2317 C   0  0  0  0  0  0  0  0  0  0  0  0
   11.3540   14.4603   -5.7516 C   0  0  0  0  0  0  0  0  0  0  0  0
   10.1360   14.8105   -5.3656 N   0  0  0  0  0  0  0  0  0  0  0  0
    7.9399   13.0597   -1.9893 C   0  0  0  0  0  0  0  0  0  0  0  0
    9.5480   12.3421    0.8518 C   0  0  0  0  0  3  0  0  0  0  0  0
    9.0901   13.6010    1.1684 C   0  0  0  0  0  3  0  0  0  0  0  0
   10.1227   15.4477   -0.2198 S   0  0  0  0  0  1  0  0  0  0  0  0
   11.2959   14.3686   -1.0704 C   0  0  0  0  0  0  0  0  0  0  0  0
   12.7487   14.3652   -0.5374 C   0  0  2  0  0  0  0  0  0  0  0  0
   13.0701   15.4155   -0.4476 H   0  0  0  0  0  0  0  0  0  0  0  0
   13.6661   13.6819   -1.4183 N   0  0  0  0  0  0  0  0  0  0  0  0
   14.3139   14.3053   -2.4302 C   0  0  0  0  0  0  0  0  0  0  0  0
   15.4213   13.4992   -3.0846 C   0  0  0  0  0  0  0  0  0  0  0  0
   14.0640   15.4451   -2.7844 O   0  0  0  0  0  0  0  0  0  0  0  0
   12.8618   13.6767    0.8251 C   0  0  0  0  0  0  0  0  0  0  0  0
   12.2551   14.3289    1.8352 N   0  0  0  0  0  0  0  0  0  0  0  0
   12.1350   13.7358    3.1419 C   0  0  0  0  0  0  0  0  0  0  0  0
   13.4652   12.6161    0.9679 O   0  0  0  0  0  0  0  0  0  0  0  0
    6.8930   10.6764   -0.1705 H   0  0  0  0  0  0  0  0  0  0  0  0
    3.4396   11.6175   -1.8838 H   0  0  0  0  0  0  0  0  0  0  0  0
    2.8073   12.8235   -0.7379 H   0  0  0  0  0  0  0  0  0  0  0  0
    2.4607   11.0214    0.9588 H   0  0  0  0  0  0  0  0  0  0  0  0
    3.3931    9.8998   -0.0576 H   0  0  0  0  0  0  0  0  0  0  0  0
    0.7612   12.2177   -1.2763 H   0  0  0  0  0  0  0  0  0  0  0  0
    0.0842   11.5581    0.2419 H   0  0  0  0  0  0  0  0  0  0  0  0
   -0.4368   10.9133   -1.3448 H   0  0  0  0  0  0  0  0  0  0  0  0
    0.7001    9.0677    0.7832 H   0  0  0  0  0  0  0  0  0  0  0  0
    1.8146    8.2758   -0.3702 H   0  0  0  0  0  0  0  0  0  0  0  0
    0.1588    8.6841   -0.8780 H   0  0  0  0  0  0  0  0  0  0  0  0
    5.8947   12.6428    1.3203 H   0  0  0  0  0  0  0  0  0  0  0  0
    4.3526   11.8722    1.7210 H   0  0  0  0  0  0  0  0  0  0  0  0
    4.3659   13.5661    1.1355 H   0  0  0  0  0  0  0  0  0  0  0  0
    4.1728   13.8245   -2.3810 H   0  0  0  0  0  0  0  0  0  0  0  0
    5.0537   14.9961   -6.1003 H   0  0  0  0  0  0  0  0  0  0  0  0
    4.5649   13.5235   -5.1995 H   0  0  0  0  0  0  0  0  0  0  0  0
    6.2578   13.7123   -5.7553 H   0  0  0  0  0  0  0  0  0  0  0  0
    7.9860   15.2446   -4.4821 H   0  0  0  0  0  0  0  0  0  0  0  0
   10.6259   11.3353   -1.7833 H   0  0  0  0  0  0  0  0  0  0  0  0
   11.2857    9.7813   -0.0355 H   0  0  0  0  0  0  0  0  0  0  0  0
   12.9426   10.3546    0.3413 H   0  0  0  0  0  0  0  0  0  0  0  0
   12.6803    8.6960   -0.3224 H   0  0  0  0  0  0  0  0  0  0  0  0
   14.8896    8.8379   -1.4196 H   0  0  0  0  0  0  0  0  0  0  0  0
   16.5670    8.8097   -3.2640 H   0  0  0  0  0  0  0  0  0  0  0  0
   16.1271   10.0226   -5.3854 H   0  0  0  0  0  0  0  0  0  0  0  0
   14.0592   11.3301   -5.6971 H   0  0  0  0  0  0  0  0  0  0  0  0
   13.0692   13.1649   -5.5321 H   0  0  0  0  0  0  0  0  0  0  0  0
   11.8225   15.0932   -6.5143 H   0  0  0  0  0  0  0  0  0  0  0  0
    8.9976   12.8465   -1.8969 H   0  0  0  0  0  0  0  0  0  0  0  0
   10.5302   12.0157    1.2046 H   0  0  0  0  0  0  0  0  0  0  0  0
    9.5463   14.1496    1.9879 H   0  0  0  0  0  0  0  0  0  0  0  0
    8.0665   13.8959    0.9271 H   0  0  0  0  0  0  0  0  0  0  0  0
   11.3554   14.6504   -2.1300 H   0  0  0  0  0  0  0  0  0  0  0  0
   10.9132   13.3320   -1.0184 H   0  0  0  0  0  0  0  0  0  0  0  0
   13.9662   12.7673   -1.0946 H   0  0  0  0  0  0  0  0  0  0  0  0
   15.2513   13.4772   -4.1690 H   0  0  0  0  0  0  0  0  0  0  0  0
   15.5012   12.4673   -2.7176 H   0  0  0  0  0  0  0  0  0  0  0  0
   16.3713   14.0259   -2.9101 H   0  0  0  0  0  0  0  0  0  0  0  0
   11.5827   15.0492    1.5323 H   0  0  0  0  0  0  0  0  0  0  0  0
   13.0664   13.2091    3.3901 H   0  0  0  0  0  0  0  0  0  0  0  0
   11.3100   13.0029    3.1966 H   0  0  0  0  0  0  0  0  0  0  0  0
   11.9555   14.5220    3.8888 H   0  0  0  0  0  0  0  0  0  0  0  0
  2  1  2  0  0  0  0
  2 36  1  0  0  0  0
  3  2  1  0  0  0  0
  4  3  1  0  0  0  0
  5  4  1  0  0  0  0
  5  6  1  0  0  0  0
  6 12  1  0  0  0  0
  7 52  1  0  0  0  0
  7  6  1  0  0  0  0
  7  8  1  0  0  0  0
  8 54  1  0  0  0  0
  8 53  1  0  0  0  0
  9 11  1  0  0  0  0
  9  8  1  0  0  0  0
 10  9  1  0  0  0  0
 10 56  1  0  0  0  0
 11 58  1  0  0  0  0
 12 63  1  0  0  0  0
 12 61  1  0  0  0  0
 12 62  1  0  0  0  0
 13  5  2  0  0  0  0
 14 17  2  0  0  0  0
 14 13  1  0  0  0  0
 15 14  1  0  0  0  0
 16 66  1  0  0  0  0
 16 15  1  0  0  0  0
 17 35  1  0  0  0  0
 18 17  1  0  0  0  0
 19 18  1  0  0  0  0
 19 20  2  0  0  0  0
 21 20  1  0  0  0  0
 21 22  1  0  0  0  0
 22 23  2  0  0  0  0
 23 69  1  0  0  0  0
 23 24  1  0  0  0  0
 24 25  1  0  0  0  0
 25 72  1  0  0  0  0
 25 70  1  0  0  0  0
 25 71  1  0  0  0  0
 26 22  1  0  0  0  0
 26 27  1  0  0  0  0
 27 28  2  0  0  0  0
 27 24  1  0  0  0  0
 28 73  1  0  0  0  0
 29 74  1  0  0  0  0
 29 28  1  0  0  0  0
 30 29  2  0  0  0  0
 31 30  1  0  0  0  0
 31 26  2  0  0  0  0
 32 21  2  0  0  0  0
 33 34  2  0  0  0  0
 33 32  1  0  0  0  0
 34 19  1  0  0  0  0
 35 79  1  0  0  0  0
 35  4  2  0  0  0  0
 36 37  1  0  0  0  0
 36 80  1  0  0  0  0
 37 81  1  0  0  0  0
 39 84  1  0  0  0  0
 39 40  1  0  0  0  0
 39 38  1  0  0  0  0
 40 41  1  1  0  0  0
 40 46  1  0  0  0  0
 42 85  1  0  0  0  0
 42 40  1  0  0  0  0
 43 42  1  0  0  0  0
 44 88  1  0  0  0  0
 44 87  1  0  0  0  0
 44 43  1  0  0  0  0
 45 43  2  0  0  0  0
 46 49  2  0  0  0  0
 46 47  1  0  0  0  0
 47 48  1  0  0  0  0
 48 91  1  0  0  0  0
 48 90  1  0  0  0  0
 48 92  1  0  0  0  0
 50  3  1  0  0  0  0
 51  7  1  0  0  0  0
 55 10  1  0  0  0  0
 57 10  1  0  0  0  0
 59 11  1  0  0  0  0
 60 11  1  0  0  0  0
 64 13  1  0  0  0  0
 65 16  1  0  0  0  0
 67 16  1  0  0  0  0
 68 18  1  0  0  0  0
 75 30  1  0  0  0  0
 76 31  1  0  0  0  0
 77 32  1  0  0  0  0
 78 33  1  0  0  0  0
 82 37  1  0  0  0  0
 83 39  1  0  0  0  0
 86 44  1  0  0  0  0
 89 47  1  0  0  0  0
M  END
