-1 1
 OpenBabel05232414493D

 75 77  0  0  1  0  0  0  0  0999 V2000
   12.3742    5.3983   -5.3069 O   0  0  0  0  0  0  0  0  0  0  0  0
   11.4798    5.5325   -6.1660 C   0  0  0  0  0  0  0  0  0  0  0  0
   11.6101    6.5562   -7.0843 N   0  0  0  0  0  0  0  0  0  0  0  0
   12.6673    7.5311   -6.9558 C   0  0  2  0  0  0  0  0  0  0  0  0
   12.8729    7.6667   -5.8847 H   0  0  0  0  0  0  0  0  0  0  0  0
   12.3516    8.8458   -7.6832 C   0  0  0  0  0  0  0  0  0  0  0  0
   12.7588    8.6264   -9.1557 C   0  0  1  0  0  0  0  0  0  0  0  0
   13.7068    7.3864   -9.1260 C   0  0  0  0  0  0  0  0  0  0  0  0
   13.9614    7.1022   -7.6586 C   0  0  1  0  0  0  0  0  0  0  0  0
   14.2419    6.0642   -7.4392 H   0  0  0  0  0  0  0  0  0  0  0  0
   14.9925    7.9239   -7.1971 F   0  0  0  0  0  0  0  0  0  0  0  0
   11.6225    8.3775  -10.1255 C   0  0  0  0  0  0  0  0  0  0  0  0
   10.3937    8.1774   -9.6244 N   0  0  0  0  0  0  0  0  0  0  0  0
    9.3965    7.8189  -10.4326 C   0  0  2  0  0  3  0  0  0  0  0  0
    8.1646    7.5527   -9.9416 N   0  0  0  0  0  0  0  0  0  0  0  0
    7.8275    7.3849   -8.5996 C   0  0  0  0  0  0  0  0  0  0  0  0
    6.7161    6.6333   -8.1523 C   0  0  0  0  0  0  0  0  0  0  0  0
    5.8311    6.0597   -8.9833 O   0  0  0  0  0  0  0  0  0  0  0  0
    4.9640    5.1153   -8.4021 C   0  0  0  0  0  0  0  0  0  0  0  0
    6.6544    6.5692   -6.8379 N   0  0  0  0  0  0  0  0  0  0  0  0
    7.7084    7.2793   -6.4095 N   0  0  0  0  0  0  0  0  0  0  0  0
    8.1020    7.2181   -5.0239 C   0  0  0  0  0  0  0  0  0  0  0  0
    8.4443    7.7845   -7.4295 C   0  0  0  0  0  0  0  0  0  0  0  0
   11.9744    8.3194  -11.4070 N   0  0  0  0  0  2  0  0  0  0  0  0
   10.9649    7.9699  -12.1986 C   0  0  0  0  0  0  0  0  0  0  0  0
    9.6537    7.7130  -11.8170 C   0  0  0  0  0  0  0  0  0  0  0  0
    8.8874    7.3309  -12.8935 N   0  0  0  0  0  0  0  0  0  0  0  0
    9.7188    7.3567  -13.8981 C   0  0  0  0  0  0  0  0  0  0  0  0
   10.9962    7.7397  -13.5537 N   0  0  0  0  0  0  0  0  0  0  0  0
   12.1666    7.8304  -14.3905 C   0  0  0  0  0  0  0  0  0  0  0  0
   10.3105    4.6825   -6.2069 C   0  0  0  0  0  3  0  0  0  0  0  0
    9.4162    4.5258   -7.2548 C   0  0  0  0  0  3  0  0  0  0  0  0
    9.8830    2.5861   -8.6180 S   0  0  0  0  0  1  0  0  0  0  0  0
   11.5764    2.4837   -8.0140 C   0  0  0  0  0  0  0  0  0  0  0  0
   12.5383    3.5361   -8.6163 C   0  0  2  0  0  0  0  0  0  0  0  0
   12.2198    4.5308   -8.2854 H   0  0  0  0  0  0  0  0  0  0  0  0
   12.5065    3.5613  -10.0556 N   0  0  0  0  0  0  0  0  0  0  0  0
   11.7458    4.4431  -10.7398 C   0  0  0  0  0  0  0  0  0  0  0  0
   11.5287    4.1315  -12.2053 C   0  0  0  0  0  0  0  0  0  0  0  0
   11.2540    5.4424  -10.2344 O   0  0  0  0  0  0  0  0  0  0  0  0
   13.9577    3.2496   -8.1364 C   0  0  0  0  0  0  0  0  0  0  0  0
   14.2217    3.6643   -6.8727 N   0  0  0  0  0  0  0  0  0  0  0  0
   15.4900    3.4248   -6.2363 C   0  0  0  0  0  0  0  0  0  0  0  0
   14.7593    2.6447   -8.8356 O   0  0  0  0  0  0  0  0  0  0  0  0
   10.9685    6.6369   -7.8675 H   0  0  0  0  0  0  0  0  0  0  0  0
   12.9876    9.6294   -7.2493 H   0  0  0  0  0  0  0  0  0  0  0  0
   11.3057    9.1580   -7.5783 H   0  0  0  0  0  0  0  0  0  0  0  0
   13.3084    9.4984   -9.5395 H   0  0  0  0  0  0  0  0  0  0  0  0
   14.6455    7.5498   -9.6717 H   0  0  0  0  0  0  0  0  0  0  0  0
   13.1999    6.5208   -9.5732 H   0  0  0  0  0  0  0  0  0  0  0  0
    7.5000    7.1805  -10.6100 H   0  0  0  0  0  0  0  0  0  0  0  0
    4.3550    4.7041   -9.2168 H   0  0  0  0  0  0  0  0  0  0  0  0
    4.3122    5.5829   -7.6462 H   0  0  0  0  0  0  0  0  0  0  0  0
    5.5315    4.3052   -7.9160 H   0  0  0  0  0  0  0  0  0  0  0  0
    7.2001    7.2318   -4.3986 H   0  0  0  0  0  0  0  0  0  0  0  0
    8.7230    8.0926   -4.7891 H   0  0  0  0  0  0  0  0  0  0  0  0
    8.6866    6.3031   -4.8353 H   0  0  0  0  0  0  0  0  0  0  0  0
    9.3655    8.3293   -7.2652 H   0  0  0  0  0  0  0  0  0  0  0  0
    9.4686    7.1060  -14.9301 H   0  0  0  0  0  0  0  0  0  0  0  0
   12.3843    6.8649  -14.8706 H   0  0  0  0  0  0  0  0  0  0  0  0
   13.0095    8.1024  -13.7417 H   0  0  0  0  0  0  0  0  0  0  0  0
   12.0459    8.6020  -15.1657 H   0  0  0  0  0  0  0  0  0  0  0  0
   10.2355    4.0306   -5.3323 H   0  0  0  0  0  0  0  0  0  0  0  0
    9.4495    5.1979   -8.1153 H   0  0  0  0  0  0  0  0  0  0  0  0
    8.4336    4.1024   -7.0518 H   0  0  0  0  0  0  0  0  0  0  0  0
   11.9837    1.4764   -8.2030 H   0  0  0  0  0  0  0  0  0  0  0  0
   11.5803    2.6413   -6.9206 H   0  0  0  0  0  0  0  0  0  0  0  0
   12.8861    2.7500  -10.5255 H   0  0  0  0  0  0  0  0  0  0  0  0
   11.5231    5.0721  -12.7721 H   0  0  0  0  0  0  0  0  0  0  0  0
   10.5352    3.6683  -12.2975 H   0  0  0  0  0  0  0  0  0  0  0  0
   12.2803    3.4446  -12.6199 H   0  0  0  0  0  0  0  0  0  0  0  0
   13.5154    4.1788   -6.3334 H   0  0  0  0  0  0  0  0  0  0  0  0
   16.1501    2.9328   -6.9623 H   0  0  0  0  0  0  0  0  0  0  0  0
   15.3828    2.7735   -5.3532 H   0  0  0  0  0  0  0  0  0  0  0  0
   15.9520    4.3710   -5.9114 H   0  0  0  0  0  0  0  0  0  0  0  0
  2  1  2  0  0  0  0
  3  4  1  0  0  0  0
  3  2  1  0  0  0  0
  4  5  1  1  0  0  0
  6 47  1  0  0  0  0
  6 46  1  0  0  0  0
  6  4  1  0  0  0  0
  7 48  1  6  0  0  0
  7  8  1  0  0  0  0
  7  6  1  0  0  0  0
  8  9  1  0  0  0  0
  9 10  1  1  0  0  0
  9 11  1  0  0  0  0
  9  4  1  0  0  0  0
 12 13  2  0  0  0  0
 12  7  1  0  0  0  0
 14 15  1  1  0  0  0
 14 13  1  0  0  0  0
 15 16  1  0  0  0  0
 16 17  1  0  0  0  0
 16 23  2  0  0  0  0
 17 20  2  0  0  0  0
 18 19  1  0  0  0  0
 18 17  1  0  0  0  0
 19 54  1  0  0  0  0
 19 53  1  0  0  0  0
 20 21  1  0  0  0  0
 21 22  1  0  0  0  0
 22 57  1  0  0  0  0
 22 56  1  0  0  0  0
 22 55  1  0  0  0  0
 23 58  1  0  0  0  0
 23 21  1  0  0  0  0
 24 12  1  0  0  0  0
 25 26  2  0  0  0  0
 25 24  1  0  0  0  0
 26 14  1  0  0  0  0
 27 26  1  0  0  0  0
 28 29  1  0  0  0  0
 28 27  2  0  0  0  0
 29 25  1  0  0  0  0
 30 61  1  0  0  0  0
 30 29  1  0  0  0  0
 31  2  1  0  0  0  0
 31 63  1  0  0  0  0
 32 65  1  0  0  0  0
 32 31  1  0  0  0  0
 33 34  1  0  0  0  0
 34 67  1  0  0  0  0
 35 36  1  1  0  0  0
 35 41  1  0  0  0  0
 35 34  1  0  0  0  0
 37 35  1  0  0  0  0
 38 40  2  0  0  0  0
 38 37  1  0  0  0  0
 39 38  1  0  0  0  0
 41 42  1  0  0  0  0
 42 72  1  0  0  0  0
 42 43  1  0  0  0  0
 43 75  1  0  0  0  0
 43 74  1  0  0  0  0
 44 41  2  0  0  0  0
 45  3  1  0  0  0  0
 49  8  1  0  0  0  0
 50  8  1  0  0  0  0
 51 15  1  0  0  0  0
 52 19  1  0  0  0  0
 59 28  1  0  0  0  0
 60 30  1  0  0  0  0
 62 30  1  0  0  0  0
 64 32  1  0  0  0  0
 66 34  1  0  0  0  0
 68 37  1  0  0  0  0
 69 39  1  0  0  0  0
 70 39  1  0  0  0  0
 71 39  1  0  0  0  0
 73 43  1  0  0  0  0
M  END
