75
-1 1
O         1.557879   -0.630056    3.636756
C         0.622409   -0.540577    2.785430
N         0.778036    0.476196    1.820820
C         1.793707    1.486506    1.964698
H         1.986950    1.651362    3.034581
C         1.448568    2.771233    1.197461
C         1.842287    2.501745   -0.271571
C         2.814843    1.282888   -0.204556
C         3.099916    1.078554    1.272680
H         3.417451    0.063513    1.540253
F         4.111723    1.957044    1.670295
C         0.698929    2.215219   -1.222825
N        -0.527268    2.038834   -0.707608
C        -1.541764    1.695606   -1.501226
N        -2.770695    1.449288   -0.995504
C        -3.099618    1.265318    0.347337
C        -4.245537    0.564876    0.786991
O        -5.176095    0.068720   -0.047607
C        -6.117459   -0.800456    0.532076
N        -4.294717    0.462816    2.100041
N        -3.197617    1.099472    2.535257
C        -2.773675    0.963004    3.909947
C        -2.448608    1.595003    1.521890
N         1.037918    2.123891   -2.507762
C         0.009312    1.799685   -3.286465
C        -1.304768    1.585575   -2.889580
N        -2.094230    1.223797   -3.956256
C        -1.274068    1.222213   -4.970531
N         0.017912    1.566522   -4.641401
C         1.179679    1.618030   -5.492102
C        -0.493977   -1.385491    2.729246
C        -1.361463   -1.600975    1.555542
S        -1.088636   -3.259428    0.650982
C         0.672669   -3.502657    0.966627
C         1.611559   -2.448214    0.356059
H         1.282138   -1.451153    0.674329
N         1.646568   -2.459026   -1.086299
C         0.958388   -1.574885   -1.841944
C         1.258265   -1.598898   -3.328762
O         0.173306   -0.762452   -1.382058
C         3.034508   -2.701400    0.865457
N         3.268845   -2.308736    2.131850
C         4.551383   -2.497265    2.759180
O         3.859161   -3.260916    0.146675
H         0.071738    0.620297    1.109569
H         2.075973    3.582158    1.592086
H         0.398428    3.070409    1.301585
H         2.377050    3.366087   -0.692397
H         3.739092    1.439155   -0.776699
H         2.322512    0.384221   -0.598817
H        -3.452314    1.103663   -1.661110
H        -6.767259   -1.149347   -0.280580
H        -6.719762   -0.285095    1.298153
H        -5.621180   -1.661382    1.009329
H        -3.665958    0.803891    4.527435
H        -2.266884    1.884768    4.227549
H        -2.070574    0.114755    3.999172
H        -1.496131    2.080769    1.694928
H        -1.544156    0.980657   -5.999722
H         1.412505    0.625894   -5.907645
H         2.023194    1.949176   -4.871928
H         1.038082    2.332086   -6.317008
H        -0.525444   -2.129284    3.531298
H        -1.229367   -0.845193    0.770015
H        -2.439213   -1.662692    1.780755
H         0.929822   -4.499804    0.575781
H         0.827296   -3.501915    2.054361
H         2.393310   -3.019633   -1.484181
H         1.856887   -0.704320   -3.560204
H         0.307980   -1.519272   -3.873963
H         1.803557   -2.495273   -3.655815
H         2.565025   -1.767268    2.678930
H         5.238118   -2.949044    2.031833
H         4.473434   -3.158530    3.637690
H         4.962188   -1.532003    3.096081
