75
-1 1
O        12.374182    5.398328   -5.306866
C        11.479805    5.532510   -6.165979
N        11.610120    6.556247   -7.084311
C        12.667332    7.531085   -6.955788
H        12.872856    7.666667   -5.884681
C        12.351646    8.845801   -7.683226
C        12.758765    8.626423   -9.155703
C        13.706814    7.386431   -9.126010
C        13.961403    7.102198   -7.658592
H        14.241943    6.064191   -7.439204
F        14.992513    7.923933   -7.197116
C        11.622467    8.377468  -10.125499
N        10.393703    8.177424   -9.624359
C         9.396479    7.818904  -10.432568
N         8.164582    7.552676   -9.941568
C         7.827455    7.384914   -8.599567
C         6.716142    6.633313   -8.152333
O         5.831085    6.059726   -8.983298
C         4.964026    5.115254   -8.402118
N         6.654416    6.569169   -6.837945
N         7.708439    7.279254   -6.409516
C         8.101994    7.218088   -5.023937
C         8.444327    7.784461   -7.429478
N        11.974369    8.319370  -11.406989
C        10.964912    7.969912  -12.198609
C         9.653651    7.712977  -11.816969
N         8.887416    7.330867  -12.893549
C         9.718767    7.356664  -13.898103
N        10.996222    7.739696  -13.553730
C        12.166570    7.830425  -14.390482
C        10.310481    4.682474   -6.206904
C         9.416237    4.525825   -7.254775
S         9.883013    2.586082   -8.617990
C        11.576397    2.483666   -8.013977
C        12.538346    3.536073   -8.616276
H        12.219787    4.530831   -8.285402
N        12.506502    3.561334  -10.055627
C        11.745774    4.443071  -10.739824
C        11.528670    4.131537  -12.205295
O        11.254035    5.442414  -10.234373
C        13.957732    3.249600   -8.136368
N        14.221718    3.664312   -6.872723
C        15.490002    3.424805   -6.236324
O        14.759336    2.644742   -8.835607
H        10.968498    6.636852   -7.867515
H        12.987580    9.629425   -7.249263
H        11.305730    9.158022   -7.578270
H        13.308361    9.498406   -9.539497
H        14.645479    7.549781   -9.671735
H        13.199921    6.520817   -9.573180
H         7.499953    7.180491  -10.610001
H         4.354991    4.704060   -9.216829
H         4.312248    5.582876   -7.646206
H         5.531465    4.305167   -7.916045
H         7.200133    7.231792   -4.398554
H         8.723048    8.092635   -4.789149
H         8.686614    6.303148   -4.835333
H         9.365501    8.329288   -7.265176
H         9.468629    7.106026  -14.930075
H        12.384347    6.864911  -14.870637
H        13.009539    8.102406  -13.741677
H        12.045926    8.601985  -15.165683
H        10.235516    4.030564   -5.332328
H         9.449531    5.197868   -8.115350
H         8.433552    4.102429   -7.051814
H        11.983664    1.476437   -8.202957
H        11.580283    2.641302   -6.920611
H        12.886058    2.750045  -10.525467
H        11.523098    5.072053  -12.772140
H        10.535170    3.668342  -12.297526
H        12.280327    3.444592  -12.619854
H        13.515428    4.178785   -6.333404
H        16.150098    2.932845   -6.962316
H        15.382832    2.773517   -5.353180
H        15.951967    4.371008   -5.911407
