-1 1
 OpenBabel05192410563D

 81 84  0  0  1  0  0  0  0  0999 V2000
   -1.3569   -2.9868   -2.6502 O   0  0  0  0  0  0  0  0  0  0  0  0
   -0.7631   -2.4225   -1.7214 C   0  0  0  0  0  0  0  0  0  0  0  0
    0.1337   -1.3273   -2.1237 N   0  0  0  0  0  0  0  0  0  0  0  0
   -0.0866   -0.0107   -1.8996 C   0  0  0  0  0  0  0  0  0  0  0  0
   -1.0097    0.4732   -0.9740 C   0  0  0  0  0  0  0  0  0  0  0  0
    0.6827    0.9705   -2.6319 C   0  0  0  0  0  0  0  0  0  0  0  0
    1.6430    0.5440   -3.4978 O   0  0  0  0  0  0  0  0  0  0  0  0
    2.8013    0.0307   -2.8457 C   0  0  0  0  0  0  0  0  0  0  0  0
    3.6743   -0.7136   -3.8363 C   0  0  0  0  0  0  0  0  0  0  0  0
    2.9364   -1.7590   -4.6737 C   0  0  0  0  0  0  0  0  0  0  0  0
    2.0400   -2.6100   -3.9127 N   0  0  0  0  0  0  0  0  0  0  0  0
    1.1828   -3.4718   -4.7234 C   0  0  0  0  0  0  0  0  0  0  0  0
    1.9129   -4.7288   -5.1890 C   0  0  0  0  0  0  0  0  0  0  0  0
    2.4689   -5.4377   -4.1072 O   0  0  0  0  0  0  0  0  0  0  0  0
    3.3277   -4.6386   -3.3296 C   0  0  0  0  0  0  0  0  0  0  0  0
    2.6186   -3.3889   -2.8215 C   0  0  0  0  0  0  0  0  0  0  0  0
    0.4505    2.3179   -2.4892 C   0  0  0  0  0  0  0  0  0  0  0  0
   -0.4965    2.8042   -1.5522 C   0  0  0  0  0  0  0  0  0  0  0  0
   -1.1905    1.8536   -0.7657 C   0  0  0  0  0  0  0  0  0  0  0  0
   -2.0204    2.4117    0.2745 C   0  0  1  0  0  3  0  0  0  0  0  0
   -2.5567    1.5481    1.1950 N   0  0  0  0  0  0  0  0  0  0  0  0
   -3.3785    1.8019    2.2933 C   0  0  0  0  0  0  0  0  0  0  0  0
   -3.5656    0.7442    3.2010 C   0  0  0  0  0  0  0  0  0  0  0  0
   -4.3916    0.9032    4.3052 C   0  0  0  0  0  0  0  0  0  0  0  0
   -4.6198   -0.4088    5.4281 Cl  0  0  0  0  0  0  0  0  0  0  0  0
   -5.0423    2.1154    4.5280 C   0  0  0  0  0  0  0  0  0  0  0  0
   -5.8360    2.2691    5.5904 F   0  0  0  0  0  0  0  0  0  0  0  0
   -4.8584    3.1642    3.6408 C   0  0  0  0  0  0  0  0  0  0  0  0
   -4.0339    3.0211    2.5280 C   0  0  0  0  0  0  0  0  0  0  0  0
   -2.2193    3.7109    0.3646 N   0  0  0  0  0  0  0  0  0  0  0  0
   -1.5452    4.5094   -0.4929 C   0  0  0  0  0  0  0  0  0  0  0  0
   -0.6824    4.1497   -1.4020 N   0  0  0  0  0  2  0  0  0  0  0  0
   -0.7856   -2.7394   -0.3597 C   0  0  0  0  0  3  0  0  0  0  0  0
    0.2145   -2.2985    0.6079 C   0  0  0  0  0  0  0  0  0  0  0  0
   -0.3272   -1.0697    2.0323 S   0  0  0  0  0  0  0  0  0  0  0  0
    0.7280    0.4216    1.9163 C   0  0  0  0  0  0  0  0  0  0  0  0
    2.0551    0.2775    1.1673 C   0  0  2  0  0  0  0  0  0  0  0  0
    1.8642   -0.0099    0.1239 H   0  0  0  0  0  0  0  0  0  0  0  0
    2.8926   -0.7373    1.7486 N   0  0  0  0  0  0  0  0  0  0  0  0
    3.7028   -1.5342    1.0136 C   0  0  0  0  0  0  0  0  0  0  0  0
    4.4379   -2.6066    1.7891 C   0  0  0  0  0  0  0  0  0  0  0  0
    3.8035   -1.4406   -0.2000 O   0  0  0  0  0  0  0  0  0  0  0  0
    2.7488    1.6496    1.1825 C   0  0  0  0  0  0  0  0  0  0  0  0
    2.3777    2.4526    0.1603 N   0  0  0  0  0  0  0  0  0  0  0  0
    2.7621    3.8375    0.0526 C   0  0  0  0  0  0  0  0  0  0  0  0
    3.4993    1.9810    2.0821 O   0  0  0  0  0  0  0  0  0  0  0  0
    0.6840   -1.5649   -2.9572 H   0  0  0  0  0  0  0  0  0  0  0  0
   -1.5858   -0.2730   -0.4261 H   0  0  0  0  0  0  0  0  0  0  0  0
    2.5145   -0.6399   -2.0228 H   0  0  0  0  0  0  0  0  0  0  0  0
    3.3646    0.8676   -2.3934 H   0  0  0  0  0  0  0  0  0  0  0  0
    4.4923   -1.1704   -3.2561 H   0  0  0  0  0  0  0  0  0  0  0  0
    4.1470   -0.0036   -4.5350 H   0  0  0  0  0  0  0  0  0  0  0  0
    3.6936   -2.3229   -5.2626 H   0  0  0  0  0  0  0  0  0  0  0  0
    2.3087   -1.2269   -5.4059 H   0  0  0  0  0  0  0  0  0  0  0  0
    0.8112   -2.9025   -5.5900 H   0  0  0  0  0  0  0  0  0  0  0  0
    0.3025   -3.7392   -4.1135 H   0  0  0  0  0  0  0  0  0  0  0  0
    2.7127   -4.4663   -5.9157 H   0  0  0  0  0  0  0  0  0  0  0  0
    1.2155   -5.4127   -5.6952 H   0  0  0  0  0  0  0  0  0  0  0  0
    4.2251   -4.3567   -3.9227 H   0  0  0  0  0  0  0  0  0  0  0  0
    3.6684   -5.2590   -2.4874 H   0  0  0  0  0  0  0  0  0  0  0  0
    3.2935   -2.7738   -2.2089 H   0  0  0  0  0  0  0  0  0  0  0  0
    1.7892   -3.6945   -2.1603 H   0  0  0  0  0  0  0  0  0  0  0  0
    1.0261    3.0282   -3.0844 H   0  0  0  0  0  0  0  0  0  0  0  0
   -2.1702    0.6042    1.1754 H   0  0  0  0  0  0  0  0  0  0  0  0
   -3.0511   -0.2068    3.0459 H   0  0  0  0  0  0  0  0  0  0  0  0
   -5.3733    4.1070    3.8344 H   0  0  0  0  0  0  0  0  0  0  0  0
   -3.8715    3.8467    1.8405 H   0  0  0  0  0  0  0  0  0  0  0  0
   -1.7390    5.5831   -0.3804 H   0  0  0  0  0  0  0  0  0  0  0  0
   -1.4684   -3.5456   -0.0798 H   0  0  0  0  0  0  0  0  0  0  0  0
    1.0613   -1.8044    0.1195 H   0  0  0  0  0  0  0  0  0  0  0  0
    0.5992   -3.1179    1.2309 H   0  0  0  0  0  0  0  0  0  0  0  0
    0.9387    0.7424    2.9492 H   0  0  0  0  0  0  0  0  0  0  0  0
    0.1711    1.2355    1.4336 H   0  0  0  0  0  0  0  0  0  0  0  0
    2.9056   -0.8078    2.7567 H   0  0  0  0  0  0  0  0  0  0  0  0
    3.8702   -3.5448    1.6971 H   0  0  0  0  0  0  0  0  0  0  0  0
    4.5521   -2.3696    2.8559 H   0  0  0  0  0  0  0  0  0  0  0  0
    5.4245   -2.7595    1.3345 H   0  0  0  0  0  0  0  0  0  0  0  0
    1.7760    2.0750   -0.5642 H   0  0  0  0  0  0  0  0  0  0  0  0
    1.9319    4.4122   -0.3837 H   0  0  0  0  0  0  0  0  0  0  0  0
    3.6573    3.9712   -0.5781 H   0  0  0  0  0  0  0  0  0  0  0  0
    2.9926    4.2222    1.0552 H   0  0  0  0  0  0  0  0  0  0  0  0
  1  2  2  0  0  0  0
  2 33  1  0  0  0  0
  3  4  1  0  0  0  0
  3  2  1  0  0  0  0
  4  5  1  0  0  0  0
  5 19  2  0  0  0  0
  5 48  1  0  0  0  0
  6 17  1  0  0  0  0
  6  4  2  0  0  0  0
  7  8  1  0  0  0  0
  7  6  1  0  0  0  0
  8 50  1  0  0  0  0
  8 49  1  0  0  0  0
  9 51  1  0  0  0  0
  9  8  1  0  0  0  0
 10 11  1  0  0  0  0
 10  9  1  0  0  0  0
 11 16  1  0  0  0  0
 12 56  1  0  0  0  0
 12 11  1  0  0  0  0
 13 12  1  0  0  0  0
 13 14  1  0  0  0  0
 14 15  1  0  0  0  0
 15 16  1  0  0  0  0
 15 60  1  0  0  0  0
 16 61  1  0  0  0  0
 16 62  1  0  0  0  0
 17 18  2  0  0  0  0
 18 32  1  0  0  0  0
 18 19  1  0  0  0  0
 19 20  1  0  0  0  0
 20 30  1  0  0  0  0
 20 21  1  1  0  0  0
 21 22  1  0  0  0  0
 22 29  2  0  0  0  0
 22 23  1  0  0  0  0
 23 24  2  0  0  0  0
 24 26  1  0  0  0  0
 24 25  1  0  0  0  0
 26 27  1  0  0  0  0
 28 66  1  0  0  0  0
 28 26  2  0  0  0  0
 29 28  1  0  0  0  0
 31 68  1  0  0  0  0
 31 30  2  0  0  0  0
 32 31  1  0  0  0  0
 33 69  1  0  0  0  0
 33 34  1  0  0  0  0
 34 71  1  0  0  0  0
 34 35  1  0  0  0  0
 36 35  1  0  0  0  0
 36 72  1  0  0  0  0
 37 38  1  6  0  0  0
 37 43  1  0  0  0  0
 37 39  1  0  0  0  0
 37 36  1  0  0  0  0
 39 74  1  0  0  0  0
 40 39  1  0  0  0  0
 40 41  1  0  0  0  0
 41 76  1  0  0  0  0
 42 40  2  0  0  0  0
 43 46  2  0  0  0  0
 44 43  1  0  0  0  0
 45 44  1  0  0  0  0
 45 81  1  0  0  0  0
 47  3  1  0  0  0  0
 52  9  1  0  0  0  0
 53 10  1  0  0  0  0
 54 10  1  0  0  0  0
 55 12  1  0  0  0  0
 57 13  1  0  0  0  0
 58 13  1  0  0  0  0
 59 15  1  0  0  0  0
 63 17  1  0  0  0  0
 64 21  1  0  0  0  0
 65 23  1  0  0  0  0
 67 29  1  0  0  0  0
 70 34  1  0  0  0  0
 73 36  1  0  0  0  0
 75 41  1  0  0  0  0
 77 41  1  0  0  0  0
 78 44  1  0  0  0  0
 79 45  1  0  0  0  0
 80 45  1  0  0  0  0
M  END
