-1 1
 OpenBabel05232413493D

 81 83  0  0  1  0  0  0  0  0999 V2000
   -0.6604   -3.5415   -2.5832 O   0  0  0  0  0  0  0  0  0  0  0  0
   -0.5977   -2.6308   -1.7738 C   0  0  0  0  0  0  0  0  0  0  0  0
    0.0545   -1.4591   -2.1043 N   0  0  0  0  0  0  0  0  0  0  0  0
   -0.1739   -0.1292   -1.7304 C   0  0  0  0  0  0  0  0  0  0  0  0
   -1.0171    0.3146   -0.7243 C   0  0  0  0  0  0  0  0  0  0  0  0
    0.5194    0.8624   -2.5043 C   0  0  0  0  0  0  0  0  0  0  0  0
    1.4445    0.4652   -3.4167 O   0  0  0  0  0  0  0  0  0  0  0  0
    2.6898    0.1213   -2.8040 C   0  0  0  0  0  0  0  0  0  0  0  0
    3.6222   -0.4874   -3.8280 C   0  0  0  0  0  0  0  0  0  0  0  0
    2.9750   -1.5449   -4.7162 C   0  0  0  0  0  0  0  0  0  0  0  0
    2.1705   -2.5287   -4.0058 N   0  0  0  0  0  0  0  0  0  0  0  0
    1.5066   -3.4712   -4.9054 C   0  0  0  0  0  0  0  0  0  0  0  0
    2.4531   -4.5582   -5.4121 C   0  0  0  0  0  0  0  0  0  0  0  0
    3.0790   -5.2350   -4.3494 O   0  0  0  0  0  0  0  0  0  0  0  0
    3.7662   -4.3553   -3.4898 C   0  0  0  0  0  0  0  0  0  0  0  0
    2.8385   -3.2786   -2.9410 C   0  0  0  0  0  0  0  0  0  0  0  0
    0.2609    2.2028   -2.3495 C   0  0  0  0  0  0  0  0  0  0  0  0
   -0.6571    2.6587   -1.3752 C   0  0  0  0  0  0  0  0  0  0  0  0
   -1.2334    1.6973   -0.5118 C   0  0  0  0  0  0  0  0  0  0  0  0
   -2.0680    2.2367    0.5385 C   0  0  1  0  0  3  0  0  0  0  0  0
   -2.4807    1.4214    1.5499 N   0  0  0  0  0  0  0  0  0  0  0  0
   -3.4233    1.7689    2.5284 C   0  0  0  0  0  0  0  0  0  0  0  0
   -3.2274    1.3103    3.8389 C   0  0  0  0  0  0  0  0  0  0  0  0
   -4.1817    1.5703    4.8159 C   0  0  0  0  0  0  0  0  0  0  0  0
   -3.9509    0.9993    6.4473 Cl  0  0  0  0  0  0  0  0  0  0  0  0
   -5.3271    2.2993    4.5081 C   0  0  0  0  0  0  0  0  0  0  0  0
   -6.2406    2.5541    5.4487 F   0  0  0  0  0  0  0  0  0  0  0  0
   -5.5219    2.7649    3.2151 C   0  0  0  0  0  0  0  0  0  0  0  0
   -4.5815    2.5005    2.2263 C   0  0  0  0  0  0  0  0  0  0  0  0
   -2.4121    3.5137    0.5263 N   0  0  0  0  0  0  0  0  0  0  0  0
   -1.8449    4.3104   -0.3963 C   0  0  0  0  0  0  0  0  0  0  0  0
   -0.9571    3.9879   -1.2994 N   0  0  0  0  0  2  0  0  0  0  0  0
   -1.1266   -2.8570   -0.4029 C   0  0  0  0  0  0  0  0  0  0  0  0
   -0.4009   -2.6313    0.6935 C   0  0  0  0  0  0  0  0  0  0  0  0
   -0.1094   -0.2398    2.9486 S   0  0  0  0  0  1  0  0  0  0  0  0
    1.1007    0.9685    2.3153 C   0  0  0  0  0  0  0  0  0  0  0  0
    2.0326    0.3984    1.2231 C   0  0  2  0  0  0  0  0  0  0  0  0
    1.4416    0.2403    0.3054 H   0  0  0  0  0  0  0  0  0  0  0  0
    2.5743   -0.8620    1.6591 N   0  0  0  0  0  0  0  0  0  0  0  0
    3.3134   -1.6554    0.8630 C   0  0  0  0  0  0  0  0  0  0  0  0
    3.6171   -3.0360    1.4083 C   0  0  0  0  0  0  0  0  0  0  0  0
    3.6993   -1.3171   -0.2513 O   0  0  0  0  0  0  0  0  0  0  0  0
    3.1363    1.4162    0.9245 C   0  0  0  0  0  0  0  0  0  0  0  0
    2.7668    2.3364   -0.0113 N   0  0  0  0  0  0  0  0  0  0  0  0
    3.5953    3.4499   -0.3849 C   0  0  0  0  0  0  0  0  0  0  0  0
    4.1976    1.4478    1.5139 O   0  0  0  0  0  0  0  0  0  0  0  0
    0.6339   -1.5856   -2.9497 H   0  0  0  0  0  0  0  0  0  0  0  0
   -1.5276   -0.3986   -0.0820 H   0  0  0  0  0  0  0  0  0  0  0  0
    2.5241   -0.5759   -1.9700 H   0  0  0  0  0  0  0  0  0  0  0  0
    3.1399    1.0257   -2.3603 H   0  0  0  0  0  0  0  0  0  0  0  0
    4.4802   -0.8974   -3.2716 H   0  0  0  0  0  0  0  0  0  0  0  0
    4.0258    0.2948   -4.4917 H   0  0  0  0  0  0  0  0  0  0  0  0
    3.7731   -2.0004   -5.3409 H   0  0  0  0  0  0  0  0  0  0  0  0
    2.2911   -1.0343   -5.4127 H   0  0  0  0  0  0  0  0  0  0  0  0
    1.0722   -2.9189   -5.7543 H   0  0  0  0  0  0  0  0  0  0  0  0
    0.6769   -3.9301   -4.3475 H   0  0  0  0  0  0  0  0  0  0  0  0
    3.2213   -4.1262   -6.0886 H   0  0  0  0  0  0  0  0  0  0  0  0
    1.8942   -5.3112   -5.9878 H   0  0  0  0  0  0  0  0  0  0  0  0
    4.6230   -3.8920   -4.0244 H   0  0  0  0  0  0  0  0  0  0  0  0
    4.1777   -4.9623   -2.6702 H   0  0  0  0  0  0  0  0  0  0  0  0
    3.3740   -2.6071   -2.2535 H   0  0  0  0  0  0  0  0  0  0  0  0
    2.0472   -3.7725   -2.3524 H   0  0  0  0  0  0  0  0  0  0  0  0
    0.7686    2.9268   -2.9876 H   0  0  0  0  0  0  0  0  0  0  0  0
   -1.7915    0.6910    1.8508 H   0  0  0  0  0  0  0  0  0  0  0  0
   -2.3108    0.7624    4.0809 H   0  0  0  0  0  0  0  0  0  0  0  0
   -6.4262    3.3349    2.9951 H   0  0  0  0  0  0  0  0  0  0  0  0
   -4.7373    2.8751    1.2168 H   0  0  0  0  0  0  0  0  0  0  0  0
   -2.1538    5.3630   -0.3579 H   0  0  0  0  0  0  0  0  0  0  0  0
   -2.0688   -3.4102   -0.3624 H   0  0  0  0  0  0  0  0  0  0  0  0
    0.5600   -2.1151    0.6523 H   0  0  0  0  0  0  0  0  0  0  0  0
   -0.7358   -2.9369    1.6856 H   0  0  0  0  0  0  0  0  0  0  0  0
    1.7304    1.3357    3.1419 H   0  0  0  0  0  0  0  0  0  0  0  0
    0.5945    1.8486    1.8859 H   0  0  0  0  0  0  0  0  0  0  0  0
    2.1051   -1.2450    2.4810 H   0  0  0  0  0  0  0  0  0  0  0  0
    3.0087   -3.7672    0.8543 H   0  0  0  0  0  0  0  0  0  0  0  0
    3.4032   -3.1355    2.4808 H   0  0  0  0  0  0  0  0  0  0  0  0
    4.6738   -3.2658    1.2186 H   0  0  0  0  0  0  0  0  0  0  0  0
    1.8698    2.2273   -0.4690 H   0  0  0  0  0  0  0  0  0  0  0  0
    3.0758    4.4088   -0.2288 H   0  0  0  0  0  0  0  0  0  0  0  0
    3.9061    3.3912   -1.4421 H   0  0  0  0  0  0  0  0  0  0  0  0
    4.4938    3.4201    0.2451 H   0  0  0  0  0  0  0  0  0  0  0  0
  1  2  2  0  0  0  0
  2 33  1  0  0  0  0
  3  2  1  0  0  0  0
  3  4  1  0  0  0  0
  4  5  1  0  0  0  0
  5 19  2  0  0  0  0
  5 48  1  0  0  0  0
  6 17  1  0  0  0  0
  6  4  2  0  0  0  0
  7  8  1  0  0  0  0
  7  6  1  0  0  0  0
  8 50  1  0  0  0  0
  8 49  1  0  0  0  0
  9 51  1  0  0  0  0
  9  8  1  0  0  0  0
 10 11  1  0  0  0  0
 10  9  1  0  0  0  0
 11 16  1  0  0  0  0
 12 56  1  0  0  0  0
 12 11  1  0  0  0  0
 13 12  1  0  0  0  0
 13 14  1  0  0  0  0
 14 15  1  0  0  0  0
 15 16  1  0  0  0  0
 15 60  1  0  0  0  0
 16 62  1  0  0  0  0
 16 61  1  0  0  0  0
 17 18  2  0  0  0  0
 18 32  1  0  0  0  0
 18 19  1  0  0  0  0
 19 20  1  0  0  0  0
 20 21  1  1  0  0  0
 21 64  1  0  0  0  0
 21 22  1  0  0  0  0
 22 23  1  0  0  0  0
 23 65  1  0  0  0  0
 23 24  2  0  0  0  0
 24 25  1  0  0  0  0
 26 24  1  0  0  0  0
 26 27  1  0  0  0  0
 28 26  2  0  0  0  0
 29 22  2  0  0  0  0
 29 28  1  0  0  0  0
 30 20  1  0  0  0  0
 31 68  1  0  0  0  0
 31 30  2  0  0  0  0
 32 31  1  0  0  0  0
 33 69  1  0  0  0  0
 33 34  2  0  0  0  0
 34 71  1  0  0  0  0
 36 35  1  0  0  0  0
 36 72  1  0  0  0  0
 37 38  1  6  0  0  0
 37 39  1  0  0  0  0
 37 36  1  0  0  0  0
 39 74  1  0  0  0  0
 40 41  1  0  0  0  0
 40 39  1  0  0  0  0
 41 76  1  0  0  0  0
 42 40  2  0  0  0  0
 43 37  1  0  0  0  0
 43 46  2  0  0  0  0
 44 43  1  0  0  0  0
 45 79  1  0  0  0  0
 45 44  1  0  0  0  0
 45 81  1  0  0  0  0
 47  3  1  0  0  0  0
 52  9  1  0  0  0  0
 53 10  1  0  0  0  0
 54 10  1  0  0  0  0
 55 12  1  0  0  0  0
 57 13  1  0  0  0  0
 58 13  1  0  0  0  0
 59 15  1  0  0  0  0
 63 17  1  0  0  0  0
 66 28  1  0  0  0  0
 67 29  1  0  0  0  0
 70 34  1  0  0  0  0
 73 36  1  0  0  0  0
 75 41  1  0  0  0  0
 77 41  1  0  0  0  0
 78 44  1  0  0  0  0
 80 45  1  0  0  0  0
M  END
