81
-1 1
C         1.390371   -2.176654   -2.797960
N         2.067353   -1.433293   -3.836161
C         1.252813   -0.406790   -4.469145
C         0.352408    0.457868   -3.625395
S         1.871722    1.210624   -1.857584
C         2.935424    2.161152   -2.974995
C         4.408085    1.739027   -2.928051
H         5.010331    2.401466   -3.574258
N         4.569836    0.397624   -3.410937
C         5.772935   -0.035021   -3.858832
C         5.894054   -1.536408   -4.054580
O         6.699035    0.712640   -4.127038
C         4.996854    1.863580   -1.502644
N         4.819306    3.090103   -0.926343
C         5.130074    3.337657    0.458131
O         5.600484    0.962163   -0.960410
C        -0.219388    1.574724   -4.205029
C        -1.369685    2.174687   -3.574505
N        -1.758021    3.486573   -3.971512
C        -0.906704    4.420973   -4.572610
C        -0.374071    5.474061   -3.868331
C        -0.587947    4.293466   -5.970464
O        -1.162141    3.255580   -6.587513
C        -0.610095    2.732538   -7.781255
H         0.484514    2.857551   -7.766871
C        -1.046558    1.275194   -7.863524
C        -2.435498    1.424134   -8.469909
O        -2.307686    2.470661   -9.414720
C        -1.270433    3.344830   -9.026563
C         0.241352    5.206088   -6.585312
C         0.803103    6.282669   -5.854025
C         0.529213    6.391513   -4.464456
C         1.234391    7.434834   -3.786210
N         1.226426    7.630968   -2.417908
C         1.325338    6.706217   -1.361236
C         1.212196    7.212049   -0.059583
C         1.348680    6.367352    1.036792
Cl         1.229655    7.009592    2.651725
C         1.565601    5.003419    0.850954
F         1.684611    4.202601    1.907100
C         1.659972    4.484515   -0.431912
C         1.567338    5.335921   -1.529772
N         1.926673    8.338502   -4.460504
C         2.027442    8.185088   -5.791668
N         1.560174    7.200267   -6.514002
O        -2.042270    1.655974   -2.692602
C         2.627337   -2.294712   -4.848918
H         1.131168   -1.505534   -1.968901
H         2.069427   -2.946633   -2.401326
H         0.467537   -2.685067   -3.159919
H         0.561248   -0.891572   -5.201719
H         1.922070    0.235242   -5.069775
H        -0.261423   -0.042184   -2.873853
H         2.873870    3.238288   -2.751775
H         2.572384    2.073233   -4.014974
H         3.826859   -0.263967   -3.165469
H         5.191821   -2.099245   -3.425809
H         6.923793   -1.825366   -3.809261
H         5.712876   -1.790902   -5.109851
H         4.197851    3.739945   -1.387504
H         5.697048    4.274470    0.579306
H         5.743562    2.500424    0.814085
H         4.219194    3.392625    1.077720
H         0.303018    2.087592   -5.013526
H        -2.382505    3.864653   -3.267709
H        -0.627844    5.559528   -2.812133
H        -1.023970    0.804572   -6.870669
H        -0.380728    0.727670   -8.548054
H        -3.170491    1.686612   -7.686607
H        -2.789278    0.524567   -8.994363
H        -1.666509    4.348553   -8.795502
H        -0.544990    3.443254   -9.853382
H         0.468816    5.161777   -7.649813
H         1.634937    8.536271   -2.208292
H         1.018442    8.273130    0.105654
H         1.782003    3.400328   -0.583425
H         1.662962    4.906661   -2.525836
H         2.591614    8.966217   -6.315682
H         3.289885   -3.044945   -4.392725
H         3.226518   -1.701061   -5.557358
H         1.849369   -2.838235   -5.435308
