-1 1
 OpenBabel05232413493D

 81 83  0  0  1  0  0  0  0  0999 V2000
   -0.2104   -4.6177    1.7643 C   0  0  0  0  0  0  0  0  0  0  0  0
   -0.1084   -4.8327    0.3371 N   0  0  0  0  0  0  0  0  0  0  0  0
   -0.3175   -3.6193   -0.4313 C   0  0  0  0  0  0  0  0  0  0  0  0
   -1.7082   -3.0449   -0.4682 C   0  0  0  0  0  0  0  0  0  0  0  0
    1.7577   -0.9938    1.4552 S   0  0  0  0  0  1  0  0  0  0  0  0
    1.5773   -0.2819   -0.2253 C   0  0  0  0  0  0  0  0  0  0  0  0
    2.6757   -0.6753   -1.2279 C   0  0  2  0  0  0  0  0  0  0  0  0
    2.3526   -0.4305   -2.2487 H   0  0  0  0  0  0  0  0  0  0  0  0
    2.9160   -2.1050   -1.1954 N   0  0  0  0  0  0  0  0  0  0  0  0
    2.4650   -2.9670   -2.1365 C   0  0  0  0  0  0  0  0  0  0  0  0
    2.6914   -4.4289   -1.7966 C   0  0  0  0  0  0  0  0  0  0  0  0
    1.9221   -2.6183   -3.1776 O   0  0  0  0  0  0  0  0  0  0  0  0
    4.0127    0.0689   -1.0611 C   0  0  0  0  0  0  0  0  0  0  0  0
    4.3890    0.2843    0.2220 N   0  0  0  0  0  0  0  0  0  0  0  0
    5.6131    0.9537    0.5637 C   0  0  0  0  0  0  0  0  0  0  0  0
    4.6710    0.4073   -2.0314 O   0  0  0  0  0  0  0  0  0  0  0  0
   -1.9613   -1.7556   -0.2320 C   0  0  0  0  0  0  0  0  0  0  0  0
   -3.2916   -1.1654   -0.5383 C   0  0  0  0  0  0  0  0  0  0  0  0
   -3.2898    0.2001   -0.7384 N   0  0  0  0  0  0  0  0  0  0  0  0
   -2.1433    0.9934   -0.9982 C   0  0  0  0  0  0  0  0  0  0  0  0
   -1.7702    1.9810   -0.1234 C   0  0  0  0  0  0  0  0  0  0  0  0
   -1.3529    0.7514   -2.1744 C   0  0  0  0  0  0  0  0  0  0  0  0
   -1.7231   -0.3009   -2.9097 O   0  0  0  0  0  0  0  0  0  0  0  0
   -0.7604   -0.9392   -3.7523 C   0  0  1  0  0  0  0  0  0  0  0  0
    0.2249   -0.9373   -3.2628 H   0  0  0  0  0  0  0  0  0  0  0  0
   -1.2486   -2.3523   -4.0239 C   0  0  0  0  0  0  0  0  0  0  0  0
   -2.2019   -2.1342   -5.1912 C   0  0  0  0  0  0  0  0  0  0  0  0
   -1.6194   -1.1001   -5.9592 O   0  0  0  0  0  0  0  0  0  0  0  0
   -0.7389   -0.3353   -5.1605 C   0  0  0  0  0  0  0  0  0  0  0  0
   -0.2840    1.5746   -2.4636 C   0  0  0  0  0  0  0  0  0  0  0  0
    0.0767    2.6240   -1.5854 C   0  0  0  0  0  0  0  0  0  0  0  0
   -0.6304    2.7873   -0.3666 C   0  0  0  0  0  0  0  0  0  0  0  0
   -0.0927    3.7684    0.5291 C   0  0  2  0  0  3  0  0  0  0  0  0
   -0.5581    3.9483    1.8104 N   0  0  0  0  0  0  0  0  0  0  0  0
   -0.9652    2.9146    2.6930 C   0  0  0  0  0  0  0  0  0  0  0  0
   -1.9850    3.1836    3.6088 C   0  0  0  0  0  0  0  0  0  0  0  0
   -2.3961    2.1951    4.4991 C   0  0  0  0  0  0  0  0  0  0  0  0
   -3.6575    2.5231    5.6563 Cl  0  0  0  0  0  0  0  0  0  0  0  0
   -1.8130    0.9292    4.4556 C   0  0  0  0  0  0  0  0  0  0  0  0
   -2.2246   -0.0144    5.2979 F   0  0  0  0  0  0  0  0  0  0  0  0
   -0.8045    0.6558    3.5416 C   0  0  0  0  0  0  0  0  0  0  0  0
   -0.3661    1.6500    2.6766 C   0  0  0  0  0  0  0  0  0  0  0  0
    0.8769    4.5809    0.1484 N   0  0  0  0  0  0  0  0  0  0  0  0
    1.3996    4.3898   -1.0777 C   0  0  0  0  0  0  0  0  0  0  0  0
    1.1003    3.4507   -1.9350 N   0  0  0  0  0  2  0  0  0  0  0  0
   -4.3212   -1.8072   -0.6224 O   0  0  0  0  0  0  0  0  0  0  0  0
   -0.8476   -5.9780   -0.1287 C   0  0  0  0  0  0  0  0  0  0  0  0
    0.3971   -3.7432    2.0437 H   0  0  0  0  0  0  0  0  0  0  0  0
    0.1699   -5.5001    2.3044 H   0  0  0  0  0  0  0  0  0  0  0  0
   -1.2533   -4.4333    2.1051 H   0  0  0  0  0  0  0  0  0  0  0  0
   -0.0339   -3.8207   -1.4813 H   0  0  0  0  0  0  0  0  0  0  0  0
    0.3792   -2.8560   -0.0474 H   0  0  0  0  0  0  0  0  0  0  0  0
   -2.5392   -3.6762   -0.8075 H   0  0  0  0  0  0  0  0  0  0  0  0
    1.5335    0.8186   -0.1828 H   0  0  0  0  0  0  0  0  0  0  0  0
    0.6235   -0.6095   -0.6697 H   0  0  0  0  0  0  0  0  0  0  0  0
    3.0767   -2.4628   -0.2538 H   0  0  0  0  0  0  0  0  0  0  0  0
    2.0561   -4.7269   -0.9446 H   0  0  0  0  0  0  0  0  0  0  0  0
    3.7408   -4.6062   -1.5191 H   0  0  0  0  0  0  0  0  0  0  0  0
    2.4337   -5.0380   -2.6714 H   0  0  0  0  0  0  0  0  0  0  0  0
    3.7524   -0.0498    0.9605 H   0  0  0  0  0  0  0  0  0  0  0  0
    5.4235    1.8793    1.1325 H   0  0  0  0  0  0  0  0  0  0  0  0
    6.1317    1.2124   -0.3691 H   0  0  0  0  0  0  0  0  0  0  0  0
    6.2718    0.3088    1.1697 H   0  0  0  0  0  0  0  0  0  0  0  0
   -1.1602   -1.0984    0.1207 H   0  0  0  0  0  0  0  0  0  0  0  0
   -4.1926    0.5646   -1.0243 H   0  0  0  0  0  0  0  0  0  0  0  0
   -2.3700    2.1114    0.7761 H   0  0  0  0  0  0  0  0  0  0  0  0
   -1.7180   -2.7906   -3.1347 H   0  0  0  0  0  0  0  0  0  0  0  0
   -0.3777   -2.9602   -4.3081 H   0  0  0  0  0  0  0  0  0  0  0  0
   -3.2024   -1.8327   -4.8260 H   0  0  0  0  0  0  0  0  0  0  0  0
   -2.3224   -3.0221   -5.8307 H   0  0  0  0  0  0  0  0  0  0  0  0
   -1.0576    0.7205   -5.1460 H   0  0  0  0  0  0  0  0  0  0  0  0
    0.2817   -0.3848   -5.5780 H   0  0  0  0  0  0  0  0  0  0  0  0
    0.3272    1.4481   -3.3556 H   0  0  0  0  0  0  0  0  0  0  0  0
   -0.1116    4.7480    2.2493 H   0  0  0  0  0  0  0  0  0  0  0  0
   -2.4688    4.1610    3.6202 H   0  0  0  0  0  0  0  0  0  0  0  0
   -0.3369   -0.3310    3.4913 H   0  0  0  0  0  0  0  0  0  0  0  0
    0.4458    1.3907    1.9907 H   0  0  0  0  0  0  0  0  0  0  0  0
    2.1887    5.0943   -1.3674 H   0  0  0  0  0  0  0  0  0  0  0  0
   -0.4878   -6.8880    0.3788 H   0  0  0  0  0  0  0  0  0  0  0  0
   -0.6895   -6.1114   -1.2111 H   0  0  0  0  0  0  0  0  0  0  0  0
   -1.9447   -5.9150    0.0496 H   0  0  0  0  0  0  0  0  0  0  0  0
  1 48  1  0  0  0  0
  1 50  1  0  0  0  0
  1 49  1  0  0  0  0
  2  1  1  0  0  0  0
  3 52  1  0  0  0  0
  3  2  1  0  0  0  0
  4  3  1  0  0  0  0
  4 17  2  0  0  0  0
  6 54  1  0  0  0  0
  6  5  1  0  0  0  0
  7  8  1  6  0  0  0
  7  9  1  0  0  0  0
  7 13  1  0  0  0  0
  7  6  1  0  0  0  0
  9 56  1  0  0  0  0
 10 11  1  0  0  0  0
 10  9  1  0  0  0  0
 11 58  1  0  0  0  0
 11 57  1  0  0  0  0
 12 10  2  0  0  0  0
 13 14  1  0  0  0  0
 14 15  1  0  0  0  0
 14 60  1  0  0  0  0
 15 61  1  0  0  0  0
 15 63  1  0  0  0  0
 16 13  2  0  0  0  0
 17 64  1  0  0  0  0
 18 17  1  0  0  0  0
 19 18  1  0  0  0  0
 20 19  1  0  0  0  0
 20 21  1  0  0  0  0
 21 66  1  0  0  0  0
 22 20  2  0  0  0  0
 23 22  1  0  0  0  0
 24 25  1  1  0  0  0
 24 23  1  0  0  0  0
 26 24  1  0  0  0  0
 26 67  1  0  0  0  0
 27 69  1  0  0  0  0
 27 26  1  0  0  0  0
 28 27  1  0  0  0  0
 28 29  1  0  0  0  0
 29 71  1  0  0  0  0
 29 24  1  0  0  0  0
 30 22  1  0  0  0  0
 30 31  2  0  0  0  0
 31 32  1  0  0  0  0
 32 21  2  0  0  0  0
 32 33  1  0  0  0  0
 33 34  1  6  0  0  0
 34 74  1  0  0  0  0
 34 35  1  0  0  0  0
 35 36  1  0  0  0  0
 36 75  1  0  0  0  0
 36 37  2  0  0  0  0
 37 38  1  0  0  0  0
 39 37  1  0  0  0  0
 39 40  1  0  0  0  0
 41 39  2  0  0  0  0
 42 35  2  0  0  0  0
 42 41  1  0  0  0  0
 43 33  1  0  0  0  0
 44 43  2  0  0  0  0
 45 31  1  0  0  0  0
 45 44  1  0  0  0  0
 46 18  2  0  0  0  0
 47 81  1  0  0  0  0
 47  2  1  0  0  0  0
 47 79  1  0  0  0  0
 51  3  1  0  0  0  0
 53  4  1  0  0  0  0
 55  6  1  0  0  0  0
 59 11  1  0  0  0  0
 62 15  1  0  0  0  0
 65 19  1  0  0  0  0
 68 26  1  0  0  0  0
 70 27  1  0  0  0  0
 72 29  1  0  0  0  0
 73 30  1  0  0  0  0
 76 41  1  0  0  0  0
 77 42  1  0  0  0  0
 78 44  1  0  0  0  0
 80 47  1  0  0  0  0
M  END
