-1 1
 OpenBabel05192410563D

 81 84  0  0  1  0  0  0  0  0999 V2000
    0.0131   -5.4095    0.2678 C   0  0  0  0  0  0  0  0  0  0  0  0
    0.6434   -4.5418   -0.7042 N   0  0  0  0  0  0  0  0  0  0  0  0
   -0.2229   -3.4605   -1.1619 C   0  0  0  0  0  0  0  0  0  0  0  0
   -0.8782   -2.5549   -0.1179 C   0  0  1  0  0  0  0  0  0  0  0  0
    0.3725   -2.0733    1.2428 S   0  0  0  0  0  0  0  0  0  0  0  0
    1.5695   -1.1000    0.2804 C   0  0  0  0  0  0  0  0  0  0  0  0
    3.0051   -1.5902    0.4784 C   0  0  2  0  0  0  0  0  0  0  0  0
    3.7023   -0.9036   -0.0324 H   0  0  0  0  0  0  0  0  0  0  0  0
    3.1762   -2.8927   -0.0953 N   0  0  0  0  0  0  0  0  0  0  0  0
    4.4065   -3.3292   -0.4618 C   0  0  0  0  0  0  0  0  0  0  0  0
    4.4772   -4.7941   -0.8547 C   0  0  0  0  0  0  0  0  0  0  0  0
    5.3845   -2.6031   -0.5174 O   0  0  0  0  0  0  0  0  0  0  0  0
    3.4106   -1.5942    1.9724 C   0  0  0  0  0  0  0  0  0  0  0  0
    3.2116   -0.4033    2.6083 N   0  0  0  0  0  0  0  0  0  0  0  0
    3.4291   -0.2284    4.0224 C   0  0  0  0  0  0  0  0  0  0  0  0
    3.8782   -2.5691    2.5208 O   0  0  0  0  0  0  0  0  0  0  0  0
   -1.5703   -1.4150   -0.7340 C   0  0  0  0  0  3  0  0  0  0  0  0
   -2.7499   -0.9451   -0.1401 C   0  0  0  0  0  0  0  0  0  0  0  0
   -3.3183    0.3174   -0.6131 N   0  0  0  0  0  0  0  0  0  0  0  0
   -2.5220    1.2647   -1.2487 C   0  0  0  0  0  0  0  0  0  0  0  0
   -1.9830    2.3471   -0.5917 C   0  0  0  0  0  0  0  0  0  0  0  0
   -2.2058    1.0900   -2.6453 C   0  0  0  0  0  0  0  0  0  0  0  0
   -2.7856    0.0382   -3.2307 O   0  0  0  0  0  0  0  0  0  0  0  0
   -2.1467   -0.6280   -4.3028 C   0  0  1  0  0  0  0  0  0  0  0  0
   -1.0591   -0.4633   -4.2446 H   0  0  0  0  0  0  0  0  0  0  0  0
   -2.5379   -2.0966   -4.2018 C   0  0  0  0  0  0  0  0  0  0  0  0
   -3.8954   -2.0790   -4.8900 C   0  0  0  0  0  0  0  0  0  0  0  0
   -3.7523   -1.1608   -5.9611 O   0  0  0  0  0  0  0  0  0  0  0  0
   -2.7448   -0.2206   -5.6569 C   0  0  0  0  0  0  0  0  0  0  0  0
   -1.3766    1.9751   -3.2994 C   0  0  0  0  0  0  0  0  0  0  0  0
   -0.7884    3.0636   -2.6074 C   0  0  0  0  0  0  0  0  0  0  0  0
   -1.0569    3.2184   -1.2203 C   0  0  0  0  0  0  0  0  0  0  0  0
   -0.2852    4.2259   -0.5684 C   0  0  2  0  0  3  0  0  0  0  0  0
   -0.2501    4.4159    0.8054 N   0  0  0  0  0  0  0  0  0  0  0  0
   -0.1470    3.4793    1.8465 C   0  0  0  0  0  0  0  0  0  0  0  0
   -0.1769    3.9798    3.1562 C   0  0  0  0  0  0  0  0  0  0  0  0
   -0.0568    3.1232    4.2446 C   0  0  0  0  0  0  0  0  0  0  0  0
   -0.0771    3.7614    5.8651 Cl  0  0  0  0  0  0  0  0  0  0  0  0
    0.0604    1.7495    4.0460 C   0  0  0  0  0  0  0  0  0  0  0  0
    0.1528    0.9314    5.0940 F   0  0  0  0  0  0  0  0  0  0  0  0
    0.0815    1.2378    2.7573 C   0  0  0  0  0  0  0  0  0  0  0  0
    0.0084    2.0961    1.6634 C   0  0  0  0  0  0  0  0  0  0  0  0
    0.4407    5.0898   -1.2578 N   0  0  0  0  0  0  0  0  0  0  0  0
    0.5081    4.9210   -2.5899 C   0  0  0  0  0  0  0  0  0  0  0  0
   -0.0067    3.9431   -3.2897 N   0  0  0  0  0  2  0  0  0  0  0  0
   -3.3783   -1.4656    0.7922 O   0  0  0  0  0  0  0  0  0  0  0  0
    1.1469   -5.2833   -1.8377 C   0  0  0  0  0  0  0  0  0  0  0  0
   -0.2447   -4.8427    1.1717 H   0  0  0  0  0  0  0  0  0  0  0  0
    0.7147   -6.2049    0.5628 H   0  0  0  0  0  0  0  0  0  0  0  0
   -0.9110   -5.8899   -0.1246 H   0  0  0  0  0  0  0  0  0  0  0  0
   -1.0606   -3.8708   -1.7699 H   0  0  0  0  0  0  0  0  0  0  0  0
    0.3719   -2.8376   -1.8539 H   0  0  0  0  0  0  0  0  0  0  0  0
   -1.6054   -3.1140    0.4889 H   0  0  0  0  0  0  0  0  0  0  0  0
    1.4894   -0.0361    0.5471 H   0  0  0  0  0  0  0  0  0  0  0  0
    1.3077   -1.1601   -0.7854 H   0  0  0  0  0  0  0  0  0  0  0  0
    2.3824   -3.5412   -0.0243 H   0  0  0  0  0  0  0  0  0  0  0  0
    3.7867   -5.4108   -0.2633 H   0  0  0  0  0  0  0  0  0  0  0  0
    5.5072   -5.1407   -0.7077 H   0  0  0  0  0  0  0  0  0  0  0  0
    4.2217   -4.9074   -1.9192 H   0  0  0  0  0  0  0  0  0  0  0  0
    2.7602    0.3464    2.1024 H   0  0  0  0  0  0  0  0  0  0  0  0
    4.1437    0.5861    4.2227 H   0  0  0  0  0  0  0  0  0  0  0  0
    3.8450   -1.1666    4.4104 H   0  0  0  0  0  0  0  0  0  0  0  0
    2.4874   -0.0115    4.5503 H   0  0  0  0  0  0  0  0  0  0  0  0
   -1.0305   -0.8290   -1.4813 H   0  0  0  0  0  0  0  0  0  0  0  0
   -3.8507    0.6900    0.1662 H   0  0  0  0  0  0  0  0  0  0  0  0
   -2.2224    2.4714    0.4641 H   0  0  0  0  0  0  0  0  0  0  0  0
   -2.5489   -2.4083   -3.1470 H   0  0  0  0  0  0  0  0  0  0  0  0
   -1.8213   -2.7129   -4.7671 H   0  0  0  0  0  0  0  0  0  0  0  0
   -4.6778   -1.7412   -4.1859 H   0  0  0  0  0  0  0  0  0  0  0  0
   -4.1951   -3.0522   -5.3062 H   0  0  0  0  0  0  0  0  0  0  0  0
   -3.1624    0.7993   -5.6011 H   0  0  0  0  0  0  0  0  0  0  0  0
   -1.9757   -0.2356   -6.4501 H   0  0  0  0  0  0  0  0  0  0  0  0
   -1.1633    1.8870   -4.3646 H   0  0  0  0  0  0  0  0  0  0  0  0
    0.1906    5.3068    1.0106 H   0  0  0  0  0  0  0  0  0  0  0  0
   -0.2993    5.0496    3.3333 H   0  0  0  0  0  0  0  0  0  0  0  0
    0.1282    0.1535    2.6003 H   0  0  0  0  0  0  0  0  0  0  0  0
    0.0340    1.6607    0.6654 H   0  0  0  0  0  0  0  0  0  0  0  0
    1.0911    5.6743   -3.1338 H   0  0  0  0  0  0  0  0  0  0  0  0
    1.8229   -6.0846   -1.5031 H   0  0  0  0  0  0  0  0  0  0  0  0
    1.7168   -4.6132   -2.5007 H   0  0  0  0  0  0  0  0  0  0  0  0
    0.3366   -5.7510   -2.4421 H   0  0  0  0  0  0  0  0  0  0  0  0
  1 49  1  0  0  0  0
  1 48  1  0  0  0  0
  2  1  1  0  0  0  0
  3  2  1  0  0  0  0
  3  4  1  0  0  0  0
  4 53  1  1  0  0  0
  4  5  1  0  0  0  0
  6  7  1  0  0  0  0
  6 54  1  0  0  0  0
  6  5  1  0  0  0  0
  7  8  1  6  0  0  0
  7 13  1  0  0  0  0
  9 56  1  0  0  0  0
  9  7  1  0  0  0  0
 10  9  1  0  0  0  0
 11 58  1  0  0  0  0
 11 10  1  0  0  0  0
 11 57  1  0  0  0  0
 12 10  2  0  0  0  0
 13 16  2  0  0  0  0
 13 14  1  0  0  0  0
 14 15  1  0  0  0  0
 15 61  1  0  0  0  0
 15 62  1  0  0  0  0
 15 63  1  0  0  0  0
 17 18  1  0  0  0  0
 17  4  1  0  0  0  0
 18 46  2  0  0  0  0
 19 18  1  0  0  0  0
 19 65  1  0  0  0  0
 20 19  1  0  0  0  0
 20 21  1  0  0  0  0
 21 66  1  0  0  0  0
 22 20  2  0  0  0  0
 23 22  1  0  0  0  0
 24 25  1  1  0  0  0
 24 26  1  0  0  0  0
 24 23  1  0  0  0  0
 26 67  1  0  0  0  0
 27 26  1  0  0  0  0
 27 69  1  0  0  0  0
 28 29  1  0  0  0  0
 28 27  1  0  0  0  0
 29 71  1  0  0  0  0
 29 24  1  0  0  0  0
 30 22  1  0  0  0  0
 30 31  2  0  0  0  0
 31 32  1  0  0  0  0
 32 21  2  0  0  0  0
 32 33  1  0  0  0  0
 33 34  1  6  0  0  0
 34 74  1  0  0  0  0
 34 35  1  0  0  0  0
 35 36  1  0  0  0  0
 36 75  1  0  0  0  0
 36 37  2  0  0  0  0
 37 38  1  0  0  0  0
 39 37  1  0  0  0  0
 39 40  1  0  0  0  0
 41 39  2  0  0  0  0
 42 35  2  0  0  0  0
 42 41  1  0  0  0  0
 43 33  1  0  0  0  0
 44 43  2  0  0  0  0
 45 31  1  0  0  0  0
 45 44  1  0  0  0  0
 47 79  1  0  0  0  0
 47  2  1  0  0  0  0
 50  1  1  0  0  0  0
 51  3  1  0  0  0  0
 52  3  1  0  0  0  0
 55  6  1  0  0  0  0
 59 11  1  0  0  0  0
 60 14  1  0  0  0  0
 64 17  1  0  0  0  0
 68 26  1  0  0  0  0
 70 27  1  0  0  0  0
 72 29  1  0  0  0  0
 73 30  1  0  0  0  0
 76 41  1  0  0  0  0
 77 42  1  0  0  0  0
 78 44  1  0  0  0  0
 80 47  1  0  0  0  0
 81 47  1  0  0  0  0
M  END
