-1 1
 OpenBabel05232413493D

 70 71  0  0  1  0  0  0  0  0999 V2000
    1.1934    2.3905    2.5422 O   0  0  0  0  0  0  0  0  0  0  0  0
    1.0582    1.4051    1.8187 C   0  0  0  0  0  0  0  0  0  0  0  0
    0.0023    0.5537    1.9221 N   0  0  0  0  0  0  0  0  0  0  0  0
   -0.3106   -0.4806    0.9300 C   0  0  0  0  0  0  0  0  0  0  0  0
   -1.7177   -1.0200    1.1508 C   0  0  0  0  0  0  0  0  0  0  0  0
   -2.7807    0.0623    1.3575 C   0  0  0  0  0  0  0  0  0  0  0  0
   -2.3761    0.9966    2.5190 C   0  0  0  0  0  0  0  0  0  0  0  0
   -0.9501    0.7313    3.0134 C   0  0  0  0  0  0  0  0  0  0  0  0
   -3.1772    0.7099    0.0862 N   0  0  0  0  0  0  0  0  0  0  0  0
   -2.4766    1.4024   -0.8558 C   0  0  0  0  0  0  0  0  0  0  0  0
   -1.4314    2.3950   -0.5024 C   0  0  0  0  0  0  0  0  0  0  0  0
   -0.3671    2.7427   -1.3775 C   0  0  0  0  0  0  0  0  0  0  0  0
   -0.1612    2.1764   -2.6300 N   0  0  0  0  0  0  0  0  0  0  0  0
    1.0239    2.1862   -3.2841 C   0  0  0  0  0  0  0  0  0  0  0  0
    1.0531    1.2851   -4.5009 C   0  0  0  0  0  0  0  0  0  0  0  0
    0.9750    1.8003   -5.7972 C   0  0  0  0  0  0  0  0  0  0  0  0
    0.7490    3.5164   -6.0220 Cl  0  0  0  0  0  0  0  0  0  0  0  0
    1.0577    0.9813   -6.9199 C   0  0  0  0  0  0  0  0  0  0  0  0
    1.2282   -0.3894   -6.7455 C   0  0  0  0  0  0  0  0  0  0  0  0
    1.3113   -0.9370   -5.4691 C   0  0  0  0  0  0  0  0  0  0  0  0
    1.2219   -0.0978   -4.3603 C   0  0  0  0  0  0  0  0  0  0  0  0
    1.3363   -0.7882   -2.7673 Cl  0  0  0  0  0  0  0  0  0  0  0  0
    1.9972    2.8283   -2.9466 O   0  0  0  0  0  0  0  0  0  0  0  0
    0.3777    3.6723   -0.6819 C   0  0  0  0  0  0  0  0  0  0  0  0
   -0.2763    3.8456    0.4959 N   0  0  0  0  0  0  0  0  0  0  0  0
    0.0988    4.2871    1.3279 H   0  0  0  0  0  0  0  0  0  0  0  0
   -1.3500    3.0904    0.6241 N   0  0  0  0  0  0  0  0  0  0  0  0
   -2.7186    1.2294   -2.0519 O   0  0  0  0  0  0  0  0  0  0  0  0
    2.1051    1.1543    0.7751 C   0  0  0  0  0  0  0  0  0  0  0  0
    2.7270    0.0014    0.5194 C   0  0  0  0  0  0  0  0  0  0  0  0
    1.8241   -3.4180    1.9240 S   0  0  0  0  0  1  0  0  0  0  0  0
    1.4454   -2.4322    3.4244 C   0  0  0  0  0  0  0  0  0  0  0  0
    0.5594   -3.1738    4.4501 C   0  0  2  0  0  0  0  0  0  0  0  0
    0.5092   -2.6038    5.3900 H   0  0  0  0  0  0  0  0  0  0  0  0
    1.1477   -4.4684    4.6929 N   0  0  0  0  0  0  0  0  0  0  0  0
    0.7347   -5.3026    5.6721 C   0  0  0  0  0  0  0  0  0  0  0  0
    1.3602   -6.6883    5.6322 C   0  0  0  0  0  0  0  0  0  0  0  0
   -0.0890   -4.9962    6.5176 O   0  0  0  0  0  0  0  0  0  0  0  0
   -0.8906   -3.2402    3.9553 C   0  0  0  0  0  0  0  0  0  0  0  0
   -1.1394   -4.2368    3.0699 N   0  0  0  0  0  0  0  0  0  0  0  0
   -2.4069   -4.3701    2.4046 C   0  0  0  0  0  0  0  0  0  0  0  0
   -1.7253   -2.4155    4.3061 O   0  0  0  0  0  0  0  0  0  0  0  0
    0.3857   -1.3344    0.9859 H   0  0  0  0  0  0  0  0  0  0  0  0
   -0.2136   -0.0464   -0.0791 H   0  0  0  0  0  0  0  0  0  0  0  0
   -1.7290   -1.6524    2.0491 H   0  0  0  0  0  0  0  0  0  0  0  0
   -1.9817   -1.6676    0.3006 H   0  0  0  0  0  0  0  0  0  0  0  0
   -3.7046   -0.4532    1.6553 H   0  0  0  0  0  0  0  0  0  0  0  0
   -3.0568    0.8277    3.3663 H   0  0  0  0  0  0  0  0  0  0  0  0
   -2.4779    2.0396    2.2062 H   0  0  0  0  0  0  0  0  0  0  0  0
   -0.9413   -0.1721    3.6454 H   0  0  0  0  0  0  0  0  0  0  0  0
   -0.5915    1.5729    3.6155 H   0  0  0  0  0  0  0  0  0  0  0  0
   -3.8499    0.1361   -0.4150 H   0  0  0  0  0  0  0  0  0  0  0  0
   -0.9531    1.6277   -2.9664 H   0  0  0  0  0  0  0  0  0  0  0  0
    0.9865    1.4197   -7.9155 H   0  0  0  0  0  0  0  0  0  0  0  0
    1.2960   -1.0410   -7.6187 H   0  0  0  0  0  0  0  0  0  0  0  0
    1.4457   -2.0088   -5.3213 H   0  0  0  0  0  0  0  0  0  0  0  0
    1.3039    4.1756   -0.9338 H   0  0  0  0  0  0  0  0  0  0  0  0
    2.4562    2.0766    0.3033 H   0  0  0  0  0  0  0  0  0  0  0  0
    3.5624   -0.0112   -0.1868 H   0  0  0  0  0  0  0  0  0  0  0  0
    2.4683   -0.9598    0.9833 H   0  0  0  0  0  0  0  0  0  0  0  0
    0.9442   -1.4862    3.1685 H   0  0  0  0  0  0  0  0  0  0  0  0
    2.3816   -2.1607    3.9383 H   0  0  0  0  0  0  0  0  0  0  0  0
    1.7432   -4.7904    3.9249 H   0  0  0  0  0  0  0  0  0  0  0  0
    2.3229   -6.7101    5.1027 H   0  0  0  0  0  0  0  0  0  0  0  0
    0.6649   -7.3711    5.1196 H   0  0  0  0  0  0  0  0  0  0  0  0
    1.4896   -7.0482    6.6610 H   0  0  0  0  0  0  0  0  0  0  0  0
   -0.3007   -4.5872    2.5972 H   0  0  0  0  0  0  0  0  0  0  0  0
   -2.3623   -4.0169    1.3603 H   0  0  0  0  0  0  0  0  0  0  0  0
   -3.1440   -3.7623    2.9461 H   0  0  0  0  0  0  0  0  0  0  0  0
   -2.7429   -5.4194    2.4007 H   0  0  0  0  0  0  0  0  0  0  0  0
  2  3  1  0  0  0  0
  2  1  2  0  0  0  0
  3  8  1  0  0  0  0
  4 43  1  0  0  0  0
  4  5  1  0  0  0  0
  4  3  1  0  0  0  0
  5  6  1  0  0  0  0
  5 45  1  0  0  0  0
  6 47  1  0  0  0  0
  6  7  1  0  0  0  0
  7  8  1  0  0  0  0
  7 48  1  0  0  0  0
  8 51  1  0  0  0  0
  8 50  1  0  0  0  0
  9  6  1  0  0  0  0
 10 11  1  0  0  0  0
 10  9  1  0  0  0  0
 11 27  2  0  0  0  0
 12 24  2  0  0  0  0
 12 11  1  0  0  0  0
 13 12  1  0  0  0  0
 14 23  2  0  0  0  0
 14 13  1  0  0  0  0
 15 21  1  0  0  0  0
 15 14  1  0  0  0  0
 16 15  2  0  0  0  0
 17 16  1  0  0  0  0
 18 19  2  0  0  0  0
 18 16  1  0  0  0  0
 19 20  1  0  0  0  0
 20 56  1  0  0  0  0
 20 21  2  0  0  0  0
 21 22  1  0  0  0  0
 24 25  1  0  0  0  0
 25 27  1  0  0  0  0
 25 26  1  0  0  0  0
 28 10  2  0  0  0  0
 29  2  1  0  0  0  0
 30 29  2  0  0  0  0
 30 60  1  0  0  0  0
 31 32  1  0  0  0  0
 32 62  1  0  0  0  0
 32 33  1  0  0  0  0
 33 35  1  0  0  0  0
 33 34  1  1  0  0  0
 35 36  1  0  0  0  0
 36 38  2  0  0  0  0
 37 36  1  0  0  0  0
 37 66  1  0  0  0  0
 39 42  2  0  0  0  0
 39 33  1  0  0  0  0
 40 39  1  0  0  0  0
 41 69  1  0  0  0  0
 41 40  1  0  0  0  0
 44  4  1  0  0  0  0
 46  5  1  0  0  0  0
 49  7  1  0  0  0  0
 52  9  1  0  0  0  0
 53 13  1  0  0  0  0
 54 18  1  0  0  0  0
 55 19  1  0  0  0  0
 57 24  1  0  0  0  0
 58 29  1  0  0  0  0
 59 30  1  0  0  0  0
 61 32  1  0  0  0  0
 63 35  1  0  0  0  0
 64 37  1  0  0  0  0
 65 37  1  0  0  0  0
 67 40  1  0  0  0  0
 68 41  1  0  0  0  0
 70 41  1  0  0  0  0
M  END
