-1 1
 OpenBabel05192410563D

 70 72  0  0  1  0  0  0  0  0999 V2000
    2.5722    0.0544    1.5102 O   0  0  0  0  0  0  0  0  0  0  0  0
    2.3124   -1.0753    2.0239 C   0  0  0  0  0  0  0  0  0  0  0  0
    1.0316   -1.7268    1.6362 N   0  0  0  0  0  0  0  0  0  0  0  0
    1.2750   -2.4593    0.3821 C   0  0  0  0  0  0  0  0  0  0  0  0
    0.0245   -2.9400   -0.3645 C   0  0  0  0  0  0  0  0  0  0  0  0
   -1.2490   -2.0652   -0.3333 C   0  0  1  0  0  0  0  0  0  0  0  0
   -1.3562   -1.2951    1.0009 C   0  0  0  0  0  0  0  0  0  0  0  0
   -0.0749   -0.7626    1.6435 C   0  0  0  0  0  0  0  0  0  0  0  0
   -1.6252   -1.3587   -1.5789 N   0  0  0  0  0  0  0  0  0  0  0  0
   -1.1840   -0.3196   -2.3420 C   0  0  0  0  0  0  0  0  0  0  0  0
    0.0395    0.3886   -1.9673 C   0  0  0  0  0  0  0  0  0  0  0  0
    0.5798    1.5695   -2.5287 C   0  0  0  0  0  0  0  0  0  0  0  0
    0.0258    2.2165   -3.6328 N   0  0  0  0  0  0  0  0  0  0  0  0
    0.4967    3.3518   -4.1872 C   0  0  0  0  0  0  0  0  0  0  0  0
   -0.3151    3.8353   -5.3746 C   0  0  0  0  0  0  0  0  0  0  0  0
   -1.3859    4.7186   -5.2102 C   0  0  0  0  0  0  0  0  0  0  0  0
   -1.8467    5.2052   -3.6006 Cl  0  0  0  0  0  0  0  0  0  0  0  0
   -2.0994    5.2205   -6.2958 C   0  0  0  0  0  0  0  0  0  0  0  0
   -1.7359    4.8341   -7.5825 C   0  0  0  0  0  0  0  0  0  0  0  0
   -0.6745    3.9566   -7.7844 C   0  0  0  0  0  0  0  0  0  0  0  0
    0.0218    3.4702   -6.6810 C   0  0  0  0  0  0  0  0  0  0  0  0
    1.3487    2.3685   -6.9400 Cl  0  0  0  0  0  0  0  0  0  0  0  0
    1.4743    3.9668   -3.8101 O   0  0  0  0  0  0  0  0  0  0  0  0
    1.6837    1.8567   -1.7361 C   0  0  0  0  0  0  0  0  0  0  0  0
    1.7396    0.8717   -0.8012 N   0  0  0  0  0  0  0  0  0  0  0  0
    2.2975    0.6915    0.0961 H   0  0  0  0  0  0  0  0  0  0  0  0
    0.7680    0.0030   -0.9398 N   0  0  0  0  0  0  0  0  0  0  0  0
   -1.8239    0.0369   -3.3355 O   0  0  0  0  0  0  0  0  0  0  0  0
    3.1503   -1.7678    2.8706 C   0  0  0  0  0  3  0  0  0  0  0  0
    2.8883   -3.0517    3.5465 C   0  0  0  0  0  0  0  0  0  0  0  0
    2.3966   -2.9128    5.3686 S   0  0  0  0  0  0  0  0  0  0  0  0
    0.9937   -1.7730    5.2248 C   0  0  0  0  0  0  0  0  0  0  0  0
   -0.3754   -2.3887    5.5144 C   0  0  2  0  0  0  0  0  0  0  0  0
   -1.1512   -1.6430    5.2721 H   0  0  0  0  0  0  0  0  0  0  0  0
   -0.5333   -2.6786    6.9195 N   0  0  0  0  0  0  0  0  0  0  0  0
   -1.6880   -2.3845    7.5833 C   0  0  0  0  0  0  0  0  0  0  0  0
   -1.8500   -3.1166    8.9020 C   0  0  0  0  0  0  0  0  0  0  0  0
   -2.5227   -1.6054    7.1658 O   0  0  0  0  0  0  0  0  0  0  0  0
   -0.7183   -3.6668    4.7200 C   0  0  0  0  0  0  0  0  0  0  0  0
   -0.4360   -3.6531    3.3976 N   0  0  0  0  0  0  0  0  0  0  0  0
   -0.6874   -4.8170    2.5866 C   0  0  0  0  0  0  0  0  0  0  0  0
   -1.2564   -4.6090    5.2806 O   0  0  0  0  0  0  0  0  0  0  0  0
    1.8673   -3.3519    0.6478 H   0  0  0  0  0  0  0  0  0  0  0  0
    1.8974   -1.8620   -0.2963 H   0  0  0  0  0  0  0  0  0  0  0  0
   -0.2721   -3.9089    0.0629 H   0  0  0  0  0  0  0  0  0  0  0  0
    0.2969   -3.1421   -1.4112 H   0  0  0  0  0  0  0  0  0  0  0  0
   -2.0747   -2.7898   -0.2870 H   0  0  0  0  0  0  0  0  0  0  0  0
   -1.8114   -2.0037    1.7128 H   0  0  0  0  0  0  0  0  0  0  0  0
   -2.0738   -0.4683    0.8890 H   0  0  0  0  0  0  0  0  0  0  0  0
   -0.3122   -0.5545    2.7037 H   0  0  0  0  0  0  0  0  0  0  0  0
    0.2184    0.1972    1.2089 H   0  0  0  0  0  0  0  0  0  0  0  0
   -2.4837   -1.7092   -1.9875 H   0  0  0  0  0  0  0  0  0  0  0  0
   -0.8064    1.7481   -3.9969 H   0  0  0  0  0  0  0  0  0  0  0  0
   -2.9303    5.9054   -6.1255 H   0  0  0  0  0  0  0  0  0  0  0  0
   -2.2890    5.2210   -8.4404 H   0  0  0  0  0  0  0  0  0  0  0  0
   -0.3827    3.6449   -8.7875 H   0  0  0  0  0  0  0  0  0  0  0  0
    2.3929    2.6753   -1.7862 H   0  0  0  0  0  0  0  0  0  0  0  0
    4.0932   -1.2635    3.1001 H   0  0  0  0  0  0  0  0  0  0  0  0
    3.7895   -3.6799    3.6203 H   0  0  0  0  0  0  0  0  0  0  0  0
    2.1046   -3.6466    3.0616 H   0  0  0  0  0  0  0  0  0  0  0  0
    1.0530   -1.3427    4.2135 H   0  0  0  0  0  0  0  0  0  0  0  0
    1.1423   -0.9372    5.9216 H   0  0  0  0  0  0  0  0  0  0  0  0
   -0.0189   -3.4921    7.2384 H   0  0  0  0  0  0  0  0  0  0  0  0
   -0.9062   -3.1599    9.4650 H   0  0  0  0  0  0  0  0  0  0  0  0
   -2.1717   -4.1482    8.6909 H   0  0  0  0  0  0  0  0  0  0  0  0
   -2.6206   -2.6156    9.4993 H   0  0  0  0  0  0  0  0  0  0  0  0
    0.1216   -2.9040    2.9561 H   0  0  0  0  0  0  0  0  0  0  0  0
    0.2202   -5.1085    2.0346 H   0  0  0  0  0  0  0  0  0  0  0  0
   -1.4960   -4.6414    1.8561 H   0  0  0  0  0  0  0  0  0  0  0  0
   -0.9903   -5.6413    3.2442 H   0  0  0  0  0  0  0  0  0  0  0  0
  1  2  2  0  0  0  0
  2 29  1  0  0  0  0
  3  8  1  0  0  0  0
  3  2  1  0  0  0  0
  4 43  1  0  0  0  0
  4  3  1  0  0  0  0
  5  6  1  0  0  0  0
  5 45  1  0  0  0  0
  5  4  1  0  0  0  0
  6 47  1  1  0  0  0
  6  7  1  0  0  0  0
  7  8  1  0  0  0  0
  7 48  1  0  0  0  0
  8 50  1  0  0  0  0
  9  6  1  0  0  0  0
 10 11  1  0  0  0  0
 10  9  1  0  0  0  0
 11 27  2  0  0  0  0
 12 11  1  0  0  0  0
 12 24  2  0  0  0  0
 13 12  1  0  0  0  0
 14 23  2  0  0  0  0
 14 13  1  0  0  0  0
 15 16  1  0  0  0  0
 15 14  1  0  0  0  0
 16 17  1  0  0  0  0
 18 54  1  0  0  0  0
 18 16  2  0  0  0  0
 19 18  1  0  0  0  0
 20 19  2  0  0  0  0
 20 21  1  0  0  0  0
 21 15  2  0  0  0  0
 22 21  1  0  0  0  0
 24 25  1  0  0  0  0
 25 26  1  0  0  0  0
 27 25  1  0  0  0  0
 28 10  2  0  0  0  0
 29 58  1  0  0  0  0
 29 30  1  0  0  0  0
 30 59  1  0  0  0  0
 30 31  1  0  0  0  0
 32 31  1  0  0  0  0
 32 33  1  0  0  0  0
 32 62  1  0  0  0  0
 33 34  1  6  0  0  0
 33 35  1  0  0  0  0
 35 63  1  0  0  0  0
 35 36  1  0  0  0  0
 36 37  1  0  0  0  0
 37 64  1  0  0  0  0
 37 66  1  0  0  0  0
 38 36  2  0  0  0  0
 39 42  2  0  0  0  0
 39 33  1  0  0  0  0
 40 39  1  0  0  0  0
 41 70  1  0  0  0  0
 41 40  1  0  0  0  0
 44  4  1  0  0  0  0
 46  5  1  0  0  0  0
 49  7  1  0  0  0  0
 51  8  1  0  0  0  0
 52  9  1  0  0  0  0
 53 13  1  0  0  0  0
 55 19  1  0  0  0  0
 56 20  1  0  0  0  0
 57 24  1  0  0  0  0
 60 30  1  0  0  0  0
 61 32  1  0  0  0  0
 65 37  1  0  0  0  0
 67 40  1  0  0  0  0
 68 41  1  0  0  0  0
 69 41  1  0  0  0  0
M  END
