-1 1
 OpenBabel05232414493D

 81 82  0  0  1  0  0  0  0  0999 V2000
    3.4649    7.9836    1.9657 C   0  0  0  0  0  0  0  0  0  0  0  0
    3.6764    8.0200    0.5298 N   0  0  0  0  0  0  0  0  0  0  0  0
    2.8736    7.0112   -0.1846 C   0  0  0  0  0  0  0  0  0  0  0  0
    1.3703    7.1133    0.0076 C   0  0  0  0  0  3  0  0  0  0  0  0
    0.6764    8.4951   -1.7251 S   0  0  0  0  0  1  0  0  0  0  0  0
    1.7519    9.9442   -1.5522 C   0  0  0  0  0  0  0  0  0  0  0  0
    1.6952   10.5947   -0.1545 C   0  0  2  0  0  0  0  0  0  0  0  0
    1.8984    9.8163    0.5878 H   0  0  0  0  0  0  0  0  0  0  0  0
    0.4005   11.1220    0.1684 N   0  0  0  0  0  0  0  0  0  0  0  0
   -0.3744   10.5815    1.1411 C   0  0  0  0  0  0  0  0  0  0  0  0
   -1.8176   11.0466    1.1359 C   0  0  0  0  0  0  0  0  0  0  0  0
    0.0298    9.7666    1.9544 O   0  0  0  0  0  0  0  0  0  0  0  0
    2.7901   11.6492   -0.0304 C   0  0  0  0  0  0  0  0  0  0  0  0
    3.9994   11.0811    0.2163 N   0  0  0  0  0  0  0  0  0  0  0  0
    5.2253   11.8264    0.2504 C   0  0  0  0  0  0  0  0  0  0  0  0
    2.6051   12.8453   -0.1815 O   0  0  0  0  0  0  0  0  0  0  0  0
    0.5647    5.9617   -0.0111 C   0  0  0  0  0  3  0  0  0  0  0  0
    0.9173    4.7671   -0.7149 C   0  0  0  0  0  0  0  0  0  0  0  0
   -0.0190    3.7070   -0.6957 N   0  0  0  0  0  0  0  0  0  0  0  0
   -1.3663    3.8876   -0.1984 C   0  0  0  0  0  0  0  0  0  0  0  0
   -2.1959    2.6259   -0.4066 C   0  0  0  0  0  0  0  0  0  0  0  0
   -2.2738    2.2434   -1.8870 C   0  0  0  0  0  0  0  0  0  0  0  0
   -0.8874    2.3851   -2.5637 C   0  0  0  0  0  0  0  0  0  0  0  0
    0.2311    2.5613   -1.5406 C   0  0  0  0  0  0  0  0  0  0  0  0
   -2.8336    0.8958   -1.9821 N   0  0  0  0  0  0  0  0  0  0  0  0
   -3.4299    0.2652   -3.0102 C   0  0  0  0  0  0  0  0  0  0  0  0
   -3.6850    0.9726   -4.2949 C   0  0  0  0  0  0  0  0  0  0  0  0
   -4.3353    0.3599   -5.4038 C   0  0  0  0  0  0  0  0  0  0  0  0
   -4.8080   -0.9461   -5.4143 N   0  0  0  0  0  0  0  0  0  0  0  0
   -5.4280   -1.5264   -6.4648 C   0  0  0  0  0  0  0  0  0  0  0  0
   -5.8331   -2.9649   -6.2164 C   0  0  0  0  0  0  0  0  0  0  0  0
   -4.9797   -4.0231   -6.5411 C   0  0  0  0  0  0  0  0  0  0  0  0
   -3.3935   -3.6716   -7.1732 Cl  0  0  0  0  0  0  0  0  0  0  0  0
   -5.3593   -5.3517   -6.3692 C   0  0  0  0  0  0  0  0  0  0  0  0
   -6.6240   -5.6343   -5.8614 C   0  0  0  0  0  0  0  0  0  0  0  0
   -7.4999   -4.6054   -5.5273 C   0  0  0  0  0  0  0  0  0  0  0  0
   -7.0951   -3.2857   -5.7091 C   0  0  0  0  0  0  0  0  0  0  0  0
   -8.1929   -1.9987   -5.2856 Cl  0  0  0  0  0  0  0  0  0  0  0  0
   -5.6576   -0.9825   -7.5268 O   0  0  0  0  0  0  0  0  0  0  0  0
   -4.3643    1.3302   -6.3855 C   0  0  0  0  0  0  0  0  0  0  0  0
   -3.7562    2.4130   -5.8298 N   0  0  0  0  0  0  0  0  0  0  0  0
   -3.5904    3.3089   -6.2700 H   0  0  0  0  0  0  0  0  0  0  0  0
   -3.3444    2.2235   -4.5924 N   0  0  0  0  0  0  0  0  0  0  0  0
   -3.7879   -0.9136   -2.9124 O   0  0  0  0  0  0  0  0  0  0  0  0
    1.9879    4.5845   -1.3141 O   0  0  0  0  0  0  0  0  0  0  0  0
    5.0753    7.8216    0.2120 C   0  0  0  0  0  0  0  0  0  0  0  0
    2.4214    8.2241    2.2123 H   0  0  0  0  0  0  0  0  0  0  0  0
    4.1014    8.7399    2.4534 H   0  0  0  0  0  0  0  0  0  0  0  0
    3.7068    6.9894    2.4023 H   0  0  0  0  0  0  0  0  0  0  0  0
    3.1918    5.9979    0.1343 H   0  0  0  0  0  0  0  0  0  0  0  0
    3.1139    7.0653   -1.2552 H   0  0  0  0  0  0  0  0  0  0  0  0
    1.0438    7.8634    0.7312 H   0  0  0  0  0  0  0  0  0  0  0  0
    1.4920   10.7051   -2.3098 H   0  0  0  0  0  0  0  0  0  0  0  0
    2.7986    9.6566   -1.7417 H   0  0  0  0  0  0  0  0  0  0  0  0
   -0.0097   11.7767   -0.4831 H   0  0  0  0  0  0  0  0  0  0  0  0
   -2.3916   10.3597    0.4955 H   0  0  0  0  0  0  0  0  0  0  0  0
   -1.9351   12.0680    0.7454 H   0  0  0  0  0  0  0  0  0  0  0  0
   -2.2166   10.9883    2.1559 H   0  0  0  0  0  0  0  0  0  0  0  0
    3.9979   10.0591    0.2852 H   0  0  0  0  0  0  0  0  0  0  0  0
    5.9130   11.5261   -0.5587 H   0  0  0  0  0  0  0  0  0  0  0  0
    5.7515   11.7029    1.2119 H   0  0  0  0  0  0  0  0  0  0  0  0
    4.9763   12.8886    0.1221 H   0  0  0  0  0  0  0  0  0  0  0  0
   -0.4338    6.0733    0.4102 H   0  0  0  0  0  0  0  0  0  0  0  0
   -1.8716    4.7364   -0.7030 H   0  0  0  0  0  0  0  0  0  0  0  0
   -1.3549    4.1346    0.8771 H   0  0  0  0  0  0  0  0  0  0  0  0
   -3.2088    2.7736   -0.0015 H   0  0  0  0  0  0  0  0  0  0  0  0
   -1.7398    1.7982    0.1652 H   0  0  0  0  0  0  0  0  0  0  0  0
   -2.9759    2.9237   -2.3842 H   0  0  0  0  0  0  0  0  0  0  0  0
   -0.9007    3.2655   -3.2230 H   0  0  0  0  0  0  0  0  0  0  0  0
   -0.6986    1.5099   -3.2044 H   0  0  0  0  0  0  0  0  0  0  0  0
    1.1936    2.7518   -2.0320 H   0  0  0  0  0  0  0  0  0  0  0  0
    0.3484    1.6330   -0.9451 H   0  0  0  0  0  0  0  0  0  0  0  0
   -2.6829    0.2771   -1.1913 H   0  0  0  0  0  0  0  0  0  0  0  0
   -4.6265   -1.4377   -4.5323 H   0  0  0  0  0  0  0  0  0  0  0  0
   -4.6648   -6.1502   -6.6309 H   0  0  0  0  0  0  0  0  0  0  0  0
   -6.9309   -6.6724   -5.7217 H   0  0  0  0  0  0  0  0  0  0  0  0
   -8.4913   -4.8162   -5.1259 H   0  0  0  0  0  0  0  0  0  0  0  0
   -4.7604    1.3109   -7.3943 H   0  0  0  0  0  0  0  0  0  0  0  0
    5.4472    6.8202    0.5243 H   0  0  0  0  0  0  0  0  0  0  0  0
    5.6987    8.5807    0.7145 H   0  0  0  0  0  0  0  0  0  0  0  0
    5.2302    7.9114   -0.8739 H   0  0  0  0  0  0  0  0  0  0  0  0
  1 47  1  0  0  0  0
  1 49  1  0  0  0  0
  1 48  1  0  0  0  0
  2  1  1  0  0  0  0
  3  4  1  0  0  0  0
  3 50  1  0  0  0  0
  3  2  1  0  0  0  0
  4 52  1  0  0  0  0
  5  6  1  0  0  0  0
  6  7  1  0  0  0  0
  7 13  1  0  0  0  0
  7  9  1  0  0  0  0
  7  8  1  1  0  0  0
  9 10  1  0  0  0  0
 10 12  2  0  0  0  0
 11 10  1  0  0  0  0
 11 58  1  0  0  0  0
 13 14  1  0  0  0  0
 14 15  1  0  0  0  0
 14 59  1  0  0  0  0
 15 61  1  0  0  0  0
 16 13  2  0  0  0  0
 17  4  1  0  0  0  0
 17 63  1  0  0  0  0
 18 19  1  0  0  0  0
 18 17  1  0  0  0  0
 19 20  1  0  0  0  0
 20 65  1  0  0  0  0
 21 20  1  0  0  0  0
 21 66  1  0  0  0  0
 21 67  1  0  0  0  0
 22 21  1  0  0  0  0
 23 22  1  0  0  0  0
 23 24  1  0  0  0  0
 24 72  1  0  0  0  0
 24 19  1  0  0  0  0
 25 22  1  0  0  0  0
 25 73  1  0  0  0  0
 26 44  2  0  0  0  0
 26 25  1  0  0  0  0
 27 26  1  0  0  0  0
 28 27  1  0  0  0  0
 29 28  1  0  0  0  0
 29 74  1  0  0  0  0
 30 31  1  0  0  0  0
 30 29  1  0  0  0  0
 31 37  1  0  0  0  0
 32 34  1  0  0  0  0
 32 31  2  0  0  0  0
 33 32  1  0  0  0  0
 34 35  2  0  0  0  0
 35 76  1  0  0  0  0
 35 36  1  0  0  0  0
 36 77  1  0  0  0  0
 37 36  2  0  0  0  0
 37 38  1  0  0  0  0
 39 30  2  0  0  0  0
 40 41  1  0  0  0  0
 40 28  2  0  0  0  0
 41 43  1  0  0  0  0
 42 41  1  0  0  0  0
 43 27  2  0  0  0  0
 45 18  2  0  0  0  0
 46 79  1  0  0  0  0
 46  2  1  0  0  0  0
 46 80  1  0  0  0  0
 51  3  1  0  0  0  0
 53  6  1  0  0  0  0
 54  6  1  0  0  0  0
 55  9  1  0  0  0  0
 56 11  1  0  0  0  0
 57 11  1  0  0  0  0
 60 15  1  0  0  0  0
 62 15  1  0  0  0  0
 64 20  1  0  0  0  0
 68 22  1  0  0  0  0
 69 23  1  0  0  0  0
 70 23  1  0  0  0  0
 71 24  1  0  0  0  0
 75 34  1  0  0  0  0
 78 40  1  0  0  0  0
 81 46  1  0  0  0  0
M  END
