81
-1 1
C         3.949591    5.646521    2.930740
N         4.619338    4.360977    2.975854
C         4.723718    3.810090    4.322071
C         3.376095    3.360502    4.824106
S        -0.717275    2.786319    3.611055
C         0.336726    2.424041    2.170040
C         1.126394    3.635683    1.642396
H         1.795214    3.980497    2.447627
N         0.202822    4.678179    1.282963
C         0.605022    5.857712    0.772412
C        -0.496050    6.878277    0.545892
O         1.765486    6.098944    0.466164
C         1.979082    3.174059    0.466885
N         3.239308    2.863493    0.805505
C         4.139148    2.182845   -0.085190
O         1.523302    2.980789   -0.662686
C         2.772342    2.190108    4.578104
C         3.373216    1.077747    3.785736
N         2.640773   -0.074569    3.700788
C         1.330223   -0.295600    4.322274
C         0.585987   -1.445618    3.636237
C         0.746483   -1.336795    2.122547
C         2.234169   -1.467400    1.725239
C         3.159555   -1.173246    2.906728
N        -0.100380   -2.306728    1.444385
C        -0.669499   -2.259501    0.217622
C        -0.528207   -1.052300   -0.628429
C        -1.213066   -0.856852   -1.855807
N        -2.068531   -1.794376   -2.429217
C        -2.718113   -1.637505   -3.599848
C        -3.571387   -2.830736   -3.987594
C        -3.055909   -3.867857   -4.769638
Cl        -1.375959   -3.825404   -5.237727
C        -3.843144   -4.938877   -5.184807
C        -5.183487   -4.978137   -4.811925
C        -5.731399   -3.962688   -4.033712
C        -4.921428   -2.903080   -3.632569
Cl        -5.611840   -1.636123   -2.655221
O        -2.659236   -0.656959   -4.315492
C        -0.829359    0.403871   -2.280220
N         0.028669    0.862004   -1.336347
H         0.511400    1.780689   -1.254848
N         0.223526    0.012840   -0.353413
O        -1.331145   -3.214607   -0.202479
O         4.470218    1.176503    3.237116
C         5.884448    4.377805    2.280243
H         3.007573    5.601065    3.495387
H         3.677203    5.903387    1.896294
H         4.573124    6.459553    3.366659
H         5.155080    4.558885    5.023790
H         5.397251    2.946488    4.277664
H         2.790935    4.086010    5.400116
H        -0.264401    2.028519    1.336128
H         1.087556    1.650934    2.396966
H        -0.703621    4.583588    1.742491
H        -0.131142    7.865298    0.859702
H        -1.425597    6.637790    1.079903
H        -0.709842    6.927421   -0.532268
H         3.607040    3.185835    1.710092
H         4.783373    1.515043    0.504380
H         4.773526    2.882259   -0.657653
H         3.556124    1.591669   -0.804544
H         1.746480    2.085092    4.937902
H         0.701138    0.606179    4.232342
H         1.446334   -0.513487    5.399043
H        -0.477376   -1.371704    3.906353
H         0.948930   -2.429143    3.987432
H         0.399939   -0.339781    1.829033
H         2.434683   -0.773122    0.896315
H         2.428356   -2.487581    1.356345
H         4.163778   -0.893044    2.571728
H         3.260744   -2.063951    3.552132
H        -0.244477   -3.202002    1.900116
H        -2.142747   -2.651727   -1.873393
H        -3.402398   -5.729895   -5.791922
H        -5.809786   -5.813480   -5.130857
H        -6.779116   -3.984569   -3.733081
H        -1.110080    0.972527   -3.159233
H         6.635796    5.045751    2.759838
H         5.730642    4.731096    1.248777
H         6.297545    3.358782    2.239081
