-1 1
 OpenBabel05192410563D

 81 83  0  0  1  0  0  0  0  0999 V2000
    4.9811    4.5122    4.6520 C   0  0  0  0  0  0  0  0  0  0  0  0
    5.2266    4.4422    3.2224 N   0  0  0  0  0  0  0  0  0  0  0  0
    4.3989    3.4109    2.5600 C   0  0  0  0  0  0  0  0  0  0  0  0
    2.8767    3.6168    2.6077 C   0  0  1  0  0  0  0  0  0  0  0  0
    2.2533    4.6294    1.1222 S   0  0  0  0  0  0  0  0  0  0  0  0
    3.3139    6.1009    1.1061 C   0  0  0  0  0  0  0  0  0  0  0  0
    3.2507    6.9482    2.3907 C   0  0  2  0  0  0  0  0  0  0  0  0
    3.3975    6.2821    3.2485 H   0  0  0  0  0  0  0  0  0  0  0  0
    1.9832    7.5874    2.5911 N   0  0  0  0  0  0  0  0  0  0  0  0
    1.1568    7.2591    3.6175 C   0  0  0  0  0  0  0  0  0  0  0  0
   -0.1857    7.9652    3.6038 C   0  0  0  0  0  0  0  0  0  0  0  0
    1.4372    6.4387    4.4729 O   0  0  0  0  0  0  0  0  0  0  0  0
    4.3843    7.9718    2.3848 C   0  0  0  0  0  0  0  0  0  0  0  0
    5.5811    7.4004    2.6578 N   0  0  0  0  0  0  0  0  0  0  0  0
    6.8251    8.1160    2.6021 C   0  0  0  0  0  0  0  0  0  0  0  0
    4.2147    9.1519    2.1211 O   0  0  0  0  0  0  0  0  0  0  0  0
    2.0759    2.3707    2.6582 C   0  0  0  0  0  3  0  0  0  0  0  0
    2.4275    1.2487    1.8949 C   0  0  0  0  0  0  0  0  0  0  0  0
    1.5666    0.1026    1.9610 N   0  0  0  0  0  0  0  0  0  0  0  0
    0.2380    0.2250    2.5104 C   0  0  0  0  0  0  0  0  0  0  0  0
   -0.5720   -1.0429    2.2659 C   0  0  0  0  0  0  0  0  0  0  0  0
   -0.7257   -1.3261    0.7678 C   0  0  1  0  0  0  0  0  0  0  0  0
    0.5970   -1.0350    0.0186 C   0  0  0  0  0  0  0  0  0  0  0  0
    1.7784   -0.9360    0.9809 C   0  0  0  0  0  0  0  0  0  0  0  0
   -1.1910   -2.7051    0.6092 N   0  0  0  0  0  0  0  0  0  0  0  0
   -1.8146   -3.3092   -0.4161 C   0  0  0  0  0  0  0  0  0  0  0  0
   -2.2224   -2.5398   -1.6246 C   0  0  0  0  0  0  0  0  0  0  0  0
   -2.9071   -3.1299   -2.7254 C   0  0  0  0  0  0  0  0  0  0  0  0
   -3.2772   -4.4672   -2.7933 N   0  0  0  0  0  0  0  0  0  0  0  0
   -3.9324   -5.0279   -3.8318 C   0  0  0  0  0  0  0  0  0  0  0  0
   -4.2068   -6.5073   -3.6533 C   0  0  0  0  0  0  0  0  0  0  0  0
   -3.3051   -7.4712   -4.1129 C   0  0  0  0  0  0  0  0  0  0  0  0
   -1.8058   -6.9551   -4.8373 Cl  0  0  0  0  0  0  0  0  0  0  0  0
   -3.5684   -8.8342   -4.0040 C   0  0  0  0  0  0  0  0  0  0  0  0
   -4.7631   -9.2488   -3.4229 C   0  0  0  0  0  0  0  0  0  0  0  0
   -5.6844   -8.3166   -2.9544 C   0  0  0  0  0  0  0  0  0  0  0  0
   -5.3961   -6.9598   -3.0756 C   0  0  0  0  0  0  0  0  0  0  0  0
   -6.5504   -5.7944   -2.4834 Cl  0  0  0  0  0  0  0  0  0  0  0  0
   -4.2872   -4.4398   -4.8347 O   0  0  0  0  0  0  0  0  0  0  0  0
   -3.0862   -2.1040   -3.6314 C   0  0  0  0  0  0  0  0  0  0  0  0
   -2.5225   -1.0133   -3.0445 N   0  0  0  0  0  0  0  0  0  0  0  0
   -2.4585   -0.0806   -3.4312 H   0  0  0  0  0  0  0  0  0  0  0  0
   -2.0032   -1.2487   -1.8560 N   0  0  0  0  0  0  0  0  0  0  0  0
   -2.0757   -4.5180   -0.3823 O   0  0  0  0  0  0  0  0  0  0  0  0
    3.4505    1.1444    1.1777 O   0  0  0  0  0  0  0  0  0  0  0  0
    6.6256    4.1633    2.9637 C   0  0  0  0  0  0  0  0  0  0  0  0
    3.9367    4.7853    4.8570 H   0  0  0  0  0  0  0  0  0  0  0  0
    5.6218    5.2873    5.1039 H   0  0  0  0  0  0  0  0  0  0  0  0
    5.1886    3.5458    5.1608 H   0  0  0  0  0  0  0  0  0  0  0  0
    4.6144    2.4278    3.0231 H   0  0  0  0  0  0  0  0  0  0  0  0
    4.7241    3.3164    1.5155 H   0  0  0  0  0  0  0  0  0  0  0  0
    2.6016    4.2466    3.4648 H   0  0  0  0  0  0  0  0  0  0  0  0
    3.0100    6.7165    0.2433 H   0  0  0  0  0  0  0  0  0  0  0  0
    4.3565    5.7957    0.9340 H   0  0  0  0  0  0  0  0  0  0  0  0
    1.7614    8.3699    1.9904 H   0  0  0  0  0  0  0  0  0  0  0  0
   -0.9089    7.3149    3.0891 H   0  0  0  0  0  0  0  0  0  0  0  0
   -0.1575    8.9348    3.0859 H   0  0  0  0  0  0  0  0  0  0  0  0
   -0.5251    8.1040    4.6377 H   0  0  0  0  0  0  0  0  0  0  0  0
    5.5561    6.3857    2.8233 H   0  0  0  0  0  0  0  0  0  0  0  0
    7.4916    7.7175    1.8187 H   0  0  0  0  0  0  0  0  0  0  0  0
    7.3617    8.0724    3.5644 H   0  0  0  0  0  0  0  0  0  0  0  0
    6.6029    9.1669    2.3726 H   0  0  0  0  0  0  0  0  0  0  0  0
    1.1428    2.4228    3.2173 H   0  0  0  0  0  0  0  0  0  0  0  0
   -0.3049    1.0910    2.0725 H   0  0  0  0  0  0  0  0  0  0  0  0
    0.2828    0.4199    3.5969 H   0  0  0  0  0  0  0  0  0  0  0  0
   -1.5633   -0.9589    2.7381 H   0  0  0  0  0  0  0  0  0  0  0  0
   -0.0565   -1.8917    2.7501 H   0  0  0  0  0  0  0  0  0  0  0  0
   -1.5088   -0.6709    0.3673 H   0  0  0  0  0  0  0  0  0  0  0  0
    0.5017   -0.0762   -0.5130 H   0  0  0  0  0  0  0  0  0  0  0  0
    0.7655   -1.8092   -0.7465 H   0  0  0  0  0  0  0  0  0  0  0  0
    2.7018   -0.6574    0.4549 H   0  0  0  0  0  0  0  0  0  0  0  0
    1.9537   -1.9240    1.4567 H   0  0  0  0  0  0  0  0  0  0  0  0
   -0.9316   -3.3624    1.3383 H   0  0  0  0  0  0  0  0  0  0  0  0
   -2.9882   -4.9950   -1.9614 H   0  0  0  0  0  0  0  0  0  0  0  0
   -2.8386   -9.5562   -4.3709 H   0  0  0  0  0  0  0  0  0  0  0  0
   -4.9785  -10.3151   -3.3314 H   0  0  0  0  0  0  0  0  0  0  0  0
   -6.6215   -8.6310   -2.4946 H   0  0  0  0  0  0  0  0  0  0  0  0
   -3.5555   -2.0904   -4.6084 H   0  0  0  0  0  0  0  0  0  0  0  0
    6.9403    3.1695    3.3511 H   0  0  0  0  0  0  0  0  0  0  0  0
    7.2672    4.9262    3.4375 H   0  0  0  0  0  0  0  0  0  0  0  0
    6.8171    4.1741    1.8800 H   0  0  0  0  0  0  0  0  0  0  0  0
  1 47  1  0  0  0  0
  1 48  1  0  0  0  0
  1 49  1  0  0  0  0
  2  1  1  0  0  0  0
  3  4  1  0  0  0  0
  3 50  1  0  0  0  0
  3  2  1  0  0  0  0
  4 17  1  0  0  0  0
  4 52  1  1  0  0  0
  5  4  1  0  0  0  0
  6  5  1  0  0  0  0
  6  7  1  0  0  0  0
  7  9  1  0  0  0  0
  7  8  1  1  0  0  0
  9 10  1  0  0  0  0
 10 12  2  0  0  0  0
 11 10  1  0  0  0  0
 11 58  1  0  0  0  0
 13  7  1  0  0  0  0
 13 14  1  0  0  0  0
 14 59  1  0  0  0  0
 15 14  1  0  0  0  0
 15 61  1  0  0  0  0
 16 13  2  0  0  0  0
 17 63  1  0  0  0  0
 18 19  1  0  0  0  0
 18 17  1  0  0  0  0
 19 20  1  0  0  0  0
 20 65  1  0  0  0  0
 21 20  1  0  0  0  0
 21 66  1  0  0  0  0
 21 67  1  0  0  0  0
 22 68  1  6  0  0  0
 22 21  1  0  0  0  0
 23 22  1  0  0  0  0
 23 24  1  0  0  0  0
 24 72  1  0  0  0  0
 24 19  1  0  0  0  0
 25 22  1  0  0  0  0
 25 73  1  0  0  0  0
 26 44  2  0  0  0  0
 26 25  1  0  0  0  0
 27 26  1  0  0  0  0
 28 27  1  0  0  0  0
 29 28  1  0  0  0  0
 29 74  1  0  0  0  0
 30 31  1  0  0  0  0
 30 29  1  0  0  0  0
 31 37  1  0  0  0  0
 32 34  1  0  0  0  0
 32 31  2  0  0  0  0
 33 32  1  0  0  0  0
 34 35  2  0  0  0  0
 35 76  1  0  0  0  0
 35 36  1  0  0  0  0
 36 77  1  0  0  0  0
 37 36  2  0  0  0  0
 37 38  1  0  0  0  0
 39 30  2  0  0  0  0
 40 41  1  0  0  0  0
 40 28  2  0  0  0  0
 41 43  1  0  0  0  0
 42 41  1  0  0  0  0
 43 27  2  0  0  0  0
 45 18  2  0  0  0  0
 46  2  1  0  0  0  0
 46 79  1  0  0  0  0
 46 80  1  0  0  0  0
 51  3  1  0  0  0  0
 53  6  1  0  0  0  0
 54  6  1  0  0  0  0
 55  9  1  0  0  0  0
 56 11  1  0  0  0  0
 57 11  1  0  0  0  0
 60 15  1  0  0  0  0
 62 15  1  0  0  0  0
 64 20  1  0  0  0  0
 69 23  1  0  0  0  0
 70 23  1  0  0  0  0
 71 24  1  0  0  0  0
 75 34  1  0  0  0  0
 78 40  1  0  0  0  0
 81 46  1  0  0  0  0
M  END
