70
-1 1
O        -2.474623    0.725247    1.322693
C        -3.440325    1.409479    0.907094
N        -3.471493    1.714620   -0.533934
C        -4.582496    1.111824   -1.283224
C        -4.116308    0.068600   -2.308044
C        -2.968326   -0.745278   -1.721800
C        -1.732808    0.150610   -1.525434
H        -1.146638    0.165250   -2.457022
C        -2.180760    1.593322   -1.196826
N        -0.865286   -0.369175   -0.492268
C         0.181229   -1.147042   -0.754055
C         0.966445   -1.615726    0.423231
C         2.118155   -2.451648    0.356052
N         2.621845   -2.920705   -0.857667
C         3.672426   -3.730362   -1.120385
C         4.467200   -4.228548    0.071020
C         5.586182   -3.533174    0.536318
Cl         6.014768   -2.017701   -0.207626
C         6.354662   -4.004310    1.597980
C         6.002004   -5.204059    2.210049
C         4.897310   -5.926535    1.767122
C         4.146357   -5.432253    0.703510
Cl         2.749089   -6.325836    0.170294
O         4.001406   -4.069296   -2.238315
C         2.503645   -2.612439    1.676243
N         1.599857   -1.898387    2.404698
H         1.582067   -1.791277    3.409812
N         0.679701   -1.298781    1.677087
O         0.540057   -1.493459   -1.888474
C        -4.493311    1.898294    1.670039
C        -5.457594    2.936012    1.271529
S        -5.077500    4.694913    1.903127
C        -3.304185    4.823353    1.573806
C        -2.943856    5.437654    0.226315
H        -3.415853    6.429854    0.134299
N        -3.444345    4.634973   -0.877472
C        -3.771957    5.183454   -2.061613
C        -4.431050    4.253425   -3.059156
O        -3.573386    6.367005   -2.336077
C        -1.418731    5.642294    0.099486
N        -1.072446    6.425821   -0.955715
C         0.297595    6.651189   -1.328798
O        -0.616719    5.150888    0.872623
H        -5.195240    1.882619   -1.786626
H        -5.241401    0.628004   -0.546683
H        -3.787411    0.555052   -3.244063
H        -4.967680   -0.575023   -2.579559
H        -2.706742   -1.611991   -2.347287
H        -3.268310   -1.126435   -0.732076
H        -2.230205    2.161881   -2.141679
H        -1.420425    2.086048   -0.575490
H        -1.198754   -0.121537    0.460258
H         2.064970   -2.574708   -1.654367
H         7.217020   -3.429828    1.936946
H         6.597126   -5.581847    3.043622
H         4.611479   -6.866732    2.239307
H         3.314357   -3.151083    2.154399
H        -4.468467    1.609125    2.724035
H        -6.460432    2.788837    1.703198
H        -5.580028    3.033058    0.184951
H        -2.872356    3.813757    1.678538
H        -2.859038    5.434139    2.369848
H        -3.557136    3.615819   -0.719678
H        -4.432139    4.736345   -4.043098
H        -5.469740    4.058350   -2.752377
H        -3.912468    3.286604   -3.117565
H        -1.832013    6.721217   -1.572087
H         0.540360    6.186081   -2.299347
H         0.936911    6.202124   -0.557521
H         0.525410    7.727715   -1.396306
