70
-1 1
O        -1.615440    0.796909    3.014570
C        -2.594209    1.237954    2.411194
N        -2.473589    1.943699    1.254027
C        -3.497566    1.994187    0.201466
C        -2.828481    1.824945   -1.168911
C        -1.694837    0.802328   -1.091910
C        -0.568319    1.293195   -0.147341
H         0.228322    1.762242   -0.745339
C        -1.138550    2.329887    0.821748
N         0.029766    0.202276    0.610125
C         0.886032   -0.662173    0.059071
C         1.403452   -1.736519    0.951910
C         2.324104   -2.751519    0.565262
N         2.842035   -2.831400   -0.726470
C         3.708500   -3.717411   -1.274180
C         4.225793   -4.818253   -0.369602
C         5.407946   -4.661116    0.358429
Cl         6.245264   -3.135085    0.299421
C         5.921819   -5.682874    1.153150
C         5.241819   -6.895953    1.220904
C         4.064182   -7.088612    0.503593
C         3.572344   -6.050249   -0.283450
Cl         2.083878   -6.285224   -1.156794
O         4.078052   -3.669068   -2.427679
C         2.502047   -3.506014    1.713098
N         1.714898   -2.919368    2.658113
H         1.603303   -3.213634    3.618906
N         1.054117   -1.865498    2.223961
O         1.262976   -0.614893   -1.115003
C        -3.955076    1.035722    2.991750
C        -4.949400    1.926730    2.952820
S        -5.256888    5.228360    1.005943
C        -3.568123    5.576136    0.395047
C        -3.488592    5.815822   -1.128282
H        -3.765677    6.862410   -1.352155
N        -4.442077    4.940260   -1.795228
C        -4.975338    5.203914   -3.004010
C        -6.240175    4.432930   -3.321581
O        -4.513139    6.015097   -3.806041
C        -2.062794    5.589757   -1.677442
N        -1.872410    6.085537   -2.922872
C        -0.657351    5.855564   -3.657935
O        -1.181290    5.023531   -1.045082
H        -4.083901    2.926268    0.254898
H        -4.198382    1.163972    0.371227
H        -2.441747    2.792314   -1.522154
H        -3.591354    1.513291   -1.898171
H        -1.279317    0.575313   -2.083560
H        -2.091178   -0.145390   -0.689184
H        -1.199586    3.305756    0.320013
H        -0.495663    2.438640    1.702841
H        -0.259649    0.097071    1.587478
H         2.480583   -2.081049   -1.332110
H         6.844431   -5.521108    1.711025
H         5.636123   -7.703404    1.840762
H         3.523473   -8.034185    0.549751
H         3.098943   -4.382004    1.941619
H        -4.033756    0.123223    3.591045
H        -5.878093    1.730272    3.497375
H        -4.894138    2.880711    2.406070
H        -2.896289    4.741499    0.642404
H        -3.144145    6.462474    0.889515
H        -5.080840    4.545604   -1.074481
H        -6.324881    4.308840   -4.408248
H        -7.102729    5.017674   -2.966367
H        -6.264431    3.455263   -2.821619
H        -2.727288    6.347209   -3.425162
H        -0.779292    5.066773   -4.420653
H         0.119619    5.534117   -2.952624
H        -0.325100    6.775174   -4.164788
