-1 1
 OpenBabel05232414493D

 81 82  0  0  1  0  0  0  0  0999 V2000
   -3.8925   -2.0706   -7.0431 C   0  0  0  0  0  0  0  0  0  0  0  0
   -4.7761   -1.0987   -6.4549 N   0  0  0  0  0  0  0  0  0  0  0  0
   -4.0805    0.0366   -5.8852 C   0  0  0  0  0  0  0  0  0  0  0  0
   -4.7849    0.6774   -4.7107 C   0  0  0  0  0  3  0  0  0  0  0  0
   -4.7328   -1.2845   -3.2185 S   0  0  0  0  0  1  0  0  0  0  0  0
   -3.8392   -0.4584   -1.8861 C   0  0  0  0  0  0  0  0  0  0  0  0
   -2.3224   -0.2786   -2.1283 C   0  0  2  0  0  0  0  0  0  0  0  0
   -2.1800    0.3712   -3.0016 H   0  0  0  0  0  0  0  0  0  0  0  0
   -1.6600   -1.5256   -2.4026 N   0  0  0  0  0  0  0  0  0  0  0  0
   -1.2940   -1.9413   -3.6337 C   0  0  0  0  0  0  0  0  0  0  0  0
   -0.9056   -3.4064   -3.7150 C   0  0  0  0  0  0  0  0  0  0  0  0
   -1.2833   -1.2314   -4.6283 O   0  0  0  0  0  0  0  0  0  0  0  0
   -1.7103    0.3527   -0.8760 C   0  0  0  0  0  0  0  0  0  0  0  0
   -1.9246    1.6742   -0.7479 N   0  0  0  0  0  0  0  0  0  0  0  0
   -1.6274    2.3899    0.4648 C   0  0  0  0  0  0  0  0  0  0  0  0
   -1.1276   -0.3397   -0.0431 O   0  0  0  0  0  0  0  0  0  0  0  0
   -4.1974    1.8022   -4.1450 C   0  0  0  0  0  3  0  0  0  0  0  0
   -4.5983    2.5759   -2.9984 C   0  0  0  0  0  0  0  0  0  0  0  0
   -5.9301    2.6606   -2.5900 N   0  0  0  0  0  0  0  0  0  0  0  0
   -7.1049    2.3367   -3.3658 C   0  0  0  0  0  0  0  0  0  0  0  0
   -7.8082    1.0795   -2.8432 C   0  0  0  0  0  0  0  0  0  0  0  0
   -8.0809    1.1914   -1.3391 C   0  0  0  0  0  0  0  0  0  0  0  0
   -6.7899    1.5559   -0.6149 C   0  0  1  0  0  0  0  0  0  0  0  0
   -6.0508    0.7638   -0.8073 H   0  0  0  0  0  0  0  0  0  0  0  0
   -6.2016    2.8557   -1.1883 C   0  0  0  0  0  0  0  0  0  0  0  0
   -6.9641    1.6254    0.8248 N   0  0  0  0  0  0  0  0  0  0  0  0
   -5.9020    1.5015    1.6398 C   0  0  0  0  0  0  0  0  0  0  0  0
   -6.1535    1.5303    3.1017 C   0  0  0  0  0  0  0  0  0  0  0  0
   -5.1331    1.4004    4.0797 C   0  0  0  0  0  0  0  0  0  0  0  0
   -3.7887    1.2601    3.7753 N   0  0  0  0  0  0  0  0  0  0  0  0
   -2.8098    1.0132    4.6795 C   0  0  0  0  0  0  0  0  0  0  0  0
   -1.4485    0.8581    4.0379 C   0  0  0  0  0  0  0  0  0  0  0  0
   -1.1154   -0.2698    3.2795 C   0  0  0  0  0  0  0  0  0  0  0  0
   -2.2784   -1.5519    3.0870 Cl  0  0  0  0  0  0  0  0  0  0  0  0
    0.1221   -0.3968    2.6559 C   0  0  0  0  0  0  0  0  0  0  0  0
    1.0604    0.6166    2.8065 C   0  0  0  0  0  0  0  0  0  0  0  0
    0.7696    1.7495    3.5625 C   0  0  0  0  0  0  0  0  0  0  0  0
   -0.4788    1.8582    4.1651 C   0  0  0  0  0  0  0  0  0  0  0  0
   -0.8502    3.3094    5.0658 Cl  0  0  0  0  0  0  0  0  0  0  0  0
   -2.9873    0.9425    5.8796 O   0  0  0  0  0  0  0  0  0  0  0  0
   -5.7972    1.4518    5.2898 C   0  0  0  0  0  0  0  0  0  0  0  0
   -7.1131    1.6072    4.9687 N   0  0  0  0  0  0  0  0  0  0  0  0
   -7.8863    1.6779    5.6156 H   0  0  0  0  0  0  0  0  0  0  0  0
   -7.3488    1.6557    3.6672 N   0  0  0  0  0  0  0  0  0  0  0  0
   -4.7520    1.3566    1.2292 O   0  0  0  0  0  0  0  0  0  0  0  0
   -3.7513    3.1667   -2.2986 O   0  0  0  0  0  0  0  0  0  0  0  0
   -5.8676   -0.7355   -7.3133 C   0  0  0  0  0  0  0  0  0  0  0  0
   -3.1010   -2.3279   -6.3252 H   0  0  0  0  0  0  0  0  0  0  0  0
   -3.4000   -1.7087   -7.9786 H   0  0  0  0  0  0  0  0  0  0  0  0
   -4.4503   -2.9879   -7.2963 H   0  0  0  0  0  0  0  0  0  0  0  0
   -3.9159    0.8251   -6.6592 H   0  0  0  0  0  0  0  0  0  0  0  0
   -3.0848   -0.2842   -5.5475 H   0  0  0  0  0  0  0  0  0  0  0  0
   -5.8618    0.5283   -4.6822 H   0  0  0  0  0  0  0  0  0  0  0  0
   -3.9801   -1.0073   -0.9396 H   0  0  0  0  0  0  0  0  0  0  0  0
   -4.2471    0.5483   -1.7150 H   0  0  0  0  0  0  0  0  0  0  0  0
   -1.5974   -2.1642   -1.6206 H   0  0  0  0  0  0  0  0  0  0  0  0
   -0.1668   -3.5384   -4.5153 H   0  0  0  0  0  0  0  0  0  0  0  0
   -1.8107   -3.9765   -3.9751 H   0  0  0  0  0  0  0  0  0  0  0  0
   -0.5076   -3.8000   -2.7682 H   0  0  0  0  0  0  0  0  0  0  0  0
   -2.5045    2.1671   -1.4449 H   0  0  0  0  0  0  0  0  0  0  0  0
   -1.0789    3.3197    0.2473 H   0  0  0  0  0  0  0  0  0  0  0  0
   -1.0057    1.7558    1.1099 H   0  0  0  0  0  0  0  0  0  0  0  0
   -2.5529    2.6513    1.0035 H   0  0  0  0  0  0  0  0  0  0  0  0
   -3.1417    1.9730   -4.3810 H   0  0  0  0  0  0  0  0  0  0  0  0
   -6.8306    2.2446   -4.4227 H   0  0  0  0  0  0  0  0  0  0  0  0
   -7.8057    3.1946   -3.2946 H   0  0  0  0  0  0  0  0  0  0  0  0
   -7.1585    0.2038   -3.0159 H   0  0  0  0  0  0  0  0  0  0  0  0
   -8.7511    0.9193   -3.3911 H   0  0  0  0  0  0  0  0  0  0  0  0
   -8.4794    0.2405   -0.9503 H   0  0  0  0  0  0  0  0  0  0  0  0
   -8.8409    1.9742   -1.1454 H   0  0  0  0  0  0  0  0  0  0  0  0
   -5.2601    3.1098   -0.6899 H   0  0  0  0  0  0  0  0  0  0  0  0
   -6.9203    3.6857   -1.0329 H   0  0  0  0  0  0  0  0  0  0  0  0
   -7.8787    1.7485    1.2422 H   0  0  0  0  0  0  0  0  0  0  0  0
   -3.6061    1.2430    2.7663 H   0  0  0  0  0  0  0  0  0  0  0  0
    0.3187   -1.2614    2.0252 H   0  0  0  0  0  0  0  0  0  0  0  0
    2.0268    0.5336    2.3064 H   0  0  0  0  0  0  0  0  0  0  0  0
    1.4941    2.5566    3.6719 H   0  0  0  0  0  0  0  0  0  0  0  0
   -5.4273    1.3844    6.3068 H   0  0  0  0  0  0  0  0  0  0  0  0
   -6.4494   -1.6281   -7.5962 H   0  0  0  0  0  0  0  0  0  0  0  0
   -5.5389   -0.2322   -8.2568 H   0  0  0  0  0  0  0  0  0  0  0  0
   -6.5527   -0.0465   -6.7951 H   0  0  0  0  0  0  0  0  0  0  0  0
  1  2  1  0  0  0  0
  1 48  1  0  0  0  0
  2  3  1  0  0  0  0
  3 52  1  0  0  0  0
  3  4  1  0  0  0  0
  4 53  1  0  0  0  0
  4 17  1  0  0  0  0
  5  6  1  0  0  0  0
  6 55  1  0  0  0  0
  6 54  1  0  0  0  0
  7  8  1  6  0  0  0
  7  6  1  0  0  0  0
  7 13  1  0  0  0  0
  9  7  1  0  0  0  0
  9 56  1  0  0  0  0
 10  9  1  0  0  0  0
 11 10  1  0  0  0  0
 11 59  1  0  0  0  0
 12 10  2  0  0  0  0
 13 14  1  0  0  0  0
 13 16  2  0  0  0  0
 14 15  1  0  0  0  0
 15 63  1  0  0  0  0
 15 62  1  0  0  0  0
 17 18  1  0  0  0  0
 18 19  1  0  0  0  0
 18 46  2  0  0  0  0
 19 25  1  0  0  0  0
 20 66  1  0  0  0  0
 20 21  1  0  0  0  0
 20 19  1  0  0  0  0
 21 22  1  0  0  0  0
 22 70  1  0  0  0  0
 22 69  1  0  0  0  0
 22 23  1  0  0  0  0
 23 24  1  6  0  0  0
 23 26  1  0  0  0  0
 25 72  1  0  0  0  0
 25 71  1  0  0  0  0
 25 23  1  0  0  0  0
 26 73  1  0  0  0  0
 26 27  1  0  0  0  0
 27 28  1  0  0  0  0
 28 44  2  0  0  0  0
 28 29  1  0  0  0  0
 29 41  2  0  0  0  0
 30 29  1  0  0  0  0
 30 31  1  0  0  0  0
 31 40  2  0  0  0  0
 32 38  1  0  0  0  0
 32 31  1  0  0  0  0
 33 32  2  0  0  0  0
 34 33  1  0  0  0  0
 35 36  2  0  0  0  0
 35 33  1  0  0  0  0
 36 37  1  0  0  0  0
 37 77  1  0  0  0  0
 37 38  2  0  0  0  0
 38 39  1  0  0  0  0
 41 78  1  0  0  0  0
 42 41  1  0  0  0  0
 42 43  1  0  0  0  0
 44 42  1  0  0  0  0
 45 27  2  0  0  0  0
 47 81  1  0  0  0  0
 47  2  1  0  0  0  0
 49  1  1  0  0  0  0
 50  1  1  0  0  0  0
 51  3  1  0  0  0  0
 57 11  1  0  0  0  0
 58 11  1  0  0  0  0
 60 14  1  0  0  0  0
 61 15  1  0  0  0  0
 64 17  1  0  0  0  0
 65 20  1  0  0  0  0
 67 21  1  0  0  0  0
 68 21  1  0  0  0  0
 74 30  1  0  0  0  0
 75 35  1  0  0  0  0
 76 36  1  0  0  0  0
 79 47  1  0  0  0  0
 80 47  1  0  0  0  0
M  END
