-1 1
 OpenBabel05232413493D

 81 82  0  0  1  0  0  0  0  0999 V2000
    0.4329   -2.3764   -7.1261 C   0  0  0  0  0  0  0  0  0  0  0  0
   -0.4706   -1.7763   -6.1776 N   0  0  0  0  0  0  0  0  0  0  0  0
   -0.0158   -0.4664   -5.7658 C   0  0  0  0  0  0  0  0  0  0  0  0
   -0.7557    0.0908   -4.5856 C   0  0  0  0  0  0  0  0  0  0  0  0
   -1.6316   -2.1041   -1.5831 S   0  0  0  0  0  1  0  0  0  0  0  0
   -0.1884   -1.1941   -0.9246 C   0  0  0  0  0  0  0  0  0  0  0  0
    1.0053   -1.1115   -1.9030 C   0  0  2  0  0  0  0  0  0  0  0  0
    0.7588   -0.4196   -2.7222 H   0  0  0  0  0  0  0  0  0  0  0  0
    1.2570   -2.4194   -2.4469 N   0  0  0  0  0  0  0  0  0  0  0  0
    1.8871   -2.6117   -3.6227 C   0  0  0  0  0  0  0  0  0  0  0  0
    1.7084   -4.0007   -4.2067 C   0  0  0  0  0  0  0  0  0  0  0  0
    2.5176   -1.7408   -4.2118 O   0  0  0  0  0  0  0  0  0  0  0  0
    2.2037   -0.5219   -1.1605 C   0  0  0  0  0  0  0  0  0  0  0  0
    2.1729    0.8324   -1.1168 N   0  0  0  0  0  0  0  0  0  0  0  0
    3.1000    1.6011   -0.3346 C   0  0  0  0  0  0  0  0  0  0  0  0
    3.0627   -1.1973   -0.6094 O   0  0  0  0  0  0  0  0  0  0  0  0
   -0.7350    1.3914   -4.2774 C   0  0  0  0  0  0  0  0  0  0  0  0
   -1.0777    1.9162   -2.9204 C   0  0  0  0  0  0  0  0  0  0  0  0
   -2.3702    1.9199   -2.5007 N   0  0  0  0  0  0  0  0  0  0  0  0
   -3.5268    1.5283   -3.2882 C   0  0  0  0  0  0  0  0  0  0  0  0
   -4.2273    0.3148   -2.6788 C   0  0  0  0  0  0  0  0  0  0  0  0
   -4.5276    0.5217   -1.1921 C   0  0  0  0  0  0  0  0  0  0  0  0
   -3.2439    0.9227   -0.4753 C   0  0  1  0  0  0  0  0  0  0  0  0
   -2.5252    0.0993   -0.6388 H   0  0  0  0  0  0  0  0  0  0  0  0
   -2.6574    2.1900   -1.1046 C   0  0  0  0  0  0  0  0  0  0  0  0
   -3.4527    1.0706    0.9569 N   0  0  0  0  0  0  0  0  0  0  0  0
   -2.4068    1.1119    1.8042 C   0  0  0  0  0  0  0  0  0  0  0  0
   -2.6955    0.9223    3.2488 C   0  0  0  0  0  0  0  0  0  0  0  0
   -1.6901    0.7754    4.2405 C   0  0  0  0  0  0  0  0  0  0  0  0
   -0.3319    0.8293    3.9694 N   0  0  0  0  0  0  0  0  0  0  0  0
    0.6445    0.3820    4.7994 C   0  0  0  0  0  0  0  0  0  0  0  0
    1.9988    0.3451    4.1246 C   0  0  0  0  0  0  0  0  0  0  0  0
    2.2736   -0.5761    3.1033 C   0  0  0  0  0  0  0  0  0  0  0  0
    1.0704   -1.7562    2.6662 Cl  0  0  0  0  0  0  0  0  0  0  0  0
    3.4859   -0.5802    2.4184 C   0  0  0  0  0  0  0  0  0  0  0  0
    4.4673    0.3326    2.7925 C   0  0  0  0  0  0  0  0  0  0  0  0
    4.2445    1.2425    3.8224 C   0  0  0  0  0  0  0  0  0  0  0  0
    3.0119    1.2440    4.4689 C   0  0  0  0  0  0  0  0  0  0  0  0
    2.7225    2.4363    5.7159 Cl  0  0  0  0  0  0  0  0  0  0  0  0
    0.4641    0.0504    5.9539 O   0  0  0  0  0  0  0  0  0  0  0  0
   -2.3824    0.5449    5.4126 C   0  0  0  0  0  0  0  0  0  0  0  0
   -3.6994    0.5763    5.0617 N   0  0  0  0  0  0  0  0  0  0  0  0
   -4.4899    0.4377    5.6759 H   0  0  0  0  0  0  0  0  0  0  0  0
   -3.9091    0.7974    3.7735 N   0  0  0  0  0  0  0  0  0  0  0  0
   -1.2434    1.2714    1.4406 O   0  0  0  0  0  0  0  0  0  0  0  0
   -0.1633    2.3313   -2.2119 O   0  0  0  0  0  0  0  0  0  0  0  0
   -1.8436   -1.7981   -6.6108 C   0  0  0  0  0  0  0  0  0  0  0  0
    1.4492   -2.3885   -6.7042 H   0  0  0  0  0  0  0  0  0  0  0  0
    0.4676   -1.8319   -8.1004 H   0  0  0  0  0  0  0  0  0  0  0  0
    0.1317   -3.4155   -7.3355 H   0  0  0  0  0  0  0  0  0  0  0  0
   -0.0367    0.2680   -6.6092 H   0  0  0  0  0  0  0  0  0  0  0  0
    1.0374   -0.5722   -5.4529 H   0  0  0  0  0  0  0  0  0  0  0  0
   -1.1986   -0.6390   -3.8849 H   0  0  0  0  0  0  0  0  0  0  0  0
    0.1678   -1.6854   -0.0055 H   0  0  0  0  0  0  0  0  0  0  0  0
   -0.4478   -0.1632   -0.6362 H   0  0  0  0  0  0  0  0  0  0  0  0
    0.5231   -3.0856   -2.1936 H   0  0  0  0  0  0  0  0  0  0  0  0
    2.5336   -4.2136   -4.8978 H   0  0  0  0  0  0  0  0  0  0  0  0
    0.7588   -4.0048   -4.7645 H   0  0  0  0  0  0  0  0  0  0  0  0
    1.6580   -4.7761   -3.4296 H   0  0  0  0  0  0  0  0  0  0  0  0
    1.3912    1.3231   -1.5552 H   0  0  0  0  0  0  0  0  0  0  0  0
    3.3489    2.5399   -0.8518 H   0  0  0  0  0  0  0  0  0  0  0  0
    4.0179    1.0138   -0.1955 H   0  0  0  0  0  0  0  0  0  0  0  0
    2.7014    1.8523    0.6649 H   0  0  0  0  0  0  0  0  0  0  0  0
   -0.2044    2.1063   -4.9179 H   0  0  0  0  0  0  0  0  0  0  0  0
   -3.2080    1.3203   -4.3163 H   0  0  0  0  0  0  0  0  0  0  0  0
   -4.2218    2.3906   -3.3208 H   0  0  0  0  0  0  0  0  0  0  0  0
   -3.5596   -0.5595   -2.7664 H   0  0  0  0  0  0  0  0  0  0  0  0
   -5.1545    0.1087   -3.2371 H   0  0  0  0  0  0  0  0  0  0  0  0
   -4.9141   -0.4158   -0.7614 H   0  0  0  0  0  0  0  0  0  0  0  0
   -5.2976    1.3059   -1.0512 H   0  0  0  0  0  0  0  0  0  0  0  0
   -1.7227    2.4704   -0.6091 H   0  0  0  0  0  0  0  0  0  0  0  0
   -3.3782    3.0263   -1.0236 H   0  0  0  0  0  0  0  0  0  0  0  0
   -4.3554    0.8423    1.3567 H   0  0  0  0  0  0  0  0  0  0  0  0
   -0.1400    1.0248    2.9813 H   0  0  0  0  0  0  0  0  0  0  0  0
    3.6208   -1.2424    1.5598 H   0  0  0  0  0  0  0  0  0  0  0  0
    5.4177    0.3447    2.2556 H   0  0  0  0  0  0  0  0  0  0  0  0
    5.0072    1.9651    4.1138 H   0  0  0  0  0  0  0  0  0  0  0  0
   -2.0313    0.3538    6.4206 H   0  0  0  0  0  0  0  0  0  0  0  0
   -2.1567   -2.8317   -6.8249 H   0  0  0  0  0  0  0  0  0  0  0  0
   -2.0206   -1.1884   -7.5298 H   0  0  0  0  0  0  0  0  0  0  0  0
   -2.4989   -1.4121   -5.8155 H   0  0  0  0  0  0  0  0  0  0  0  0
  1 48  1  0  0  0  0
  1  2  1  0  0  0  0
  2  3  1  0  0  0  0
  3 52  1  0  0  0  0
  3  4  1  0  0  0  0
  4 17  2  0  0  0  0
  4 53  1  0  0  0  0
  5  6  1  0  0  0  0
  6 55  1  0  0  0  0
  6 54  1  0  0  0  0
  7  8  1  6  0  0  0
  7 13  1  0  0  0  0
  7  6  1  0  0  0  0
  9 56  1  0  0  0  0
  9  7  1  0  0  0  0
 10  9  1  0  0  0  0
 11 10  1  0  0  0  0
 11 59  1  0  0  0  0
 12 10  2  0  0  0  0
 13 14  1  0  0  0  0
 13 16  2  0  0  0  0
 14 15  1  0  0  0  0
 15 62  1  0  0  0  0
 15 63  1  0  0  0  0
 17 18  1  0  0  0  0
 18 19  1  0  0  0  0
 18 46  2  0  0  0  0
 19 25  1  0  0  0  0
 20 21  1  0  0  0  0
 20 19  1  0  0  0  0
 21 22  1  0  0  0  0
 22 70  1  0  0  0  0
 22 69  1  0  0  0  0
 22 23  1  0  0  0  0
 23 24  1  6  0  0  0
 23 26  1  0  0  0  0
 25 72  1  0  0  0  0
 25 71  1  0  0  0  0
 25 23  1  0  0  0  0
 26 73  1  0  0  0  0
 26 27  1  0  0  0  0
 27 28  1  0  0  0  0
 28 44  2  0  0  0  0
 28 29  1  0  0  0  0
 29 41  2  0  0  0  0
 30 29  1  0  0  0  0
 30 31  1  0  0  0  0
 31 40  2  0  0  0  0
 32 38  1  0  0  0  0
 32 31  1  0  0  0  0
 33 32  2  0  0  0  0
 34 33  1  0  0  0  0
 35 36  2  0  0  0  0
 35 33  1  0  0  0  0
 36 37  1  0  0  0  0
 37 77  1  0  0  0  0
 37 38  2  0  0  0  0
 38 39  1  0  0  0  0
 41 78  1  0  0  0  0
 42 41  1  0  0  0  0
 42 43  1  0  0  0  0
 44 42  1  0  0  0  0
 45 27  2  0  0  0  0
 47  2  1  0  0  0  0
 47 81  1  0  0  0  0
 49  1  1  0  0  0  0
 50  1  1  0  0  0  0
 51  3  1  0  0  0  0
 57 11  1  0  0  0  0
 58 11  1  0  0  0  0
 60 14  1  0  0  0  0
 61 15  1  0  0  0  0
 64 17  1  0  0  0  0
 65 20  1  0  0  0  0
 66 20  1  0  0  0  0
 67 21  1  0  0  0  0
 68 21  1  0  0  0  0
 74 30  1  0  0  0  0
 75 35  1  0  0  0  0
 76 36  1  0  0  0  0
 79 47  1  0  0  0  0
 80 47  1  0  0  0  0
M  END
