81
-1 1
C        -3.892544   -2.070627   -7.043138
N        -4.776059   -1.098703   -6.454917
C        -4.080541    0.036552   -5.885196
C        -4.784868    0.677397   -4.710684
S        -4.732821   -1.284512   -3.218517
C        -3.839232   -0.458427   -1.886087
C        -2.322441   -0.278597   -2.128269
H        -2.179953    0.371151   -3.001640
N        -1.660027   -1.525570   -2.402568
C        -1.294014   -1.941277   -3.633731
C        -0.905607   -3.406375   -3.714998
O        -1.283270   -1.231370   -4.628275
C        -1.710253    0.352686   -0.875993
N        -1.924646    1.674155   -0.747922
C        -1.627368    2.389943    0.464775
O        -1.127594   -0.339704   -0.043127
C        -4.197354    1.802166   -4.144990
C        -4.598295    2.575879   -2.998390
N        -5.930114    2.660588   -2.589987
C        -7.104899    2.336725   -3.365781
C        -7.808190    1.079535   -2.843194
C        -8.080920    1.191435   -1.339126
C        -6.789910    1.555928   -0.614949
H        -6.050765    0.763768   -0.807327
C        -6.201628    2.855699   -1.188321
N        -6.964107    1.625357    0.824839
C        -5.902047    1.501462    1.639763
C        -6.153515    1.530322    3.101677
C        -5.133146    1.400426    4.079669
N        -3.788713    1.260110    3.775350
C        -2.809811    1.013221    4.679550
C        -1.448471    0.858054    4.037879
C        -1.115441   -0.269799    3.279459
Cl        -2.278364   -1.551949    3.086984
C         0.122141   -0.396812    2.655858
C         1.060387    0.616635    2.806521
C         0.769575    1.749486    3.562538
C        -0.478806    1.858200    4.165093
Cl        -0.850177    3.309427    5.065847
O        -2.987320    0.942469    5.879625
C        -5.797197    1.451824    5.289822
N        -7.113102    1.607207    4.968699
H        -7.886340    1.677874    5.615641
N        -7.348754    1.655715    3.667222
O        -4.752008    1.356616    1.229217
O        -3.751315    3.166739   -2.298617
C        -5.867628   -0.735464   -7.313263
H        -3.101040   -2.327943   -6.325196
H        -3.400035   -1.708698   -7.978641
H        -4.450315   -2.987857   -7.296297
H        -3.915941    0.825083   -6.659236
H        -3.084770   -0.284242   -5.547504
H        -5.861824    0.528311   -4.682244
H        -3.980097   -1.007295   -0.939639
H        -4.247058    0.548294   -1.714976
H        -1.597431   -2.164186   -1.620569
H        -0.166762   -3.538409   -4.515263
H        -1.810692   -3.976548   -3.975131
H        -0.507597   -3.800041   -2.768223
H        -2.504537    2.167080   -1.444896
H        -1.078906    3.319663    0.247350
H        -1.005669    1.755780    1.109915
H        -2.552876    2.651285    1.003516
H        -3.141677    1.972964   -4.380958
H        -6.830640    2.244589   -4.422736
H        -7.805724    3.194620   -3.294648
H        -7.158544    0.203763   -3.015924
H        -8.751148    0.919303   -3.391084
H        -8.479367    0.240486   -0.950333
H        -8.840872    1.974242   -1.145356
H        -5.260097    3.109776   -0.689908
H        -6.920333    3.685699   -1.032885
H        -7.878689    1.748482    1.242193
H        -3.606078    1.242954    2.766318
H         0.318689   -1.261446    2.025232
H         2.026795    0.533630    2.306429
H         1.494117    2.556632    3.671870
H        -5.427258    1.384424    6.306788
H        -6.449385   -1.628137   -7.596212
H        -5.538858   -0.232169   -8.256770
H        -6.552747   -0.046541   -6.795102
