67
-1 1
O         5.959997   -7.542214   -1.429185
C         5.368312   -8.067520   -0.481233
N         5.292761   -9.495655   -0.530390
C         5.535616  -10.452790    0.442205
C         5.372640  -11.813827    0.124480
C         5.611879  -12.821569    1.052452
C         6.009852  -12.488287    2.351793
N         6.246819  -13.442367    3.367935
C         6.195520  -14.785717    3.313693
C         6.510935  -15.462297    4.600766
C         6.520962  -16.865755    4.799766
N         6.235697  -17.794095    3.806173
C         6.250283  -19.133687    3.988627
C         5.904655  -19.923894    2.743991
C         6.897371  -20.346972    1.855903
Cl         8.554689  -19.896329    2.156737
C         6.599045  -21.114649    0.733346
C         5.276053  -21.471823    0.489775
C         4.261933  -21.068769    1.353678
C         4.587477  -20.301909    2.469255
Cl         3.315449  -19.794051    3.547730
O         6.511680  -19.686606    5.038329
C         6.860722  -17.034112    6.128800
N         7.024920  -15.773833    6.616390
H         7.274698  -15.519094    7.562590
N         6.821121  -14.822211    5.721421
O         5.920457  -15.465977    2.325344
C         6.183588  -11.138677    2.676457
C         5.969305  -10.139436    1.739725
C         4.679928   -7.325793    0.527143
C         3.837687   -7.788266    1.542577
S         4.670182   -7.747585    3.674206
C         4.498183   -5.952887    3.939264
C         5.808632   -5.210153    4.279756
H         6.339582   -5.806567    5.042194
N         5.552740   -3.886427    4.801671
C         5.110690   -3.641009    6.054222
C         5.015162   -2.168235    6.424772
O         4.789881   -4.511579    6.845612
C         6.751181   -4.997186    3.075877
N         7.092212   -6.108079    2.407929
C         7.897258   -6.090707    1.208851
O         7.150132   -3.869976    2.794434
H         5.523810   -9.793807   -1.471864
H         5.038732  -12.086065   -0.880456
H         5.478862  -13.866765    0.781294
H         6.488721  -13.066374    4.279653
H         6.012226  -17.364583    2.903887
H         7.399784  -21.422266    0.060595
H         5.030994  -22.071084   -0.389020
H         3.222324  -21.339981    1.169123
H         6.987637  -17.932017    6.722933
H         6.494572  -10.848844    3.684614
H         6.119202   -9.101574    2.029418
H         4.799420   -6.246265    0.402604
H         3.552394   -8.844351    1.558882
H         3.031797   -7.125383    1.868279
H         3.819743   -5.787429    4.786736
H         4.045862   -5.485341    3.046708
H         5.962528   -3.151956    4.228067
H         3.964662   -1.932821    6.648382
H         5.376675   -1.490033    5.639558
H         5.591146   -2.001665    7.345922
H         6.566587   -6.953622    2.653731
H         8.303446   -5.079613    1.081260
H         7.306352   -6.359285    0.318935
H         8.733293   -6.802453    1.298337
