67
-1 1
O         0.062808    4.993388   -4.343581
C        -0.707236    4.635375   -3.435700
N        -0.995309    3.203341   -3.422463
C        -0.681448    2.276853   -2.450510
C        -0.720523    0.901437   -2.764152
C        -0.435366   -0.083357   -1.826550
C        -0.100411    0.279321   -0.517186
N         0.189419   -0.652923    0.507598
C         0.231419   -1.995207    0.461987
C         0.574093   -2.642338    1.758184
C         0.677767   -4.041449    1.962476
N         0.472392   -4.988734    0.966983
C         0.568949   -6.323716    1.154282
C         0.299366   -7.136963   -0.094394
C         1.337597   -7.511786   -0.951630
Cl         2.960111   -6.975018   -0.606415
C         1.111378   -8.298101   -2.078108
C        -0.183849   -8.724512   -2.357056
C        -1.241574   -8.371509   -1.524135
C        -0.987982   -7.584158   -0.404163
Cl        -2.315083   -7.139411    0.635377
O         0.845146   -6.857310    2.210487
C         1.008401   -4.183326    3.296753
N         1.078322   -2.913709    3.782690
H         1.297374   -2.640453    4.731174
N         0.822657   -1.979966    2.881232
O         0.017471   -2.700567   -0.525105
C        -0.047660    1.639145   -0.193881
C        -0.323658    2.620839   -1.133550
C        -1.343574    5.466738   -2.505816
C        -2.453726    5.114659   -1.594508
S        -2.128308    5.252437    0.260312
C        -1.479902    6.948480    0.433033
C        -0.107349    6.990549    1.140067
H        -0.037614    6.090726    1.779005
N         0.054076    8.167976    1.965692
C        -0.614493    8.355275    3.127283
C        -0.158351    9.552918    3.945841
O        -1.522266    7.636908    3.509325
C         1.133588    6.977993    0.216665
N         1.069638    6.220178   -0.880736
C         2.149344    6.162665   -1.842134
O         2.120739    7.642158    0.527696
H        -0.819244    2.858783   -4.360544
H        -0.989676    0.600536   -3.780640
H        -0.474879   -1.135701   -2.100611
H         0.395120   -0.256621    1.419347
H         0.235660   -4.574125    0.060399
H         1.945726   -8.565891   -2.726600
H        -0.372450   -9.338848   -3.239370
H        -2.260057   -8.697143   -1.736293
H         1.188058   -5.068881    3.895727
H         0.215613    1.949703    0.822062
H        -0.269061    3.666546   -0.839056
H        -1.182252    6.528996   -2.715027
H        -2.756427    4.060934   -1.693706
H        -3.353763    5.729516   -1.756819
H        -2.189147    7.516155    1.047034
H        -1.429012    7.417891   -0.560620
H         0.940985    8.639282    1.796246
H        -1.040543   10.152395    4.209077
H         0.573286   10.186905    3.426499
H         0.282778    9.187417    4.884764
H         0.176683    5.817992   -1.206557
H         2.617387    7.152429   -1.950869
H         1.732055    5.835576   -2.805461
H         2.932376    5.453752   -1.525816
