-1 1
 OpenBabel05232413493D

 67 68  0  0  1  0  0  0  0  0999 V2000
   -1.2588    5.9664   -4.8796 O   0  0  0  0  0  0  0  0  0  0  0  0
   -1.1425    5.2129   -3.9291 C   0  0  0  0  0  0  0  0  0  0  0  0
   -0.5701    3.9761   -4.0820 N   0  0  0  0  0  0  0  0  0  0  0  0
   -0.1452    3.0566   -3.0868 C   0  0  0  0  0  0  0  0  0  0  0  0
   -0.5615    1.7260   -3.1435 C   0  0  0  0  0  0  0  0  0  0  0  0
   -0.2172    0.8171   -2.1436 C   0  0  0  0  0  0  0  0  0  0  0  0
    0.5436    1.2492   -1.0488 C   0  0  0  0  0  0  0  0  0  0  0  0
    0.8576    0.4549    0.0658 N   0  0  0  0  0  0  0  0  0  0  0  0
    0.7630   -0.8855    0.1542 C   0  0  0  0  0  0  0  0  0  0  0  0
    1.1982   -1.4847    1.4415 C   0  0  0  0  0  0  0  0  0  0  0  0
    1.0140   -2.8485    1.7966 C   0  0  0  0  0  0  0  0  0  0  0  0
    0.4320   -3.7976    0.9621 N   0  0  0  0  0  0  0  0  0  0  0  0
    0.2405   -5.0924    1.2871 C   0  0  0  0  0  0  0  0  0  0  0  0
   -0.4030   -5.9101    0.1846 C   0  0  0  0  0  0  0  0  0  0  0  0
    0.3717   -6.6064   -0.7470 C   0  0  0  0  0  0  0  0  0  0  0  0
    2.1091   -6.4688   -0.6799 Cl  0  0  0  0  0  0  0  0  0  0  0  0
   -0.2035   -7.4043   -1.7325 C   0  0  0  0  0  0  0  0  0  0  0  0
   -1.5898   -7.5140   -1.7908 C   0  0  0  0  0  0  0  0  0  0  0  0
   -2.3928   -6.8359   -0.8785 C   0  0  0  0  0  0  0  0  0  0  0  0
   -1.7915   -6.0444    0.0969 C   0  0  0  0  0  0  0  0  0  0  0  0
   -2.8011   -5.1943    1.2354 Cl  0  0  0  0  0  0  0  0  0  0  0  0
    0.5411   -5.6007    2.3499 O   0  0  0  0  0  0  0  0  0  0  0  0
    1.5318   -2.9595    3.0716 C   0  0  0  0  0  0  0  0  0  0  0  0
    1.9835   -1.7109    3.3764 N   0  0  0  0  0  0  0  0  0  0  0  0
    2.4082   -1.4109    4.2440 H   0  0  0  0  0  0  0  0  0  0  0  0
    1.7990   -0.8232    2.4199 N   0  0  0  0  0  0  0  0  0  0  0  0
    0.3501   -1.6357   -0.7363 O   0  0  0  0  0  0  0  0  0  0  0  0
    1.0064    2.5733   -1.0264 C   0  0  0  0  0  0  0  0  0  0  0  0
    0.6743    3.4675   -2.0317 C   0  0  0  0  0  0  0  0  0  0  0  0
   -1.6746    5.6166   -2.5885 C   0  0  0  0  0  0  0  0  0  0  0  0
   -2.2683    4.8211   -1.6984 C   0  0  0  0  0  0  0  0  0  0  0  0
    0.9074    2.6160    2.5519 S   0  0  0  0  0  1  0  0  0  0  0  0
   -0.2895    3.8033    1.8348 C   0  0  0  0  0  0  0  0  0  0  0  0
    0.1750    5.2773    1.7278 C   0  0  2  0  0  0  0  0  0  0  0  0
    0.4489    5.6107    2.7432 H   0  0  0  0  0  0  0  0  0  0  0  0
   -0.8712    6.1302    1.2069 N   0  0  0  0  0  0  0  0  0  0  0  0
   -1.9038    6.6094    1.9337 C   0  0  0  0  0  0  0  0  0  0  0  0
   -2.8523    7.5206    1.1663 C   0  0  0  0  0  0  0  0  0  0  0  0
   -2.1033    6.3322    3.1036 O   0  0  0  0  0  0  0  0  0  0  0  0
    1.3787    5.4945    0.7982 C   0  0  0  0  0  0  0  0  0  0  0  0
    2.5080    4.8685    1.1710 N   0  0  0  0  0  0  0  0  0  0  0  0
    3.6740    4.8792    0.3267 C   0  0  0  0  0  0  0  0  0  0  0  0
    1.2935    6.2027   -0.2054 O   0  0  0  0  0  0  0  0  0  0  0  0
   -0.3406    3.7708   -5.0487 H   0  0  0  0  0  0  0  0  0  0  0  0
   -1.1972    1.4012   -3.9713 H   0  0  0  0  0  0  0  0  0  0  0  0
   -0.5549   -0.2154   -2.1882 H   0  0  0  0  0  0  0  0  0  0  0  0
    1.0632    1.0017    0.9373 H   0  0  0  0  0  0  0  0  0  0  0  0
    0.1812   -3.4168    0.0444 H   0  0  0  0  0  0  0  0  0  0  0  0
    0.4347   -7.9283   -2.4442 H   0  0  0  0  0  0  0  0  0  0  0  0
   -2.0514   -8.1353   -2.5606 H   0  0  0  0  0  0  0  0  0  0  0  0
   -3.4796   -6.9121   -0.9172 H   0  0  0  0  0  0  0  0  0  0  0  0
    1.5990   -3.8076    3.7433 H   0  0  0  0  0  0  0  0  0  0  0  0
    1.6032    2.8941   -0.1712 H   0  0  0  0  0  0  0  0  0  0  0  0
    1.0166    4.5026   -1.9630 H   0  0  0  0  0  0  0  0  0  0  0  0
   -1.6327    6.6983   -2.4317 H   0  0  0  0  0  0  0  0  0  0  0  0
   -2.3387    3.7392   -1.8346 H   0  0  0  0  0  0  0  0  0  0  0  0
   -2.6874    5.2277   -0.7756 H   0  0  0  0  0  0  0  0  0  0  0  0
   -1.1910    3.8306    2.4634 H   0  0  0  0  0  0  0  0  0  0  0  0
   -0.6059    3.4826    0.8273 H   0  0  0  0  0  0  0  0  0  0  0  0
   -0.6649    6.4945    0.2801 H   0  0  0  0  0  0  0  0  0  0  0  0
   -3.8073    6.9921    1.0258 H   0  0  0  0  0  0  0  0  0  0  0  0
   -2.4695    7.8281    0.1826 H   0  0  0  0  0  0  0  0  0  0  0  0
   -3.0567    8.4109    1.7762 H   0  0  0  0  0  0  0  0  0  0  0  0
    2.3617    4.0837    1.8392 H   0  0  0  0  0  0  0  0  0  0  0  0
    3.8063    5.8789   -0.1092 H   0  0  0  0  0  0  0  0  0  0  0  0
    3.5975    4.1588   -0.5082 H   0  0  0  0  0  0  0  0  0  0  0  0
    4.5609    4.6233    0.9230 H   0  0  0  0  0  0  0  0  0  0  0  0
  1  2  2  0  0  0  0
  2 30  1  0  0  0  0
  3  2  1  0  0  0  0
  3  4  1  0  0  0  0
  4 29  1  0  0  0  0
  5  4  2  0  0  0  0
  5  6  1  0  0  0  0
  6  7  2  0  0  0  0
  7 28  1  0  0  0  0
  7  8  1  0  0  0  0
  8  9  1  0  0  0  0
  8 47  1  0  0  0  0
  9 10  1  0  0  0  0
 10 11  1  0  0  0  0
 10 26  2  0  0  0  0
 11 23  2  0  0  0  0
 12 13  1  0  0  0  0
 12 11  1  0  0  0  0
 13 22  2  0  0  0  0
 14 13  1  0  0  0  0
 15 16  1  0  0  0  0
 15 14  2  0  0  0  0
 17 15  1  0  0  0  0
 18 17  2  0  0  0  0
 18 19  1  0  0  0  0
 19 20  2  0  0  0  0
 20 14  1  0  0  0  0
 20 21  1  0  0  0  0
 23 24  1  0  0  0  0
 23 52  1  0  0  0  0
 24 25  1  0  0  0  0
 26 24  1  0  0  0  0
 27  9  2  0  0  0  0
 28 53  1  0  0  0  0
 29 54  1  0  0  0  0
 29 28  2  0  0  0  0
 30 55  1  0  0  0  0
 30 31  2  0  0  0  0
 31 57  1  0  0  0  0
 33 58  1  0  0  0  0
 33 32  1  0  0  0  0
 34 33  1  0  0  0  0
 34 35  1  1  0  0  0
 36 34  1  0  0  0  0
 36 37  1  0  0  0  0
 37 39  2  0  0  0  0
 38 63  1  0  0  0  0
 38 37  1  0  0  0  0
 40 41  1  0  0  0  0
 40 34  1  0  0  0  0
 41 64  1  0  0  0  0
 42 67  1  0  0  0  0
 42 41  1  0  0  0  0
 43 40  2  0  0  0  0
 44  3  1  0  0  0  0
 45  5  1  0  0  0  0
 46  6  1  0  0  0  0
 48 12  1  0  0  0  0
 49 17  1  0  0  0  0
 50 18  1  0  0  0  0
 51 19  1  0  0  0  0
 56 31  1  0  0  0  0
 59 33  1  0  0  0  0
 60 36  1  0  0  0  0
 61 38  1  0  0  0  0
 62 38  1  0  0  0  0
 65 42  1  0  0  0  0
 66 42  1  0  0  0  0
M  END
