67
-1 1
O        -1.258820    5.966391   -4.879637
C        -1.142487    5.212860   -3.929062
N        -0.570127    3.976083   -4.081958
C        -0.145241    3.056644   -3.086839
C        -0.561514    1.725954   -3.143464
C        -0.217237    0.817050   -2.143555
C         0.543615    1.249165   -1.048791
N         0.857631    0.454862    0.065840
C         0.763040   -0.885520    0.154153
C         1.198232   -1.484685    1.441515
C         1.013956   -2.848502    1.796584
N         0.431962   -3.797588    0.962076
C         0.240529   -5.092442    1.287082
C        -0.403043   -5.910050    0.184591
C         0.371737   -6.606437   -0.746994
Cl         2.109079   -6.468761   -0.679939
C        -0.203514   -7.404320   -1.732498
C        -1.589810   -7.513967   -1.790783
C        -2.392837   -6.835861   -0.878499
C        -1.791545   -6.044380    0.096894
Cl        -2.801123   -5.194292    1.235377
O         0.541096   -5.600657    2.349920
C         1.531779   -2.959517    3.071559
N         1.983549   -1.710929    3.376418
H         2.408167   -1.410943    4.243977
N         1.799027   -0.823178    2.419875
O         0.350104   -1.635650   -0.736301
C         1.006411    2.573277   -1.026448
C         0.674312    3.467482   -2.031715
C        -1.674564    5.616597   -2.588486
C        -2.268305    4.821133   -1.698409
S         0.907384    2.616029    2.551945
C        -0.289508    3.803343    1.834816
C         0.175032    5.277337    1.727809
H         0.448928    5.610716    2.743155
N        -0.871190    6.130208    1.206945
C        -1.903798    6.609380    1.933657
C        -2.852307    7.520564    1.166308
O        -2.103347    6.332202    3.103641
C         1.378710    5.494546    0.798238
N         2.508003    4.868484    1.170972
C         3.673998    4.879209    0.326736
O         1.293549    6.202732   -0.205368
H        -0.340590    3.770784   -5.048663
H        -1.197168    1.401188   -3.971300
H        -0.554921   -0.215422   -2.188216
H         1.063212    1.001716    0.937293
H         0.181214   -3.416805    0.044418
H         0.434734   -7.928278   -2.444230
H        -2.051429   -8.135252   -2.560560
H        -3.479643   -6.912123   -0.917210
H         1.599020   -3.807570    3.743313
H         1.603244    2.894120   -0.171172
H         1.016564    4.502612   -1.962968
H        -1.632705    6.698301   -2.431651
H        -2.338677    3.739225   -1.834569
H        -2.687380    5.227726   -0.775569
H        -1.190990    3.830553    2.463407
H        -0.605912    3.482638    0.827308
H        -0.664893    6.494492    0.280065
H        -3.807291    6.992141    1.025817
H        -2.469494    7.828140    0.182649
H        -3.056717    8.410948    1.776207
H         2.361733    4.083679    1.839197
H         3.806319    5.878902   -0.109164
H         3.597496    4.158758   -0.508205
H         4.560945    4.623336    0.922960
