-1 1
 OpenBabel05192410563D

 67 69  0  0  1  0  0  0  0  0999 V2000
    0.0628    4.9934   -4.3436 O   0  0  0  0  0  0  0  0  0  0  0  0
   -0.7072    4.6354   -3.4357 C   0  0  0  0  0  0  0  0  0  0  0  0
   -0.9953    3.2033   -3.4225 N   0  0  0  0  0  0  0  0  0  0  0  0
   -0.6814    2.2769   -2.4505 C   0  0  0  0  0  0  0  0  0  0  0  0
   -0.7205    0.9014   -2.7642 C   0  0  0  0  0  0  0  0  0  0  0  0
   -0.4354   -0.0834   -1.8265 C   0  0  0  0  0  0  0  0  0  0  0  0
   -0.1004    0.2793   -0.5172 C   0  0  0  0  0  0  0  0  0  0  0  0
    0.1894   -0.6529    0.5076 N   0  0  0  0  0  0  0  0  0  0  0  0
    0.2314   -1.9952    0.4620 C   0  0  0  0  0  0  0  0  0  0  0  0
    0.5741   -2.6423    1.7582 C   0  0  0  0  0  0  0  0  0  0  0  0
    0.6778   -4.0414    1.9625 C   0  0  0  0  0  0  0  0  0  0  0  0
    0.4724   -4.9887    0.9670 N   0  0  0  0  0  0  0  0  0  0  0  0
    0.5689   -6.3237    1.1543 C   0  0  0  0  0  0  0  0  0  0  0  0
    0.2994   -7.1370   -0.0944 C   0  0  0  0  0  0  0  0  0  0  0  0
    1.3376   -7.5118   -0.9516 C   0  0  0  0  0  0  0  0  0  0  0  0
    2.9601   -6.9750   -0.6064 Cl  0  0  0  0  0  0  0  0  0  0  0  0
    1.1114   -8.2981   -2.0781 C   0  0  0  0  0  0  0  0  0  0  0  0
   -0.1838   -8.7245   -2.3571 C   0  0  0  0  0  0  0  0  0  0  0  0
   -1.2416   -8.3715   -1.5241 C   0  0  0  0  0  0  0  0  0  0  0  0
   -0.9880   -7.5842   -0.4042 C   0  0  0  0  0  0  0  0  0  0  0  0
   -2.3151   -7.1394    0.6354 Cl  0  0  0  0  0  0  0  0  0  0  0  0
    0.8451   -6.8573    2.2105 O   0  0  0  0  0  0  0  0  0  0  0  0
    1.0084   -4.1833    3.2968 C   0  0  0  0  0  0  0  0  0  0  0  0
    1.0783   -2.9137    3.7827 N   0  0  0  0  0  0  0  0  0  0  0  0
    1.2974   -2.6405    4.7312 H   0  0  0  0  0  0  0  0  0  0  0  0
    0.8227   -1.9800    2.8812 N   0  0  0  0  0  0  0  0  0  0  0  0
    0.0175   -2.7006   -0.5251 O   0  0  0  0  0  0  0  0  0  0  0  0
   -0.0477    1.6391   -0.1939 C   0  0  0  0  0  0  0  0  0  0  0  0
   -0.3237    2.6208   -1.1336 C   0  0  0  0  0  0  0  0  0  0  0  0
   -1.3436    5.4667   -2.5058 C   0  0  0  0  0  3  0  0  0  0  0  0
   -2.4537    5.1147   -1.5945 C   0  0  0  0  0  0  0  0  0  0  0  0
   -2.1283    5.2524    0.2603 S   0  0  0  0  0  0  0  0  0  0  0  0
   -1.4799    6.9485    0.4330 C   0  0  0  0  0  0  0  0  0  0  0  0
   -0.1073    6.9905    1.1401 C   0  0  2  0  0  0  0  0  0  0  0  0
   -0.0376    6.0907    1.7790 H   0  0  0  0  0  0  0  0  0  0  0  0
    0.0541    8.1680    1.9657 N   0  0  0  0  0  0  0  0  0  0  0  0
   -0.6145    8.3553    3.1273 C   0  0  0  0  0  0  0  0  0  0  0  0
   -0.1584    9.5529    3.9458 C   0  0  0  0  0  0  0  0  0  0  0  0
   -1.5223    7.6369    3.5093 O   0  0  0  0  0  0  0  0  0  0  0  0
    1.1336    6.9780    0.2167 C   0  0  0  0  0  0  0  0  0  0  0  0
    1.0696    6.2202   -0.8807 N   0  0  0  0  0  0  0  0  0  0  0  0
    2.1493    6.1627   -1.8421 C   0  0  0  0  0  0  0  0  0  0  0  0
    2.1207    7.6422    0.5277 O   0  0  0  0  0  0  0  0  0  0  0  0
   -0.8192    2.8588   -4.3605 H   0  0  0  0  0  0  0  0  0  0  0  0
   -0.9897    0.6005   -3.7806 H   0  0  0  0  0  0  0  0  0  0  0  0
   -0.4749   -1.1357   -2.1006 H   0  0  0  0  0  0  0  0  0  0  0  0
    0.3951   -0.2566    1.4193 H   0  0  0  0  0  0  0  0  0  0  0  0
    0.2357   -4.5741    0.0604 H   0  0  0  0  0  0  0  0  0  0  0  0
    1.9457   -8.5659   -2.7266 H   0  0  0  0  0  0  0  0  0  0  0  0
   -0.3725   -9.3388   -3.2394 H   0  0  0  0  0  0  0  0  0  0  0  0
   -2.2601   -8.6971   -1.7363 H   0  0  0  0  0  0  0  0  0  0  0  0
    1.1881   -5.0689    3.8957 H   0  0  0  0  0  0  0  0  0  0  0  0
    0.2156    1.9497    0.8221 H   0  0  0  0  0  0  0  0  0  0  0  0
   -0.2691    3.6665   -0.8391 H   0  0  0  0  0  0  0  0  0  0  0  0
   -1.1823    6.5290   -2.7150 H   0  0  0  0  0  0  0  0  0  0  0  0
   -2.7564    4.0609   -1.6937 H   0  0  0  0  0  0  0  0  0  0  0  0
   -3.3538    5.7295   -1.7568 H   0  0  0  0  0  0  0  0  0  0  0  0
   -2.1891    7.5162    1.0470 H   0  0  0  0  0  0  0  0  0  0  0  0
   -1.4290    7.4179   -0.5606 H   0  0  0  0  0  0  0  0  0  0  0  0
    0.9410    8.6393    1.7962 H   0  0  0  0  0  0  0  0  0  0  0  0
   -1.0405   10.1524    4.2091 H   0  0  0  0  0  0  0  0  0  0  0  0
    0.5733   10.1869    3.4265 H   0  0  0  0  0  0  0  0  0  0  0  0
    0.2828    9.1874    4.8848 H   0  0  0  0  0  0  0  0  0  0  0  0
    0.1767    5.8180   -1.2066 H   0  0  0  0  0  0  0  0  0  0  0  0
    2.6174    7.1524   -1.9509 H   0  0  0  0  0  0  0  0  0  0  0  0
    1.7321    5.8356   -2.8055 H   0  0  0  0  0  0  0  0  0  0  0  0
    2.9324    5.4538   -1.5258 H   0  0  0  0  0  0  0  0  0  0  0  0
  1  2  2  0  0  0  0
  2  3  1  0  0  0  0
  2 30  1  0  0  0  0
  3  4  1  0  0  0  0
  4 29  1  0  0  0  0
  5  4  2  0  0  0  0
  5  6  1  0  0  0  0
  6  7  2  0  0  0  0
  7 28  1  0  0  0  0
  7  8  1  0  0  0  0
  8 47  1  0  0  0  0
  9  8  1  0  0  0  0
  9 10  1  0  0  0  0
 10 11  1  0  0  0  0
 10 26  2  0  0  0  0
 11 23  2  0  0  0  0
 12 13  1  0  0  0  0
 12 11  1  0  0  0  0
 13 22  2  0  0  0  0
 14 13  1  0  0  0  0
 15 16  1  0  0  0  0
 15 14  2  0  0  0  0
 17 15  1  0  0  0  0
 18 17  2  0  0  0  0
 18 19  1  0  0  0  0
 19 20  2  0  0  0  0
 20 14  1  0  0  0  0
 20 21  1  0  0  0  0
 23 24  1  0  0  0  0
 23 52  1  0  0  0  0
 24 25  1  0  0  0  0
 26 24  1  0  0  0  0
 27  9  2  0  0  0  0
 28 53  1  0  0  0  0
 29 54  1  0  0  0  0
 29 28  2  0  0  0  0
 30 31  1  0  0  0  0
 31 32  1  0  0  0  0
 32 33  1  0  0  0  0
 33 58  1  0  0  0  0
 33 34  1  0  0  0  0
 34 35  1  1  0  0  0
 34 36  1  0  0  0  0
 36 37  1  0  0  0  0
 37 39  2  0  0  0  0
 37 38  1  0  0  0  0
 38 61  1  0  0  0  0
 38 63  1  0  0  0  0
 40 43  2  0  0  0  0
 40 34  1  0  0  0  0
 41 40  1  0  0  0  0
 42 67  1  0  0  0  0
 42 41  1  0  0  0  0
 44  3  1  0  0  0  0
 45  5  1  0  0  0  0
 46  6  1  0  0  0  0
 48 12  1  0  0  0  0
 49 17  1  0  0  0  0
 50 18  1  0  0  0  0
 51 19  1  0  0  0  0
 55 30  1  0  0  0  0
 56 31  1  0  0  0  0
 57 31  1  0  0  0  0
 59 33  1  0  0  0  0
 60 36  1  0  0  0  0
 62 38  1  0  0  0  0
 64 41  1  0  0  0  0
 65 42  1  0  0  0  0
 66 42  1  0  0  0  0
M  END
