78
-1 1
C        -2.140780   -2.803031   -1.872568
N        -1.999423   -3.882626   -2.811651
C        -0.717840   -3.822816   -3.499455
C        -0.522785   -4.988002   -4.453379
S         1.389892   -4.029251   -5.293012
C         2.661934   -5.133727   -6.024643
C         2.825546   -6.564350   -5.500392
H         3.661977   -7.025118   -6.047527
N         1.674711   -7.374565   -5.817435
C         1.708782   -8.386942   -6.726838
C         0.408733   -9.155364   -6.847362
O         2.704505   -8.672783   -7.370273
C         3.177017   -6.765080   -4.012053
N         2.837637   -5.771452   -3.165692
C         2.967363   -5.934176   -1.742121
O         3.700441   -7.805564   -3.636479
C        -0.527011   -6.288443   -3.917534
C        -1.339805   -7.292301   -4.527786
N        -1.444573   -8.550190   -3.890624
C        -0.678669   -9.134983   -2.888387
C        -1.311558   -9.955423   -1.939084
C        -0.556523  -10.587434   -0.948779
N        -1.134378  -11.422620    0.032745
C        -2.414006  -11.824245    0.183995
C        -2.637664  -12.717058    1.353099
C        -3.888089  -13.274465    1.721380
N        -5.073007  -13.059020    1.030404
C        -6.264668  -13.600782    1.375297
C        -7.397263  -13.221034    0.445803
C        -7.710910  -14.005583   -0.667457
Cl        -6.741114  -15.412353   -1.015823
C        -8.773314  -13.691181   -1.510293
C        -9.544936  -12.565906   -1.235305
C        -9.262392  -11.763249   -0.133877
C        -8.194406  -12.100142    0.693281
Cl        -7.837147  -11.091343    2.069635
O        -6.440125  -14.328956    2.331300
C        -3.622594  -14.024571    2.851618
N        -2.288341  -13.872938    3.074868
H        -1.751214  -14.285956    3.825397
N        -1.681749  -13.097015    2.192896
O        -3.362355  -11.524031   -0.535215
C         0.829566  -10.394903   -0.881069
C         1.450772   -9.588754   -1.830673
C         0.713754   -8.973714   -2.834513
O        -2.020755   -7.148585   -5.552008
C        -3.134022   -3.995600   -3.697893
H        -3.068680   -2.922704   -1.289839
H        -2.173174   -1.795290   -2.354181
H        -1.296024   -2.801283   -1.165262
H         0.076621   -3.841831   -2.735024
H        -0.606424   -2.862019   -4.053082
H        -1.072064   -4.905624   -5.395124
H         3.617605   -4.600228   -5.895160
H         2.480860   -5.221477   -7.105766
H         0.800224   -7.115584   -5.356992
H        -0.471111   -8.495475   -6.813420
H         0.328033   -9.849922   -5.995971
H         0.426015   -9.734878   -7.778304
H         2.306771   -4.979193   -3.550268
H         2.210027   -6.629057   -1.337969
H         2.845345   -4.957946   -1.252970
H         3.957850   -6.341672   -1.491240
H        -0.141742   -6.454516   -2.909400
H        -2.274479   -9.047961   -4.188277
H        -2.390317  -10.093606   -1.967467
H        -0.496973  -11.788443    0.732818
H        -4.966201  -12.447847    0.216721
H        -8.984413  -14.322927   -2.373239
H       -10.377242  -12.307691   -1.892498
H        -9.858116  -10.877304    0.086381
H        -4.273962  -14.625805    3.475683
H         1.414585  -10.887541   -0.099498
H         2.532679   -9.438245   -1.827141
H         1.229943   -8.402265   -3.600656
H        -3.058731   -4.903959   -4.313039
H        -3.240576   -3.120557   -4.382971
H        -4.059250   -4.067959   -3.104096
