-1 1
 OpenBabel05232414493D

 78 79  0  0  1  0  0  0  0  0999 V2000
   -2.1408   -2.8030   -1.8726 C   0  0  0  0  0  0  0  0  0  0  0  0
   -1.9994   -3.8826   -2.8117 N   0  0  0  0  0  0  0  0  0  0  0  0
   -0.7178   -3.8228   -3.4995 C   0  0  0  0  0  0  0  0  0  0  0  0
   -0.5228   -4.9880   -4.4534 C   0  0  0  0  0  3  0  0  0  0  0  0
    1.3899   -4.0293   -5.2930 S   0  0  0  0  0  1  0  0  0  0  0  0
    2.6619   -5.1337   -6.0246 C   0  0  0  0  0  0  0  0  0  0  0  0
    2.8255   -6.5644   -5.5004 C   0  0  2  0  0  0  0  0  0  0  0  0
    3.6620   -7.0251   -6.0475 H   0  0  0  0  0  0  0  0  0  0  0  0
    1.6747   -7.3746   -5.8174 N   0  0  0  0  0  0  0  0  0  0  0  0
    1.7088   -8.3869   -6.7268 C   0  0  0  0  0  0  0  0  0  0  0  0
    0.4087   -9.1554   -6.8474 C   0  0  0  0  0  0  0  0  0  0  0  0
    2.7045   -8.6728   -7.3703 O   0  0  0  0  0  0  0  0  0  0  0  0
    3.1770   -6.7651   -4.0121 C   0  0  0  0  0  0  0  0  0  0  0  0
    2.8376   -5.7715   -3.1657 N   0  0  0  0  0  0  0  0  0  0  0  0
    2.9674   -5.9342   -1.7421 C   0  0  0  0  0  0  0  0  0  0  0  0
    3.7004   -7.8056   -3.6365 O   0  0  0  0  0  0  0  0  0  0  0  0
   -0.5270   -6.2884   -3.9175 C   0  0  0  0  0  3  0  0  0  0  0  0
   -1.3398   -7.2923   -4.5278 C   0  0  0  0  0  0  0  0  0  0  0  0
   -1.4446   -8.5502   -3.8906 N   0  0  0  0  0  0  0  0  0  0  0  0
   -0.6787   -9.1350   -2.8884 C   0  0  0  0  0  0  0  0  0  0  0  0
   -1.3116   -9.9554   -1.9391 C   0  0  0  0  0  0  0  0  0  0  0  0
   -0.5565  -10.5874   -0.9488 C   0  0  0  0  0  0  0  0  0  0  0  0
   -1.1344  -11.4226    0.0327 N   0  0  0  0  0  0  0  0  0  0  0  0
   -2.4140  -11.8242    0.1840 C   0  0  0  0  0  0  0  0  0  0  0  0
   -2.6377  -12.7171    1.3531 C   0  0  0  0  0  0  0  0  0  0  0  0
   -3.8881  -13.2745    1.7214 C   0  0  0  0  0  0  0  0  0  0  0  0
   -5.0730  -13.0590    1.0304 N   0  0  0  0  0  0  0  0  0  0  0  0
   -6.2647  -13.6008    1.3753 C   0  0  0  0  0  0  0  0  0  0  0  0
   -7.3973  -13.2210    0.4458 C   0  0  0  0  0  0  0  0  0  0  0  0
   -7.7109  -14.0056   -0.6675 C   0  0  0  0  0  0  0  0  0  0  0  0
   -6.7411  -15.4124   -1.0158 Cl  0  0  0  0  0  0  0  0  0  0  0  0
   -8.7733  -13.6912   -1.5103 C   0  0  0  0  0  0  0  0  0  0  0  0
   -9.5449  -12.5659   -1.2353 C   0  0  0  0  0  0  0  0  0  0  0  0
   -9.2624  -11.7632   -0.1339 C   0  0  0  0  0  0  0  0  0  0  0  0
   -8.1944  -12.1001    0.6933 C   0  0  0  0  0  0  0  0  0  0  0  0
   -7.8371  -11.0913    2.0696 Cl  0  0  0  0  0  0  0  0  0  0  0  0
   -6.4401  -14.3290    2.3313 O   0  0  0  0  0  0  0  0  0  0  0  0
   -3.6226  -14.0246    2.8516 C   0  0  0  0  0  0  0  0  0  0  0  0
   -2.2883  -13.8729    3.0749 N   0  0  0  0  0  0  0  0  0  0  0  0
   -1.7512  -14.2860    3.8254 H   0  0  0  0  0  0  0  0  0  0  0  0
   -1.6817  -13.0970    2.1929 N   0  0  0  0  0  0  0  0  0  0  0  0
   -3.3624  -11.5240   -0.5352 O   0  0  0  0  0  0  0  0  0  0  0  0
    0.8296  -10.3949   -0.8811 C   0  0  0  0  0  0  0  0  0  0  0  0
    1.4508   -9.5888   -1.8307 C   0  0  0  0  0  0  0  0  0  0  0  0
    0.7138   -8.9737   -2.8345 C   0  0  0  0  0  0  0  0  0  0  0  0
   -2.0208   -7.1486   -5.5520 O   0  0  0  0  0  0  0  0  0  0  0  0
   -3.1340   -3.9956   -3.6979 C   0  0  0  0  0  0  0  0  0  0  0  0
   -3.0687   -2.9227   -1.2898 H   0  0  0  0  0  0  0  0  0  0  0  0
   -2.1732   -1.7953   -2.3542 H   0  0  0  0  0  0  0  0  0  0  0  0
   -1.2960   -2.8013   -1.1653 H   0  0  0  0  0  0  0  0  0  0  0  0
    0.0766   -3.8418   -2.7350 H   0  0  0  0  0  0  0  0  0  0  0  0
   -0.6064   -2.8620   -4.0531 H   0  0  0  0  0  0  0  0  0  0  0  0
   -1.0721   -4.9056   -5.3951 H   0  0  0  0  0  0  0  0  0  0  0  0
    3.6176   -4.6002   -5.8952 H   0  0  0  0  0  0  0  0  0  0  0  0
    2.4809   -5.2215   -7.1058 H   0  0  0  0  0  0  0  0  0  0  0  0
    0.8002   -7.1156   -5.3570 H   0  0  0  0  0  0  0  0  0  0  0  0
   -0.4711   -8.4955   -6.8134 H   0  0  0  0  0  0  0  0  0  0  0  0
    0.3280   -9.8499   -5.9960 H   0  0  0  0  0  0  0  0  0  0  0  0
    0.4260   -9.7349   -7.7783 H   0  0  0  0  0  0  0  0  0  0  0  0
    2.3068   -4.9792   -3.5503 H   0  0  0  0  0  0  0  0  0  0  0  0
    2.2100   -6.6291   -1.3380 H   0  0  0  0  0  0  0  0  0  0  0  0
    2.8453   -4.9579   -1.2530 H   0  0  0  0  0  0  0  0  0  0  0  0
    3.9579   -6.3417   -1.4912 H   0  0  0  0  0  0  0  0  0  0  0  0
   -0.1417   -6.4545   -2.9094 H   0  0  0  0  0  0  0  0  0  0  0  0
   -2.2745   -9.0480   -4.1883 H   0  0  0  0  0  0  0  0  0  0  0  0
   -2.3903  -10.0936   -1.9675 H   0  0  0  0  0  0  0  0  0  0  0  0
   -0.4970  -11.7884    0.7328 H   0  0  0  0  0  0  0  0  0  0  0  0
   -4.9662  -12.4478    0.2167 H   0  0  0  0  0  0  0  0  0  0  0  0
   -8.9844  -14.3229   -2.3732 H   0  0  0  0  0  0  0  0  0  0  0  0
  -10.3772  -12.3077   -1.8925 H   0  0  0  0  0  0  0  0  0  0  0  0
   -9.8581  -10.8773    0.0864 H   0  0  0  0  0  0  0  0  0  0  0  0
   -4.2740  -14.6258    3.4757 H   0  0  0  0  0  0  0  0  0  0  0  0
    1.4146  -10.8875   -0.0995 H   0  0  0  0  0  0  0  0  0  0  0  0
    2.5327   -9.4382   -1.8271 H   0  0  0  0  0  0  0  0  0  0  0  0
    1.2299   -8.4023   -3.6007 H   0  0  0  0  0  0  0  0  0  0  0  0
   -3.0587   -4.9040   -4.3130 H   0  0  0  0  0  0  0  0  0  0  0  0
   -3.2406   -3.1206   -4.3830 H   0  0  0  0  0  0  0  0  0  0  0  0
   -4.0592   -4.0680   -3.1041 H   0  0  0  0  0  0  0  0  0  0  0  0
  1 48  1  0  0  0  0
  1 50  1  0  0  0  0
  2  1  1  0  0  0  0
  3  2  1  0  0  0  0
  3 51  1  0  0  0  0
  4 17  1  0  0  0  0
  4  3  1  0  0  0  0
  6 54  1  0  0  0  0
  6  7  1  0  0  0  0
  6  5  1  0  0  0  0
  7  8  1  6  0  0  0
  7 13  1  0  0  0  0
  9  7  1  0  0  0  0
  9 56  1  0  0  0  0
 10  9  1  0  0  0  0
 11 57  1  0  0  0  0
 11 10  1  0  0  0  0
 11 58  1  0  0  0  0
 12 10  2  0  0  0  0
 13 16  2  0  0  0  0
 13 14  1  0  0  0  0
 14 15  1  0  0  0  0
 15 63  1  0  0  0  0
 15 61  1  0  0  0  0
 15 62  1  0  0  0  0
 17 64  1  0  0  0  0
 18 17  1  0  0  0  0
 18 19  1  0  0  0  0
 19 20  1  0  0  0  0
 20 45  2  0  0  0  0
 20 21  1  0  0  0  0
 21 22  2  0  0  0  0
 22 43  1  0  0  0  0
 22 23  1  0  0  0  0
 23 24  1  0  0  0  0
 23 67  1  0  0  0  0
 24 25  1  0  0  0  0
 25 26  1  0  0  0  0
 25 41  2  0  0  0  0
 26 38  2  0  0  0  0
 27 28  1  0  0  0  0
 27 26  1  0  0  0  0
 28 37  2  0  0  0  0
 29 35  1  0  0  0  0
 29 28  1  0  0  0  0
 30 29  2  0  0  0  0
 31 30  1  0  0  0  0
 32 33  2  0  0  0  0
 32 30  1  0  0  0  0
 33 34  1  0  0  0  0
 34 71  1  0  0  0  0
 34 35  2  0  0  0  0
 35 36  1  0  0  0  0
 38 39  1  0  0  0  0
 38 72  1  0  0  0  0
 39 40  1  0  0  0  0
 41 39  1  0  0  0  0
 42 24  2  0  0  0  0
 43 73  1  0  0  0  0
 44 74  1  0  0  0  0
 44 43  2  0  0  0  0
 45 44  1  0  0  0  0
 46 18  2  0  0  0  0
 47 78  1  0  0  0  0
 47  2  1  0  0  0  0
 49  1  1  0  0  0  0
 52  3  1  0  0  0  0
 53  4  1  0  0  0  0
 55  6  1  0  0  0  0
 59 11  1  0  0  0  0
 60 14  1  0  0  0  0
 65 19  1  0  0  0  0
 66 21  1  0  0  0  0
 68 27  1  0  0  0  0
 69 32  1  0  0  0  0
 70 33  1  0  0  0  0
 75 45  1  0  0  0  0
 76 47  1  0  0  0  0
 77 47  1  0  0  0  0
M  END
