78
-1 1
C         2.496425    7.003541   -1.157476
N         1.520064    5.956986   -1.378801
C         1.264882    5.740049   -2.786783
C         0.631125    4.431973   -3.129359
S         4.728311    5.415913   -3.821435
C         5.969697    4.103243   -3.503936
C         5.394101    2.799388   -2.904065
H         6.123469    1.981826   -2.987496
N         4.206679    2.419383   -3.636603
C         3.900003    1.148097   -3.985737
C         2.609785    0.998886   -4.773091
O         4.569799    0.176555   -3.675845
C         5.122897    2.926644   -1.396692
N         4.146014    3.802241   -1.069398
C         3.806542    4.094003    0.296859
O         5.736230    2.263369   -0.568395
C         0.600355    3.334300   -2.364336
C        -0.110593    2.128085   -2.861123
N        -0.011858    0.961897   -2.128567
C         0.859973    0.567600   -1.096771
C         0.359663   -0.327168   -0.139848
C         1.202318   -0.807939    0.863142
N         0.770552   -1.714927    1.852760
C        -0.441419   -2.284372    2.030593
C        -0.517614   -3.201550    3.197833
C        -1.673916   -3.917558    3.597315
N        -2.897627   -3.855376    2.944126
C        -4.003219   -4.533813    3.333200
C        -5.209937   -4.288140    2.453199
C        -5.492851   -5.119022    1.365567
Cl        -4.398216   -6.421328    0.984339
C        -6.621780   -4.929965    0.573150
C        -7.492738   -3.886614    0.873663
C        -7.242599   -3.040809    1.950359
C        -6.106442   -3.251463    2.726907
Cl        -5.790818   -2.188440    4.072469
O        -4.053311   -5.276415    4.292454
C        -1.280592   -4.628950    4.715411
N         0.028316   -4.305237    4.902044
H         0.636327   -4.647196    5.634263
N         0.503257   -3.455549    4.008413
O        -1.435669   -2.107200    1.332867
C         2.536795   -0.385103    0.919944
C         3.021812    0.504652   -0.030259
C         2.192893    0.982079   -1.043786
O        -0.822411    2.140478   -3.851341
C         0.316845    6.171913   -0.611131
H         2.755326    7.051576   -0.087700
H         2.118534    8.007372   -1.459936
H         3.412591    6.790571   -1.731303
H         2.235751    5.757699   -3.321069
H         0.649463    6.560071   -3.227674
H         0.169071    4.361290   -4.120451
H         6.757748    4.468428   -2.825912
H         6.461158    3.834446   -4.452801
H         3.684359    3.220698   -4.001548
H         2.132958    1.953832   -5.032342
H         1.906922    0.407896   -4.167529
H         2.815649    0.427058   -5.688634
H         3.871799    4.462364   -1.808388
H         2.780367    4.484734    0.328734
H         4.485150    4.840551    0.748324
H         3.872480    3.176927    0.897681
H         1.064865    3.335358   -1.375982
H        -0.659428    0.255828   -2.461342
H        -0.679180   -0.648428   -0.174984
H         1.468018   -1.990911    2.536941
H        -2.898129   -3.236667    2.130098
H        -6.807234   -5.594347   -0.270971
H        -8.378711   -3.727664    0.256311
H        -7.916747   -2.218492    2.190448
H        -1.830369   -5.310667    5.354378
H         3.198710   -0.765928    1.702353
H         4.067220    0.823922   -0.010673
H         2.598452    1.660275   -1.793883
H        -0.393516    5.346694   -0.763626
H        -0.199931    7.122259   -0.883143
H         0.557645    6.217532    0.463016
