-1 1
 OpenBabel05232413493D

 78 79  0  0  1  0  0  0  0  0999 V2000
    2.4964    7.0035   -1.1575 C   0  0  0  0  0  0  0  0  0  0  0  0
    1.5201    5.9570   -1.3788 N   0  0  0  0  0  0  0  0  0  0  0  0
    1.2649    5.7400   -2.7868 C   0  0  0  0  0  0  0  0  0  0  0  0
    0.6311    4.4320   -3.1294 C   0  0  0  0  0  0  0  0  0  0  0  0
    4.7283    5.4159   -3.8214 S   0  0  0  0  0  1  0  0  0  0  0  0
    5.9697    4.1032   -3.5039 C   0  0  0  0  0  0  0  0  0  0  0  0
    5.3941    2.7994   -2.9041 C   0  0  2  0  0  0  0  0  0  0  0  0
    6.1235    1.9818   -2.9875 H   0  0  0  0  0  0  0  0  0  0  0  0
    4.2067    2.4194   -3.6366 N   0  0  0  0  0  0  0  0  0  0  0  0
    3.9000    1.1481   -3.9857 C   0  0  0  0  0  0  0  0  0  0  0  0
    2.6098    0.9989   -4.7731 C   0  0  0  0  0  0  0  0  0  0  0  0
    4.5698    0.1766   -3.6758 O   0  0  0  0  0  0  0  0  0  0  0  0
    5.1229    2.9266   -1.3967 C   0  0  0  0  0  0  0  0  0  0  0  0
    4.1460    3.8022   -1.0694 N   0  0  0  0  0  0  0  0  0  0  0  0
    3.8065    4.0940    0.2969 C   0  0  0  0  0  0  0  0  0  0  0  0
    5.7362    2.2634   -0.5684 O   0  0  0  0  0  0  0  0  0  0  0  0
    0.6004    3.3343   -2.3643 C   0  0  0  0  0  0  0  0  0  0  0  0
   -0.1106    2.1281   -2.8611 C   0  0  0  0  0  0  0  0  0  0  0  0
   -0.0119    0.9619   -2.1286 N   0  0  0  0  0  0  0  0  0  0  0  0
    0.8600    0.5676   -1.0968 C   0  0  0  0  0  0  0  0  0  0  0  0
    0.3597   -0.3272   -0.1398 C   0  0  0  0  0  0  0  0  0  0  0  0
    1.2023   -0.8079    0.8631 C   0  0  0  0  0  0  0  0  0  0  0  0
    0.7706   -1.7149    1.8528 N   0  0  0  0  0  0  0  0  0  0  0  0
   -0.4414   -2.2844    2.0306 C   0  0  0  0  0  0  0  0  0  0  0  0
   -0.5176   -3.2016    3.1978 C   0  0  0  0  0  0  0  0  0  0  0  0
   -1.6739   -3.9176    3.5973 C   0  0  0  0  0  0  0  0  0  0  0  0
   -2.8976   -3.8554    2.9441 N   0  0  0  0  0  0  0  0  0  0  0  0
   -4.0032   -4.5338    3.3332 C   0  0  0  0  0  0  0  0  0  0  0  0
   -5.2099   -4.2881    2.4532 C   0  0  0  0  0  0  0  0  0  0  0  0
   -5.4929   -5.1190    1.3656 C   0  0  0  0  0  0  0  0  0  0  0  0
   -4.3982   -6.4213    0.9843 Cl  0  0  0  0  0  0  0  0  0  0  0  0
   -6.6218   -4.9300    0.5732 C   0  0  0  0  0  0  0  0  0  0  0  0
   -7.4927   -3.8866    0.8737 C   0  0  0  0  0  0  0  0  0  0  0  0
   -7.2426   -3.0408    1.9504 C   0  0  0  0  0  0  0  0  0  0  0  0
   -6.1064   -3.2515    2.7269 C   0  0  0  0  0  0  0  0  0  0  0  0
   -5.7908   -2.1884    4.0725 Cl  0  0  0  0  0  0  0  0  0  0  0  0
   -4.0533   -5.2764    4.2925 O   0  0  0  0  0  0  0  0  0  0  0  0
   -1.2806   -4.6289    4.7154 C   0  0  0  0  0  0  0  0  0  0  0  0
    0.0283   -4.3052    4.9020 N   0  0  0  0  0  0  0  0  0  0  0  0
    0.6363   -4.6472    5.6343 H   0  0  0  0  0  0  0  0  0  0  0  0
    0.5033   -3.4555    4.0084 N   0  0  0  0  0  0  0  0  0  0  0  0
   -1.4357   -2.1072    1.3329 O   0  0  0  0  0  0  0  0  0  0  0  0
    2.5368   -0.3851    0.9199 C   0  0  0  0  0  0  0  0  0  0  0  0
    3.0218    0.5047   -0.0303 C   0  0  0  0  0  0  0  0  0  0  0  0
    2.1929    0.9821   -1.0438 C   0  0  0  0  0  0  0  0  0  0  0  0
   -0.8224    2.1405   -3.8513 O   0  0  0  0  0  0  0  0  0  0  0  0
    0.3168    6.1719   -0.6111 C   0  0  0  0  0  0  0  0  0  0  0  0
    2.7553    7.0516   -0.0877 H   0  0  0  0  0  0  0  0  0  0  0  0
    2.1185    8.0074   -1.4599 H   0  0  0  0  0  0  0  0  0  0  0  0
    3.4126    6.7906   -1.7313 H   0  0  0  0  0  0  0  0  0  0  0  0
    2.2358    5.7577   -3.3211 H   0  0  0  0  0  0  0  0  0  0  0  0
    0.6495    6.5601   -3.2277 H   0  0  0  0  0  0  0  0  0  0  0  0
    0.1691    4.3613   -4.1205 H   0  0  0  0  0  0  0  0  0  0  0  0
    6.7577    4.4684   -2.8259 H   0  0  0  0  0  0  0  0  0  0  0  0
    6.4612    3.8344   -4.4528 H   0  0  0  0  0  0  0  0  0  0  0  0
    3.6844    3.2207   -4.0015 H   0  0  0  0  0  0  0  0  0  0  0  0
    2.1330    1.9538   -5.0323 H   0  0  0  0  0  0  0  0  0  0  0  0
    1.9069    0.4079   -4.1675 H   0  0  0  0  0  0  0  0  0  0  0  0
    2.8156    0.4271   -5.6886 H   0  0  0  0  0  0  0  0  0  0  0  0
    3.8718    4.4624   -1.8084 H   0  0  0  0  0  0  0  0  0  0  0  0
    2.7804    4.4847    0.3287 H   0  0  0  0  0  0  0  0  0  0  0  0
    4.4851    4.8406    0.7483 H   0  0  0  0  0  0  0  0  0  0  0  0
    3.8725    3.1769    0.8977 H   0  0  0  0  0  0  0  0  0  0  0  0
    1.0649    3.3354   -1.3760 H   0  0  0  0  0  0  0  0  0  0  0  0
   -0.6594    0.2558   -2.4613 H   0  0  0  0  0  0  0  0  0  0  0  0
   -0.6792   -0.6484   -0.1750 H   0  0  0  0  0  0  0  0  0  0  0  0
    1.4680   -1.9909    2.5369 H   0  0  0  0  0  0  0  0  0  0  0  0
   -2.8981   -3.2367    2.1301 H   0  0  0  0  0  0  0  0  0  0  0  0
   -6.8072   -5.5943   -0.2710 H   0  0  0  0  0  0  0  0  0  0  0  0
   -8.3787   -3.7277    0.2563 H   0  0  0  0  0  0  0  0  0  0  0  0
   -7.9167   -2.2185    2.1904 H   0  0  0  0  0  0  0  0  0  0  0  0
   -1.8304   -5.3107    5.3544 H   0  0  0  0  0  0  0  0  0  0  0  0
    3.1987   -0.7659    1.7024 H   0  0  0  0  0  0  0  0  0  0  0  0
    4.0672    0.8239   -0.0107 H   0  0  0  0  0  0  0  0  0  0  0  0
    2.5985    1.6603   -1.7939 H   0  0  0  0  0  0  0  0  0  0  0  0
   -0.3935    5.3467   -0.7636 H   0  0  0  0  0  0  0  0  0  0  0  0
   -0.1999    7.1223   -0.8831 H   0  0  0  0  0  0  0  0  0  0  0  0
    0.5576    6.2175    0.4630 H   0  0  0  0  0  0  0  0  0  0  0  0
  1 48  1  0  0  0  0
  2  1  1  0  0  0  0
  2 47  1  0  0  0  0
  3  2  1  0  0  0  0
  4  3  1  0  0  0  0
  4 17  2  0  0  0  0
  5  6  1  0  0  0  0
  6  7  1  0  0  0  0
  6 54  1  0  0  0  0
  7  8  1  6  0  0  0
  7 13  1  0  0  0  0
  9  7  1  0  0  0  0
 10 12  2  0  0  0  0
 10  9  1  0  0  0  0
 11 58  1  0  0  0  0
 11 10  1  0  0  0  0
 13 14  1  0  0  0  0
 13 16  2  0  0  0  0
 14 15  1  0  0  0  0
 15 61  1  0  0  0  0
 15 62  1  0  0  0  0
 15 63  1  0  0  0  0
 17 64  1  0  0  0  0
 18 17  1  0  0  0  0
 18 19  1  0  0  0  0
 19 20  1  0  0  0  0
 20 45  2  0  0  0  0
 20 21  1  0  0  0  0
 21 22  2  0  0  0  0
 22 43  1  0  0  0  0
 22 23  1  0  0  0  0
 23 24  1  0  0  0  0
 23 67  1  0  0  0  0
 24 25  1  0  0  0  0
 25 26  1  0  0  0  0
 25 41  2  0  0  0  0
 26 38  2  0  0  0  0
 27 28  1  0  0  0  0
 27 26  1  0  0  0  0
 28 37  2  0  0  0  0
 29 35  1  0  0  0  0
 29 28  1  0  0  0  0
 30 29  2  0  0  0  0
 31 30  1  0  0  0  0
 32 33  2  0  0  0  0
 32 30  1  0  0  0  0
 33 34  1  0  0  0  0
 34 71  1  0  0  0  0
 34 35  2  0  0  0  0
 35 36  1  0  0  0  0
 38 39  1  0  0  0  0
 38 72  1  0  0  0  0
 39 40  1  0  0  0  0
 41 39  1  0  0  0  0
 42 24  2  0  0  0  0
 43 73  1  0  0  0  0
 44 74  1  0  0  0  0
 44 43  2  0  0  0  0
 45 44  1  0  0  0  0
 46 18  2  0  0  0  0
 47 78  1  0  0  0  0
 49  1  1  0  0  0  0
 50  1  1  0  0  0  0
 51  3  1  0  0  0  0
 52  3  1  0  0  0  0
 53  4  1  0  0  0  0
 55  6  1  0  0  0  0
 56  9  1  0  0  0  0
 57 11  1  0  0  0  0
 59 11  1  0  0  0  0
 60 14  1  0  0  0  0
 65 19  1  0  0  0  0
 66 21  1  0  0  0  0
 68 27  1  0  0  0  0
 69 32  1  0  0  0  0
 70 33  1  0  0  0  0
 75 45  1  0  0  0  0
 76 47  1  0  0  0  0
 77 47  1  0  0  0  0
M  END
