78
-1 1
C        -0.918483    6.209864   -0.460118
N        -0.277047    5.318610   -1.388528
C         1.064621    5.753820   -1.708455
C         1.927713    4.711701   -2.455033
S         3.556546    5.617152   -2.640160
C         4.406652    4.820270   -4.039123
C         5.038547    3.436773   -3.802519
H         5.721002    3.220521   -4.636998
N         4.044129    2.397808   -3.796500
C         4.134235    1.283617   -4.571597
C         2.982291    0.316335   -4.387733
O         5.061634    1.073247   -5.337250
C         5.917743    3.481593   -2.544262
N         5.302032    3.091970   -1.398699
C         5.915922    3.316290   -0.116632
O         7.069228    3.879270   -2.590827
C         1.972067    3.366633   -1.803454
C         1.125168    2.373748   -2.318314
N         0.905179    1.174998   -1.562019
C         1.647167    0.506029   -0.619362
C         0.983324   -0.388017    0.248185
C         1.700753   -1.127001    1.187084
N         1.082428   -2.032642    2.077110
C        -0.216216   -2.380736    2.198372
C        -0.480026   -3.381062    3.268189
C        -1.757094   -3.903063    3.594398
N        -2.934649   -3.544501    2.952117
C        -4.153891   -4.044327    3.262483
C        -5.273916   -3.487538    2.410202
C        -5.659234   -4.114025    1.221865
Cl        -4.793795   -5.530961    0.689083
C        -6.711632   -3.633361    0.447645
C        -7.399595   -2.499488    0.869903
C        -7.044329   -1.851779    2.049551
C        -5.988202   -2.353129    2.805408
Cl        -5.539611   -1.538283    4.280108
O        -4.361626   -4.862271    4.135858
C        -1.524649   -4.785189    4.632860
N        -0.181656   -4.734668    4.849817
H         0.337805   -5.256989    5.542395
N         0.460370   -3.903412    4.046807
O        -1.151507   -1.956261    1.526876
C         3.091140   -0.986484    1.295503
C         3.743377   -0.112365    0.430675
C         3.047307    0.623648   -0.519563
O         0.508119    2.401978   -3.405395
C        -1.092339    5.058045   -2.553048
H        -1.902692    5.809714   -0.167336
H        -1.084266    7.236659   -0.870452
H        -0.312639    6.313741    0.454113
H         1.571372    5.994587   -0.756610
H         1.048655    6.697469   -2.305216
H         1.545415    4.585734   -3.479594
H         5.204818    5.533128   -4.292658
H         3.722004    4.756019   -4.898109
H         3.230472    2.538745   -3.180065
H         2.016609    0.845483   -4.359031
H         3.097054   -0.210385   -3.426524
H         3.004331   -0.418924   -5.201207
H         4.281433    3.074562   -1.426209
H         5.452634    2.659423    0.633525
H         5.809277    4.364342    0.215856
H         6.988717    3.092265   -0.185454
H         2.206727    3.335924   -0.733156
H         0.033794    0.741754   -1.840685
H        -0.097702   -0.496811    0.190388
H         1.701480   -2.501797    2.730371
H        -2.800611   -2.856216    2.206967
H        -6.979632   -4.144110   -0.477336
H        -8.222895   -2.111533    0.267443
H        -7.574116   -0.960167    2.385243
H        -2.203651   -5.412301    5.199386
H         3.650201   -1.563988    2.036220
H         4.830823   -0.014658    0.479279
H         3.587192    1.254442   -1.220538
H        -0.650037    4.254102   -3.160009
H        -1.233110    5.966790   -3.187700
H        -2.090248    4.717618   -2.233432
