-1 1
 OpenBabel05232414493D

 95 97  0  0  1  0  0  0  0  0999 V2000
   -3.2378   -0.7382    2.3528 C   0  0  0  0  0  0  0  0  0  0  0  0
   -2.1448   -1.6466    2.1251 N   0  0  0  0  0  0  0  0  0  0  0  0
   -1.1377   -1.6944    3.1783 C   0  0  0  0  0  0  0  0  0  0  0  0
    0.2539   -1.7366    2.5806 C   0  0  0  0  0  3  0  0  0  0  0  0
    1.4094   -1.0569    4.4288 S   0  0  0  0  0  1  0  0  0  0  0  0
    2.9111   -1.9857    4.0628 C   0  0  0  0  0  0  0  0  0  0  0  0
    3.9765   -1.2641    3.2079 C   0  0  2  0  0  0  0  0  0  0  0  0
    3.4710   -0.7597    2.3711 H   0  0  0  0  0  0  0  0  0  0  0  0
    4.8665   -2.2396    2.6275 N   0  0  0  0  0  0  0  0  0  0  0  0
    5.2139   -2.2679    1.3239 C   0  0  0  0  0  0  0  0  0  0  0  0
    5.9102   -3.5293    0.8697 C   0  0  0  0  0  0  0  0  0  0  0  0
    4.9184   -1.3813    0.5304 O   0  0  0  0  0  0  0  0  0  0  0  0
    4.7720   -0.2174    4.0040 C   0  0  0  0  0  0  0  0  0  0  0  0
    4.0179    0.8229    4.4401 N   0  0  0  0  0  0  0  0  0  0  0  0
    4.5462    1.8446    5.3027 C   0  0  0  0  0  0  0  0  0  0  0  0
    5.9669   -0.3299    4.2175 O   0  0  0  0  0  0  0  0  0  0  0  0
    0.7684   -2.9294    2.0445 C   0  0  0  0  0  3  0  0  0  0  0  0
    1.8219   -2.9968    1.0745 C   0  0  0  0  0  0  0  0  0  0  0  0
    2.0739   -1.8408    0.2838 N   0  0  0  0  0  0  0  0  0  0  0  0
    1.2091   -0.9872   -0.3665 C   0  0  0  0  0  0  0  0  0  0  0  0
   -0.1583   -1.2608   -0.5442 C   0  0  0  0  0  0  0  0  0  0  0  0
   -0.9869   -0.3642   -1.2170 C   0  0  0  0  0  0  0  0  0  0  0  0
   -2.4563   -0.6354   -1.3744 C   0  0  0  0  0  0  0  0  0  0  0  0
   -2.8287   -1.8579   -1.8964 N   0  0  0  0  0  0  0  0  0  0  0  0
   -1.9534   -2.7517   -2.6324 C   0  0  0  0  0  0  0  0  0  0  0  0
   -2.2080   -4.2038   -2.2337 C   0  0  0  0  0  0  0  0  0  0  0  0
   -3.6787   -4.5880   -2.4103 C   0  0  0  0  0  0  0  0  0  0  0  0
   -4.5785   -3.5755   -1.6890 C   0  0  0  0  0  0  0  0  0  0  0  0
   -4.2449   -2.1368   -2.0721 C   0  0  0  0  0  0  0  0  0  0  0  0
   -3.9960   -4.6687   -3.8309 N   0  0  0  0  0  0  0  0  0  0  0  0
   -5.0504   -5.3509   -4.3075 C   0  0  0  0  0  0  0  0  0  0  0  0
   -5.2419   -5.2894   -5.7789 C   0  0  0  0  0  0  0  0  0  0  0  0
   -6.2818   -5.9361   -6.4917 C   0  0  0  0  0  0  0  0  0  0  0  0
   -7.2629   -6.7189   -5.8973 N   0  0  0  0  0  0  0  0  0  0  0  0
   -8.2625   -7.3294   -6.5758 C   0  0  0  0  0  0  0  0  0  0  0  0
   -9.2093   -8.1156   -5.6945 C   0  0  0  0  0  0  0  0  0  0  0  0
  -10.3496   -7.5212   -5.1469 C   0  0  0  0  0  0  0  0  0  0  0  0
  -10.6446   -5.8268   -5.4327 Cl  0  0  0  0  0  0  0  0  0  0  0  0
  -11.2547   -8.2446   -4.3750 C   0  0  0  0  0  0  0  0  0  0  0  0
  -11.0179   -9.5966   -4.1438 C   0  0  0  0  0  0  0  0  0  0  0  0
   -9.8926  -10.2210   -4.6740 C   0  0  0  0  0  0  0  0  0  0  0  0
   -9.0033   -9.4747   -5.4424 C   0  0  0  0  0  0  0  0  0  0  0  0
   -7.5905  -10.2561   -6.1006 Cl  0  0  0  0  0  0  0  0  0  0  0  0
   -8.4143   -7.2711   -7.7791 O   0  0  0  0  0  0  0  0  0  0  0  0
   -6.0675   -5.5983   -7.8148 C   0  0  0  0  0  0  0  0  0  0  0  0
   -4.9606   -4.8057   -7.8046 N   0  0  0  0  0  0  0  0  0  0  0  0
   -4.5191   -4.3756   -8.6065 H   0  0  0  0  0  0  0  0  0  0  0  0
   -4.4519   -4.6083   -6.6008 N   0  0  0  0  0  0  0  0  0  0  0  0
   -5.8307   -5.9971   -3.6100 O   0  0  0  0  0  0  0  0  0  0  0  0
   -3.2903    0.1972   -1.0619 O   0  0  0  0  0  0  0  0  0  0  0  0
   -0.4775    0.8333   -1.7268 C   0  0  0  0  0  0  0  0  0  0  0  0
    0.8844    1.0962   -1.5829 C   0  0  0  0  0  0  0  0  0  0  0  0
    1.7190    0.2069   -0.9164 C   0  0  0  0  0  0  0  0  0  0  0  0
    2.5745   -3.9601    0.9085 O   0  0  0  0  0  0  0  0  0  0  0  0
   -2.5686   -2.9362    1.6558 C   0  0  0  0  0  0  0  0  0  0  0  0
   -2.8533    0.2573    2.6186 H   0  0  0  0  0  0  0  0  0  0  0  0
   -3.9306   -1.0678    3.1639 H   0  0  0  0  0  0  0  0  0  0  0  0
   -3.8231   -0.6170    1.4276 H   0  0  0  0  0  0  0  0  0  0  0  0
   -1.2897   -2.5572    3.8605 H   0  0  0  0  0  0  0  0  0  0  0  0
   -1.2378   -0.7882    3.7933 H   0  0  0  0  0  0  0  0  0  0  0  0
    0.4675   -0.8241    2.0216 H   0  0  0  0  0  0  0  0  0  0  0  0
    2.5924   -2.8736    3.4876 H   0  0  0  0  0  0  0  0  0  0  0  0
    3.3647   -2.3407    5.0032 H   0  0  0  0  0  0  0  0  0  0  0  0
    5.1849   -2.9887    3.2258 H   0  0  0  0  0  0  0  0  0  0  0  0
    6.4908   -4.0165    1.6663 H   0  0  0  0  0  0  0  0  0  0  0  0
    6.5600   -3.2991    0.0169 H   0  0  0  0  0  0  0  0  0  0  0  0
    5.1047   -4.2065    0.5433 H   0  0  0  0  0  0  0  0  0  0  0  0
    3.0039    0.7109    4.3571 H   0  0  0  0  0  0  0  0  0  0  0  0
    5.6398    1.7497    5.3131 H   0  0  0  0  0  0  0  0  0  0  0  0
    4.1767    1.7426    6.3377 H   0  0  0  0  0  0  0  0  0  0  0  0
    4.2778    2.8491    4.9382 H   0  0  0  0  0  0  0  0  0  0  0  0
    0.5328   -3.8823    2.5300 H   0  0  0  0  0  0  0  0  0  0  0  0
    3.0630   -1.7244    0.0628 H   0  0  0  0  0  0  0  0  0  0  0  0
   -0.5732   -2.1699   -0.1121 H   0  0  0  0  0  0  0  0  0  0  0  0
   -0.9071   -2.4872   -2.4540 H   0  0  0  0  0  0  0  0  0  0  0  0
   -2.1273   -2.6135   -3.7207 H   0  0  0  0  0  0  0  0  0  0  0  0
   -1.9348   -4.3284   -1.1749 H   0  0  0  0  0  0  0  0  0  0  0  0
   -1.5649   -4.8777   -2.8208 H   0  0  0  0  0  0  0  0  0  0  0  0
   -3.8628   -5.5877   -1.9897 H   0  0  0  0  0  0  0  0  0  0  0  0
   -4.4479   -3.7082   -0.6044 H   0  0  0  0  0  0  0  0  0  0  0  0
   -5.6314   -3.7974   -1.9175 H   0  0  0  0  0  0  0  0  0  0  0  0
   -4.8048   -1.4172   -1.4639 H   0  0  0  0  0  0  0  0  0  0  0  0
   -4.5288   -1.9567   -3.1285 H   0  0  0  0  0  0  0  0  0  0  0  0
   -3.4408   -4.1558   -4.5069 H   0  0  0  0  0  0  0  0  0  0  0  0
   -7.1695   -6.7893   -4.8806 H   0  0  0  0  0  0  0  0  0  0  0  0
  -12.1312   -7.7463   -3.9607 H   0  0  0  0  0  0  0  0  0  0  0  0
  -11.7202  -10.1722   -3.5380 H   0  0  0  0  0  0  0  0  0  0  0  0
   -9.6970  -11.2783   -4.4949 H   0  0  0  0  0  0  0  0  0  0  0  0
   -6.6119   -5.8625   -8.7143 H   0  0  0  0  0  0  0  0  0  0  0  0
   -1.1445    1.5409   -2.2219 H   0  0  0  0  0  0  0  0  0  0  0  0
    1.3047    2.0216   -1.9854 H   0  0  0  0  0  0  0  0  0  0  0  0
    2.7818    0.4269   -0.7880 H   0  0  0  0  0  0  0  0  0  0  0  0
   -3.1385   -2.8226    0.7209 H   0  0  0  0  0  0  0  0  0  0  0  0
   -3.2095   -3.4843    2.3879 H   0  0  0  0  0  0  0  0  0  0  0  0
   -1.6886   -3.5618    1.4429 H   0  0  0  0  0  0  0  0  0  0  0  0
  1 56  1  0  0  0  0
  1 57  1  0  0  0  0
  2  1  1  0  0  0  0
  2  3  1  0  0  0  0
  3 60  1  0  0  0  0
  3 59  1  0  0  0  0
  4  3  1  0  0  0  0
  6  5  1  0  0  0  0
  6 63  1  0  0  0  0
  7  8  1  6  0  0  0
  7 13  1  0  0  0  0
  7  6  1  0  0  0  0
  9  7  1  0  0  0  0
  9 64  1  0  0  0  0
 10  9  1  0  0  0  0
 11 10  1  0  0  0  0
 11 65  1  0  0  0  0
 12 10  2  0  0  0  0
 13 16  2  0  0  0  0
 13 14  1  0  0  0  0
 14 15  1  0  0  0  0
 15 69  1  0  0  0  0
 15 70  1  0  0  0  0
 17 72  1  0  0  0  0
 17  4  1  0  0  0  0
 18 17  1  0  0  0  0
 19 18  1  0  0  0  0
 20 19  1  0  0  0  0
 21 20  1  0  0  0  0
 21 74  1  0  0  0  0
 22 21  2  0  0  0  0
 23 22  1  0  0  0  0
 23 50  2  0  0  0  0
 24 23  1  0  0  0  0
 25 75  1  0  0  0  0
 25 26  1  0  0  0  0
 25 24  1  0  0  0  0
 26 77  1  0  0  0  0
 27 26  1  0  0  0  0
 27 79  1  0  0  0  0
 27 28  1  0  0  0  0
 28 80  1  0  0  0  0
 29 24  1  0  0  0  0
 29 28  1  0  0  0  0
 29 82  1  0  0  0  0
 30 27  1  0  0  0  0
 31 30  1  0  0  0  0
 31 49  2  0  0  0  0
 32 31  1  0  0  0  0
 33 34  1  0  0  0  0
 33 32  1  0  0  0  0
 34 85  1  0  0  0  0
 35 34  1  0  0  0  0
 35 36  1  0  0  0  0
 36 42  2  0  0  0  0
 36 37  1  0  0  0  0
 37 39  2  0  0  0  0
 38 37  1  0  0  0  0
 39 40  1  0  0  0  0
 39 86  1  0  0  0  0
 40 87  1  0  0  0  0
 41 88  1  0  0  0  0
 41 40  2  0  0  0  0
 42 41  1  0  0  0  0
 43 42  1  0  0  0  0
 44 35  2  0  0  0  0
 45 46  1  0  0  0  0
 45 33  2  0  0  0  0
 46 48  1  0  0  0  0
 47 46  1  0  0  0  0
 48 32  2  0  0  0  0
 51 52  2  0  0  0  0
 51 22  1  0  0  0  0
 52 53  1  0  0  0  0
 53 92  1  0  0  0  0
 53 20  2  0  0  0  0
 54 18  2  0  0  0  0
 55  2  1  0  0  0  0
 55 94  1  0  0  0  0
 58  1  1  0  0  0  0
 61  4  1  0  0  0  0
 62  6  1  0  0  0  0
 66 11  1  0  0  0  0
 67 11  1  0  0  0  0
 68 14  1  0  0  0  0
 71 15  1  0  0  0  0
 73 19  1  0  0  0  0
 76 25  1  0  0  0  0
 78 26  1  0  0  0  0
 81 28  1  0  0  0  0
 83 29  1  0  0  0  0
 84 30  1  0  0  0  0
 89 45  1  0  0  0  0
 90 51  1  0  0  0  0
 91 52  1  0  0  0  0
 93 55  1  0  0  0  0
 95 55  1  0  0  0  0
M  END
