-1 1
 OpenBabel05232414493D

 95 97  0  0  1  0  0  0  0  0999 V2000
    4.0616    2.6116    4.6277 C   0  0  0  0  0  0  0  0  0  0  0  0
    2.8090    2.3814    3.9565 N   0  0  0  0  0  0  0  0  0  0  0  0
    2.9796    2.3447    2.5101 C   0  0  0  0  0  0  0  0  0  0  0  0
    1.7447    1.8636    1.7728 C   0  0  0  0  0  3  0  0  0  0  0  0
    2.8118    1.9352   -0.4334 S   0  0  0  0  0  1  0  0  0  0  0  0
    2.5355    0.1751   -0.7128 C   0  0  0  0  0  0  0  0  0  0  0  0
    3.4718   -0.7725    0.0695 C   0  0  2  0  0  0  0  0  0  0  0  0
    3.3714   -0.5631    1.1400 H   0  0  0  0  0  0  0  0  0  0  0  0
    4.8584   -0.5908   -0.2625 N   0  0  0  0  0  0  0  0  0  0  0  0
    5.7767   -0.0807    0.5890 C   0  0  0  0  0  0  0  0  0  0  0  0
    7.1546    0.1234   -0.0159 C   0  0  0  0  0  0  0  0  0  0  0  0
    5.5426    0.2301    1.7457 O   0  0  0  0  0  0  0  0  0  0  0  0
    3.0713   -2.2202   -0.2271 C   0  0  0  0  0  0  0  0  0  0  0  0
    1.9841   -2.6668    0.4341 N   0  0  0  0  0  0  0  0  0  0  0  0
    1.4072   -3.9535    0.1461 C   0  0  0  0  0  0  0  0  0  0  0  0
    3.6724   -2.8875   -1.0609 O   0  0  0  0  0  0  0  0  0  0  0  0
    1.2741    0.5919    2.0627 C   0  0  0  0  0  3  0  0  0  0  0  0
    0.0630   -0.1078    1.7555 C   0  0  0  0  0  0  0  0  0  0  0  0
   -1.1112    0.4869    1.2620 N   0  0  0  0  0  0  0  0  0  0  0  0
   -1.4574    1.7487    0.7822 C   0  0  0  0  0  0  0  0  0  0  0  0
   -2.6742    2.3150    1.2005 C   0  0  0  0  0  0  0  0  0  0  0  0
   -3.0895    3.5487    0.7155 C   0  0  0  0  0  0  0  0  0  0  0  0
   -2.3021    4.2565   -0.1990 C   0  0  0  0  0  0  0  0  0  0  0  0
   -2.7564    5.5625   -0.7739 C   0  0  0  0  0  0  0  0  0  0  0  0
   -3.1734    6.5265    0.1209 N   0  0  0  0  0  0  0  0  0  0  0  0
   -2.8529    6.5738    1.5330 C   0  0  0  0  0  0  0  0  0  0  0  0
   -4.1398    6.5964    2.3805 C   0  0  0  0  0  0  0  0  0  0  0  0
   -5.3194    7.1088    1.5434 C   0  0  0  0  0  0  0  0  0  0  0  0
   -4.8961    8.2369    0.5999 C   0  0  2  0  0  0  0  0  0  0  0  0
   -5.7655    8.5555    0.0109 H   0  0  0  0  0  0  0  0  0  0  0  0
   -3.8249    7.7133   -0.3936 C   0  0  0  0  0  0  0  0  0  0  0  0
   -4.4521    9.4013    1.3727 N   0  0  0  0  0  0  0  0  0  0  0  0
   -4.4260   10.7047    0.9064 C   0  0  0  0  0  0  0  0  0  0  0  0
   -5.6124   11.1234    0.0977 C   0  0  0  0  0  0  0  0  0  0  0  0
   -6.9811   10.8234    0.3417 C   0  0  0  0  0  0  0  0  0  0  0  0
   -7.4534    9.9783    1.3439 N   0  0  0  0  0  0  0  0  0  0  0  0
   -8.7473    9.5903    1.4874 C   0  0  0  0  0  0  0  0  0  0  0  0
   -8.9348    8.5270    2.5485 C   0  0  0  0  0  0  0  0  0  0  0  0
   -9.0141    7.1780    2.1857 C   0  0  0  0  0  0  0  0  0  0  0  0
   -8.8553    6.7388    0.5079 Cl  0  0  0  0  0  0  0  0  0  0  0  0
   -9.1950    6.1751    3.1335 C   0  0  0  0  0  0  0  0  0  0  0  0
   -9.3069    6.5248    4.4766 C   0  0  0  0  0  0  0  0  0  0  0  0
   -9.2385    7.8573    4.8719 C   0  0  0  0  0  0  0  0  0  0  0  0
   -9.0530    8.8420    3.9045 C   0  0  0  0  0  0  0  0  0  0  0  0
   -8.9610   10.5114    4.4023 Cl  0  0  0  0  0  0  0  0  0  0  0  0
   -9.6685   10.0106    0.8220 O   0  0  0  0  0  0  0  0  0  0  0  0
   -7.6798   11.5299   -0.6170 C   0  0  0  0  0  0  0  0  0  0  0  0
   -6.7276   12.1773   -1.3389 N   0  0  0  0  0  0  0  0  0  0  0  0
   -6.8814   12.7804   -2.1362 H   0  0  0  0  0  0  0  0  0  0  0  0
   -5.4918   11.9589   -0.9258 N   0  0  0  0  0  0  0  0  0  0  0  0
   -3.5528   11.4794    1.2233 O   0  0  0  0  0  0  0  0  0  0  0  0
   -2.7970    5.7631   -1.9736 O   0  0  0  0  0  0  0  0  0  0  0  0
   -1.1105    3.6749   -0.6453 C   0  0  0  0  0  0  0  0  0  0  0  0
   -0.6887    2.4407   -0.1673 C   0  0  0  0  0  0  0  0  0  0  0  0
   -0.0474   -1.3278    1.9819 O   0  0  0  0  0  0  0  0  0  0  0  0
    1.7721    3.2780    4.3899 C   0  0  0  0  0  0  0  0  0  0  0  0
    4.8053    1.8747    4.2896 H   0  0  0  0  0  0  0  0  0  0  0  0
    3.9370    2.5062    5.7186 H   0  0  0  0  0  0  0  0  0  0  0  0
    4.4845    3.6277    4.4349 H   0  0  0  0  0  0  0  0  0  0  0  0
    3.8128    1.6630    2.2863 H   0  0  0  0  0  0  0  0  0  0  0  0
    3.2712    3.3434    2.1124 H   0  0  0  0  0  0  0  0  0  0  0  0
    1.0510    2.6403    1.4552 H   0  0  0  0  0  0  0  0  0  0  0  0
    2.6231   -0.0479   -1.7891 H   0  0  0  0  0  0  0  0  0  0  0  0
    1.5023   -0.0841   -0.4220 H   0  0  0  0  0  0  0  0  0  0  0  0
    5.1472   -0.9513   -1.1627 H   0  0  0  0  0  0  0  0  0  0  0  0
    7.3599   -0.5520   -0.8591 H   0  0  0  0  0  0  0  0  0  0  0  0
    7.9111   -0.0160    0.7665 H   0  0  0  0  0  0  0  0  0  0  0  0
    7.2185    1.1610   -0.3769 H   0  0  0  0  0  0  0  0  0  0  0  0
    1.4735   -2.0779    1.1022 H   0  0  0  0  0  0  0  0  0  0  0  0
    1.4504   -4.1601   -0.9339 H   0  0  0  0  0  0  0  0  0  0  0  0
    0.3607   -3.9480    0.4790 H   0  0  0  0  0  0  0  0  0  0  0  0
    1.9365   -4.7748    0.6606 H   0  0  0  0  0  0  0  0  0  0  0  0
    1.9698   -0.0730    2.5811 H   0  0  0  0  0  0  0  0  0  0  0  0
   -1.8792   -0.1640    1.3797 H   0  0  0  0  0  0  0  0  0  0  0  0
   -3.2890    1.7750    1.9250 H   0  0  0  0  0  0  0  0  0  0  0  0
   -4.0425    3.9659    1.0522 H   0  0  0  0  0  0  0  0  0  0  0  0
   -2.2528    7.4856    1.7184 H   0  0  0  0  0  0  0  0  0  0  0  0
   -2.2094    5.7282    1.7988 H   0  0  0  0  0  0  0  0  0  0  0  0
   -3.9898    7.2261    3.2720 H   0  0  0  0  0  0  0  0  0  0  0  0
   -4.3698    5.5875    2.7541 H   0  0  0  0  0  0  0  0  0  0  0  0
   -6.1461    7.4335    2.1943 H   0  0  0  0  0  0  0  0  0  0  0  0
   -5.7131    6.2909    0.9216 H   0  0  0  0  0  0  0  0  0  0  0  0
   -3.0945    8.5164   -0.6056 H   0  0  0  0  0  0  0  0  0  0  0  0
   -4.2837    7.4443   -1.3537 H   0  0  0  0  0  0  0  0  0  0  0  0
   -3.6384    9.2342    1.9604 H   0  0  0  0  0  0  0  0  0  0  0  0
   -6.7500    9.5934    1.9673 H   0  0  0  0  0  0  0  0  0  0  0  0
   -9.2427    5.1333    2.8159 H   0  0  0  0  0  0  0  0  0  0  0  0
   -9.4473    5.7451    5.2274 H   0  0  0  0  0  0  0  0  0  0  0  0
   -9.3248    8.1394    5.9214 H   0  0  0  0  0  0  0  0  0  0  0  0
   -8.7437   11.6035   -0.8128 H   0  0  0  0  0  0  0  0  0  0  0  0
   -0.5003    4.1942   -1.3875 H   0  0  0  0  0  0  0  0  0  0  0  0
    0.2596    2.0298   -0.5274 H   0  0  0  0  0  0  0  0  0  0  0  0
    1.6544    3.2237    5.4847 H   0  0  0  0  0  0  0  0  0  0  0  0
    0.8105    2.9931    3.9366 H   0  0  0  0  0  0  0  0  0  0  0  0
    1.9742    4.3453    4.1250 H   0  0  0  0  0  0  0  0  0  0  0  0
  1 58  1  0  0  0  0
  2 56  1  0  0  0  0
  2  1  1  0  0  0  0
  3  2  1  0  0  0  0
  4 17  1  0  0  0  0
  4  3  1  0  0  0  0
  6  5  1  0  0  0  0
  6 64  1  0  0  0  0
  6  7  1  0  0  0  0
  7  8  1  1  0  0  0
  9  7  1  0  0  0  0
  9 10  1  0  0  0  0
 10 12  2  0  0  0  0
 11 10  1  0  0  0  0
 11 67  1  0  0  0  0
 13  7  1  0  0  0  0
 13 14  1  0  0  0  0
 14 69  1  0  0  0  0
 15 14  1  0  0  0  0
 15 71  1  0  0  0  0
 15 72  1  0  0  0  0
 16 13  2  0  0  0  0
 17 73  1  0  0  0  0
 18 55  2  0  0  0  0
 18 17  1  0  0  0  0
 19 74  1  0  0  0  0
 19 18  1  0  0  0  0
 20 21  1  0  0  0  0
 20 19  1  0  0  0  0
 21 75  1  0  0  0  0
 22 76  1  0  0  0  0
 22 21  2  0  0  0  0
 23 22  1  0  0  0  0
 24 23  1  0  0  0  0
 24 25  1  0  0  0  0
 25 26  1  0  0  0  0
 26 77  1  0  0  0  0
 26 78  1  0  0  0  0
 26 27  1  0  0  0  0
 27 80  1  0  0  0  0
 27 79  1  0  0  0  0
 28 81  1  0  0  0  0
 28 27  1  0  0  0  0
 29 30  1  6  0  0  0
 29 32  1  0  0  0  0
 29 28  1  0  0  0  0
 31 25  1  0  0  0  0
 31 29  1  0  0  0  0
 32 85  1  0  0  0  0
 33 51  2  0  0  0  0
 33 32  1  0  0  0  0
 34 35  1  0  0  0  0
 34 33  1  0  0  0  0
 35 36  1  0  0  0  0
 36 37  1  0  0  0  0
 36 86  1  0  0  0  0
 37 38  1  0  0  0  0
 38 44  1  0  0  0  0
 39 38  2  0  0  0  0
 39 41  1  0  0  0  0
 40 39  1  0  0  0  0
 41 42  2  0  0  0  0
 42 43  1  0  0  0  0
 42 88  1  0  0  0  0
 43 89  1  0  0  0  0
 44 45  1  0  0  0  0
 44 43  2  0  0  0  0
 46 37  2  0  0  0  0
 47 35  2  0  0  0  0
 48 50  1  0  0  0  0
 48 47  1  0  0  0  0
 49 48  1  0  0  0  0
 50 34  2  0  0  0  0
 52 24  2  0  0  0  0
 53 23  2  0  0  0  0
 53 54  1  0  0  0  0
 54 20  2  0  0  0  0
 56 93  1  0  0  0  0
 57  1  1  0  0  0  0
 59  1  1  0  0  0  0
 60  3  1  0  0  0  0
 61  3  1  0  0  0  0
 62  4  1  0  0  0  0
 63  6  1  0  0  0  0
 65  9  1  0  0  0  0
 66 11  1  0  0  0  0
 68 11  1  0  0  0  0
 70 15  1  0  0  0  0
 82 28  1  0  0  0  0
 83 31  1  0  0  0  0
 84 31  1  0  0  0  0
 87 41  1  0  0  0  0
 90 47  1  0  0  0  0
 91 53  1  0  0  0  0
 92 54  1  0  0  0  0
 94 56  1  0  0  0  0
 95 56  1  0  0  0  0
M  END
