-1 1
 OpenBabel05232413493D

 95 97  0  0  1  0  0  0  0  0999 V2000
    1.1088   -3.1197    4.5865 C   0  0  0  0  0  0  0  0  0  0  0  0
    0.4680   -3.6280    3.3935 N   0  0  0  0  0  0  0  0  0  0  0  0
    0.7117   -2.7946    2.2371 C   0  0  0  0  0  0  0  0  0  0  0  0
    0.7257   -3.4969    0.9171 C   0  0  0  0  0  0  0  0  0  0  0  0
    2.7729   -0.9819   -0.6839 S   0  0  0  0  0  1  0  0  0  0  0  0
    3.5654   -2.6170   -0.7494 C   0  0  0  0  0  0  0  0  0  0  0  0
    4.1309   -3.1122    0.6043 C   0  0  2  0  0  0  0  0  0  0  0  0
    3.3119   -3.2351    1.3230 H   0  0  0  0  0  0  0  0  0  0  0  0
    5.0512   -2.1638    1.1762 N   0  0  0  0  0  0  0  0  0  0  0  0
    4.7310   -1.3167    2.1741 C   0  0  0  0  0  0  0  0  0  0  0  0
    5.6760   -0.1458    2.3474 C   0  0  0  0  0  0  0  0  0  0  0  0
    3.7509   -1.4456    2.9002 O   0  0  0  0  0  0  0  0  0  0  0  0
    4.8468   -4.4429    0.3875 C   0  0  0  0  0  0  0  0  0  0  0  0
    4.0488   -5.5326    0.4875 N   0  0  0  0  0  0  0  0  0  0  0  0
    4.4877   -6.8644    0.1582 C   0  0  0  0  0  0  0  0  0  0  0  0
    6.0261   -4.4960    0.0747 O   0  0  0  0  0  0  0  0  0  0  0  0
    0.6182   -4.8240    0.7614 C   0  0  0  0  0  0  0  0  0  0  0  0
    0.7873   -5.6195   -0.4810 C   0  0  0  0  0  0  0  0  0  0  0  0
    0.5195   -5.0982   -1.7282 N   0  0  0  0  0  0  0  0  0  0  0  0
    0.0182   -3.8456   -2.1378 C   0  0  0  0  0  0  0  0  0  0  0  0
   -1.1187   -3.2762   -1.5544 C   0  0  0  0  0  0  0  0  0  0  0  0
   -1.5085   -1.9941   -1.9118 C   0  0  0  0  0  0  0  0  0  0  0  0
   -0.7968   -1.2611   -2.8693 C   0  0  0  0  0  0  0  0  0  0  0  0
   -1.2334    0.1632   -3.0738 C   0  0  0  0  0  0  0  0  0  0  0  0
   -0.2855    1.1125   -3.3633 N   0  0  0  0  0  0  0  0  0  0  0  0
    1.1672    0.9413   -3.2400 C   0  0  0  0  0  0  0  0  0  0  0  0
    1.8087    2.1582   -2.5667 C   0  0  0  0  0  0  0  0  0  0  0  0
    0.9080    2.6556   -1.4423 C   0  0  0  0  0  0  0  0  0  0  0  0
   -0.4796    3.0948   -1.9703 C   0  0  2  0  0  0  0  0  0  0  0  0
   -1.2619    2.6863   -1.3181 H   0  0  0  0  0  0  0  0  0  0  0  0
   -0.7296    2.4939   -3.3664 C   0  0  0  0  0  0  0  0  0  0  0  0
   -0.5913    4.5479   -1.9695 N   0  0  0  0  0  0  0  0  0  0  0  0
   -1.7288    5.3146   -1.9010 C   0  0  0  0  0  0  0  0  0  0  0  0
   -2.8822    4.7394   -1.1377 C   0  0  0  0  0  0  0  0  0  0  0  0
   -2.9022    4.0682    0.1187 C   0  0  0  0  0  0  0  0  0  0  0  0
   -1.7982    3.6846    0.8792 N   0  0  0  0  0  0  0  0  0  0  0  0
   -1.8614    2.8457    1.9555 C   0  0  0  0  0  0  0  0  0  0  0  0
   -0.5125    2.3123    2.3744 C   0  0  0  0  0  0  0  0  0  0  0  0
   -0.0050    1.1580    1.7640 C   0  0  0  0  0  0  0  0  0  0  0  0
   -0.9779    0.3521    0.5571 Cl  0  0  0  0  0  0  0  0  0  0  0  0
    1.2422    0.6379    2.0869 C   0  0  0  0  0  0  0  0  0  0  0  0
    1.9777    1.2492    3.1006 C   0  0  0  0  0  0  0  0  0  0  0  0
    1.4957    2.3831    3.7490 C   0  0  0  0  0  0  0  0  0  0  0  0
    0.2639    2.9103    3.3671 C   0  0  0  0  0  0  0  0  0  0  0  0
   -0.3246    4.3647    4.1469 Cl  0  0  0  0  0  0  0  0  0  0  0  0
   -2.8952    2.5160    2.4953 O   0  0  0  0  0  0  0  0  0  0  0  0
   -4.2412    3.8552    0.3852 C   0  0  0  0  0  0  0  0  0  0  0  0
   -4.9039    4.3861   -0.6741 N   0  0  0  0  0  0  0  0  0  0  0  0
   -5.9038    4.3834   -0.8218 H   0  0  0  0  0  0  0  0  0  0  0  0
   -4.1180    4.9267   -1.5872 N   0  0  0  0  0  0  0  0  0  0  0  0
   -1.7712    6.4318   -2.3733 O   0  0  0  0  0  0  0  0  0  0  0  0
   -2.4117    0.4616   -2.9331 O   0  0  0  0  0  0  0  0  0  0  0  0
    0.2529   -1.8903   -3.5407 C   0  0  0  0  0  0  0  0  0  0  0  0
    0.6645   -3.1652   -3.1718 C   0  0  0  0  0  0  0  0  0  0  0  0
    1.2142   -6.7641   -0.4070 O   0  0  0  0  0  0  0  0  0  0  0  0
   -0.9346   -3.9012    3.5999 C   0  0  0  0  0  0  0  0  0  0  0  0
    2.1740   -2.9320    4.3911 H   0  0  0  0  0  0  0  0  0  0  0  0
    1.0223   -3.8560    5.4021 H   0  0  0  0  0  0  0  0  0  0  0  0
    0.6612   -2.1645    4.9441 H   0  0  0  0  0  0  0  0  0  0  0  0
    1.6941   -2.3014    2.3441 H   0  0  0  0  0  0  0  0  0  0  0  0
   -0.0166   -1.9554    2.1599 H   0  0  0  0  0  0  0  0  0  0  0  0
    0.8943   -2.8109    0.0771 H   0  0  0  0  0  0  0  0  0  0  0  0
    4.4018   -2.6149   -1.4704 H   0  0  0  0  0  0  0  0  0  0  0  0
    2.8579   -3.3888   -1.1020 H   0  0  0  0  0  0  0  0  0  0  0  0
    5.8706   -1.9700    0.6149 H   0  0  0  0  0  0  0  0  0  0  0  0
    6.6841   -0.3430    1.9562 H   0  0  0  0  0  0  0  0  0  0  0  0
    5.7353    0.1199    3.4106 H   0  0  0  0  0  0  0  0  0  0  0  0
    5.2488    0.7031    1.7917 H   0  0  0  0  0  0  0  0  0  0  0  0
    3.0827   -5.4060    0.7660 H   0  0  0  0  0  0  0  0  0  0  0  0
    5.3402   -6.7951   -0.5308 H   0  0  0  0  0  0  0  0  0  0  0  0
    3.6589   -7.4082   -0.3153 H   0  0  0  0  0  0  0  0  0  0  0  0
    4.8170   -7.4254    1.0499 H   0  0  0  0  0  0  0  0  0  0  0  0
    0.5339   -5.4553    1.6515 H   0  0  0  0  0  0  0  0  0  0  0  0
    0.8843   -5.7001   -2.4587 H   0  0  0  0  0  0  0  0  0  0  0  0
   -1.6637   -3.8244   -0.7855 H   0  0  0  0  0  0  0  0  0  0  0  0
   -2.3761   -1.5287   -1.4414 H   0  0  0  0  0  0  0  0  0  0  0  0
    1.6236    0.7742   -4.2319 H   0  0  0  0  0  0  0  0  0  0  0  0
    1.3961    0.0677   -2.6098 H   0  0  0  0  0  0  0  0  0  0  0  0
    2.0047    2.9664   -3.2928 H   0  0  0  0  0  0  0  0  0  0  0  0
    2.7800    1.8367   -2.1633 H   0  0  0  0  0  0  0  0  0  0  0  0
    1.3765    3.4895   -0.8973 H   0  0  0  0  0  0  0  0  0  0  0  0
    0.7900    1.8336   -0.7237 H   0  0  0  0  0  0  0  0  0  0  0  0
   -0.1721    3.0567   -4.1331 H   0  0  0  0  0  0  0  0  0  0  0  0
   -1.7966    2.5330   -3.6122 H   0  0  0  0  0  0  0  0  0  0  0  0
    0.1469    5.0363   -2.4702 H   0  0  0  0  0  0  0  0  0  0  0  0
   -0.8832    3.9255    0.5162 H   0  0  0  0  0  0  0  0  0  0  0  0
    1.6596   -0.2065    1.5241 H   0  0  0  0  0  0  0  0  0  0  0  0
    2.9323    0.7972    3.3775 H   0  0  0  0  0  0  0  0  0  0  0  0
    2.0676    2.8676    4.5412 H   0  0  0  0  0  0  0  0  0  0  0  0
   -4.7265    3.3737    1.2261 H   0  0  0  0  0  0  0  0  0  0  0  0
    0.7925   -1.3754   -4.3352 H   0  0  0  0  0  0  0  0  0  0  0  0
    1.5366   -3.6155   -3.6508 H   0  0  0  0  0  0  0  0  0  0  0  0
   -1.0655   -4.6435    4.4036 H   0  0  0  0  0  0  0  0  0  0  0  0
   -1.3829   -4.3148    2.6843 H   0  0  0  0  0  0  0  0  0  0  0  0
   -1.5133   -2.9904    3.8782 H   0  0  0  0  0  0  0  0  0  0  0  0
  1 59  1  0  0  0  0
  1 58  1  0  0  0  0
  2 56  1  0  0  0  0
  2  1  1  0  0  0  0
  3 60  1  0  0  0  0
  3  2  1  0  0  0  0
  4  3  1  0  0  0  0
  6  5  1  0  0  0  0
  6  7  1  0  0  0  0
  7  9  1  0  0  0  0
  7  8  1  1  0  0  0
  9 10  1  0  0  0  0
 10 11  1  0  0  0  0
 10 12  2  0  0  0  0
 11 67  1  0  0  0  0
 13 14  1  0  0  0  0
 13  7  1  0  0  0  0
 14 69  1  0  0  0  0
 15 14  1  0  0  0  0
 15 72  1  0  0  0  0
 16 13  2  0  0  0  0
 17  4  2  0  0  0  0
 17 73  1  0  0  0  0
 18 55  2  0  0  0  0
 18 17  1  0  0  0  0
 19 18  1  0  0  0  0
 20 19  1  0  0  0  0
 20 21  1  0  0  0  0
 21 75  1  0  0  0  0
 22 21  2  0  0  0  0
 22 76  1  0  0  0  0
 23 22  1  0  0  0  0
 24 52  2  0  0  0  0
 24 23  1  0  0  0  0
 25 26  1  0  0  0  0
 25 24  1  0  0  0  0
 26 78  1  0  0  0  0
 26 27  1  0  0  0  0
 27 80  1  0  0  0  0
 27 28  1  0  0  0  0
 28 81  1  0  0  0  0
 28 82  1  0  0  0  0
 29 32  1  0  0  0  0
 29 28  1  0  0  0  0
 29 30  1  1  0  0  0
 31 25  1  0  0  0  0
 31 29  1  0  0  0  0
 32 33  1  0  0  0  0
 33 34  1  0  0  0  0
 34 35  1  0  0  0  0
 35 47  2  0  0  0  0
 35 36  1  0  0  0  0
 36 37  1  0  0  0  0
 37 38  1  0  0  0  0
 37 46  2  0  0  0  0
 38 44  1  0  0  0  0
 39 41  1  0  0  0  0
 39 38  2  0  0  0  0
 40 39  1  0  0  0  0
 41 42  2  0  0  0  0
 42 88  1  0  0  0  0
 42 43  1  0  0  0  0
 43 89  1  0  0  0  0
 44 43  2  0  0  0  0
 44 45  1  0  0  0  0
 47 90  1  0  0  0  0
 48 47  1  0  0  0  0
 49 48  1  0  0  0  0
 50 34  2  0  0  0  0
 50 48  1  0  0  0  0
 51 33  2  0  0  0  0
 53 54  1  0  0  0  0
 53 23  2  0  0  0  0
 54 20  2  0  0  0  0
 56 95  1  0  0  0  0
 56 93  1  0  0  0  0
 57  1  1  0  0  0  0
 61  3  1  0  0  0  0
 62  4  1  0  0  0  0
 63  6  1  0  0  0  0
 64  6  1  0  0  0  0
 65  9  1  0  0  0  0
 66 11  1  0  0  0  0
 68 11  1  0  0  0  0
 70 15  1  0  0  0  0
 71 15  1  0  0  0  0
 74 19  1  0  0  0  0
 77 26  1  0  0  0  0
 79 27  1  0  0  0  0
 83 31  1  0  0  0  0
 84 31  1  0  0  0  0
 85 32  1  0  0  0  0
 86 36  1  0  0  0  0
 87 41  1  0  0  0  0
 91 53  1  0  0  0  0
 92 54  1  0  0  0  0
 94 56  1  0  0  0  0
M  END
