84
-1 1
O         2.256020   -1.302591    0.366338
C         1.906951   -0.169607    0.744350
N         1.103020   -0.034001    1.915007
C         0.849180   -1.093296    2.774572
C         0.551477   -2.359078    2.254575
C         0.498591   -3.488428    3.067800
C         0.325170   -4.880826    2.527164
N         0.860135   -5.191413    1.289213
C         0.645444   -6.528333    0.753980
C         0.170628   -6.476334   -0.701580
C         1.071268   -5.595314   -1.573169
C         1.273410   -4.225399   -0.914920
H         1.984684   -3.616420   -1.484037
C         1.823511   -4.426427    0.506270
N         0.009778   -3.509230   -0.840711
C        -0.344660   -2.287753   -1.315482
C         0.391317   -1.726392   -2.485067
C         0.534087   -0.344993   -2.796254
N         0.197740    0.739378   -1.973921
C        -0.785884    1.631822   -2.171100
C        -1.494703    1.582229   -3.515665
C        -0.985898    2.284960   -4.611897
Cl         0.516502    3.166817   -4.441210
C        -1.634486    2.317710   -5.842822
C        -2.838776    1.634984   -5.987674
C        -3.387513    0.942515   -4.913382
C        -2.718783    0.928333   -3.690200
Cl        -3.427329    0.077115   -2.355441
O        -1.110001    2.504464   -1.378302
C         1.207975   -0.334073   -4.000895
N         1.396344   -1.632410   -4.335540
H         1.845516   -1.989560   -5.166903
N         0.919172   -2.486163   -3.435156
O        -1.291248   -1.678830   -0.844192
O        -0.268679   -5.728494    3.176430
C         0.583656   -3.335870    4.458540
C         0.756914   -2.061867    4.993329
C         0.912190   -0.948501    4.167600
C         2.227583    1.037187    0.075980
C         1.685314    2.372298    0.389420
S         2.064666    3.187984    2.064401
C         0.662943    4.353600    2.057661
C        -0.512077    3.983629    2.977801
H        -1.343317    4.669848    2.731651
N        -0.175043    4.144952    4.369095
C        -0.051770    5.348761    4.969293
C         0.309276    5.299703    6.443155
O        -0.187639    6.408278    4.377884
C        -1.018786    2.532129    2.832937
N        -1.506024    2.178243    1.631746
C        -1.949066    0.831091    1.330265
O        -0.985824    1.782898    3.801835
H         1.151369    0.879267    2.361077
H         0.396087   -2.420137    1.188204
H        -0.079706   -7.037187    1.399124
H         1.596808   -7.093788    0.811766
H        -0.859520   -6.083717   -0.727932
H         0.123932   -7.501097   -1.103643
H         0.645825   -5.458755   -2.578624
H         2.058503   -6.074967   -1.692733
H         2.065515   -3.455209    0.947694
H         2.762088   -5.007701    0.437075
H        -0.598707   -3.796510   -0.078886
H         0.840584    0.838900   -1.125165
H        -1.197771    2.877638   -6.670183
H        -3.359447    1.650331   -6.947187
H        -4.335587    0.412715   -5.009284
H         1.563349    0.491792   -4.611143
H         0.502294   -4.216952    5.096879
H         0.803400   -1.931705    6.077673
H         1.086069    0.041668    4.593532
H         3.077301    0.959702   -0.606667
H         0.589001    2.384965    0.387341
H         2.017451    3.102323   -0.362117
H         0.316655    4.450177    1.016193
H         1.011659    5.348385    2.365564
H        -0.169486    3.269036    4.886872
H        -0.269432    6.067289    6.973400
H         1.375125    5.551214    6.548960
H         0.133725    4.316855    6.901636
H        -1.407284    2.798607    0.833261
H        -2.983333    0.844378    0.955077
H        -1.899518    0.235634    2.248852
H        -1.307300    0.357035    0.575428
