84
-1 1
O         9.812293  -12.542938    8.006579
C         9.546509  -11.409498    8.417882
N         8.828199  -11.194365    9.594807
C         8.486597  -12.211983   10.485078
C         8.109318  -13.469853   10.006453
C         7.966724  -14.559889   10.864760
C         7.692113  -15.959671   10.386586
N         8.203042  -16.368681    9.166813
C         7.892687  -17.711555    8.696087
C         7.420671  -17.695542    7.238936
C         8.379946  -16.922285    6.328616
C         8.680135  -15.539824    6.920643
H         9.431381  -15.013820    6.321031
C         9.216691  -15.713837    8.350569
N         7.472433  -14.731835    6.959776
C         7.181099  -13.530051    6.401161
C         7.962704  -13.066153    5.218507
C         8.159045  -11.710639    4.830705
N         7.830092  -10.559827    5.562631
C         6.844637   -9.668579    5.321306
C         6.122105   -9.800938    3.990806
C         6.647524   -9.216399    2.834428
Cl         8.181002   -8.376190    2.917211
C         5.987669   -9.263464    1.610105
C         4.755097   -9.905563    1.534218
C         4.188484  -10.476269    2.668792
C         4.867928  -10.412005    3.884681
Cl         4.130747  -11.102311    5.293222
O         6.554634   -8.755217    6.071567
C         8.856431  -11.792171    3.642288
N         9.009008  -13.112173    3.388837
H         9.461654  -13.531966    2.588973
N         8.485520  -13.896051    4.326799
O         6.255579  -12.851696    6.814602
O         7.038135  -16.729025   11.072926
C         8.055167  -14.355359   12.247160
C         8.316218  -13.076916   12.735189
C         8.551992  -12.011125   11.869317
C         9.969150  -10.198272    7.740073
C         9.395816   -8.956382    7.965182
S         9.745713   -7.846374   10.034291
C         8.237188   -6.851443    9.801687
C         7.072702   -7.249740   10.718476
H         6.208328   -6.592972   10.527198
N         7.448715   -7.065059   12.093968
C         6.526420   -6.817307   13.061913
C         7.018209   -7.074376   14.473928
O         5.397946   -6.424344   12.828988
C         6.597221   -8.708722   10.519266
N         6.158205   -9.023959    9.276925
C         5.720018  -10.353619    8.914368
O         6.608825   -9.501877   11.445293
H         8.904996  -10.252635    9.990684
H         7.957679  -13.566439    8.941378
H         7.133996  -18.135623    9.363320
H         8.801393  -18.339591    8.783455
H         6.419960  -17.234865    7.191708
H         7.302773  -18.732246    6.885546
H         7.964179  -16.804080    5.316888
H         9.330684  -17.475355    6.233402
H         9.525975  -14.746663    8.754539
H        10.111995  -16.362069    8.310189
H         6.835452  -14.945542    7.722458
H         8.407934  -10.388161    6.404909
H         6.436910   -8.794559    0.734354
H         4.225249   -9.951744    0.580775
H         3.217029  -10.969346    2.626501
H         9.245957  -11.014403    2.991071
H         7.905628  -15.201574   12.919394
H         8.361573  -12.907570   13.813663
H         8.778647  -11.015058   12.253382
H        10.875375  -10.304424    7.139313
H         8.340081   -8.913318    8.228778
H         9.742504   -8.110800    7.367690
H         7.917401   -6.921237    8.746199
H         8.460862   -5.790019    9.985650
H         8.302555   -7.553582   12.348236
H         6.928613   -8.152812   14.676522
H         6.386132   -6.525163   15.181913
H         8.071497   -6.786629   14.604905
H         6.224853   -8.345556    8.527198
H         4.688099  -10.335370    8.531395
H         5.760880  -10.982471    9.811548
H         6.364270  -10.800805    8.145105
