-1 1
 OpenBabel05232414493D

 85 87  0  0  1  0  0  0  0  0999 V2000
    6.3857   -5.7351   10.1565 O   0  0  0  0  0  0  0  0  0  0  0  0
    6.0705   -6.6819   10.8621 C   0  0  0  0  0  0  0  0  0  0  0  0
    5.0983   -6.4317   11.8882 N   0  0  0  0  0  0  0  0  0  0  0  0
    3.8950   -7.0499   12.1594 C   0  0  0  0  0  0  0  0  0  0  0  0
    3.4717   -8.2391   11.5374 C   0  0  0  0  0  0  0  0  0  0  0  0
    2.2986   -8.8785   11.9330 C   0  0  0  0  0  0  0  0  0  0  0  0
    1.9418  -10.2308   11.3600 C   0  0  0  0  0  0  0  0  0  0  0  0
    2.1907  -11.2966   12.3174 N   0  0  0  0  0  0  0  0  0  0  0  0
    3.6008  -11.4658   12.6276 C   0  0  0  0  0  0  0  0  0  0  0  0
    3.7949  -12.4166   13.7978 C   0  0  0  0  0  0  0  0  0  0  0  0
    3.1308  -13.7740   13.5447 C   0  0  0  0  0  0  0  0  0  0  0  0
    1.6788  -13.5544   13.1078 C   0  0  0  0  0  0  0  0  0  0  0  0
    1.5620  -12.5469   11.9649 C   0  0  0  0  0  0  0  0  0  0  0  0
    3.8192  -14.5539   12.5171 N   0  0  0  0  0  0  0  0  0  0  0  0
    4.8902  -15.3705   12.5947 C   0  0  0  0  0  0  0  0  0  0  0  0
    5.6023  -15.5849   13.8830 C   0  0  0  0  0  0  0  0  0  0  0  0
    6.7008  -16.4791   14.0240 C   0  0  0  0  0  0  0  0  0  0  0  0
    7.2172  -17.2632   13.0013 N   0  0  0  0  0  0  0  0  0  0  0  0
    8.2397  -18.1355   13.1496 C   0  0  0  0  0  0  0  0  0  0  0  0
    8.6251  -18.8470   11.8693 C   0  0  0  0  0  0  0  0  0  0  0  0
    9.5855  -18.3105   11.0064 C   0  0  0  0  0  0  0  0  0  0  0  0
   10.2932  -16.7639   11.3798 Cl  0  0  0  0  0  0  0  0  0  0  0  0
    9.9878  -18.9791    9.8528 C   0  0  0  0  0  0  0  0  0  0  0  0
    9.4205  -20.2138    9.5516 C   0  0  0  0  0  0  0  0  0  0  0  0
    8.4613  -20.7769   10.3887 C   0  0  0  0  0  0  0  0  0  0  0  0
    8.0766  -20.0880   11.5356 C   0  0  0  0  0  0  0  0  0  0  0  0
    6.8695  -20.7928   12.5801 Cl  0  0  0  0  0  0  0  0  0  0  0  0
    8.8202  -18.3558   14.1935 O   0  0  0  0  0  0  0  0  0  0  0  0
    7.0944  -16.3593   15.3421 C   0  0  0  0  0  0  0  0  0  0  0  0
    6.2479  -15.4424   15.8827 N   0  0  0  0  0  0  0  0  0  0  0  0
    6.2680  -15.0847   16.8288 H   0  0  0  0  0  0  0  0  0  0  0  0
    5.3557  -14.9680   15.0364 N   0  0  0  0  0  0  0  0  0  0  0  0
    5.3000  -15.9654   11.5948 O   0  0  0  0  0  0  0  0  0  0  0  0
    1.4949   -8.3183   12.9310 C   0  0  0  0  0  0  0  0  0  0  0  0
    1.8807   -7.1150   13.5183 C   0  0  0  0  0  0  0  0  0  0  0  0
    3.0647   -6.4870   13.1505 C   0  0  0  0  0  0  0  0  0  0  0  0
    6.6756   -7.9917   10.7793 C   0  0  0  0  0  3  0  0  0  0  0  0
    6.6422   -8.9814   11.7382 C   0  0  0  0  0  3  0  0  0  0  0  0
    8.3656   -8.7220   13.5314 S   0  0  0  0  0  1  0  0  0  0  0  0
    8.1403   -6.9372   13.6414 C   0  0  0  0  0  0  0  0  0  0  0  0
    7.1811   -6.4640   14.7704 C   0  0  2  0  0  0  0  0  0  0  0  0
    7.6534   -6.6434   15.7488 H   0  0  0  0  0  0  0  0  0  0  0  0
    5.9531   -7.2022   14.7830 N   0  0  0  0  0  0  0  0  0  0  0  0
    5.6000   -8.0115   15.8157 C   0  0  0  0  0  0  0  0  0  0  0  0
    4.5468   -9.0442   15.4650 C   0  0  0  0  0  0  0  0  0  0  0  0
    6.1020   -7.9449   16.9243 O   0  0  0  0  0  0  0  0  0  0  0  0
    6.9177   -4.9676   14.6003 C   0  0  0  0  0  0  0  0  0  0  0  0
    7.9130   -4.1737   15.0826 N   0  0  0  0  0  0  0  0  0  0  0  0
    7.9365   -2.7465   14.9011 C   0  0  0  0  0  0  0  0  0  0  0  0
    5.9377   -4.5082   14.0327 O   0  0  0  0  0  0  0  0  0  0  0  0
    5.1908   -5.4919   12.2698 H   0  0  0  0  0  0  0  0  0  0  0  0
    4.1011   -8.6876   10.7673 H   0  0  0  0  0  0  0  0  0  0  0  0
    2.4987  -10.3960   10.4102 H   0  0  0  0  0  0  0  0  0  0  0  0
    0.8686  -10.2530   11.1085 H   0  0  0  0  0  0  0  0  0  0  0  0
    4.0300  -10.4872   12.8780 H   0  0  0  0  0  0  0  0  0  0  0  0
    4.1644  -11.8350   11.7380 H   0  0  0  0  0  0  0  0  0  0  0  0
    3.3409  -11.9696   14.6966 H   0  0  0  0  0  0  0  0  0  0  0  0
    4.8642  -12.5562   14.0095 H   0  0  0  0  0  0  0  0  0  0  0  0
    3.1494  -14.3602   14.4712 H   0  0  0  0  0  0  0  0  0  0  0  0
    1.1227  -13.1572   13.9705 H   0  0  0  0  0  0  0  0  0  0  0  0
    1.2183  -14.5144   12.8242 H   0  0  0  0  0  0  0  0  0  0  0  0
    0.4968  -12.3658   11.7484 H   0  0  0  0  0  0  0  0  0  0  0  0
    1.9918  -12.9766   11.0237 H   0  0  0  0  0  0  0  0  0  0  0  0
    3.4876  -14.4643   11.5619 H   0  0  0  0  0  0  0  0  0  0  0  0
    6.7555  -17.0989   12.1014 H   0  0  0  0  0  0  0  0  0  0  0  0
   10.7369  -18.5281    9.2017 H   0  0  0  0  0  0  0  0  0  0  0  0
    9.7286  -20.7444    8.6488 H   0  0  0  0  0  0  0  0  0  0  0  0
    8.0084  -21.7417   10.1597 H   0  0  0  0  0  0  0  0  0  0  0  0
    7.8919  -16.8444   15.8930 H   0  0  0  0  0  0  0  0  0  0  0  0
    0.5894   -8.8363   13.2554 H   0  0  0  0  0  0  0  0  0  0  0  0
    1.2619   -6.6655   14.2994 H   0  0  0  0  0  0  0  0  0  0  0  0
    3.3950   -5.5742   13.6515 H   0  0  0  0  0  0  0  0  0  0  0  0
    7.3719   -8.0852    9.9423 H   0  0  0  0  0  0  0  0  0  0  0  0
    7.0669   -9.9592   11.5109 H   0  0  0  0  0  0  0  0  0  0  0  0
    5.8807   -8.9885   12.5183 H   0  0  0  0  0  0  0  0  0  0  0  0
    7.7545   -6.5750   12.6688 H   0  0  0  0  0  0  0  0  0  0  0  0
    9.1103   -6.4342   13.7837 H   0  0  0  0  0  0  0  0  0  0  0  0
    5.5260   -7.3449   13.8768 H   0  0  0  0  0  0  0  0  0  0  0  0
    4.0136   -9.3437   16.3757 H   0  0  0  0  0  0  0  0  0  0  0  0
    5.0725   -9.9236   15.0606 H   0  0  0  0  0  0  0  0  0  0  0  0
    3.8319   -8.6880   14.7094 H   0  0  0  0  0  0  0  0  0  0  0  0
    8.6931   -4.6261   15.5391 H   0  0  0  0  0  0  0  0  0  0  0  0
    7.9510   -2.2129   15.8656 H   0  0  0  0  0  0  0  0  0  0  0  0
    7.0223   -2.4713   14.3599 H   0  0  0  0  0  0  0  0  0  0  0  0
    8.8080   -2.4257   14.3074 H   0  0  0  0  0  0  0  0  0  0  0  0
  1  2  2  0  0  0  0
  2  3  1  0  0  0  0
  3  4  1  0  0  0  0
  3 51  1  0  0  0  0
  4 36  1  0  0  0  0
  5  6  1  0  0  0  0
  5  4  2  0  0  0  0
  6 34  2  0  0  0  0
  7  6  1  0  0  0  0
  7  8  1  0  0  0  0
  8  9  1  0  0  0  0
  9 55  1  0  0  0  0
  9 10  1  0  0  0  0
 10 58  1  0  0  0  0
 10 57  1  0  0  0  0
 11 10  1  0  0  0  0
 11 59  1  0  0  0  0
 12 11  1  0  0  0  0
 12 60  1  0  0  0  0
 13  8  1  0  0  0  0
 13 12  1  0  0  0  0
 14 15  1  0  0  0  0
 14 11  1  0  0  0  0
 15 16  1  0  0  0  0
 16 17  1  0  0  0  0
 16 32  2  0  0  0  0
 17 29  2  0  0  0  0
 18 19  1  0  0  0  0
 18 17  1  0  0  0  0
 19 28  2  0  0  0  0
 20 19  1  0  0  0  0
 21 22  1  0  0  0  0
 21 20  2  0  0  0  0
 23 21  1  0  0  0  0
 24 23  2  0  0  0  0
 24 25  1  0  0  0  0
 25 26  2  0  0  0  0
 26 20  1  0  0  0  0
 26 27  1  0  0  0  0
 29 30  1  0  0  0  0
 29 69  1  0  0  0  0
 30 31  1  0  0  0  0
 32 30  1  0  0  0  0
 33 15  2  0  0  0  0
 34 70  1  0  0  0  0
 34 35  1  0  0  0  0
 35 71  1  0  0  0  0
 36 35  2  0  0  0  0
 36 72  1  0  0  0  0
 37  2  1  0  0  0  0
 37 38  1  0  0  0  0
 38 75  1  0  0  0  0
 39 40  1  0  0  0  0
 40 77  1  0  0  0  0
 40 41  1  0  0  0  0
 41 43  1  0  0  0  0
 41 42  1  1  0  0  0
 43 44  1  0  0  0  0
 44 46  2  0  0  0  0
 45 44  1  0  0  0  0
 45 79  1  0  0  0  0
 47 41  1  0  0  0  0
 47 48  1  0  0  0  0
 48 82  1  0  0  0  0
 49 48  1  0  0  0  0
 49 83  1  0  0  0  0
 50 47  2  0  0  0  0
 52  5  1  0  0  0  0
 53  7  1  0  0  0  0
 54  7  1  0  0  0  0
 56  9  1  0  0  0  0
 61 12  1  0  0  0  0
 62 13  1  0  0  0  0
 63 13  1  0  0  0  0
 64 14  1  0  0  0  0
 65 18  1  0  0  0  0
 66 23  1  0  0  0  0
 67 24  1  0  0  0  0
 68 25  1  0  0  0  0
 73 37  1  0  0  0  0
 74 38  1  0  0  0  0
 76 40  1  0  0  0  0
 78 43  1  0  0  0  0
 80 45  1  0  0  0  0
 81 45  1  0  0  0  0
 84 49  1  0  0  0  0
 85 49  1  0  0  0  0
M  END
