85
-1 1
O         6.385724   -5.735064   10.156503
C         6.070453   -6.681923   10.862053
N         5.098312   -6.431712   11.888174
C         3.895027   -7.049892   12.159432
C         3.471667   -8.239054   11.537397
C         2.298588   -8.878468   11.933048
C         1.941840  -10.230767   11.359989
N         2.190718  -11.296605   12.317388
C         3.600810  -11.465832   12.627642
C         3.794932  -12.416586   13.797802
C         3.130763  -13.774027   13.544718
C         1.678837  -13.554390   13.107841
C         1.561962  -12.546923   11.964925
N         3.819198  -14.553915   12.517068
C         4.890212  -15.370531   12.594714
C         5.602310  -15.584894   13.883021
C         6.700837  -16.479139   14.024031
N         7.217229  -17.263213   13.001317
C         8.239684  -18.135467   13.149572
C         8.625057  -18.847004   11.869269
C         9.585464  -18.310526   11.006379
Cl        10.293165  -16.763884   11.379828
C         9.987824  -18.979135    9.852809
C         9.420464  -20.213774    9.551623
C         8.461338  -20.776883   10.388713
C         8.076578  -20.087996   11.535630
Cl         6.869460  -20.792751   12.580094
O         8.820205  -18.355796   14.193522
C         7.094350  -16.359346   15.342119
N         6.247900  -15.442413   15.882686
H         6.268001  -15.084659   16.828818
N         5.355667  -14.967960   15.036422
O         5.299996  -15.965399   11.594771
C         1.494862   -8.318336   12.930953
C         1.880672   -7.115013   13.518333
C         3.064709   -6.487001   13.150490
C         6.675625   -7.991710   10.779343
C         6.642165   -8.981420   11.738175
S         8.365598   -8.722011   13.531412
C         8.140257   -6.937226   13.641368
C         7.181121   -6.463953   14.770385
H         7.653409   -6.643371   15.748811
N         5.953076   -7.202152   14.783014
C         5.599952   -8.011541   15.815709
C         4.546766   -9.044155   15.464996
O         6.102045   -7.944900   16.924250
C         6.917715   -4.967630   14.600264
N         7.912997   -4.173707   15.082589
C         7.936453   -2.746507   14.901079
O         5.937742   -4.508221   14.032733
H         5.190778   -5.491886   12.269801
H         4.101105   -8.687552   10.767317
H         2.498734  -10.395962   10.410242
H         0.868637  -10.253006   11.108540
H         4.029980  -10.487249   12.878000
H         4.164440  -11.835036   11.738000
H         3.340850  -11.969610   14.696620
H         4.864206  -12.556169   14.009473
H         3.149431  -14.360204   14.471239
H         1.122673  -13.157226   13.970509
H         1.218317  -14.514359   12.824151
H         0.496835  -12.365833   11.748402
H         1.991797  -12.976621   11.023744
H         3.487602  -14.464265   11.561950
H         6.755459  -17.098916   12.101448
H        10.736886  -18.528095    9.201696
H         9.728624  -20.744423    8.648850
H         8.008381  -21.741669   10.159728
H         7.891908  -16.844438   15.893009
H         0.589358   -8.836284   13.255422
H         1.261905   -6.665469   14.299362
H         3.395039   -5.574151   13.651534
H         7.371913   -8.085240    9.942297
H         7.066873   -9.959171   11.510917
H         5.880678   -8.988467   12.518321
H         7.754504   -6.575021   12.668805
H         9.110349   -6.434196   13.783708
H         5.526049   -7.344890   13.876774
H         4.013595   -9.343672   16.375715
H         5.072542   -9.923597   15.060551
H         3.831876   -8.687984   14.709435
H         8.693103   -4.626069   15.539063
H         7.951016   -2.212927   15.865599
H         7.022272   -2.471321   14.359876
H         8.808033   -2.425749   14.307445
