85
-1 1
O        -2.083148    4.927703   -2.868796
C        -1.610185    3.911030   -2.357482
N        -1.022034    4.083289   -1.013351
C        -1.548122    3.622542    0.150635
C        -0.899616    3.877532    1.384563
C        -1.354937    3.313076    2.563395
C        -2.510190    2.523929    2.560364
S        -2.881751    1.493616    3.935981
O        -4.305562    1.178947    3.935781
N        -2.075426    0.052270    3.577568
C        -0.615906    0.140884    3.640499
C        -0.009412   -1.253815    3.601382
C        -0.442390   -2.023770    2.346717
C        -1.970982   -2.033081    2.278551
C        -2.567363   -0.634525    2.379610
N         0.095750   -1.426207    1.127172
C         1.348756   -1.454156    0.636199
C         2.411986   -2.305316    1.251030
C         3.741845   -2.361411    0.741413
N         4.194258   -1.647682   -0.358773
C         5.462210   -1.679934   -0.824917
C         5.681217   -0.788935   -2.029434
C         6.026931    0.557085   -1.882205
Cl         6.171046    1.227361   -0.278510
C         6.254396    1.380913   -2.981143
C         6.136410    0.848777   -4.261639
C         5.797440   -0.488579   -4.445548
C         5.575705   -1.290362   -3.329442
Cl         5.140622   -2.963106   -3.562233
O         6.362564   -2.344762   -0.350368
C         4.407437   -3.247655    1.564245
N         3.479758   -3.651157    2.474008
H         3.622950   -4.299260    3.236463
N         2.288995   -3.105233    2.307814
O         1.662107   -0.791532   -0.356297
O        -2.237788    2.033817    5.131879
C        -3.220422    2.337237    1.366561
C        -2.748244    2.870590    0.183512
C        -1.493928    2.623462   -2.899925
C        -0.625981    1.555523   -2.401541
S        -1.454301   -0.047873   -1.639166
C        -3.165518    0.163219   -2.170972
C        -4.177986   -0.289743   -1.123058
H        -3.958112    0.207598   -0.168528
N        -4.093574   -1.713998   -0.911258
C        -4.770821   -2.310403    0.105424
C        -4.801592   -3.824884    0.062985
O        -5.315541   -1.673393    0.988257
C        -5.594616    0.097948   -1.579368
N        -5.945114    1.371724   -1.269121
C        -7.192580    1.964121   -1.678149
O        -6.300487   -0.667396   -2.208386
H        -0.467810    4.928791   -0.940626
H         0.008998    4.484707    1.388595
H        -0.812547    3.466581    3.498561
H        -0.340333    0.652592    4.570710
H        -0.222722    0.738765    2.792594
H        -0.334557   -1.819635    4.489192
H         1.086896   -1.184214    3.640495
H        -0.072490   -3.054176    2.418969
H        -2.350550   -2.651975    3.105794
H        -2.303675   -2.490207    1.334465
H        -3.662027   -0.700574    2.418858
H        -2.303883   -0.060687    1.467420
H        -0.522701   -0.844401    0.552783
H         3.456463   -1.072063   -0.782454
H         6.513337    2.428519   -2.827151
H         6.305056    1.488078   -5.130045
H         5.695958   -0.912621   -5.444636
H         5.434793   -3.593083    1.553275
H        -4.143564    1.751478    1.391650
H        -3.272607    2.713013   -0.759423
H        -1.906388    2.525706   -3.908558
H         0.024630    1.877373   -1.579179
H        -0.009669    1.102328   -3.188822
H        -3.360233   -0.373859   -3.114753
H        -3.284352    1.241720   -2.387055
H        -3.804466   -2.277733   -1.699873
H        -3.919927   -4.253493   -0.434647
H        -5.701810   -4.140247   -0.486364
H        -4.872950   -4.204466    1.089442
H        -5.303987    1.927175   -0.718220
H        -7.806261    2.248974   -0.808944
H        -7.738081    1.213349   -2.263604
H        -7.026860    2.855906   -2.302678
