108
-1 1
C        -5.834178   -0.258759  -12.187196
C        -6.448443   -1.067836  -11.039751
C        -6.017736   -0.536567   -9.683946
C        -6.348382    0.757281   -9.266840
C        -5.964009    1.260734   -8.027369
C        -5.217146    0.456635   -7.155097
N        -4.780443    0.879653   -5.889089
C        -4.966235    2.091477   -5.273698
C        -4.301340    2.223791   -3.928872
C        -3.201320    1.452201   -3.539277
C        -2.606461    1.623387   -2.284057
C        -1.453714    0.801813   -1.872538
N        -1.328903    0.427255   -0.612795
N        -0.229477   -0.327941   -0.507993
C         0.166411   -0.920524    0.763144
H         1.179358   -1.317822    0.602426
C        -0.798748   -2.037882    1.165428
C        -0.438761   -2.584684    2.546216
C        -0.322119   -1.447369    3.565715
N         0.632233   -0.446481    3.132083
C         0.271349    0.145178    1.865603
C         2.046010   -0.686659    3.315183
O         2.798459   -0.381521    2.363705
C         2.457793   -1.184132    4.557978
C         3.862444   -1.563213    4.805788
S         4.886691   -0.274903    5.777976
C         4.639672    1.206683    4.748108
C         4.223064    2.446850    5.538287
H         4.209927    3.299383    4.838636
N         5.197201    2.795768    6.546346
C         5.675769    4.062954    6.685389
C         6.367957    4.324792    8.010688
O         5.563689    4.923174    5.833395
C         2.823505    2.446789    6.191661
N         1.897758    1.657944    5.614279
C         0.555075    1.589363    6.128146
O         2.585905    3.195829    7.127737
C         4.047929   -2.855599    5.610149
N         4.138570   -4.054077    4.783171
C         4.387623   -5.259802    5.549726
C         3.130531   -5.813964    6.228088
N         2.106343   -6.039194    5.220180
C         1.798405   -4.828562    4.466575
C         3.074060   -4.290857    3.819450
C        -0.371012    0.266441   -2.643257
C         0.380354   -0.473655   -1.709396
N         1.479930   -1.190024   -1.975207
C         1.841751   -1.116581   -3.237907
N         1.270459   -0.401291   -4.223364
C         0.183579    0.311733   -3.948877
N        -0.355635    1.047407   -4.964076
C        -3.150302    2.569552   -1.404575
C        -4.241707    3.342795   -1.789844
C        -4.809833    3.184963   -3.051509
O        -5.620893    2.999360   -5.747603
C        -4.876415   -0.840689   -7.558992
C        -5.273412   -1.323830   -8.801069
C        -7.974441   -1.139303  -11.161795
H        -4.736969   -0.233872  -12.112153
H        -6.193793    0.782597  -12.175748
H        -6.103389   -0.693852  -13.162559
H        -6.061635   -2.098222  -11.117368
H        -6.930522    1.406615   -9.926861
H        -6.235982    2.267905   -7.721358
H        -4.299788    0.174411   -5.346903
H        -2.770338    0.712583   -4.218663
H        -0.784020   -2.835773    0.405036
H        -1.821653   -1.621047    1.182290
H         0.534072   -3.100637    2.497481
H        -1.186258   -3.326899    2.872194
H        -0.028597   -1.842394    4.545070
H        -1.311038   -0.966365    3.693785
H         1.040996    0.874159    1.586697
H        -0.701139    0.658350    1.965449
H         1.743394   -1.353414    5.367620
H         4.403287   -1.645589    3.851906
H         3.910733    0.956836    3.962348
H         5.584995    1.435316    4.236484
H         5.207707    2.198289    7.364462
H         6.968920    3.464696    8.340599
H         5.597618    4.520156    8.772613
H         7.005443    5.211434    7.913340
H         2.199135    0.845016    5.062451
H        -0.070754    1.082432    5.380765
H         0.167711    2.601933    6.310963
H         0.498007    1.034719    7.081896
H         3.235243   -2.901021    6.368368
H         4.993079   -2.811486    6.177676
H         5.167931   -5.060185    6.301877
H         4.773653   -6.036590    4.864908
H         2.804416   -5.106382    7.022711
H         3.368585   -6.769540    6.724572
H         1.263752   -6.404444    5.654229
H         1.356233   -4.024903    5.095186
H         1.060842   -5.072501    3.685261
H         2.860568   -3.365971    3.268758
H         3.438419   -5.042998    3.096919
H         2.726046   -1.694931   -3.528744
H         0.231915    1.129653   -5.784635
H        -0.923454    1.850592   -4.729455
H        -2.696873    2.690273   -0.419234
H        -4.649317    4.084170   -1.099362
H        -5.653228    3.795698   -3.377660
H        -4.289568   -1.479941   -6.893200
H        -4.992725   -2.340731   -9.089059
H        -8.424526   -0.135200  -11.106157
H        -8.409220   -1.745186  -10.353066
H        -8.271025   -1.584946  -12.124384
