-1 1
 OpenBabel05232414493D

108112  0  0  1  0  0  0  0  0999 V2000
   -3.2561  -11.3335   -9.2083 C   0  0  0  0  0  0  0  0  0  0  0  0
   -3.9435  -11.5393   -7.8542 C   0  0  0  0  0  0  0  0  0  0  0  0
   -3.1955  -10.8399   -6.7329 C   0  0  0  0  0  0  0  0  0  0  0  0
   -3.0455   -9.4491   -6.7100 C   0  0  0  0  0  0  0  0  0  0  0  0
   -2.3637   -8.7906   -5.6907 C   0  0  0  0  0  0  0  0  0  0  0  0
   -1.7995   -9.5328   -4.6440 C   0  0  0  0  0  0  0  0  0  0  0  0
   -1.0874   -8.9578   -3.5780 N   0  0  0  0  0  0  0  0  0  0  0  0
   -0.8052   -7.6363   -3.3435 C   0  0  0  0  0  0  0  0  0  0  0  0
    0.0482   -7.3811   -2.1287 C   0  0  0  0  0  0  0  0  0  0  0  0
    0.9207   -8.3346   -1.5938 C   0  0  0  0  0  0  0  0  0  0  0  0
    1.7112   -8.0433   -0.4761 C   0  0  0  0  0  0  0  0  0  0  0  0
    2.6274   -9.0523    0.0864 C   0  0  0  0  0  0  0  0  0  0  0  0
    2.8071   -9.1269    1.3917 N   0  0  0  0  0  0  0  0  0  0  0  0
    3.6535  -10.1349    1.6377 N   0  0  0  0  0  0  0  0  0  0  0  0
    4.0484  -10.4774    2.9964 C   0  0  2  0  0  0  0  0  0  0  0  0
    4.8086  -11.2651    2.8823 H   0  0  0  0  0  0  0  0  0  0  0  0
    2.8537  -11.0136    3.7932 C   0  0  0  0  0  0  0  0  0  0  0  0
    3.2289  -11.2711    5.2547 C   0  0  0  0  0  0  0  0  0  0  0  0
    3.9004  -10.0289    5.8437 C   0  0  0  0  0  0  0  0  0  0  0  0
    5.0461   -9.6415    5.0519 N   0  0  0  0  0  0  0  0  0  0  0  0
    4.7059   -9.2771    3.7001 C   0  0  0  0  0  0  0  0  0  0  0  0
    6.3690  -10.0705    5.2938 C   0  0  0  0  0  0  0  0  0  0  0  0
    7.2431   -9.7507    4.4936 O   0  0  0  0  0  0  0  0  0  0  0  0
    6.6091  -10.8789    6.4724 C   0  0  0  0  0  3  0  0  0  0  0  0
    7.8940  -11.2439    6.8496 C   0  0  0  0  0  3  0  0  0  0  0  0
    8.8859   -9.6080    8.3507 S   0  0  0  0  0  1  0  0  0  0  0  0
    7.6087   -8.3451    8.1895 C   0  0  0  0  0  0  0  0  0  0  0  0
    6.9382   -7.9620    9.5143 C   0  0  2  0  0  0  0  0  0  0  0  0
    6.1737   -7.1878    9.3307 H   0  0  0  0  0  0  0  0  0  0  0  0
    7.8902   -7.3780   10.4219 N   0  0  0  0  0  0  0  0  0  0  0  0
    7.5914   -6.3417   11.2435 C   0  0  0  0  0  0  0  0  0  0  0  0
    8.6197   -6.0932   12.3336 C   0  0  0  0  0  0  0  0  0  0  0  0
    6.5885   -5.6584   11.1373 O   0  0  0  0  0  0  0  0  0  0  0  0
    6.2017   -9.1107   10.2356 C   0  0  0  0  0  0  0  0  0  0  0  0
    5.5990  -10.0180    9.4203 N   0  0  0  0  0  0  0  0  0  0  0  0
    4.9839  -11.1951    9.9747 C   0  0  0  0  0  0  0  0  0  0  0  0
    6.1094   -9.1536   11.4482 O   0  0  0  0  0  0  0  0  0  0  0  0
    8.0959  -12.4272    7.7658 C   0  0  0  0  0  0  0  0  0  0  0  0
    8.1207  -13.7106    7.0606 N   0  0  0  0  0  0  0  0  0  0  0  0
    8.5772  -14.8058    7.8978 C   0  0  0  0  0  0  0  0  0  0  0  0
    7.5077  -15.2960    8.8793 C   0  0  0  0  0  0  0  0  0  0  0  0
    6.3119  -15.6715    8.1378 N   0  0  0  0  0  0  0  0  0  0  0  0
    5.8047  -14.5784    7.3182 C   0  0  0  0  0  0  0  0  0  0  0  0
    6.9050  -14.1054    6.3671 C   0  0  0  0  0  0  0  0  0  0  0  0
    3.4058  -10.0632   -0.5666 C   0  0  0  0  0  0  0  0  0  0  0  0
    4.0378  -10.7454    0.4903 C   0  0  0  0  0  0  0  0  0  0  0  0
    4.8567  -11.7979    0.3731 N   0  0  0  0  0  0  0  0  0  0  0  0
    5.0579  -12.1463   -0.8808 C   0  0  0  0  0  0  0  0  0  0  0  0
    4.5805  -11.5572   -1.9901 N   0  0  0  0  0  0  0  0  0  0  0  0
    3.7760  -10.5061   -1.8638 C   0  0  0  0  0  0  0  0  0  0  0  0
    3.3356   -9.9146   -3.0085 N   0  0  0  0  0  0  0  0  0  0  0  0
    1.5941   -6.7818    0.1225 C   0  0  0  0  0  0  0  0  0  0  0  0
    0.7301   -5.8286   -0.4091 C   0  0  0  0  0  0  0  0  0  0  0  0
   -0.0304   -6.1166   -1.5396 C   0  0  0  0  0  0  0  0  0  0  0  0
   -1.2063   -6.7223   -4.0366 O   0  0  0  0  0  0  0  0  0  0  0  0
   -1.9398  -10.9264   -4.6530 C   0  0  0  0  0  0  0  0  0  0  0  0
   -2.6276  -11.5630   -5.6804 C   0  0  0  0  0  0  0  0  0  0  0  0
   -5.4153  -11.1154   -7.9051 C   0  0  0  0  0  0  0  0  0  0  0  0
   -2.2080  -11.6660   -9.1760 H   0  0  0  0  0  0  0  0  0  0  0  0
   -3.2609  -10.2707   -9.4986 H   0  0  0  0  0  0  0  0  0  0  0  0
   -3.7726  -11.8979  -10.0006 H   0  0  0  0  0  0  0  0  0  0  0  0
   -3.9178  -12.6195   -7.6309 H   0  0  0  0  0  0  0  0  0  0  0  0
   -3.4755   -8.8449   -7.5138 H   0  0  0  0  0  0  0  0  0  0  0  0
   -2.2641   -7.7080   -5.6904 H   0  0  0  0  0  0  0  0  0  0  0  0
   -0.7840   -9.6105   -2.8679 H   0  0  0  0  0  0  0  0  0  0  0  0
    1.0161   -9.3216   -2.0535 H   0  0  0  0  0  0  0  0  0  0  0  0
    2.4707  -11.9283    3.3128 H   0  0  0  0  0  0  0  0  0  0  0  0
    2.0486  -10.2600    3.7461 H   0  0  0  0  0  0  0  0  0  0  0  0
    3.9340  -12.1173    5.3224 H   0  0  0  0  0  0  0  0  0  0  0  0
    2.3314  -11.5445    5.8327 H   0  0  0  0  0  0  0  0  0  0  0  0
    4.1876  -10.1683    6.8919 H   0  0  0  0  0  0  0  0  0  0  0  0
    3.1787   -9.1906    5.8362 H   0  0  0  0  0  0  0  0  0  0  0  0
    5.6277   -8.9862    3.1822 H   0  0  0  0  0  0  0  0  0  0  0  0
    4.0029   -8.4259    3.6959 H   0  0  0  0  0  0  0  0  0  0  0  0
    5.7681  -11.3014    7.0241 H   0  0  0  0  0  0  0  0  0  0  0  0
    8.6876  -11.0474    6.1271 H   0  0  0  0  0  0  0  0  0  0  0  0
    6.8447   -8.7171    7.4744 H   0  0  0  0  0  0  0  0  0  0  0  0
    8.0190   -7.4291    7.7393 H   0  0  0  0  0  0  0  0  0  0  0  0
    8.6989   -7.9598   10.6148 H   0  0  0  0  0  0  0  0  0  0  0  0
    9.6460   -6.2944   11.9934 H   0  0  0  0  0  0  0  0  0  0  0  0
    8.3991   -6.7638   13.1784 H   0  0  0  0  0  0  0  0  0  0  0  0
    8.5347   -5.0547   12.6757 H   0  0  0  0  0  0  0  0  0  0  0  0
    5.9686  -10.0971    8.4758 H   0  0  0  0  0  0  0  0  0  0  0  0
    4.3649  -11.6825    9.2063 H   0  0  0  0  0  0  0  0  0  0  0  0
    4.3455  -10.9152   10.8239 H   0  0  0  0  0  0  0  0  0  0  0  0
    5.7268  -11.9267   10.3419 H   0  0  0  0  0  0  0  0  0  0  0  0
    7.3277  -12.3770    8.5662 H   0  0  0  0  0  0  0  0  0  0  0  0
    9.0645  -12.3304    8.2747 H   0  0  0  0  0  0  0  0  0  0  0  0
    9.4798  -14.4951    8.4470 H   0  0  0  0  0  0  0  0  0  0  0  0
    8.8563  -15.6529    7.2455 H   0  0  0  0  0  0  0  0  0  0  0  0
    7.3146  -14.5003    9.6323 H   0  0  0  0  0  0  0  0  0  0  0  0
    7.8836  -16.1753    9.4279 H   0  0  0  0  0  0  0  0  0  0  0  0
    5.5919  -15.9943    8.7775 H   0  0  0  0  0  0  0  0  0  0  0  0
    5.4539  -13.7144    7.9259 H   0  0  0  0  0  0  0  0  0  0  0  0
    4.9398  -14.9352    6.7352 H   0  0  0  0  0  0  0  0  0  0  0  0
    6.5482  -13.2703    5.7503 H   0  0  0  0  0  0  0  0  0  0  0  0
    7.1561  -14.9417    5.6909 H   0  0  0  0  0  0  0  0  0  0  0  0
    5.7056  -13.0138   -1.0502 H   0  0  0  0  0  0  0  0  0  0  0  0
    3.7988  -10.2184   -3.8557 H   0  0  0  0  0  0  0  0  0  0  0  0
    3.0167   -8.9559   -2.9741 H   0  0  0  0  0  0  0  0  0  0  0  0
    2.1974   -6.5612    1.0048 H   0  0  0  0  0  0  0  0  0  0  0  0
    0.6556   -4.8452    0.0598 H   0  0  0  0  0  0  0  0  0  0  0  0
   -0.6968   -5.3746   -1.9824 H   0  0  0  0  0  0  0  0  0  0  0  0
   -1.5022  -11.5216   -3.8464 H   0  0  0  0  0  0  0  0  0  0  0  0
   -2.7211  -12.6523   -5.6609 H   0  0  0  0  0  0  0  0  0  0  0  0
   -5.5121  -10.0436   -8.1413 H   0  0  0  0  0  0  0  0  0  0  0  0
   -5.9126  -11.2908   -6.9397 H   0  0  0  0  0  0  0  0  0  0  0  0
   -5.9590  -11.6779   -8.6804 H   0  0  0  0  0  0  0  0  0  0  0  0
  1 59  1  0  0  0  0
  1  2  1  0  0  0  0
  2 62  1  0  0  0  0
  2  3  1  0  0  0  0
  3  4  2  0  0  0  0
  3 57  1  0  0  0  0
  4  5  1  0  0  0  0
  5 64  1  0  0  0  0
  5  6  2  0  0  0  0
  6  7  1  0  0  0  0
  7  8  1  0  0  0  0
  7 65  1  0  0  0  0
  8  9  1  0  0  0  0
  9 10  2  0  0  0  0
  9 54  1  0  0  0  0
 10 11  1  0  0  0  0
 11 12  1  0  0  0  0
 11 52  2  0  0  0  0
 12 13  2  0  0  0  0
 13 14  1  0  0  0  0
 14 15  1  0  0  0  0
 15 16  1  6  0  0  0
 15 21  1  0  0  0  0
 15 17  1  0  0  0  0
 17 18  1  0  0  0  0
 18 69  1  0  0  0  0
 18 70  1  0  0  0  0
 18 19  1  0  0  0  0
 19 71  1  0  0  0  0
 20 22  1  0  0  0  0
 20 19  1  0  0  0  0
 21 20  1  0  0  0  0
 22 24  1  0  0  0  0
 23 22  2  0  0  0  0
 24 25  1  0  0  0  0
 24 75  1  0  0  0  0
 25 38  1  0  0  0  0
 27 26  1  0  0  0  0
 27 28  1  0  0  0  0
 28 29  1  6  0  0  0
 28 34  1  0  0  0  0
 28 30  1  0  0  0  0
 30 79  1  0  0  0  0
 30 31  1  0  0  0  0
 31 32  1  0  0  0  0
 32 82  1  0  0  0  0
 32 81  1  0  0  0  0
 33 31  2  0  0  0  0
 34 37  2  0  0  0  0
 35 36  1  0  0  0  0
 35 34  1  0  0  0  0
 36 86  1  0  0  0  0
 36 85  1  0  0  0  0
 38 88  1  0  0  0  0
 38 87  1  0  0  0  0
 39 38  1  0  0  0  0
 39 40  1  0  0  0  0
 40 89  1  0  0  0  0
 40 41  1  0  0  0  0
 41 92  1  0  0  0  0
 41 91  1  0  0  0  0
 42 93  1  0  0  0  0
 42 41  1  0  0  0  0
 43 94  1  0  0  0  0
 43 42  1  0  0  0  0
 44 39  1  0  0  0  0
 44 43  1  0  0  0  0
 45 12  1  0  0  0  0
 45 46  2  0  0  0  0
 46 14  1  0  0  0  0
 47 46  1  0  0  0  0
 48 47  2  0  0  0  0
 49 50  2  0  0  0  0
 49 48  1  0  0  0  0
 50 45  1  0  0  0  0
 51100  1  0  0  0  0
 51 50  1  0  0  0  0
 52101  1  0  0  0  0
 53102  1  0  0  0  0
 53 52  1  0  0  0  0
 54 53  2  0  0  0  0
 55  8  2  0  0  0  0
 56  6  1  0  0  0  0
 56104  1  0  0  0  0
 57105  1  0  0  0  0
 57 56  2  0  0  0  0
 58  2  1  0  0  0  0
 58107  1  0  0  0  0
 60  1  1  0  0  0  0
 61  1  1  0  0  0  0
 63  4  1  0  0  0  0
 66 10  1  0  0  0  0
 67 17  1  0  0  0  0
 68 17  1  0  0  0  0
 72 19  1  0  0  0  0
 73 21  1  0  0  0  0
 74 21  1  0  0  0  0
 76 25  1  0  0  0  0
 77 27  1  0  0  0  0
 78 27  1  0  0  0  0
 80 32  1  0  0  0  0
 83 35  1  0  0  0  0
 84 36  1  0  0  0  0
 90 40  1  0  0  0  0
 95 43  1  0  0  0  0
 96 44  1  0  0  0  0
 97 44  1  0  0  0  0
 98 48  1  0  0  0  0
 99 51  1  0  0  0  0
103 54  1  0  0  0  0
106 58  1  0  0  0  0
108 58  1  0  0  0  0
M  END
