108
-1 1
C        -3.256066  -11.333482   -9.208328
C        -3.943513  -11.539307   -7.854183
C        -3.195488  -10.839891   -6.732942
C        -3.045550   -9.449098   -6.710020
C        -2.363715   -8.790625   -5.690655
C        -1.799454   -9.532841   -4.644014
N        -1.087422   -8.957786   -3.577986
C        -0.805161   -7.636344   -3.343526
C         0.048168   -7.381061   -2.128738
C         0.920685   -8.334595   -1.593759
C         1.711156   -8.043339   -0.476107
C         2.627370   -9.052336    0.086430
N         2.807061   -9.126893    1.391732
N         3.653508  -10.134876    1.637700
C         4.048425  -10.477360    2.996398
H         4.808605  -11.265114    2.882251
C         2.853693  -11.013648    3.793154
C         3.228943  -11.271145    5.254660
C         3.900356  -10.028947    5.843722
N         5.046128   -9.641517    5.051925
C         4.705878   -9.277103    3.700087
C         6.368971  -10.070488    5.293789
O         7.243064   -9.750677    4.493585
C         6.609071  -10.878904    6.472392
C         7.894024  -11.243948    6.849556
S         8.885939   -9.607984    8.350725
C         7.608683   -8.345142    8.189520
C         6.938195   -7.962038    9.514280
H         6.173729   -7.187832    9.330713
N         7.890155   -7.377986   10.421941
C         7.591444   -6.341718   11.243483
C         8.619727   -6.093225   12.333626
O         6.588514   -5.658408   11.137297
C         6.201711   -9.110686   10.235627
N         5.598963  -10.018041    9.420336
C         4.983905  -11.195121    9.974707
O         6.109370   -9.153552   11.448191
C         8.095937  -12.427202    7.765786
N         8.120740  -13.710610    7.060573
C         8.577163  -14.805792    7.897785
C         7.507662  -15.295966    8.879325
N         6.311896  -15.671534    8.137781
C         5.804670  -14.578406    7.318236
C         6.905013  -14.105358    6.367110
C         3.405794  -10.063249   -0.566565
C         4.037836  -10.745380    0.490272
N         4.856678  -11.797938    0.373098
C         5.057859  -12.146265   -0.880808
N         4.580539  -11.557242   -1.990082
C         3.776046  -10.506128   -1.863838
N         3.335553   -9.914592   -3.008466
C         1.594148   -6.781808    0.122504
C         0.730104   -5.828577   -0.409109
C        -0.030388   -6.116563   -1.539611
O        -1.206258   -6.722287   -4.036615
C        -1.939831  -10.926403   -4.653036
C        -2.627557  -11.563022   -5.680439
C        -5.415318  -11.115369   -7.905148
H        -2.207974  -11.666024   -9.175963
H        -3.260937  -10.270662   -9.498615
H        -3.772565  -11.897920  -10.000572
H        -3.917821  -12.619476   -7.630886
H        -3.475503   -8.844875   -7.513815
H        -2.264146   -7.708009   -5.690382
H        -0.784030   -9.610514   -2.867854
H         1.016082   -9.321609   -2.053454
H         2.470681  -11.928346    3.312811
H         2.048583  -10.259964    3.746147
H         3.933953  -12.117335    5.322449
H         2.331432  -11.544547    5.832671
H         4.187592  -10.168275    6.891895
H         3.178722   -9.190634    5.836185
H         5.627703   -8.986231    3.182198
H         4.002912   -8.425909    3.695857
H         5.768075  -11.301417    7.024104
H         8.687642  -11.047404    6.127109
H         6.844747   -8.717059    7.474392
H         8.018960   -7.429116    7.739314
H         8.698950   -7.959821   10.614808
H         9.646009   -6.294432   11.993372
H         8.399068   -6.763771   13.178391
H         8.534692   -5.054682   12.675694
H         5.968647  -10.097052    8.475784
H         4.364859  -11.682520    9.206270
H         4.345544  -10.915191   10.823928
H         5.726812  -11.926703   10.341918
H         7.327725  -12.377021    8.566150
H         9.064544  -12.330447    8.274653
H         9.479843  -14.495141    8.446979
H         8.856334  -15.652946    7.245478
H         7.314552  -14.500303    9.632253
H         7.883625  -16.175302    9.427923
H         5.591887  -15.994313    8.777514
H         5.453949  -13.714407    7.925876
H         4.939760  -14.935191    6.735241
H         6.548243  -13.270331    5.750308
H         7.156120  -14.941687    5.690877
H         5.705630  -13.013796   -1.050210
H         3.798844  -10.218447   -3.855680
H         3.016670   -8.955937   -2.974076
H         2.197434   -6.561181    1.004788
H         0.655614   -4.845232    0.059811
H        -0.696850   -5.374577   -1.982400
H        -1.502219  -11.521553   -3.846393
H        -2.721099  -12.652343   -5.660878
H        -5.512059  -10.043578   -8.141273
H        -5.912591  -11.290804   -6.939704
H        -5.959010  -11.677856   -8.680397
