-1 1
 OpenBabel05232413493D

 92 94  0  0  1  0  0  0  0  0999 V2000
   -3.2651   -4.8919   -2.4507 C   0  0  0  0  0  0  0  0  0  0  0  0
   -4.5955   -5.1478   -1.9569 N   0  0  0  0  0  0  0  0  0  0  0  0
   -4.6474   -5.4374   -0.5389 C   0  0  0  0  0  0  0  0  0  0  0  0
   -5.9306   -5.0365    0.1215 C   0  0  0  0  0  0  0  0  0  0  0  0
   -4.4167   -3.6005    2.9065 S   0  0  0  0  0  1  0  0  0  0  0  0
   -6.1714   -3.1034    3.0642 C   0  0  0  0  0  0  0  0  0  0  0  0
   -6.5150   -1.7651    2.3900 C   0  0  2  0  0  0  0  0  0  0  0  0
   -6.5447   -1.8908    1.2922 H   0  0  0  0  0  0  0  0  0  0  0  0
   -5.4759   -0.7961    2.7097 N   0  0  0  0  0  0  0  0  0  0  0  0
   -5.1963    0.2964    1.9709 C   0  0  0  0  0  0  0  0  0  0  0  0
   -3.8847    0.9775    2.2977 C   0  0  0  0  0  0  0  0  0  0  0  0
   -5.9377    0.7373    1.0914 O   0  0  0  0  0  0  0  0  0  0  0  0
   -7.9236   -1.2782    2.8010 C   0  0  0  0  0  0  0  0  0  0  0  0
   -8.3475   -0.1905    2.1077 N   0  0  0  0  0  0  0  0  0  0  0  0
   -9.6049    0.4483    2.3782 C   0  0  0  0  0  0  0  0  0  0  0  0
   -8.6043   -1.8477    3.6376 O   0  0  0  0  0  0  0  0  0  0  0  0
   -6.8443   -4.1837   -0.3475 C   0  0  0  0  0  0  0  0  0  0  0  0
   -6.9385   -3.5438   -1.6952 C   0  0  0  0  0  0  0  0  0  0  0  0
   -6.1677   -2.4487   -2.0511 N   0  0  0  0  0  0  0  0  0  0  0  0
   -4.9498   -1.9286   -1.6224 C   0  0  0  0  0  0  0  0  0  0  0  0
   -4.2745   -1.0851   -2.5239 C   0  0  0  0  0  0  0  0  0  0  0  0
   -3.0508   -0.5224   -2.1977 C   0  0  0  0  0  0  0  0  0  0  0  0
   -2.4567   -0.7818   -0.9554 C   0  0  0  0  0  0  0  0  0  0  0  0
   -1.1615   -0.1790   -0.5446 C   0  0  0  0  0  0  0  0  0  0  0  0
   -0.2820    0.0901   -1.5903 N   0  0  0  0  0  0  0  0  0  0  0  0
    0.9300    0.7171   -1.4262 C   0  0  0  0  0  0  0  0  0  0  0  0
    1.5631    1.1419   -0.1548 C   0  0  0  0  0  3  0  0  0  0  0  0
    2.0277    2.4146   -0.2001 C   0  0  0  0  0  3  0  0  0  0  0  0
    3.3342    2.3360   -0.9177 C   0  0  0  0  0  0  0  0  0  0  0  0
    4.4152    3.1671   -0.6004 N   0  0  0  0  0  0  0  0  0  0  0  0
    5.5271    3.4095   -1.3571 C   0  0  0  0  0  0  0  0  0  0  0  0
    6.4817    4.3932   -0.7429 C   0  0  0  0  0  0  0  0  0  0  0  0
    7.0253    4.4988    0.5690 C   0  0  0  0  0  0  0  0  0  0  0  0
    6.8455    3.6912    1.7088 N   0  0  0  0  0  0  0  0  0  0  0  0
    7.1928    2.3621    1.8626 C   0  0  0  0  0  0  0  0  0  0  0  0
    7.1619    1.5097    0.6170 C   0  0  0  0  0  0  0  0  0  0  0  0
    8.1851    1.5009   -0.3326 C   0  0  0  0  0  0  0  0  0  0  0  0
    9.6011    2.4945   -0.0809 Cl  0  0  0  0  0  0  0  0  0  0  0  0
    8.1170    0.7120   -1.4762 C   0  0  0  0  0  0  0  0  0  0  0  0
    7.0036   -0.0966   -1.6733 C   0  0  0  0  0  0  0  0  0  0  0  0
    5.9796   -0.1396   -0.7320 C   0  0  0  0  0  0  0  0  0  0  0  0
    6.0752    0.6500    0.4084 C   0  0  0  0  0  0  0  0  0  0  0  0
    4.8019    0.5857    1.5897 Cl  0  0  0  0  0  0  0  0  0  0  0  0
    7.4212    1.8968    2.9526 O   0  0  0  0  0  0  0  0  0  0  0  0
    7.8613    5.5984    0.5083 C   0  0  0  0  0  0  0  0  0  0  0  0
    7.7706    6.0637   -0.7566 N   0  0  0  0  0  0  0  0  0  0  0  0
    8.2388    6.8708   -1.1471 H   0  0  0  0  0  0  0  0  0  0  0  0
    6.9656    5.3495   -1.5259 N   0  0  0  0  0  0  0  0  0  0  0  0
    5.7376    2.9181   -2.4457 O   0  0  0  0  0  0  0  0  0  0  0  0
    3.1769    1.5943   -2.0639 C   0  0  0  0  0  0  0  0  0  0  0  0
    1.9061    0.8900   -2.3742 C   0  0  0  0  0  0  0  0  0  0  0  0
   -0.8647    0.0645    0.6060 O   0  0  0  0  0  0  0  0  0  0  0  0
   -3.1410   -1.6041   -0.0522 C   0  0  0  0  0  0  0  0  0  0  0  0
   -4.3639   -2.1725   -0.3731 C   0  0  0  0  0  0  0  0  0  0  0  0
   -7.8064   -3.8968   -2.4733 O   0  0  0  0  0  0  0  0  0  0  0  0
   -5.3117   -6.1140   -2.7557 C   0  0  0  0  0  0  0  0  0  0  0  0
   -2.7935   -4.0881   -1.8661 H   0  0  0  0  0  0  0  0  0  0  0  0
   -3.3139   -4.5601   -3.5003 H   0  0  0  0  0  0  0  0  0  0  0  0
   -2.6019   -5.7868   -2.4103 H   0  0  0  0  0  0  0  0  0  0  0  0
   -3.8546   -4.8798   -0.0106 H   0  0  0  0  0  0  0  0  0  0  0  0
   -4.4445   -6.5108   -0.3233 H   0  0  0  0  0  0  0  0  0  0  0  0
   -6.0744   -5.4401    1.1269 H   0  0  0  0  0  0  0  0  0  0  0  0
   -6.4523   -3.0245    4.1247 H   0  0  0  0  0  0  0  0  0  0  0  0
   -6.8482   -3.8599    2.6362 H   0  0  0  0  0  0  0  0  0  0  0  0
   -4.6856   -1.2658    3.1733 H   0  0  0  0  0  0  0  0  0  0  0  0
   -3.0802    0.5748    1.6635 H   0  0  0  0  0  0  0  0  0  0  0  0
   -3.5924    0.8271    3.3457 H   0  0  0  0  0  0  0  0  0  0  0  0
   -3.9828    2.0494    2.0851 H   0  0  0  0  0  0  0  0  0  0  0  0
   -7.6530    0.2603    1.5029 H   0  0  0  0  0  0  0  0  0  0  0  0
  -10.1551   -0.1741    3.0964 H   0  0  0  0  0  0  0  0  0  0  0  0
  -10.2096    0.5524    1.4619 H   0  0  0  0  0  0  0  0  0  0  0  0
   -9.4715    1.4535    2.8151 H   0  0  0  0  0  0  0  0  0  0  0  0
   -7.7292   -3.9792    0.2644 H   0  0  0  0  0  0  0  0  0  0  0  0
   -6.4574   -2.1330   -2.9709 H   0  0  0  0  0  0  0  0  0  0  0  0
   -4.7277   -0.8640   -3.4940 H   0  0  0  0  0  0  0  0  0  0  0  0
   -2.5809    0.1569   -2.9145 H   0  0  0  0  0  0  0  0  0  0  0  0
   -0.5206   -0.2525   -2.5117 H   0  0  0  0  0  0  0  0  0  0  0  0
    2.2667    0.3820    0.2167 H   0  0  0  0  0  0  0  0  0  0  0  0
    1.3579    3.1620   -0.6582 H   0  0  0  0  0  0  0  0  0  0  0  0
    4.3547    3.6182    0.3043 H   0  0  0  0  0  0  0  0  0  0  0  0
    6.8701    4.1771    2.6004 H   0  0  0  0  0  0  0  0  0  0  0  0
    8.9260    0.7461   -2.2053 H   0  0  0  0  0  0  0  0  0  0  0  0
    6.9306   -0.7029   -2.5774 H   0  0  0  0  0  0  0  0  0  0  0  0
    5.1025   -0.7698   -0.8777 H   0  0  0  0  0  0  0  0  0  0  0  0
    8.5093    6.0453    1.2577 H   0  0  0  0  0  0  0  0  0  0  0  0
    3.9644    1.5944   -2.8180 H   0  0  0  0  0  0  0  0  0  0  0  0
    1.7881    0.4752   -3.3810 H   0  0  0  0  0  0  0  0  0  0  0  0
   -2.7272   -1.8217    0.9368 H   0  0  0  0  0  0  0  0  0  0  0  0
   -4.8243   -2.7991    0.3923 H   0  0  0  0  0  0  0  0  0  0  0  0
   -5.3705   -5.7717   -3.8007 H   0  0  0  0  0  0  0  0  0  0  0  0
   -6.3425   -6.2206   -2.3891 H   0  0  0  0  0  0  0  0  0  0  0  0
   -4.8290   -7.1189   -2.7465 H   0  0  0  0  0  0  0  0  0  0  0  0
  1 59  1  0  0  0  0
  1  2  1  0  0  0  0
  1 57  1  0  0  0  0
  2  3  1  0  0  0  0
  3 61  1  0  0  0  0
  3 60  1  0  0  0  0
  3  4  1  0  0  0  0
  4 62  1  0  0  0  0
  5  6  1  0  0  0  0
  6 63  1  0  0  0  0
  7  8  1  6  0  0  0
  7  9  1  0  0  0  0
  7 13  1  0  0  0  0
  7  6  1  0  0  0  0
  9 65  1  0  0  0  0
 10 11  1  0  0  0  0
 10  9  1  0  0  0  0
 11 67  1  0  0  0  0
 12 10  2  0  0  0  0
 13 16  2  0  0  0  0
 14 15  1  0  0  0  0
 14 13  1  0  0  0  0
 15 72  1  0  0  0  0
 15 70  1  0  0  0  0
 17  4  2  0  0  0  0
 17 73  1  0  0  0  0
 18 17  1  0  0  0  0
 19 18  1  0  0  0  0
 19 20  1  0  0  0  0
 20 54  1  0  0  0  0
 21 22  1  0  0  0  0
 21 20  2  0  0  0  0
 22 23  2  0  0  0  0
 23 24  1  0  0  0  0
 23 53  1  0  0  0  0
 24 52  2  0  0  0  0
 25 26  1  0  0  0  0
 25 24  1  0  0  0  0
 26 27  1  0  0  0  0
 27 78  1  0  0  0  0
 28 27  1  0  0  0  0
 29 30  1  0  0  0  0
 29 28  1  0  0  0  0
 30 80  1  0  0  0  0
 31 32  1  0  0  0  0
 31 30  1  0  0  0  0
 32 33  1  0  0  0  0
 33 34  1  0  0  0  0
 34 35  1  0  0  0  0
 34 81  1  0  0  0  0
 35 44  2  0  0  0  0
 36 35  1  0  0  0  0
 37 38  1  0  0  0  0
 37 36  2  0  0  0  0
 39 37  1  0  0  0  0
 40 39  2  0  0  0  0
 40 41  1  0  0  0  0
 41 42  2  0  0  0  0
 42 36  1  0  0  0  0
 42 43  1  0  0  0  0
 45 33  2  0  0  0  0
 45 85  1  0  0  0  0
 46 45  1  0  0  0  0
 47 46  1  0  0  0  0
 48 46  1  0  0  0  0
 48 32  2  0  0  0  0
 49 31  2  0  0  0  0
 50 29  2  0  0  0  0
 51 50  1  0  0  0  0
 51 26  2  0  0  0  0
 53 88  1  0  0  0  0
 54 53  2  0  0  0  0
 54 89  1  0  0  0  0
 55 18  2  0  0  0  0
 56 92  1  0  0  0  0
 56 91  1  0  0  0  0
 56  2  1  0  0  0  0
 58  1  1  0  0  0  0
 64  6  1  0  0  0  0
 66 11  1  0  0  0  0
 68 11  1  0  0  0  0
 69 14  1  0  0  0  0
 71 15  1  0  0  0  0
 74 19  1  0  0  0  0
 75 21  1  0  0  0  0
 76 22  1  0  0  0  0
 77 25  1  0  0  0  0
 79 28  1  0  0  0  0
 82 39  1  0  0  0  0
 83 40  1  0  0  0  0
 84 41  1  0  0  0  0
 86 50  1  0  0  0  0
 87 51  1  0  0  0  0
 90 56  1  0  0  0  0
M  END
