-1 1
 OpenBabel05192410563D

 92 95  0  0  1  0  0  0  0  0999 V2000
   -2.9232   -4.9208   -0.6172 C   0  0  0  0  0  0  0  0  0  0  0  0
   -4.1525   -4.8769   -1.3626 N   0  0  0  0  0  0  0  0  0  0  0  0
   -5.2720   -5.5659   -0.7539 C   0  0  0  0  0  0  0  0  0  0  0  0
   -6.2498   -4.7739    0.1304 C   0  0  1  0  0  0  0  0  0  0  0  0
   -5.2728   -4.2561    1.7592 S   0  0  0  0  0  0  0  0  0  0  0  0
   -6.6177   -3.4222    2.6407 C   0  0  0  0  0  0  0  0  0  0  0  0
   -6.7787   -1.9324    2.3414 C   0  0  2  0  0  0  0  0  0  0  0  0
   -7.0152   -1.8045    1.2717 H   0  0  0  0  0  0  0  0  0  0  0  0
   -5.5450   -1.2104    2.6346 N   0  0  0  0  0  0  0  0  0  0  0  0
   -5.2437    0.0116    2.1303 C   0  0  0  0  0  0  0  0  0  0  0  0
   -3.8609    0.5382    2.4479 C   0  0  0  0  0  0  0  0  0  0  0  0
   -6.0421    0.6814    1.4879 O   0  0  0  0  0  0  0  0  0  0  0  0
   -7.9563   -1.3736    3.1731 C   0  0  0  0  0  0  0  0  0  0  0  0
   -8.3890   -0.1619    2.7563 N   0  0  0  0  0  0  0  0  0  0  0  0
   -9.4355    0.5575    3.4294 C   0  0  0  0  0  0  0  0  0  0  0  0
   -8.4455   -1.9895    4.1067 O   0  0  0  0  0  0  0  0  0  0  0  0
   -7.1820   -3.7855   -0.4391 C   0  0  0  0  0  3  0  0  0  0  0  0
   -7.2219   -2.9697   -1.5796 C   0  0  0  0  0  0  0  0  0  0  0  0
   -6.0317   -2.7170   -2.3985 N   0  0  0  0  0  0  0  0  0  0  0  0
   -4.8739   -2.0946   -2.0506 C   0  0  0  0  0  0  0  0  0  0  0  0
   -4.0358   -1.5583   -3.0592 C   0  0  0  0  0  0  0  0  0  0  0  0
   -2.8338   -0.9468   -2.7451 C   0  0  0  0  0  0  0  0  0  0  0  0
   -2.3987   -0.8435   -1.4132 C   0  0  0  0  0  0  0  0  0  0  0  0
   -1.1508   -0.1824   -0.9956 C   0  0  0  0  0  0  0  0  0  0  0  0
   -0.1815   -0.0363   -1.9930 N   0  0  0  0  0  0  0  0  0  0  0  0
    1.0122    0.6041   -1.7956 C   0  0  0  0  0  0  0  0  0  0  0  0
    1.5262    1.1726   -0.5274 C   0  0  0  0  0  3  0  0  0  0  0  0
    1.9927    2.4405   -0.6524 C   0  0  0  0  0  3  0  0  0  0  0  0
    3.3576    2.2886   -1.2370 C   0  0  0  0  0  0  0  0  0  0  0  0
    4.4091    3.1588   -0.9138 N   0  0  0  0  0  0  0  0  0  0  0  0
    5.5909    3.3192   -1.5774 C   0  0  0  0  0  0  0  0  0  0  0  0
    6.4865    4.3721   -0.9875 C   0  0  0  0  0  0  0  0  0  0  0  0
    6.9105    4.6221    0.3489 C   0  0  0  0  0  0  0  0  0  0  0  0
    6.6266    3.9430    1.5498 N   0  0  0  0  0  0  0  0  0  0  0  0
    6.9459    2.6398    1.8790 C   0  0  0  0  0  0  0  0  0  0  0  0
    7.0234    1.6564    0.7364 C   0  0  0  0  0  0  0  0  0  0  0  0
    8.1298    1.5465   -0.1076 C   0  0  0  0  0  0  0  0  0  0  0  0
    9.5239    2.5659    0.1643 Cl  0  0  0  0  0  0  0  0  0  0  0  0
    8.1617    0.6373   -1.1597 C   0  0  0  0  0  0  0  0  0  0  0  0
    7.0645   -0.1897   -1.3707 C   0  0  0  0  0  0  0  0  0  0  0  0
    5.9570   -0.1314   -0.5301 C   0  0  0  0  0  0  0  0  0  0  0  0
    5.9537    0.7773    0.5221 C   0  0  0  0  0  0  0  0  0  0  0  0
    4.5759    0.8399    1.5800 Cl  0  0  0  0  0  0  0  0  0  0  0  0
    7.0683    2.2968    3.0301 O   0  0  0  0  0  0  0  0  0  0  0  0
    7.7518    5.7146    0.2456 C   0  0  0  0  0  0  0  0  0  0  0  0
    7.7766    6.0407   -1.0650 N   0  0  0  0  0  0  0  0  0  0  0  0
    8.2803    6.8043   -1.4966 H   0  0  0  0  0  0  0  0  0  0  0  0
    7.0418    5.2423   -1.8219 N   0  0  0  0  0  0  0  0  0  0  0  0
    5.9094    2.7078   -2.5760 O   0  0  0  0  0  0  0  0  0  0  0  0
    3.3092    1.4255   -2.3058 C   0  0  0  0  0  0  0  0  0  0  0  0
    2.0753    0.6809   -2.6615 C   0  0  0  0  0  0  0  0  0  0  0  0
   -0.9314    0.2130    0.1353 O   0  0  0  0  0  0  0  0  0  0  0  0
   -3.2401   -1.3683   -0.4142 C   0  0  0  0  0  0  0  0  0  0  0  0
   -4.4431   -1.9646   -0.7120 C   0  0  0  0  0  0  0  0  0  0  0  0
   -8.2375   -2.4370   -2.0480 O   0  0  0  0  0  0  0  0  0  0  0  0
   -3.9668   -5.1484   -2.7611 C   0  0  0  0  0  0  0  0  0  0  0  0
   -3.0892   -4.6046    0.4213 H   0  0  0  0  0  0  0  0  0  0  0  0
   -2.1959   -4.2181   -1.0556 H   0  0  0  0  0  0  0  0  0  0  0  0
   -2.4582   -5.9364   -0.6006 H   0  0  0  0  0  0  0  0  0  0  0  0
   -4.9104   -6.4388   -0.1663 H   0  0  0  0  0  0  0  0  0  0  0  0
   -5.9029   -5.9755   -1.5585 H   0  0  0  0  0  0  0  0  0  0  0  0
   -6.8734   -5.5542    0.5923 H   0  0  0  0  0  0  0  0  0  0  0  0
   -6.4517   -3.5604    3.7191 H   0  0  0  0  0  0  0  0  0  0  0  0
   -7.5676   -3.9228    2.4089 H   0  0  0  0  0  0  0  0  0  0  0  0
   -4.7989   -1.7493    3.0558 H   0  0  0  0  0  0  0  0  0  0  0  0
   -3.3240    0.7492    1.5127 H   0  0  0  0  0  0  0  0  0  0  0  0
   -3.2530   -0.1516    3.0492 H   0  0  0  0  0  0  0  0  0  0  0  0
   -3.9716    1.4882    2.9898 H   0  0  0  0  0  0  0  0  0  0  0  0
   -7.8181    0.3019    2.0460 H   0  0  0  0  0  0  0  0  0  0  0  0
   -9.8798   -0.1093    4.1797 H   0  0  0  0  0  0  0  0  0  0  0  0
  -10.2189    0.8718    2.7216 H   0  0  0  0  0  0  0  0  0  0  0  0
   -9.0518    1.4567    3.9412 H   0  0  0  0  0  0  0  0  0  0  0  0
   -8.1708   -3.7983    0.0299 H   0  0  0  0  0  0  0  0  0  0  0  0
   -6.3655   -2.4661   -3.3239 H   0  0  0  0  0  0  0  0  0  0  0  0
   -4.3556   -1.6211   -4.1028 H   0  0  0  0  0  0  0  0  0  0  0  0
   -2.2532   -0.5100   -3.5638 H   0  0  0  0  0  0  0  0  0  0  0  0
   -0.3423   -0.4854   -2.8844 H   0  0  0  0  0  0  0  0  0  0  0  0
    2.1968    0.4640   -0.0182 H   0  0  0  0  0  0  0  0  0  0  0  0
    1.3699    3.1334   -1.2434 H   0  0  0  0  0  0  0  0  0  0  0  0
    4.2603    3.7115   -0.0786 H   0  0  0  0  0  0  0  0  0  0  0  0
    6.5722    4.5237    2.3811 H   0  0  0  0  0  0  0  0  0  0  0  0
    9.0346    0.5939   -1.8104 H   0  0  0  0  0  0  0  0  0  0  0  0
    7.0697   -0.8898   -2.2074 H   0  0  0  0  0  0  0  0  0  0  0  0
    5.0908   -0.7732   -0.6893 H   0  0  0  0  0  0  0  0  0  0  0  0
    8.3308    6.2439    0.9978 H   0  0  0  0  0  0  0  0  0  0  0  0
    4.1671    1.3507   -2.9751 H   0  0  0  0  0  0  0  0  0  0  0  0
    2.0515    0.1639   -3.6265 H   0  0  0  0  0  0  0  0  0  0  0  0
   -2.9105   -1.3144    0.6244 H   0  0  0  0  0  0  0  0  0  0  0  0
   -5.0525   -2.3817    0.0840 H   0  0  0  0  0  0  0  0  0  0  0  0
   -3.2041   -4.4662   -3.1718 H   0  0  0  0  0  0  0  0  0  0  0  0
   -4.9024   -4.9558   -3.3060 H   0  0  0  0  0  0  0  0  0  0  0  0
   -3.6366   -6.1933   -2.9764 H   0  0  0  0  0  0  0  0  0  0  0  0
  1 59  1  0  0  0  0
  1 57  1  0  0  0  0
  2  3  1  0  0  0  0
  2  1  1  0  0  0  0
  3 60  1  0  0  0  0
  3  4  1  0  0  0  0
  4 62  1  1  0  0  0
  4  5  1  0  0  0  0
  5  6  1  0  0  0  0
  6 63  1  0  0  0  0
  7  8  1  6  0  0  0
  7  9  1  0  0  0  0
  7  6  1  0  0  0  0
  7 13  1  0  0  0  0
  9 65  1  0  0  0  0
 10 11  1  0  0  0  0
 10  9  1  0  0  0  0
 11 68  1  0  0  0  0
 11 67  1  0  0  0  0
 12 10  2  0  0  0  0
 13 16  2  0  0  0  0
 14 13  1  0  0  0  0
 14 15  1  0  0  0  0
 15 72  1  0  0  0  0
 15 70  1  0  0  0  0
 17 73  1  0  0  0  0
 17  4  1  0  0  0  0
 18 17  1  0  0  0  0
 19 20  1  0  0  0  0
 19 18  1  0  0  0  0
 20 54  1  0  0  0  0
 21 22  1  0  0  0  0
 21 20  2  0  0  0  0
 22 23  2  0  0  0  0
 23 24  1  0  0  0  0
 23 53  1  0  0  0  0
 24 52  2  0  0  0  0
 25 26  1  0  0  0  0
 25 24  1  0  0  0  0
 26 27  1  0  0  0  0
 27 78  1  0  0  0  0
 28 27  1  0  0  0  0
 29 30  1  0  0  0  0
 29 28  1  0  0  0  0
 30 80  1  0  0  0  0
 31 32  1  0  0  0  0
 31 30  1  0  0  0  0
 32 33  1  0  0  0  0
 33 34  1  0  0  0  0
 34 35  1  0  0  0  0
 34 81  1  0  0  0  0
 35 44  2  0  0  0  0
 36 35  1  0  0  0  0
 37 38  1  0  0  0  0
 37 36  2  0  0  0  0
 39 37  1  0  0  0  0
 40 39  2  0  0  0  0
 40 41  1  0  0  0  0
 41 42  2  0  0  0  0
 42 36  1  0  0  0  0
 42 43  1  0  0  0  0
 45 33  2  0  0  0  0
 45 85  1  0  0  0  0
 46 45  1  0  0  0  0
 47 46  1  0  0  0  0
 48 46  1  0  0  0  0
 48 32  2  0  0  0  0
 49 31  2  0  0  0  0
 50 29  2  0  0  0  0
 51 50  1  0  0  0  0
 51 26  2  0  0  0  0
 53 88  1  0  0  0  0
 54 53  2  0  0  0  0
 54 89  1  0  0  0  0
 55 18  2  0  0  0  0
 56  2  1  0  0  0  0
 58  1  1  0  0  0  0
 61  3  1  0  0  0  0
 64  6  1  0  0  0  0
 66 11  1  0  0  0  0
 69 14  1  0  0  0  0
 71 15  1  0  0  0  0
 74 19  1  0  0  0  0
 75 21  1  0  0  0  0
 76 22  1  0  0  0  0
 77 25  1  0  0  0  0
 79 28  1  0  0  0  0
 82 39  1  0  0  0  0
 83 40  1  0  0  0  0
 84 41  1  0  0  0  0
 86 50  1  0  0  0  0
 87 51  1  0  0  0  0
 90 56  1  0  0  0  0
 91 56  1  0  0  0  0
 92 56  1  0  0  0  0
M  END
