84
-1 1
O         3.171769    1.391081   -8.145039
C         3.892188    1.193654   -7.152653
N         3.252917    1.411886   -5.868957
C         3.713554    2.162721   -4.796722
C         3.057934    2.044874   -3.559721
C         3.482890    2.762867   -2.443281
C         2.835936    2.594468   -1.099085
N         2.386246    1.320633   -0.842451
C         1.783513    0.855803    0.329064
C         1.267227    1.692898    1.328093
C         0.664285    1.172562    2.477549
C         0.143447    2.103338    3.537940
C         0.562390   -0.220026    2.615991
N        -0.016050   -0.811821    3.775038
C        -1.299792   -0.680244    4.173039
C        -1.657224   -1.451396    5.392725
C        -2.937828   -1.459474    6.000382
N        -4.027538   -0.737874    5.531922
C        -5.246354   -0.731767    6.121450
C        -6.259916    0.144233    5.417086
C        -6.409898    1.492174    5.754203
Cl        -5.365231    2.186114    6.966009
C        -7.367794    2.298164    5.145171
C        -8.199191    1.745688    4.175181
C        -8.078070    0.406560    3.815369
C        -7.112205   -0.377655    4.440074
Cl        -6.956169   -2.053075    3.984209
O        -5.530807   -1.358417    7.121896
C        -2.809628   -2.305578    7.085782
N        -1.516482   -2.730282    7.055341
H        -1.074515   -3.364098    7.707655
N        -0.811060   -2.233074    6.053911
O        -2.146392    0.010399    3.616422
C         1.081308   -1.058773    1.626780
C         1.694533   -0.535581    0.500188
O         2.761285    3.512732   -0.302022
C         4.561730    3.647087   -2.546937
C         5.226787    3.756488   -3.765522
C         4.820043    3.026519   -4.879177
C         5.190590    0.664876   -7.138206
C         5.978235    0.189127   -5.975192
S         6.257968   -1.676679   -5.851376
C         4.875245   -2.225481   -4.810986
C         3.441442   -1.895205   -5.270910
H         3.324128   -0.799535   -5.301910
N         2.479222   -2.457975   -4.343406
C         2.172863   -1.974104   -3.134664
C         1.082155   -2.720753   -2.390089
O         2.738265   -1.004770   -2.628009
C         3.049803   -2.488633   -6.639039
N         3.485027   -1.809632   -7.697333
C         3.143687   -2.139733   -9.054796
O         2.346652   -3.499666   -6.687250
H         2.244501    1.396434   -5.976820
H         2.224491    1.344241   -3.484631
H         2.608000    0.591251   -1.526209
H         1.369069    2.769502    1.210039
H        -0.954940    2.155639    3.495271
H         0.553338    3.113569    3.407299
H         0.408637    1.744891    4.544740
H         0.539427   -1.476407    4.304367
H        -3.826191   -0.194542    4.688565
H        -7.452702    3.346888    5.430287
H        -8.951136    2.369792    3.688966
H        -8.721649   -0.033292    3.053334
H        -3.527114   -2.612752    7.838130
H         1.000181   -2.141728    1.750055
H         2.113997   -1.186088   -0.268043
H         4.873111    4.214890   -1.668931
H         6.084447    4.428249   -3.855932
H         5.353228    3.104864   -5.828013
H         5.665565    0.602340   -8.122263
H         5.556731    0.469514   -5.000385
H         7.017750    0.556086   -5.980233
H         4.990723   -1.801284   -3.802423
H         4.982647   -3.318928   -4.733745
H         1.979409   -3.248108   -4.753166
H         1.535451   -3.270805   -1.551615
H         0.535986   -3.431951   -3.024009
H         0.379408   -1.991374   -1.964969
H         4.074191   -0.972561   -7.543009
H         2.271266   -2.806945   -9.057943
H         3.973836   -2.648992   -9.572650
H         2.908535   -1.207879   -9.588488
