84
-1 1
O        -0.935430  -10.125287   -7.453985
C        -0.032242   -9.965839   -6.633657
N        -0.413238  -10.012804   -5.254598
C        -0.130398   -9.131382   -4.218426
C        -0.706508   -9.393086   -2.963215
C        -0.462930   -8.572531   -1.863090
C        -1.055595   -8.842377   -0.506934
N        -1.447618  -10.140201   -0.291467
C        -2.116707  -10.662588    0.817982
C        -2.353665   -9.949607    2.001209
C        -3.012878  -10.535111    3.087356
C        -3.220502   -9.745814    4.350581
C        -3.459880  -11.859843    2.972542
N        -4.109141  -12.523656    4.052277
C        -5.289880  -12.170903    4.605394
C        -5.771288  -13.080305    5.678439
C        -6.973204  -12.906939    6.409558
N        -7.856616  -11.853090    6.218484
C        -8.997745  -11.678638    6.925993
C        -9.780966  -10.447232    6.524720
C        -9.564515   -9.216402    7.150221
Cl        -8.325823   -9.090510    8.371376
C       -10.306975   -8.085780    6.820800
C       -11.292348   -8.184822    5.842778
C       -11.535434   -9.395194    5.199980
C       -10.778970  -10.510797    5.548410
Cl       -11.079593  -12.024940    4.738390
O        -9.383287  -12.421448    7.805802
C        -7.014966  -13.978436    7.281666
N        -5.884185  -14.691625    7.024088
H        -5.591616  -15.544197    7.482428
N        -5.127779  -14.173762    6.071504
O        -5.953408  -11.188350    4.293446
C        -3.232923  -12.572703    1.792315
C        -2.569393  -11.990159    0.724988
O        -1.159754   -7.958047    0.325718
C         0.346705   -7.439946   -2.004391
C         0.911144   -7.168106   -3.246296
C         0.683393   -7.993003   -4.346104
C         1.353799   -9.803940   -6.944533
C         2.416541  -10.098981   -6.081887
S         3.120817  -12.278329   -6.133398
C         2.592572  -13.017700   -4.556112
C         1.105026  -12.956349   -4.147445
H         0.797628  -11.905145   -4.030769
N         0.986519  -13.604353   -2.856093
C         0.015295  -13.337737   -1.961633
C        -0.129338  -14.341899   -0.837596
O        -0.712611  -12.353275   -2.027381
C         0.072763  -13.597176   -5.107087
N         0.091283  -13.111602   -6.359155
C        -0.887715  -13.449367   -7.360089
O        -0.729731  -14.424032   -4.695370
H        -1.303587  -10.489783   -5.161623
H        -1.334758  -10.279307   -2.874482
H        -1.194079  -10.838954   -0.994724
H        -2.000083   -8.922947    2.067543
H        -4.268630   -9.420451    4.430078
H        -2.570987   -8.860708    4.370061
H        -3.006565  -10.358460    5.240246
H        -3.725307  -13.406781    4.373429
H        -7.565874  -11.203939    5.482901
H       -10.106626   -7.140983    7.326325
H       -11.877609   -7.303513    5.574290
H       -12.301718   -9.480910    4.429414
H        -7.746395  -14.258773    8.031076
H        -3.597520  -13.599770    1.711370
H        -2.400039  -12.542491   -0.201083
H         0.515874   -6.797640   -1.139373
H         1.545884   -6.287023   -3.371677
H         1.132591   -7.767899   -5.313462
H         1.555252   -9.683442   -8.011914
H         2.259452  -10.078780   -4.999440
H         3.414618   -9.760514   -6.367230
H         3.154283  -12.559635   -3.727017
H         2.893923  -14.079879   -4.591173
H         1.395409  -14.528890   -2.804993
H        -0.314882  -13.808103    0.103626
H         0.747935  -14.993553   -0.723987
H        -1.007482  -14.967598   -1.057102
H         0.900600  -12.546840   -6.630858
H        -1.743068  -13.927366   -6.865207
H        -0.483098  -14.151771   -8.108623
H        -1.213896  -12.526999   -7.863691
