-1 1
 OpenBabel05232413493D

 84 86  0  0  1  0  0  0  0  0999 V2000
    3.3099    0.3191   -8.6675 O   0  0  0  0  0  0  0  0  0  0  0  0
    3.7046    0.9551   -7.7097 C   0  0  0  0  0  0  0  0  0  0  0  0
    3.0352    0.9025   -6.5014 N   0  0  0  0  0  0  0  0  0  0  0  0
    2.9221    1.8842   -5.5059 C   0  0  0  0  0  0  0  0  0  0  0  0
    2.4904    1.5029   -4.2287 C   0  0  0  0  0  0  0  0  0  0  0  0
    2.3293    2.4540   -3.2163 C   0  0  0  0  0  0  0  0  0  0  0  0
    1.8435    2.1435   -1.8194 C   0  0  0  0  0  0  0  0  0  0  0  0
    1.4649    0.8512   -1.5776 N   0  0  0  0  0  0  0  0  0  0  0  0
    0.8982    0.3414   -0.4036 C   0  0  0  0  0  0  0  0  0  0  0  0
    0.8871    1.0195    0.8228 C   0  0  0  0  0  0  0  0  0  0  0  0
    0.3301    0.4458    1.9708 C   0  0  0  0  0  0  0  0  0  0  0  0
    0.3666    1.1939    3.2750 C   0  0  0  0  0  0  0  0  0  0  0  0
   -0.2464   -0.8293    1.8772 C   0  0  0  0  0  0  0  0  0  0  0  0
   -0.7997   -1.4816    3.0160 N   0  0  0  0  0  0  0  0  0  0  0  0
   -1.8589   -1.0550    3.7367 C   0  0  0  0  0  0  0  0  0  0  0  0
   -2.2608   -1.9563    4.8487 C   0  0  0  0  0  0  0  0  0  0  0  0
   -3.3276   -1.7075    5.7481 C   0  0  0  0  0  0  0  0  0  0  0  0
   -4.1353   -0.5789    5.7060 N   0  0  0  0  0  0  0  0  0  0  0  0
   -5.1380   -0.3287    6.5803 C   0  0  0  0  0  0  0  0  0  0  0  0
   -5.8569    0.9787    6.3259 C   0  0  0  0  0  0  0  0  0  0  0  0
   -5.4207    2.1705    6.9112 C   0  0  0  0  0  0  0  0  0  0  0  0
   -3.9862    2.1550    7.9026 Cl  0  0  0  0  0  0  0  0  0  0  0  0
   -6.0978    3.3719    6.7204 C   0  0  0  0  0  0  0  0  0  0  0  0
   -7.2405    3.3858    5.9259 C   0  0  0  0  0  0  0  0  0  0  0  0
   -7.7037    2.2173    5.3281 C   0  0  0  0  0  0  0  0  0  0  0  0
   -7.0084    1.0291    5.5355 C   0  0  0  0  0  0  0  0  0  0  0  0
   -7.5850   -0.4326    4.7803 Cl  0  0  0  0  0  0  0  0  0  0  0  0
   -5.4548   -1.0635    7.4938 O   0  0  0  0  0  0  0  0  0  0  0  0
   -3.3365   -2.7975    6.5979 C   0  0  0  0  0  0  0  0  0  0  0  0
   -2.3188   -3.5928    6.1672 N   0  0  0  0  0  0  0  0  0  0  0  0
   -2.0365   -4.4790    6.5642 H   0  0  0  0  0  0  0  0  0  0  0  0
   -1.6638   -3.1101    5.1253 N   0  0  0  0  0  0  0  0  0  0  0  0
   -2.4757   -0.0134    3.5413 O   0  0  0  0  0  0  0  0  0  0  0  0
   -0.2473   -1.5059    0.6550 C   0  0  0  0  0  0  0  0  0  0  0  0
    0.3167   -0.9359   -0.4745 C   0  0  0  0  0  0  0  0  0  0  0  0
    1.7766    3.0270   -0.9818 O   0  0  0  0  0  0  0  0  0  0  0  0
    2.6163    3.7976   -3.4762 C   0  0  0  0  0  0  0  0  0  0  0  0
    3.0254    4.1798   -4.7479 C   0  0  0  0  0  0  0  0  0  0  0  0
    3.1610    3.2406   -5.7652 C   0  0  0  0  0  0  0  0  0  0  0  0
    4.9814    1.7246   -7.7984 C   0  0  0  0  0  0  0  0  0  0  0  0
    5.9129    1.7337   -6.8427 C   0  0  0  0  0  0  0  0  0  0  0  0
    7.1544   -0.5933   -4.2051 S   0  0  0  0  0  1  0  0  0  0  0  0
    5.9797   -1.8801   -3.6596 C   0  0  0  0  0  0  0  0  0  0  0  0
    4.5438   -1.7403   -4.1905 C   0  0  2  0  0  0  0  0  0  0  0  0
    4.1762   -0.7331   -3.9420 H   0  0  0  0  0  0  0  0  0  0  0  0
    3.6915   -2.7072   -3.5139 N   0  0  0  0  0  0  0  0  0  0  0  0
    2.4040   -2.5349   -3.1906 C   0  0  0  0  0  0  0  0  0  0  0  0
    1.6830   -3.7600   -2.6658 C   0  0  0  0  0  0  0  0  0  0  0  0
    1.8108   -1.4588   -3.2547 O   0  0  0  0  0  0  0  0  0  0  0  0
    4.3324   -1.9463   -5.7115 C   0  0  0  0  0  0  0  0  0  0  0  0
    5.4025   -1.7192   -6.4859 N   0  0  0  0  0  0  0  0  0  0  0  0
    5.3941   -1.9245   -7.9108 C   0  0  0  0  0  0  0  0  0  0  0  0
    3.2348   -2.3061   -6.1278 O   0  0  0  0  0  0  0  0  0  0  0  0
    2.4541    0.0707   -6.4108 H   0  0  0  0  0  0  0  0  0  0  0  0
    2.2877    0.4425   -4.0601 H   0  0  0  0  0  0  0  0  0  0  0  0
    1.5829    0.1544   -2.3153 H   0  0  0  0  0  0  0  0  0  0  0  0
    1.3314    2.0105    0.8749 H   0  0  0  0  0  0  0  0  0  0  0  0
   -0.6284    1.6004    3.5110 H   0  0  0  0  0  0  0  0  0  0  0  0
    1.0874    2.0211    3.2315 H   0  0  0  0  0  0  0  0  0  0  0  0
    0.6470    0.5280    4.1059 H   0  0  0  0  0  0  0  0  0  0  0  0
   -0.4441   -2.3994    3.2640 H   0  0  0  0  0  0  0  0  0  0  0  0
   -3.8962    0.0668    4.9489 H   0  0  0  0  0  0  0  0  0  0  0  0
   -5.7252    4.2829    7.1890 H   0  0  0  0  0  0  0  0  0  0  0  0
   -7.7765    4.3232    5.7669 H   0  0  0  0  0  0  0  0  0  0  0  0
   -8.5948    2.2197    4.7002 H   0  0  0  0  0  0  0  0  0  0  0  0
   -3.9752   -3.0377    7.4404 H   0  0  0  0  0  0  0  0  0  0  0  0
   -0.7119   -2.4933    0.5930 H   0  0  0  0  0  0  0  0  0  0  0  0
    0.3117   -1.4586   -1.4321 H   0  0  0  0  0  0  0  0  0  0  0  0
    2.4964    4.5200   -2.6686 H   0  0  0  0  0  0  0  0  0  0  0  0
    3.2294    5.2315   -4.9620 H   0  0  0  0  0  0  0  0  0  0  0  0
    3.4551    3.5633   -6.7633 H   0  0  0  0  0  0  0  0  0  0  0  0
    5.1705    2.1537   -8.7873 H   0  0  0  0  0  0  0  0  0  0  0  0
    5.7882    1.2416   -5.8693 H   0  0  0  0  0  0  0  0  0  0  0  0
    6.8828    2.2071   -7.0183 H   0  0  0  0  0  0  0  0  0  0  0  0
    5.9007   -1.8700   -2.5609 H   0  0  0  0  0  0  0  0  0  0  0  0
    6.3490   -2.8860   -3.9410 H   0  0  0  0  0  0  0  0  0  0  0  0
    4.0472   -3.6541   -3.4996 H   0  0  0  0  0  0  0  0  0  0  0  0
    1.4049   -3.5828   -1.6163 H   0  0  0  0  0  0  0  0  0  0  0  0
    2.2750   -4.6832   -2.7279 H   0  0  0  0  0  0  0  0  0  0  0  0
    0.7577   -3.8844   -3.2442 H   0  0  0  0  0  0  0  0  0  0  0  0
    6.2422   -1.3271   -6.0126 H   0  0  0  0  0  0  0  0  0  0  0  0
    4.3578   -2.0157   -8.2577 H   0  0  0  0  0  0  0  0  0  0  0  0
    5.9513   -2.8369   -8.1870 H   0  0  0  0  0  0  0  0  0  0  0  0
    5.8558   -1.0668   -8.4215 H   0  0  0  0  0  0  0  0  0  0  0  0
  1  2  2  0  0  0  0
  2  3  1  0  0  0  0
  3 54  1  0  0  0  0
  3  4  1  0  0  0  0
  4  5  1  0  0  0  0
  5 55  1  0  0  0  0
  5  6  2  0  0  0  0
  6  7  1  0  0  0  0
  7  8  1  0  0  0  0
  7 36  2  0  0  0  0
  8  9  1  0  0  0  0
  9 10  1  0  0  0  0
 10 57  1  0  0  0  0
 10 11  2  0  0  0  0
 11 12  1  0  0  0  0
 12 58  1  0  0  0  0
 12 60  1  0  0  0  0
 13 11  1  0  0  0  0
 13 14  1  0  0  0  0
 14 61  1  0  0  0  0
 14 15  1  0  0  0  0
 15 16  1  0  0  0  0
 16 32  2  0  0  0  0
 16 17  1  0  0  0  0
 17 29  2  0  0  0  0
 18 17  1  0  0  0  0
 18 19  1  0  0  0  0
 19 28  2  0  0  0  0
 20 19  1  0  0  0  0
 20 21  1  0  0  0  0
 21 22  1  0  0  0  0
 23 21  2  0  0  0  0
 23 63  1  0  0  0  0
 24 23  1  0  0  0  0
 25 26  1  0  0  0  0
 25 24  2  0  0  0  0
 26 20  2  0  0  0  0
 27 26  1  0  0  0  0
 29 66  1  0  0  0  0
 30 31  1  0  0  0  0
 30 29  1  0  0  0  0
 32 30  1  0  0  0  0
 33 15  2  0  0  0  0
 34 13  2  0  0  0  0
 35  9  2  0  0  0  0
 35 34  1  0  0  0  0
 37  6  1  0  0  0  0
 37 69  1  0  0  0  0
 38 37  2  0  0  0  0
 39  4  2  0  0  0  0
 39 38  1  0  0  0  0
 40  2  1  0  0  0  0
 40 41  2  0  0  0  0
 41 73  1  0  0  0  0
 42 43  1  0  0  0  0
 43 75  1  0  0  0  0
 44 45  1  1  0  0  0
 44 43  1  0  0  0  0
 44 46  1  0  0  0  0
 46 77  1  0  0  0  0
 46 47  1  0  0  0  0
 47 48  1  0  0  0  0
 48 78  1  0  0  0  0
 49 47  2  0  0  0  0
 50 44  1  0  0  0  0
 51 81  1  0  0  0  0
 51 50  1  0  0  0  0
 52 51  1  0  0  0  0
 53 50  2  0  0  0  0
 56  8  1  0  0  0  0
 59 12  1  0  0  0  0
 62 18  1  0  0  0  0
 64 24  1  0  0  0  0
 65 25  1  0  0  0  0
 67 34  1  0  0  0  0
 68 35  1  0  0  0  0
 70 38  1  0  0  0  0
 71 39  1  0  0  0  0
 72 40  1  0  0  0  0
 74 41  1  0  0  0  0
 76 43  1  0  0  0  0
 79 48  1  0  0  0  0
 80 48  1  0  0  0  0
 82 52  1  0  0  0  0
 83 52  1  0  0  0  0
 84 52  1  0  0  0  0
M  END
