84
-1 1
O         3.309900    0.319143   -8.667492
C         3.704603    0.955146   -7.709674
N         3.035164    0.902474   -6.501414
C         2.922133    1.884223   -5.505927
C         2.490411    1.502932   -4.228722
C         2.329263    2.454026   -3.216294
C         1.843466    2.143504   -1.819436
N         1.464931    0.851180   -1.577609
C         0.898163    0.341365   -0.403555
C         0.887121    1.019462    0.822802
C         0.330116    0.445828    1.970763
C         0.366650    1.193949    3.274975
C        -0.246413   -0.829270    1.877241
N        -0.799694   -1.481575    3.016024
C        -1.858880   -1.054953    3.736717
C        -2.260789   -1.956334    4.848656
C        -3.327606   -1.707495    5.748073
N        -4.135253   -0.578870    5.706038
C        -5.137958   -0.328704    6.580346
C        -5.856923    0.978679    6.325865
C        -5.420745    2.170486    6.911190
Cl        -3.986200    2.154960    7.902612
C        -6.097797    3.371923    6.720360
C        -7.240523    3.385824    5.925925
C        -7.703677    2.217274    5.328108
C        -7.008433    1.029128    5.535524
Cl        -7.585030   -0.432624    4.780312
O        -5.454753   -1.063463    7.493841
C        -3.336483   -2.797457    6.597901
N        -2.318779   -3.592756    6.167241
H        -2.036519   -4.478961    6.564183
N        -1.663763   -3.110054    5.125255
O        -2.475726   -0.013389    3.541330
C        -0.247314   -1.505878    0.655008
C         0.316656   -0.935903   -0.474464
O         1.776607    3.026961   -0.981791
C         2.616288    3.797644   -3.476224
C         3.025367    4.179804   -4.747887
C         3.160961    3.240638   -5.765154
C         4.981382    1.724631   -7.798448
C         5.912911    1.733688   -6.842684
S         7.154394   -0.593344   -4.205092
C         5.979680   -1.880139   -3.659638
C         4.543773   -1.740300   -4.190459
H         4.176207   -0.733124   -3.942010
N         3.691520   -2.707183   -3.513933
C         2.404017   -2.534863   -3.190632
C         1.683021   -3.760041   -2.665767
O         1.810831   -1.458850   -3.254698
C         4.332410   -1.946343   -5.711472
N         5.402462   -1.719172   -6.485859
C         5.394132   -1.924538   -7.910764
O         3.234793   -2.306058   -6.127764
H         2.454090    0.070750   -6.410805
H         2.287655    0.442485   -4.060103
H         1.582909    0.154400   -2.315257
H         1.331386    2.010522    0.874884
H        -0.628405    1.600396    3.510979
H         1.087362    2.021131    3.231523
H         0.647038    0.528009    4.105863
H        -0.444072   -2.399422    3.263994
H        -3.896246    0.066794    4.948881
H        -5.725181    4.282887    7.189010
H        -7.776544    4.323223    5.766870
H        -8.594807    2.219654    4.700239
H        -3.975165   -3.037716    7.440369
H        -0.711933   -2.493281    0.593037
H         0.311741   -1.458609   -1.432053
H         2.496447    4.519961   -2.668590
H         3.229357    5.231528   -4.962032
H         3.455053    3.563299   -6.763335
H         5.170466    2.153675   -8.787308
H         5.788156    1.241627   -5.869308
H         6.882797    2.207128   -7.018318
H         5.900718   -1.870003   -2.560946
H         6.349031   -2.886037   -3.941008
H         4.047161   -3.654122   -3.499562
H         1.404947   -3.582774   -1.616326
H         2.275011   -4.683190   -2.727908
H         0.757663   -3.884379   -3.244223
H         6.242168   -1.327114   -6.012615
H         4.357810   -2.015742   -8.257678
H         5.951264   -2.836922   -8.186957
H         5.855789   -1.066819   -8.421546
