-1 1
 OpenBabel05232414493D

 84 86  0  0  1  0  0  0  0  0999 V2000
   -0.9354  -10.1253   -7.4540 O   0  0  0  0  0  0  0  0  0  0  0  0
   -0.0322   -9.9658   -6.6337 C   0  0  0  0  0  0  0  0  0  0  0  0
   -0.4132  -10.0128   -5.2546 N   0  0  0  0  0  0  0  0  0  0  0  0
   -0.1304   -9.1314   -4.2184 C   0  0  0  0  0  0  0  0  0  0  0  0
   -0.7065   -9.3931   -2.9632 C   0  0  0  0  0  0  0  0  0  0  0  0
   -0.4629   -8.5725   -1.8631 C   0  0  0  0  0  0  0  0  0  0  0  0
   -1.0556   -8.8424   -0.5069 C   0  0  0  0  0  0  0  0  0  0  0  0
   -1.4476  -10.1402   -0.2915 N   0  0  0  0  0  0  0  0  0  0  0  0
   -2.1167  -10.6626    0.8180 C   0  0  0  0  0  0  0  0  0  0  0  0
   -2.3537   -9.9496    2.0012 C   0  0  0  0  0  0  0  0  0  0  0  0
   -3.0129  -10.5351    3.0874 C   0  0  0  0  0  0  0  0  0  0  0  0
   -3.2205   -9.7458    4.3506 C   0  0  0  0  0  0  0  0  0  0  0  0
   -3.4599  -11.8598    2.9725 C   0  0  0  0  0  0  0  0  0  0  0  0
   -4.1091  -12.5237    4.0523 N   0  0  0  0  0  0  0  0  0  0  0  0
   -5.2899  -12.1709    4.6054 C   0  0  0  0  0  0  0  0  0  0  0  0
   -5.7713  -13.0803    5.6784 C   0  0  0  0  0  0  0  0  0  0  0  0
   -6.9732  -12.9069    6.4096 C   0  0  0  0  0  0  0  0  0  0  0  0
   -7.8566  -11.8531    6.2185 N   0  0  0  0  0  0  0  0  0  0  0  0
   -8.9977  -11.6786    6.9260 C   0  0  0  0  0  0  0  0  0  0  0  0
   -9.7810  -10.4472    6.5247 C   0  0  0  0  0  0  0  0  0  0  0  0
   -9.5645   -9.2164    7.1502 C   0  0  0  0  0  0  0  0  0  0  0  0
   -8.3258   -9.0905    8.3714 Cl  0  0  0  0  0  0  0  0  0  0  0  0
  -10.3070   -8.0858    6.8208 C   0  0  0  0  0  0  0  0  0  0  0  0
  -11.2923   -8.1848    5.8428 C   0  0  0  0  0  0  0  0  0  0  0  0
  -11.5354   -9.3952    5.2000 C   0  0  0  0  0  0  0  0  0  0  0  0
  -10.7790  -10.5108    5.5484 C   0  0  0  0  0  0  0  0  0  0  0  0
  -11.0796  -12.0249    4.7384 Cl  0  0  0  0  0  0  0  0  0  0  0  0
   -9.3833  -12.4214    7.8058 O   0  0  0  0  0  0  0  0  0  0  0  0
   -7.0150  -13.9784    7.2817 C   0  0  0  0  0  0  0  0  0  0  0  0
   -5.8842  -14.6916    7.0241 N   0  0  0  0  0  0  0  0  0  0  0  0
   -5.5916  -15.5442    7.4824 H   0  0  0  0  0  0  0  0  0  0  0  0
   -5.1278  -14.1738    6.0715 N   0  0  0  0  0  0  0  0  0  0  0  0
   -5.9534  -11.1883    4.2934 O   0  0  0  0  0  0  0  0  0  0  0  0
   -3.2329  -12.5727    1.7923 C   0  0  0  0  0  0  0  0  0  0  0  0
   -2.5694  -11.9902    0.7250 C   0  0  0  0  0  0  0  0  0  0  0  0
   -1.1598   -7.9580    0.3257 O   0  0  0  0  0  0  0  0  0  0  0  0
    0.3467   -7.4399   -2.0044 C   0  0  0  0  0  0  0  0  0  0  0  0
    0.9111   -7.1681   -3.2463 C   0  0  0  0  0  0  0  0  0  0  0  0
    0.6834   -7.9930   -4.3461 C   0  0  0  0  0  0  0  0  0  0  0  0
    1.3538   -9.8039   -6.9445 C   0  0  0  0  0  3  0  0  0  0  0  0
    2.4165  -10.0990   -6.0819 C   0  0  0  0  0  3  0  0  0  0  0  0
    3.1208  -12.2783   -6.1334 S   0  0  0  0  0  1  0  0  0  0  0  0
    2.5926  -13.0177   -4.5561 C   0  0  0  0  0  0  0  0  0  0  0  0
    1.1050  -12.9563   -4.1474 C   0  0  2  0  0  0  0  0  0  0  0  0
    0.7976  -11.9051   -4.0308 H   0  0  0  0  0  0  0  0  0  0  0  0
    0.9865  -13.6044   -2.8561 N   0  0  0  0  0  0  0  0  0  0  0  0
    0.0153  -13.3377   -1.9616 C   0  0  0  0  0  0  0  0  0  0  0  0
   -0.1293  -14.3419   -0.8376 C   0  0  0  0  0  0  0  0  0  0  0  0
   -0.7126  -12.3533   -2.0274 O   0  0  0  0  0  0  0  0  0  0  0  0
    0.0728  -13.5972   -5.1071 C   0  0  0  0  0  0  0  0  0  0  0  0
    0.0913  -13.1116   -6.3592 N   0  0  0  0  0  0  0  0  0  0  0  0
   -0.8877  -13.4494   -7.3601 C   0  0  0  0  0  0  0  0  0  0  0  0
   -0.7297  -14.4240   -4.6954 O   0  0  0  0  0  0  0  0  0  0  0  0
   -1.3036  -10.4898   -5.1616 H   0  0  0  0  0  0  0  0  0  0  0  0
   -1.3348  -10.2793   -2.8745 H   0  0  0  0  0  0  0  0  0  0  0  0
   -1.1941  -10.8390   -0.9947 H   0  0  0  0  0  0  0  0  0  0  0  0
   -2.0001   -8.9229    2.0675 H   0  0  0  0  0  0  0  0  0  0  0  0
   -4.2686   -9.4205    4.4301 H   0  0  0  0  0  0  0  0  0  0  0  0
   -2.5710   -8.8607    4.3701 H   0  0  0  0  0  0  0  0  0  0  0  0
   -3.0066  -10.3585    5.2402 H   0  0  0  0  0  0  0  0  0  0  0  0
   -3.7253  -13.4068    4.3734 H   0  0  0  0  0  0  0  0  0  0  0  0
   -7.5659  -11.2039    5.4829 H   0  0  0  0  0  0  0  0  0  0  0  0
  -10.1066   -7.1410    7.3263 H   0  0  0  0  0  0  0  0  0  0  0  0
  -11.8776   -7.3035    5.5743 H   0  0  0  0  0  0  0  0  0  0  0  0
  -12.3017   -9.4809    4.4294 H   0  0  0  0  0  0  0  0  0  0  0  0
   -7.7464  -14.2588    8.0311 H   0  0  0  0  0  0  0  0  0  0  0  0
   -3.5975  -13.5998    1.7114 H   0  0  0  0  0  0  0  0  0  0  0  0
   -2.4000  -12.5425   -0.2011 H   0  0  0  0  0  0  0  0  0  0  0  0
    0.5159   -6.7976   -1.1394 H   0  0  0  0  0  0  0  0  0  0  0  0
    1.5459   -6.2870   -3.3717 H   0  0  0  0  0  0  0  0  0  0  0  0
    1.1326   -7.7679   -5.3135 H   0  0  0  0  0  0  0  0  0  0  0  0
    1.5553   -9.6834   -8.0119 H   0  0  0  0  0  0  0  0  0  0  0  0
    2.2595  -10.0788   -4.9994 H   0  0  0  0  0  0  0  0  0  0  0  0
    3.4146   -9.7605   -6.3672 H   0  0  0  0  0  0  0  0  0  0  0  0
    3.1543  -12.5596   -3.7270 H   0  0  0  0  0  0  0  0  0  0  0  0
    2.8939  -14.0799   -4.5912 H   0  0  0  0  0  0  0  0  0  0  0  0
    1.3954  -14.5289   -2.8050 H   0  0  0  0  0  0  0  0  0  0  0  0
   -0.3149  -13.8081    0.1036 H   0  0  0  0  0  0  0  0  0  0  0  0
    0.7479  -14.9936   -0.7240 H   0  0  0  0  0  0  0  0  0  0  0  0
   -1.0075  -14.9676   -1.0571 H   0  0  0  0  0  0  0  0  0  0  0  0
    0.9006  -12.5468   -6.6309 H   0  0  0  0  0  0  0  0  0  0  0  0
   -1.7431  -13.9274   -6.8652 H   0  0  0  0  0  0  0  0  0  0  0  0
   -0.4831  -14.1518   -8.1086 H   0  0  0  0  0  0  0  0  0  0  0  0
   -1.2139  -12.5270   -7.8637 H   0  0  0  0  0  0  0  0  0  0  0  0
  1  2  2  0  0  0  0
  2  3  1  0  0  0  0
  3 54  1  0  0  0  0
  3  4  1  0  0  0  0
  4  5  1  0  0  0  0
  5 55  1  0  0  0  0
  5  6  2  0  0  0  0
  6  7  1  0  0  0  0
  7  8  1  0  0  0  0
  7 36  2  0  0  0  0
  8  9  1  0  0  0  0
  9 10  1  0  0  0  0
 10 57  1  0  0  0  0
 10 11  2  0  0  0  0
 11 12  1  0  0  0  0
 12 59  1  0  0  0  0
 12 58  1  0  0  0  0
 12 60  1  0  0  0  0
 13 11  1  0  0  0  0
 13 14  1  0  0  0  0
 14 61  1  0  0  0  0
 14 15  1  0  0  0  0
 15 16  1  0  0  0  0
 16 32  2  0  0  0  0
 16 17  1  0  0  0  0
 17 29  2  0  0  0  0
 18 17  1  0  0  0  0
 18 19  1  0  0  0  0
 19 28  2  0  0  0  0
 20 19  1  0  0  0  0
 20 21  1  0  0  0  0
 21 22  1  0  0  0  0
 23 21  2  0  0  0  0
 23 63  1  0  0  0  0
 24 23  1  0  0  0  0
 25 26  1  0  0  0  0
 25 24  2  0  0  0  0
 26 20  2  0  0  0  0
 27 26  1  0  0  0  0
 29 66  1  0  0  0  0
 30 29  1  0  0  0  0
 30 31  1  0  0  0  0
 32 30  1  0  0  0  0
 33 15  2  0  0  0  0
 34 13  2  0  0  0  0
 35  9  2  0  0  0  0
 35 34  1  0  0  0  0
 37  6  1  0  0  0  0
 37 69  1  0  0  0  0
 38 37  2  0  0  0  0
 39  4  2  0  0  0  0
 39 38  1  0  0  0  0
 40  2  1  0  0  0  0
 40 41  1  0  0  0  0
 41 73  1  0  0  0  0
 42 43  1  0  0  0  0
 43 44  1  0  0  0  0
 43 75  1  0  0  0  0
 44 45  1  1  0  0  0
 44 46  1  0  0  0  0
 46 77  1  0  0  0  0
 46 47  1  0  0  0  0
 47 48  1  0  0  0  0
 48 79  1  0  0  0  0
 48 78  1  0  0  0  0
 49 47  2  0  0  0  0
 50 53  2  0  0  0  0
 50 44  1  0  0  0  0
 51 50  1  0  0  0  0
 52 82  1  0  0  0  0
 52 51  1  0  0  0  0
 56  8  1  0  0  0  0
 62 18  1  0  0  0  0
 64 24  1  0  0  0  0
 65 25  1  0  0  0  0
 67 34  1  0  0  0  0
 68 35  1  0  0  0  0
 70 38  1  0  0  0  0
 71 39  1  0  0  0  0
 72 40  1  0  0  0  0
 74 41  1  0  0  0  0
 76 43  1  0  0  0  0
 80 48  1  0  0  0  0
 81 51  1  0  0  0  0
 83 52  1  0  0  0  0
 84 52  1  0  0  0  0
M  END
