95
-1 1
C         5.547778   -4.702178    5.562505
C         4.527606   -3.810447    4.912241
C         4.757372   -3.215333    3.659578
N         5.966015   -3.441961    2.944260
C         7.202525   -3.081916    3.357579
C         8.293088   -3.371265    2.391764
C         9.667173   -3.106068    2.616576
N        10.174015   -2.542527    3.779230
C        11.492296   -2.330775    4.010030
C        11.782488   -1.735841    5.370750
C        11.927712   -0.356454    5.541831
Cl        11.712132    0.697178    4.169251
C        12.230104    0.200236    6.781343
C        12.394269   -0.639927    7.878995
C        12.258967   -2.018553    7.744445
C        11.955863   -2.549777    6.493799
Cl        11.783752   -4.276997    6.326548
O        12.377623   -2.586492    3.219745
C        10.302018   -3.530218    1.464313
N         9.307375   -3.998324    0.661002
H         9.414756   -4.389827   -0.265218
N         8.101015   -3.913371    1.194184
O         7.459725   -2.561205    4.436488
C         3.774196   -2.417372    3.075189
C         2.556079   -2.179978    3.700608
C         2.319034   -2.749556    4.958686
N         1.133017   -2.570667    5.678698
C         0.010915   -1.860530    5.328848
C        -1.105545   -1.922952    6.336382
C        -1.189140   -2.947757    7.280664
C        -2.229478   -2.965274    8.224062
N        -2.352288   -3.957741    9.184761
C        -1.460507   -5.000162    9.488933
O        -0.420957   -5.154773    8.861091
C        -1.904199   -5.840794   10.586652
C        -1.111525   -6.845912   11.086195
S         0.522305   -5.912503   12.845613
C         0.184657   -4.170167   12.507724
C        -0.271791   -3.376226   13.737639
H        -0.459277   -2.326105   13.454713
N         0.762482   -3.343706   14.736923
C         1.024821   -2.253444   15.498380
C         1.933416   -2.524850   16.685127
O         0.577012   -1.143447   15.271803
C        -1.580231   -3.872623   14.387830
N        -2.503898   -4.384957   13.527483
C        -3.696440   -5.005591   14.043549
O        -1.794606   -3.744095   15.578198
C        -1.661137   -7.919906   11.990500
N        -2.197884   -9.057774   11.250722
C        -2.305789  -10.231893   12.080012
C        -3.430307   -8.778565   10.556645
C        -3.187038   -1.936648    8.179208
C        -3.107535   -0.931760    7.220557
C        -2.072653   -0.915450    6.289960
O        -0.085268   -1.210751    4.304668
C         3.309343   -3.554691    5.539690
H         5.098256   -5.294282    6.370600
H         6.370483   -4.100547    5.976516
H         5.991299   -5.392176    4.828514
H         5.905982   -3.790194    1.992726
H         9.458110   -2.317505    4.473958
H        12.329203    1.281428    6.878945
H        12.627076   -0.213024    8.856138
H        12.381455   -2.683638    8.599413
H        11.350262   -3.527010    1.187617
H         3.974271   -1.961905    2.102187
H         1.794476   -1.555272    3.241409
H         1.111421   -3.010261    6.590557
H        -0.481115   -3.773082    7.327456
H        -3.138243   -3.861716    9.813285
H        -2.898671   -5.665491   11.013530
H        -0.215444   -7.097736   10.518367
H        -0.590937   -4.100057   11.716908
H         1.073661   -3.670409   12.094395
H         1.104775   -4.256984   15.018043
H         2.418257   -1.588151   16.985823
H         2.693820   -3.287880   16.463751
H         1.314785   -2.886893   17.520676
H        -2.144656   -4.746035   12.649441
H        -3.490226   -5.979992   14.521822
H        -4.415008   -5.162942   13.225489
H        -4.152976   -4.353766   14.800782
H        -2.423278   -7.478852   12.673930
H        -0.850605   -8.288943   12.630710
H        -1.330051  -10.476036   12.526575
H        -2.626775  -11.096089   11.476063
H        -3.038368  -10.115887   12.914099
H        -3.739280   -9.657470    9.968424
H        -3.297820   -7.935418    9.865308
H        -4.268314   -8.522249   11.249566
H        -4.001884   -1.929257    8.908699
H        -3.865971   -0.145516    7.207378
H        -1.992176   -0.136876    5.530576
H         3.115143   -4.014234    6.513459
