95
-1 1
C         1.516903   -1.376636   -1.973745
C         0.479230   -0.529399   -2.655507
C         0.705369    0.039090   -3.920961
N         1.926416   -0.175119   -4.620210
C         3.149021    0.228588   -4.208602
C         4.255833   -0.061523   -5.156383
C         5.619924    0.249442   -4.928379
N         6.098461    0.864347   -3.779711
C         7.406514    1.126780   -3.545084
C         7.663569    1.778839   -2.203867
C         7.750455    3.168084   -2.079435
Cl         7.500628    4.164411   -3.488653
C         8.021532    3.779018   -0.858363
C         8.213341    2.984380    0.268293
C         8.136272    1.597503    0.180437
C         7.863496    1.011718   -1.052695
Cl         7.763503   -0.725807   -1.161449
O         8.308132    0.873145   -4.317661
C         6.277412   -0.192220   -6.061106
N         5.303982   -0.713478   -6.857705
H         5.430942   -1.130616   -7.770098
N         4.090575   -0.646203   -6.337665
O         3.384988    0.788141   -3.144007
C        -0.292962    0.795662   -4.534185
C        -1.522521    1.016621   -3.925660
C        -1.757503    0.473675   -2.654662
N        -2.951376    0.640572   -1.950255
C        -4.099258    1.292657   -2.335322
C        -5.217030    1.226122   -1.331610
C        -5.227402    0.275663   -0.311710
C        -6.265412    0.248340    0.640025
N        -6.301377   -0.661991    1.668800
C        -5.285231   -1.574686    2.103921
O        -4.245990   -1.701021    1.422120
C        -5.586990   -2.234516    3.299997
C        -4.707391   -3.299617    3.822304
S        -3.844777   -2.865789    5.454550
C        -2.961520   -1.360649    4.938889
C        -3.110265   -0.190587    5.910078
H        -2.454742    0.622553    5.554982
N        -2.626882   -0.520211    7.229884
C        -1.727567    0.263510    7.889127
C        -1.623321   -0.023479    9.375374
O        -1.063011    1.124389    7.346509
C        -4.505604    0.457269    6.044922
N        -5.324249    0.328751    4.979504
C        -6.641874    0.906796    4.966651
O        -4.776218    1.106083    7.043392
C        -5.386723   -4.654309    4.069420
N        -5.304701   -5.554490    2.931003
C        -5.895746   -6.830884    3.234654
C        -5.796913   -5.010450    1.683318
C        -7.302675    1.193910    0.505250
C        -7.295534    2.121536   -0.532244
C        -6.258495    2.151789   -1.460022
O        -4.208101    1.894767   -3.387770
C        -0.750856   -0.290319   -2.045207
H         1.074781   -1.961522   -1.156273
H         2.318319   -0.742977   -1.565670
H         1.987236   -2.071712   -2.686038
H         1.883950   -0.556085   -5.560030
H         5.367819    1.089739   -3.100087
H         8.074780    4.866115   -0.797479
H         8.421533    3.453667    1.231457
H         8.280455    0.967729    1.058461
H         7.327388   -0.167606   -6.329781
H        -0.095946    1.230748   -5.517195
H        -2.297623    1.607321   -4.406946
H        -2.972201    0.225472   -1.026617
H        -4.468411   -0.496578   -0.188729
H        -7.110757   -0.609660    2.271874
H        -6.578891   -2.124535    3.753241
H        -3.873290   -3.451000    3.121713
H        -3.321728   -1.091518    3.933981
H        -1.891276   -1.591877    4.845809
H        -3.239980   -1.102100    7.788091
H        -0.678509    0.384148    9.753426
H        -1.681457   -1.099940    9.593243
H        -2.459032    0.477907    9.887546
H        -5.171427   -0.444926    4.317099
H        -7.422209    0.138962    5.111676
H        -6.830059    1.419431    4.009626
H        -6.716545    1.632571    5.786558
H        -6.446626   -4.470145    4.368239
H        -4.907485   -5.172008    4.917919
H        -5.436655   -7.259498    4.139978
H        -5.729131   -7.536836    2.405038
H        -6.997309   -6.777169    3.413092
H        -5.680384   -5.768217    0.891665
H        -5.225361   -4.120948    1.385107
H        -6.872488   -4.723371    1.728033
H        -8.122738    1.194686    1.229675
H        -8.115857    2.839844   -0.609049
H        -6.232963    2.873849   -2.276744
H        -0.943663   -0.730194   -1.062141
