95
-1 1
C         2.233165   -1.253284   -2.919024
C         1.321593   -0.068294   -3.073732
C         1.337697    0.728558   -4.231421
N         2.209661    0.437985   -5.316973
C         3.561184    0.459273   -5.269767
C         4.233613    0.184679   -6.565045
C         5.636721    0.138612   -6.759688
N         6.572391    0.341639   -5.754537
C         7.913102    0.277736   -5.939748
C         8.715407    0.525326   -4.680746
C         9.171131    1.805371   -4.353594
Cl         8.747768    3.146525   -5.384034
C         9.947679    2.039764   -3.222232
C        10.280225    0.970016   -2.396045
C         9.843882   -0.318149   -2.691954
C         9.068235   -0.525384   -3.829329
Cl         8.517653   -2.138457   -4.197387
O         8.449280    0.044832   -7.003557
C         5.797780   -0.139968   -8.104119
N         4.534387   -0.235890   -8.602174
H         4.277697   -0.434158   -9.560130
N         3.586006   -0.045998   -7.701874
O         4.227374    0.676010   -4.264209
C         0.455168    1.801828   -4.350978
C        -0.451960    2.120527   -3.347776
C        -0.469147    1.347334   -2.179000
N        -1.336988    1.581482   -1.108369
C        -2.319209    2.536085   -0.985929
C        -3.113140    2.461154    0.289379
C        -3.123331    1.320603    1.099728
C        -3.871580    1.302216    2.284475
N        -3.924526    0.205398    3.140492
C        -3.303283   -1.007363    3.002645
O        -2.560321   -1.305642    2.078161
C        -3.664138   -1.953054    4.096352
C        -3.403557   -3.260253    4.017438
S        -6.928111   -3.325005    7.342007
C        -5.933005   -1.829065    7.704823
C        -6.605294   -0.503403    7.262885
H        -6.083977    0.358195    7.705996
N        -7.978046   -0.528493    7.701897
C        -8.810237    0.530330    7.594022
C       -10.259502    0.241974    7.950809
O        -8.449739    1.635616    7.224883
C        -6.452027   -0.314889    5.751738
N        -7.183886   -1.151510    4.999118
C        -7.091406   -1.189701    3.562368
O        -5.658908    0.512945    5.292134
C        -3.794375   -4.252070    5.069135
N        -4.487162   -5.400075    4.503058
C        -4.689952   -6.426619    5.505145
C        -5.742333   -5.018427    3.879278
C        -4.621944    2.438713    2.635518
C        -4.616839    3.560734    1.815298
C        -3.868716    3.582077    0.639832
O        -2.530143    3.390864   -1.825427
C         0.419191    0.267730   -2.065741
H         1.896978   -1.907698   -2.103716
H         3.260407   -0.919530   -2.709903
H         2.270050   -1.843783   -3.847238
H         1.806020    0.321062   -6.241071
H         6.159442    0.540457   -4.840596
H        10.281130    3.052547   -2.995524
H        10.886299    1.143640   -1.505068
H        10.096233   -1.161075   -2.048412
H         6.692836   -0.269314   -8.701985
H         0.485199    2.410411   -5.258107
H        -1.136970    2.958342   -3.447157
H        -1.219449    0.965260   -0.314629
H        -2.590250    0.405670    0.846770
H        -4.560402    0.313014    3.949065
H        -4.204288   -1.548752    4.957149
H        -2.887914   -3.642645    3.128655
H        -4.940440   -1.880856    7.224385
H        -5.751160   -1.757779    8.789075
H        -8.325925   -1.479891    7.863350
H       -10.833920    0.135699    7.017888
H       -10.666526    1.102797    8.497409
H       -10.384261   -0.672927    8.546306
H        -7.521884   -1.986927    5.505734
H        -8.027097   -1.585694    3.143309
H        -6.258155   -1.823045    3.213270
H        -6.934312   -0.173272    3.175999
H        -4.398364   -3.756771    5.859469
H        -2.869657   -4.623707    5.547818
H        -3.718837   -6.746537    5.916605
H        -5.164402   -7.308109    5.044660
H        -5.328096   -6.085956    6.347640
H        -6.219474   -5.908935    3.440169
H        -5.557299   -4.304974    3.061254
H        -6.449317   -4.550547    4.596295
H        -5.207464    2.418295    3.558541
H        -5.207936    4.433528    2.101659
H        -3.855762    4.452466   -0.017392
H         0.391894   -0.347661   -1.161431
