-1 1
 OpenBabel05232413493D

 85 87  0  0  1  0  0  0  0  0999 V2000
   -2.7351    1.6759   -1.3560 C   0  0  0  0  0  0  0  0  0  0  0  0
   -1.6978    2.7394   -1.4826 C   0  0  0  0  0  0  0  0  0  0  0  0
    1.5555    1.6480   -2.1800 S   0  0  0  0  0  1  0  0  0  0  0  0
    0.5937    1.0566   -3.6169 C   0  0  0  0  0  0  0  0  0  0  0  0
    1.2572    1.3439   -4.9590 C   0  0  2  0  0  0  0  0  0  0  0  0
    2.2841    0.9412   -4.9497 H   0  0  0  0  0  0  0  0  0  0  0  0
    1.3658    2.7770   -5.1875 N   0  0  0  0  0  0  0  0  0  0  0  0
    2.3386    3.3403   -5.9225 C   0  0  0  0  0  0  0  0  0  0  0  0
    2.4309    4.8494   -5.8364 C   0  0  0  0  0  0  0  0  0  0  0  0
    3.1211    2.6951   -6.6227 O   0  0  0  0  0  0  0  0  0  0  0  0
    0.5093    0.6678   -6.1286 C   0  0  0  0  0  0  0  0  0  0  0  0
    1.2030    0.7138   -7.2972 N   0  0  0  0  0  0  0  0  0  0  0  0
    0.6605    0.2272   -8.5345 C   0  0  0  0  0  0  0  0  0  0  0  0
   -0.5830    0.1394   -6.0117 O   0  0  0  0  0  0  0  0  0  0  0  0
   -1.7026    3.7059   -2.4087 C   0  0  0  0  0  0  0  0  0  0  0  0
   -0.5660    4.6181   -2.7090 C   0  0  0  0  0  0  0  0  0  0  0  0
    0.1669    5.1873   -1.7043 N   0  0  0  0  0  0  0  0  0  0  0  0
    0.0420    4.9360   -0.3166 C   0  0  0  0  0  0  0  0  0  0  0  0
    1.0274    4.2329    0.3750 C   0  0  0  0  0  0  0  0  0  0  0  0
    0.8258    3.8345    1.6905 C   0  0  0  0  0  0  0  0  0  0  0  0
   -0.4020    4.0735    2.3436 C   0  0  0  0  0  0  0  0  0  0  0  0
   -0.7193    3.4765    3.5653 N   0  0  0  0  0  0  0  0  0  0  0  0
    0.2688    2.5526    4.1164 C   0  0  0  0  0  0  0  0  0  0  0  0
   -0.2630    1.6135    5.1916 C   0  0  0  0  0  0  0  0  0  0  0  0
   -1.6585    1.1227    4.7899 C   0  0  1  0  0  0  0  0  0  0  0  0
   -2.5665    2.3398    4.8849 C   0  0  0  0  0  0  0  0  0  0  0  0
   -2.1428    3.4243    3.8900 C   0  0  0  0  0  0  0  0  0  0  0  0
   -1.6497    0.5868    3.4392 N   0  0  0  0  0  0  0  0  0  0  0  0
   -1.1336   -0.6435    3.1642 C   0  0  0  0  0  0  0  0  0  0  0  0
   -0.5515   -0.7679    1.8162 C   0  0  0  0  0  0  0  0  0  0  0  0
    0.0130   -1.9295    1.2485 C   0  0  0  0  0  0  0  0  0  0  0  0
    0.0071   -3.1740    1.8790 N   0  0  0  0  0  0  0  0  0  0  0  0
    0.5434   -4.3061    1.3751 C   0  0  0  0  0  0  0  0  0  0  0  0
    0.4398   -5.4971    2.3107 C   0  0  0  0  0  0  0  0  0  0  0  0
   -0.6131   -6.4109    2.2095 C   0  0  0  0  0  0  0  0  0  0  0  0
   -1.8786   -6.1232    1.0456 Cl  0  0  0  0  0  0  0  0  0  0  0  0
   -0.6846   -7.5435    3.0165 C   0  0  0  0  0  0  0  0  0  0  0  0
    0.3216   -7.7753    3.9499 C   0  0  0  0  0  0  0  0  0  0  0  0
    1.3851   -6.8871    4.0789 C   0  0  0  0  0  0  0  0  0  0  0  0
    1.4314   -5.7618    3.2597 C   0  0  0  0  0  0  0  0  0  0  0  0
    2.7665   -4.6524    3.4266 Cl  0  0  0  0  0  0  0  0  0  0  0  0
    1.0696   -4.4139    0.2872 O   0  0  0  0  0  0  0  0  0  0  0  0
    0.5488   -1.5004    0.0432 C   0  0  0  0  0  0  0  0  0  0  0  0
    0.2909   -0.1733   -0.0328 N   0  0  0  0  0  0  0  0  0  0  0  0
    0.6749    0.5004   -0.7956 H   0  0  0  0  0  0  0  0  0  0  0  0
   -0.3587    0.2864    1.0158 N   0  0  0  0  0  0  0  0  0  0  0  0
   -1.1072   -1.5675    3.9739 O   0  0  0  0  0  0  0  0  0  0  0  0
   -1.3325    4.8980    1.6744 C   0  0  0  0  0  0  0  0  0  0  0  0
   -1.1054    5.3233    0.3714 C   0  0  0  0  0  0  0  0  0  0  0  0
   -0.2898    4.8692   -3.8795 O   0  0  0  0  0  0  0  0  0  0  0  0
   -2.2737    0.6953   -1.5578 H   0  0  0  0  0  0  0  0  0  0  0  0
   -3.5741    1.8203   -2.0524 H   0  0  0  0  0  0  0  0  0  0  0  0
   -3.1181    1.6291   -0.3241 H   0  0  0  0  0  0  0  0  0  0  0  0
   -0.8468    2.6472   -0.8024 H   0  0  0  0  0  0  0  0  0  0  0  0
   -0.4144    1.5057   -3.6315 H   0  0  0  0  0  0  0  0  0  0  0  0
    0.4392   -0.0309   -3.5590 H   0  0  0  0  0  0  0  0  0  0  0  0
    0.7404    3.3882   -4.6608 H   0  0  0  0  0  0  0  0  0  0  0  0
    3.3875    5.0985   -5.3535 H   0  0  0  0  0  0  0  0  0  0  0  0
    1.6064    5.2905   -5.2613 H   0  0  0  0  0  0  0  0  0  0  0  0
    2.4574    5.2637   -6.8540 H   0  0  0  0  0  0  0  0  0  0  0  0
    2.0727    1.2543   -7.2880 H   0  0  0  0  0  0  0  0  0  0  0  0
    1.3395   -0.4954   -9.0171 H   0  0  0  0  0  0  0  0  0  0  0  0
    0.4662    1.0448   -9.2506 H   0  0  0  0  0  0  0  0  0  0  0  0
   -0.2904   -0.2758   -8.3137 H   0  0  0  0  0  0  0  0  0  0  0  0
   -2.4939    3.7505   -3.1642 H   0  0  0  0  0  0  0  0  0  0  0  0
    1.0512    5.5530   -2.0408 H   0  0  0  0  0  0  0  0  0  0  0  0
    1.9291    3.9191   -0.1546 H   0  0  0  0  0  0  0  0  0  0  0  0
    1.6147    3.2585    2.1684 H   0  0  0  0  0  0  0  0  0  0  0  0
    1.1364    3.1179    4.5006 H   0  0  0  0  0  0  0  0  0  0  0  0
    0.6514    1.9160    3.2995 H   0  0  0  0  0  0  0  0  0  0  0  0
   -0.3240    2.1062    6.1753 H   0  0  0  0  0  0  0  0  0  0  0  0
    0.4359    0.7702    5.2917 H   0  0  0  0  0  0  0  0  0  0  0  0
   -1.9969    0.3235    5.4630 H   0  0  0  0  0  0  0  0  0  0  0  0
   -2.5227    2.7129    5.9194 H   0  0  0  0  0  0  0  0  0  0  0  0
   -3.6145    2.0749    4.6808 H   0  0  0  0  0  0  0  0  0  0  0  0
   -2.4925    4.4065    4.2568 H   0  0  0  0  0  0  0  0  0  0  0  0
   -2.6970    3.2467    2.9498 H   0  0  0  0  0  0  0  0  0  0  0  0
   -1.4968    1.2484    2.6801 H   0  0  0  0  0  0  0  0  0  0  0  0
   -0.3833   -3.1523    2.8218 H   0  0  0  0  0  0  0  0  0  0  0  0
   -1.5238   -8.2311    2.9085 H   0  0  0  0  0  0  0  0  0  0  0  0
    0.2754   -8.6607    4.5869 H   0  0  0  0  0  0  0  0  0  0  0  0
    2.1780   -7.0574    4.8075 H   0  0  0  0  0  0  0  0  0  0  0  0
    1.0920   -2.0329   -0.7302 H   0  0  0  0  0  0  0  0  0  0  0  0
   -2.2588    5.2019    2.1592 H   0  0  0  0  0  0  0  0  0  0  0  0
   -1.8614    5.9170   -0.1462 H   0  0  0  0  0  0  0  0  0  0  0  0
  1 53  1  0  0  0  0
  2  1  1  0  0  0  0
  2 54  1  0  0  0  0
  4 56  1  0  0  0  0
  4  3  1  0  0  0  0
  5  6  1  1  0  0  0
  5  4  1  0  0  0  0
  7  5  1  0  0  0  0
  7 57  1  0  0  0  0
  8  9  1  0  0  0  0
  8  7  1  0  0  0  0
  9 58  1  0  0  0  0
  9 59  1  0  0  0  0
 10  8  2  0  0  0  0
 11 14  2  0  0  0  0
 11  5  1  0  0  0  0
 12 61  1  0  0  0  0
 12 11  1  0  0  0  0
 13 64  1  0  0  0  0
 13 12  1  0  0  0  0
 15  2  2  0  0  0  0
 16 15  1  0  0  0  0
 16 17  1  0  0  0  0
 17 18  1  0  0  0  0
 18 49  2  0  0  0  0
 18 19  1  0  0  0  0
 19 20  2  0  0  0  0
 20 68  1  0  0  0  0
 20 21  1  0  0  0  0
 21 22  1  0  0  0  0
 22 27  1  0  0  0  0
 22 23  1  0  0  0  0
 23 69  1  0  0  0  0
 23 24  1  0  0  0  0
 24 72  1  0  0  0  0
 24 71  1  0  0  0  0
 25 26  1  0  0  0  0
 25 24  1  0  0  0  0
 25 73  1  1  0  0  0
 26 74  1  0  0  0  0
 27 76  1  0  0  0  0
 27 26  1  0  0  0  0
 28 25  1  0  0  0  0
 29 28  1  0  0  0  0
 29 47  2  0  0  0  0
 30 29  1  0  0  0  0
 31 30  1  0  0  0  0
 31 32  1  0  0  0  0
 32 79  1  0  0  0  0
 33 32  1  0  0  0  0
 33 34  1  0  0  0  0
 34 40  1  0  0  0  0
 35 34  2  0  0  0  0
 35 37  1  0  0  0  0
 36 35  1  0  0  0  0
 37 38  2  0  0  0  0
 38 39  1  0  0  0  0
 38 81  1  0  0  0  0
 39 82  1  0  0  0  0
 40 41  1  0  0  0  0
 40 39  2  0  0  0  0
 42 33  2  0  0  0  0
 43 31  2  0  0  0  0
 44 43  1  0  0  0  0
 44 46  1  0  0  0  0
 45 44  1  0  0  0  0
 46 30  2  0  0  0  0
 48 84  1  0  0  0  0
 48 21  2  0  0  0  0
 49 48  1  0  0  0  0
 50 16  2  0  0  0  0
 51  1  1  0  0  0  0
 52  1  1  0  0  0  0
 55  4  1  0  0  0  0
 60  9  1  0  0  0  0
 62 13  1  0  0  0  0
 63 13  1  0  0  0  0
 65 15  1  0  0  0  0
 66 17  1  0  0  0  0
 67 19  1  0  0  0  0
 70 23  1  0  0  0  0
 75 26  1  0  0  0  0
 77 27  1  0  0  0  0
 78 28  1  0  0  0  0
 80 37  1  0  0  0  0
 83 43  1  0  0  0  0
 85 49  1  0  0  0  0
M  END
