85
-1 1
C        -2.735062    1.675858   -1.356037
C        -1.697789    2.739410   -1.482565
S         1.555487    1.647996   -2.180030
C         0.593688    1.056570   -3.616881
C         1.257165    1.343858   -4.959035
H         2.284142    0.941198   -4.949707
N         1.365759    2.777030   -5.187535
C         2.338594    3.340337   -5.922511
C         2.430859    4.849356   -5.836437
O         3.121052    2.695130   -6.622678
C         0.509329    0.667824   -6.128618
N         1.203035    0.713759   -7.297151
C         0.660463    0.227171   -8.534531
O        -0.583043    0.139432   -6.011666
C        -1.702556    3.705891   -2.408730
C        -0.566048    4.618069   -2.709028
N         0.166942    5.187255   -1.704263
C         0.041971    4.936020   -0.316623
C         1.027369    4.232887    0.375034
C         0.825827    3.834473    1.690516
C        -0.402029    4.073478    2.343649
N        -0.719285    3.476468    3.565271
C         0.268799    2.552615    4.116359
C        -0.262996    1.613530    5.191576
C        -1.658534    1.122663    4.789884
C        -2.566519    2.339772    4.884924
C        -2.142820    3.424302    3.890019
N        -1.649729    0.586760    3.439210
C        -1.133620   -0.643498    3.164248
C        -0.551463   -0.767937    1.816193
C         0.013025   -1.929464    1.248509
N         0.007125   -3.174012    1.878977
C         0.543367   -4.306093    1.375077
C         0.439804   -5.497102    2.310707
C        -0.613096   -6.410880    2.209488
Cl        -1.878648   -6.123190    1.045602
C        -0.684602   -7.543546    3.016507
C         0.321555   -7.775300    3.949929
C         1.385098   -6.887060    4.078925
C         1.431403   -5.761792    3.259660
Cl         2.766542   -4.652384    3.426577
O         1.069614   -4.413873    0.287238
C         0.548758   -1.500436    0.043225
N         0.290908   -0.173316   -0.032776
H         0.674864    0.500388   -0.795622
N        -0.358687    0.286442    1.015799
O        -1.107239   -1.567462    3.973863
C        -1.332511    4.897997    1.674352
C        -1.105366    5.323325    0.371369
O        -0.289841    4.869169   -3.879545
H        -2.273691    0.695310   -1.557775
H        -3.574100    1.820341   -2.052380
H        -3.118134    1.629149   -0.324086
H        -0.846764    2.647224   -0.802353
H        -0.414365    1.505677   -3.631518
H         0.439168   -0.030862   -3.559015
H         0.740401    3.388156   -4.660799
H         3.387492    5.098548   -5.353470
H         1.606444    5.290468   -5.261344
H         2.457359    5.263726   -6.853979
H         2.072652    1.254266   -7.288015
H         1.339506   -0.495426   -9.017140
H         0.466168    1.044758   -9.250602
H        -0.290356   -0.275793   -8.313725
H        -2.493866    3.750533   -3.164198
H         1.051222    5.553018   -2.040834
H         1.929075    3.919094   -0.154563
H         1.614727    3.258530    2.168388
H         1.136368    3.117896    4.500560
H         0.651389    1.916044    3.299452
H        -0.323954    2.106228    6.175342
H         0.435907    0.770218    5.291651
H        -1.996901    0.323477    5.463038
H        -2.522664    2.712890    5.919425
H        -3.614499    2.074850    4.680792
H        -2.492547    4.406527    4.256771
H        -2.697040    3.246717    2.949794
H        -1.496772    1.248388    2.680073
H        -0.383256   -3.152275    2.821836
H        -1.523782   -8.231075    2.908510
H         0.275431   -8.660670    4.586926
H         2.177996   -7.057434    4.807488
H         1.091974   -2.032891   -0.730158
H        -2.258803    5.201930    2.159209
H        -1.861391    5.917021   -0.146223
