94
-1 1
O         4.716488    1.746970   -3.217306
C         4.790467    2.673567   -2.423766
N         4.101615    2.665551   -1.237049
C         4.305768    3.545121   -0.092743
C         2.990559    4.180028    0.342606
C         1.918159    3.123422    0.596868
C         1.798889    2.201443   -0.612015
C         3.154334    1.597286   -0.995410
N         0.810872    1.155144   -0.398384
N         0.778013    0.434467    0.728205
C        -0.200325   -0.444849    0.624046
C        -0.451130   -1.398483    1.719962
C        -0.870902   -2.706947    1.454644
C        -1.104851   -3.614584    2.493165
C        -1.579175   -5.025140    2.262311
N        -1.281728   -5.535283    1.024807
C        -1.625776   -6.781575    0.474285
C        -2.362938   -7.745898    1.165820
C        -2.689060   -8.973747    0.571336
C        -3.502048   -9.989777    1.387743
C        -4.850869   -9.359903    1.781337
C        -3.781352  -11.275337    0.599168
C        -2.716598  -10.361403    2.658991
C        -2.258534   -9.219960   -0.735049
C        -1.520432   -8.258718   -1.428305
C        -1.202958   -7.045632   -0.837348
O        -2.167867   -5.642074    3.129305
C        -0.920235   -3.205773    3.816397
C        -0.474073   -1.914872    4.088029
C        -0.239183   -1.016026    3.051480
C        -0.141785    0.746948   -1.271660
C        -0.853292   -0.292147   -0.642603
C        -1.966724   -0.779010   -1.375546
N        -2.826146   -1.720450   -0.890811
N        -2.192575   -0.321315   -2.602426
C        -1.379406    0.625544   -3.100096
N        -0.364091    1.215397   -2.505825
C         5.635224    3.855165   -2.787098
C         5.293028    5.141024   -2.680657
S         3.221341    7.652168   -1.177541
C         1.738318    8.100708   -0.201409
C         0.651140    7.009114   -0.185040
H         0.943977    6.207408    0.519180
N         0.562255    6.428348   -1.518753
C         0.141086    5.179968   -1.783310
C         0.557268    4.640393   -3.135899
O        -0.526864    4.497087   -0.999403
C        -0.702402    7.557554    0.318762
N        -1.674136    6.613201    0.414438
C        -3.014846    6.928177    0.821508
O        -0.866819    8.722238    0.639229
H         5.043790    4.315177   -0.334814
H         4.719311    2.934720    0.735017
H         2.677144    4.899176   -0.432059
H         3.159458    4.783044    1.247032
H         0.942332    3.594441    0.781748
H         2.181319    2.514403    1.478185
H         1.421723    2.772896   -1.468857
H         3.076293    0.994131   -1.907529
H         3.506749    0.945653   -0.172923
H        -1.032867   -2.997531    0.413625
H        -0.699502   -4.956607    0.434402
H        -2.673175   -7.515678    2.182233
H        -5.427021   -9.078037    0.886509
H        -4.715639   -8.456082    2.392882
H        -5.452041  -10.074763    2.365889
H        -4.363517  -11.076630   -0.313793
H        -4.365477  -11.972097    1.219808
H        -2.851181  -11.788597    0.310652
H        -2.526483   -9.482570    3.292024
H        -1.743563  -10.807310    2.401161
H        -3.281638  -11.092778    3.258994
H        -2.490185  -10.161446   -1.232430
H        -1.189892   -8.461242   -2.449486
H        -0.629297   -6.296730   -1.390196
H        -1.129478   -3.917143    4.616955
H        -0.315145   -1.601373    5.121970
H         0.105197   -0.000857    3.256071
H        -2.914942   -1.826606    0.110732
H        -3.665693   -1.852548   -1.441108
H        -1.604891    0.951064   -4.121772
H         6.538154    3.563687   -3.333079
H         4.381042    5.504460   -2.187960
H         5.937718    5.917637   -3.101231
H         1.284385    9.020330   -0.598955
H         1.999450    8.316905    0.844617
H         1.357599    6.776522   -2.084992
H         0.189268    5.293067   -3.941129
H         0.161947    3.624478   -3.257360
H         1.656597    4.621643   -3.207594
H        -1.442819    5.678903    0.063661
H        -3.742239    6.752311    0.010242
H        -3.046371    7.990861    1.096105
H        -3.326099    6.328592    1.693761
