94
-1 1
O         4.556175    1.557020   -1.359443
C         4.150584    2.724769   -1.433698
N         2.956081    3.072970   -0.627025
C         3.313609    3.782771    0.596313
C         2.077961    4.267956    1.344531
C         1.125065    3.113048    1.643088
C         0.839724    2.360199    0.348973
C         2.135364    1.917089   -0.338173
N        -0.037261    1.213651    0.574603
N         0.223897    0.302317    1.516955
C        -0.681236   -0.653814    1.428915
C        -0.621302   -1.813525    2.336538
C        -0.964618   -3.094731    1.889581
C        -0.912722   -4.196836    2.749392
C        -1.294769   -5.587397    2.318294
N        -1.124442   -5.836072    0.980332
C        -1.429560   -6.996916    0.249666
C        -2.006307   -8.132042    0.824681
C        -2.301733   -9.265509    0.053144
C        -2.935384  -10.480221    0.748063
C        -4.278127  -10.061530    1.374744
C        -3.197240  -11.634217   -0.227819
C        -1.986940  -10.984247    1.851454
C        -2.004920   -9.241436   -1.312099
C        -1.426936   -8.109079   -1.889280
C        -1.139002   -6.990358   -1.123058
O        -1.707830   -6.405932    3.117326
C        -0.515034   -4.015313    4.076323
C        -0.136305   -2.750367    4.518930
C        -0.185830   -1.656674    3.659198
C        -1.121273    0.862377   -0.158236
C        -1.598798   -0.352486    0.371016
C        -2.804862   -0.824554   -0.208156
N        -3.457228   -1.936902    0.228930
N        -3.336526   -0.171478   -1.237723
C        -2.732631    0.945980   -1.674398
N        -1.658191    1.531680   -1.189300
C         4.679323    3.774216   -2.202432
C         3.945413    5.003617   -2.485220
S         4.439281    6.577972   -1.476488
C         3.170930    7.783817   -1.984839
C         1.747871    7.495407   -1.509088
H         1.786953    7.116083   -0.473766
N         1.134022    6.454410   -2.328512
C         0.279709    5.519409   -1.842278
C         0.151957    4.267271   -2.670986
O        -0.307239    5.670503   -0.774054
C         0.865678    8.762073   -1.494287
N        -0.352877    8.545201   -0.940532
C        -1.364166    9.564188   -0.866762
O         1.240336    9.839481   -1.923359
H         3.947401    4.638376    0.332816
H         3.908692    3.119052    1.265810
H         1.553412    5.019438    0.734147
H         2.381416    4.760281    2.282549
H         0.181977    3.473432    2.084652
H         1.588696    2.415336    2.360381
H         0.273104    3.018705   -0.322160
H         1.899220    1.397376   -1.279496
H         2.654924    1.178621    0.306719
H        -1.292692   -3.213613    0.853728
H        -0.666288   -5.106766    0.449808
H        -2.213626   -8.110864    1.891877
H        -4.970246   -9.688848    0.603859
H        -4.147858   -9.266213    2.122834
H        -4.752341  -10.920705    1.875943
H        -3.890763  -11.341295   -1.031039
H        -3.651676  -12.480066    0.310699
H        -2.266775  -11.997337   -0.690656
H        -1.798709  -10.212072    2.611347
H        -1.015864  -11.281675    1.426514
H        -2.421784  -11.859296    2.360845
H        -2.217325  -10.101841   -1.946167
H        -1.198699   -8.101142   -2.957400
H        -0.689278   -6.107110   -1.584651
H        -0.502340   -4.879392    4.742639
H         0.196317   -2.612895    5.549992
H         0.107611   -0.661899    3.998788
H        -3.285899   -2.274632    1.165782
H        -4.380422   -2.079889   -0.159725
H        -3.209358    1.433433   -2.532604
H         5.614043    3.565769   -2.728279
H         2.897545    4.859522   -2.217697
H         4.037957    5.355153   -3.528478
H         3.174622    7.910384   -3.082196
H         3.478283    8.754990   -1.575896
H         1.622096    6.230112   -3.186018
H         0.136388    4.483347   -3.749386
H        -0.741950    3.705828   -2.373394
H         1.039980    3.647319   -2.455780
H        -0.558951    7.589899   -0.638862
H        -2.248853    9.306315   -1.472967
H        -0.934636   10.498281   -1.251591
H        -1.695125    9.728347    0.171700
