94
-1 1
O         7.966422  -12.007593   -3.863471
C         7.637119  -10.828655   -3.732120
N         6.517207  -10.522295   -2.864071
C         6.883968   -9.777580   -1.661927
C         5.654952   -9.290126   -0.907779
C         4.700238  -10.438136   -0.588198
C         4.404633  -11.207114   -1.870321
C         5.693712  -11.670955   -2.555743
N         3.519079  -12.342692   -1.632254
N         3.764698  -13.241684   -0.673570
C         2.850885  -14.190255   -0.754636
C         2.892504  -15.336765    0.170780
C         2.541815  -16.621340   -0.260457
C         2.578191  -17.711385    0.615338
C         2.188168  -19.105478    0.202327
N         2.356834  -19.373057   -1.132030
C         2.044407  -20.541600   -1.847440
C         1.465572  -21.667493   -1.256697
C         1.163128  -22.809080   -2.013478
C         0.527457  -24.012909   -1.301659
C        -0.811681  -23.581729   -0.675700
C         0.258185  -25.177871   -2.262384
C         1.477819  -24.506801   -0.195327
C         1.455072  -22.802432   -3.379974
C         2.035118  -21.679295   -3.972855
C         2.329963  -20.552555   -3.221155
O         1.770549  -19.910673    1.012383
C         2.967237  -17.513768    1.942562
C         3.352020  -16.245580    2.370333
C         3.318047  -15.163992    1.494659
C         2.438778  -12.695780   -2.369910
C         1.945219  -13.897025   -1.825328
C         0.740429  -14.366946   -2.409456
N         0.072381  -15.465285   -1.960962
N         0.226907  -13.726031   -3.455588
C         0.846194  -12.622012   -3.904921
N         1.921130  -12.038520   -3.417888
C         8.239941   -9.717444   -4.400339
C         7.579942   -8.496519   -4.629905
S         7.926475   -6.759043   -3.273617
C         6.642947   -5.601238   -3.852405
C         5.206435   -5.956557   -3.468660
H         5.199753   -6.345393   -2.436946
N         4.693245   -7.016028   -4.332441
C         3.836322   -7.985322   -3.933989
C         3.763702   -9.195305   -4.832283
O         3.198826   -7.903219   -2.886495
C         4.255697   -4.741341   -3.504793
N         3.031044   -5.019955   -2.987526
C         1.958670   -4.063082   -2.978779
O         4.576708   -3.650466   -3.942034
H         7.497386   -8.914942   -1.947306
H         7.492254  -10.425265   -0.990179
H         5.129155   -8.539636   -1.516328
H         5.972060   -8.788824    0.020097
H         3.760768  -10.066017   -0.149654
H         5.161885  -11.128004    0.138087
H         3.843714  -10.552698   -2.550098
H         5.456128  -12.204696   -3.487325
H         6.211284  -12.399257   -1.897131
H         2.220431  -16.751958   -1.296973
H         2.817572  -18.653115   -1.672880
H         1.261852  -21.632784   -0.189178
H        -1.504930  -23.215632   -1.448711
H        -0.676214  -22.778204    0.062635
H        -1.287422  -24.433172   -0.162923
H        -0.437165  -24.892459   -3.066722
H        -0.197299  -26.015402   -1.711914
H         1.185745  -25.549984   -2.723907
H         1.671294  -23.726137    0.554520
H         2.446397  -24.812957   -0.619773
H         1.041543  -25.373964    0.326139
H         1.237171  -23.669412   -4.003078
H         2.259296  -21.685028   -5.041842
H         2.780992  -19.676490   -3.695032
H         2.967782  -18.368361    2.621110
H         3.676800  -16.095846    3.402178
H         3.615843  -14.166630    1.822709
H         0.228053  -15.786461   -1.015571
H        -0.848047  -15.605195   -2.357421
H         0.383757  -12.145052   -4.776608
H         9.202415   -9.921413   -4.874805
H         6.509970   -8.524621   -4.439000
H         7.868910   -7.929298   -5.520937
H         6.697708   -5.471848   -4.949641
H         6.866457   -4.610292   -3.435659
H         5.203131   -7.164974   -5.193410
H         3.776209   -8.922390   -5.897797
H         2.870100   -9.785170   -4.594071
H         4.655720   -9.811126   -4.624008
H         2.862959   -5.984650   -2.694675
H         1.122752   -4.377391   -3.626663
H         2.353093   -3.109312   -3.353136
H         1.564766   -3.908450   -1.960932
