-1 1
 OpenBabel05192410563D

 96 99  0  0  1  0  0  0  0  0999 V2000
   -5.0024    8.7453   -2.6709 C   0  0  0  0  0  0  0  0  0  0  0  0
   -4.8438    7.3766   -2.2479 N   0  0  0  0  0  0  0  0  0  0  0  0
   -3.6094    6.7964   -2.7625 C   0  0  0  0  0  0  0  0  0  0  0  0
   -3.5618    5.2774   -2.6907 C   0  0  0  0  0  0  0  0  0  0  0  0
   -2.2608    4.6272   -3.1959 C   0  0  1  0  0  0  0  0  0  0  0  0
   -2.3745    4.7601   -5.1339 S   0  0  0  0  0  0  0  0  0  0  0  0
   -0.6402    4.7586   -5.6525 C   0  0  0  0  0  0  0  0  0  0  0  0
   -0.2380    5.9359   -6.5681 C   0  0  2  0  0  0  0  0  0  0  0  0
   -1.0319    6.0832   -7.3208 H   0  0  0  0  0  0  0  0  0  0  0  0
    1.0063    5.6675   -7.2463 N   0  0  0  0  0  0  0  0  0  0  0  0
    1.1111    4.8384   -8.3091 C   0  0  0  0  0  0  0  0  0  0  0  0
    2.5079    4.7185   -8.8954 C   0  0  0  0  0  0  0  0  0  0  0  0
    0.1737    4.2014   -8.7591 O   0  0  0  0  0  0  0  0  0  0  0  0
   -0.0236    7.2556   -5.8040 C   0  0  0  0  0  0  0  0  0  0  0  0
   -1.0864    7.6893   -5.1005 N   0  0  0  0  0  0  0  0  0  0  0  0
   -0.9954    8.8065   -4.1942 C   0  0  0  0  0  0  0  0  0  0  0  0
    1.0437    7.8514   -5.8649 O   0  0  0  0  0  0  0  0  0  0  0  0
   -0.9990    5.1124   -2.6211 C   0  0  0  0  0  3  0  0  0  0  0  0
   -0.2461    4.4655   -1.6291 C   0  0  0  0  0  0  0  0  0  0  0  0
   -0.5822    3.0790   -1.2798 N   0  0  0  0  0  0  0  0  0  0  0  0
   -0.5002    1.9373   -2.0405 C   0  0  0  0  0  0  0  0  0  0  0  0
   -0.5592    0.6819   -1.3885 C   0  0  0  0  0  0  0  0  0  0  0  0
   -0.5172   -0.5189   -2.0968 C   0  0  0  0  0  0  0  0  0  0  0  0
   -0.6027   -1.7773   -1.4432 N   0  0  0  0  0  0  0  0  0  0  0  0
   -1.1102   -1.8094   -0.0878 C   0  0  0  0  0  0  0  0  0  0  0  0
   -1.5571   -3.2197    0.2850 C   0  0  0  0  0  0  0  0  0  0  0  0
   -0.4335   -4.2459    0.1022 C   0  0  1  0  0  0  0  0  0  0  0  0
    0.1524   -4.1098   -1.3056 C   0  0  0  0  0  0  0  0  0  0  0  0
    0.5253   -2.6677   -1.6378 C   0  0  0  0  0  0  0  0  0  0  0  0
    0.6355   -4.0724    1.0844 N   0  0  0  0  0  0  0  0  0  0  0  0
    0.7424   -4.5027    2.3577 C   0  0  0  0  0  0  0  0  0  0  0  0
   -0.3151   -5.3475    2.9804 C   0  0  0  0  0  0  0  0  0  0  0  0
   -0.2129   -5.8623    4.3046 C   0  0  0  0  0  0  0  0  0  0  0  0
    0.8620   -5.6490    5.1558 N   0  0  0  0  0  0  0  0  0  0  0  0
    0.9507   -6.1444    6.4116 C   0  0  0  0  0  0  0  0  0  0  0  0
    2.2204   -5.7474    7.1343 C   0  0  0  0  0  0  0  0  0  0  0  0
    2.2799   -4.5825    7.9044 C   0  0  0  0  0  0  0  0  0  0  0  0
    0.8847   -3.5402    7.9771 Cl  0  0  0  0  0  0  0  0  0  0  0  0
    3.4257   -4.2295    8.6122 C   0  0  0  0  0  0  0  0  0  0  0  0
    4.5411   -5.0597    8.5526 C   0  0  0  0  0  0  0  0  0  0  0  0
    4.5167   -6.2278    7.7960 C   0  0  0  0  0  0  0  0  0  0  0  0
    3.3585   -6.5575    7.0975 C   0  0  0  0  0  0  0  0  0  0  0  0
    3.3311   -8.0183    6.1448 Cl  0  0  0  0  0  0  0  0  0  0  0  0
    0.1113   -6.8438    6.9423 O   0  0  0  0  0  0  0  0  0  0  0  0
   -1.3804   -6.5719    4.5056 C   0  0  0  0  0  0  0  0  0  0  0  0
   -2.0783   -6.4419    3.3454 N   0  0  0  0  0  0  0  0  0  0  0  0
   -2.9903   -6.8292    3.1425 H   0  0  0  0  0  0  0  0  0  0  0  0
   -1.4676   -5.7189    2.4267 N   0  0  0  0  0  0  0  0  0  0  0  0
    1.7305   -4.2175    3.0381 O   0  0  0  0  0  0  0  0  0  0  0  0
   -0.4051   -0.4877   -3.4974 C   0  0  0  0  0  0  0  0  0  0  0  0
   -0.3179    0.7426   -4.1404 C   0  0  0  0  0  0  0  0  0  0  0  0
   -0.3615    1.9432   -3.4401 C   0  0  0  0  0  0  0  0  0  0  0  0
    0.6357    4.9608   -0.9180 O   0  0  0  0  0  0  0  0  0  0  0  0
   -4.9770    7.2525   -0.8158 C   0  0  0  0  0  0  0  0  0  0  0  0
   -4.9816    8.8097   -3.7700 H   0  0  0  0  0  0  0  0  0  0  0  0
   -4.2066    9.4227   -2.2783 H   0  0  0  0  0  0  0  0  0  0  0  0
   -5.9721    9.1421   -2.3287 H   0  0  0  0  0  0  0  0  0  0  0  0
   -2.7207    7.2185   -2.2435 H   0  0  0  0  0  0  0  0  0  0  0  0
   -3.5366    7.0927   -3.8205 H   0  0  0  0  0  0  0  0  0  0  0  0
   -4.4373    4.8743   -3.2311 H   0  0  0  0  0  0  0  0  0  0  0  0
   -3.6541    4.9499   -1.6424 H   0  0  0  0  0  0  0  0  0  0  0  0
   -2.3685    3.5497   -3.0181 H   0  0  0  0  0  0  0  0  0  0  0  0
   -0.4355    3.8308   -6.2018 H   0  0  0  0  0  0  0  0  0  0  0  0
   -0.0462    4.7827   -4.7182 H   0  0  0  0  0  0  0  0  0  0  0  0
    1.7636    6.2870   -6.9699 H   0  0  0  0  0  0  0  0  0  0  0  0
    3.1892    5.5164   -8.5689 H   0  0  0  0  0  0  0  0  0  0  0  0
    2.4299    4.7212   -9.9906 H   0  0  0  0  0  0  0  0  0  0  0  0
    2.9311    3.7487   -8.5940 H   0  0  0  0  0  0  0  0  0  0  0  0
   -1.8497    7.0170   -4.9922 H   0  0  0  0  0  0  0  0  0  0  0  0
   -1.9721    9.3054   -4.1173 H   0  0  0  0  0  0  0  0  0  0  0  0
   -0.2521    9.5173   -4.5773 H   0  0  0  0  0  0  0  0  0  0  0  0
   -0.6835    8.4898   -3.1844 H   0  0  0  0  0  0  0  0  0  0  0  0
   -0.7309    6.1653   -2.7465 H   0  0  0  0  0  0  0  0  0  0  0  0
   -0.2900    2.9404   -0.3183 H   0  0  0  0  0  0  0  0  0  0  0  0
   -0.6351    0.6779   -0.2994 H   0  0  0  0  0  0  0  0  0  0  0  0
   -1.9666   -1.1245   -0.0164 H   0  0  0  0  0  0  0  0  0  0  0  0
   -0.3554   -1.4534    0.6506 H   0  0  0  0  0  0  0  0  0  0  0  0
   -2.3979   -3.5102   -0.3652 H   0  0  0  0  0  0  0  0  0  0  0  0
   -1.9180   -3.2499    1.3236 H   0  0  0  0  0  0  0  0  0  0  0  0
   -0.8436   -5.2537    0.2343 H   0  0  0  0  0  0  0  0  0  0  0  0
   -0.6112   -4.4442   -2.0244 H   0  0  0  0  0  0  0  0  0  0  0  0
    1.0285   -4.7685   -1.4160 H   0  0  0  0  0  0  0  0  0  0  0  0
    0.8638   -2.6066   -2.6795 H   0  0  0  0  0  0  0  0  0  0  0  0
    1.3976   -2.3401   -1.0214 H   0  0  0  0  0  0  0  0  0  0  0  0
    1.4120   -3.4709    0.8259 H   0  0  0  0  0  0  0  0  0  0  0  0
    1.5867   -5.0543    4.7412 H   0  0  0  0  0  0  0  0  0  0  0  0
    3.4367   -3.3108    9.1989 H   0  0  0  0  0  0  0  0  0  0  0  0
    5.4449   -4.7906    9.1022 H   0  0  0  0  0  0  0  0  0  0  0  0
    5.3867   -6.8824    7.7404 H   0  0  0  0  0  0  0  0  0  0  0  0
   -1.7345   -7.1295    5.3650 H   0  0  0  0  0  0  0  0  0  0  0  0
   -0.4196   -1.4175   -4.0696 H   0  0  0  0  0  0  0  0  0  0  0  0
   -0.2279    0.7752   -5.2296 H   0  0  0  0  0  0  0  0  0  0  0  0
   -0.2800    2.8915   -3.9619 H   0  0  0  0  0  0  0  0  0  0  0  0
   -5.9532    7.6479   -0.4919 H   0  0  0  0  0  0  0  0  0  0  0  0
   -4.1834    7.8014   -0.2568 H   0  0  0  0  0  0  0  0  0  0  0  0
   -4.9283    6.1988   -0.5089 H   0  0  0  0  0  0  0  0  0  0  0  0
  1 57  1  0  0  0  0
  1 56  1  0  0  0  0
  1  2  1  0  0  0  0
  2 54  1  0  0  0  0
  3  4  1  0  0  0  0
  3  2  1  0  0  0  0
  3 58  1  0  0  0  0
  4 61  1  0  0  0  0
  5 62  1  1  0  0  0
  5  4  1  0  0  0  0
  5 18  1  0  0  0  0
  6  5  1  0  0  0  0
  7  6  1  0  0  0  0
  7 64  1  0  0  0  0
  8  9  1  6  0  0  0
  8 14  1  0  0  0  0
  8  7  1  0  0  0  0
 10 65  1  0  0  0  0
 10  8  1  0  0  0  0
 11 10  1  0  0  0  0
 12 68  1  0  0  0  0
 12 66  1  0  0  0  0
 12 11  1  0  0  0  0
 13 11  2  0  0  0  0
 14 15  1  0  0  0  0
 15 69  1  0  0  0  0
 15 16  1  0  0  0  0
 16 70  1  0  0  0  0
 16 72  1  0  0  0  0
 17 14  2  0  0  0  0
 18 19  1  0  0  0  0
 19 20  1  0  0  0  0
 19 53  2  0  0  0  0
 20 74  1  0  0  0  0
 21 22  1  0  0  0  0
 21 20  1  0  0  0  0
 22 75  1  0  0  0  0
 23 24  1  0  0  0  0
 23 22  2  0  0  0  0
 24 25  1  0  0  0  0
 25 76  1  0  0  0  0
 25 26  1  0  0  0  0
 25 77  1  0  0  0  0
 26 79  1  0  0  0  0
 27 80  1  1  0  0  0
 27 26  1  0  0  0  0
 27 30  1  0  0  0  0
 28 27  1  0  0  0  0
 29 24  1  0  0  0  0
 29 28  1  0  0  0  0
 29 84  1  0  0  0  0
 30 31  1  0  0  0  0
 31 32  1  0  0  0  0
 31 49  2  0  0  0  0
 32 33  1  0  0  0  0
 33 45  2  0  0  0  0
 33 34  1  0  0  0  0
 34 35  1  0  0  0  0
 35 44  2  0  0  0  0
 35 36  1  0  0  0  0
 36 37  1  0  0  0  0
 37 38  1  0  0  0  0
 37 39  2  0  0  0  0
 39 87  1  0  0  0  0
 40 39  1  0  0  0  0
 40 88  1  0  0  0  0
 41 40  2  0  0  0  0
 42 36  2  0  0  0  0
 42 41  1  0  0  0  0
 43 42  1  0  0  0  0
 45 90  1  0  0  0  0
 46 45  1  0  0  0  0
 47 46  1  0  0  0  0
 48 32  2  0  0  0  0
 48 46  1  0  0  0  0
 50 23  1  0  0  0  0
 51 50  2  0  0  0  0
 51 52  1  0  0  0  0
 52 21  2  0  0  0  0
 54 96  1  0  0  0  0
 54 94  1  0  0  0  0
 54 95  1  0  0  0  0
 55  1  1  0  0  0  0
 59  3  1  0  0  0  0
 60  4  1  0  0  0  0
 63  7  1  0  0  0  0
 67 12  1  0  0  0  0
 71 16  1  0  0  0  0
 73 18  1  0  0  0  0
 78 26  1  0  0  0  0
 81 28  1  0  0  0  0
 82 28  1  0  0  0  0
 83 29  1  0  0  0  0
 85 30  1  0  0  0  0
 86 34  1  0  0  0  0
 89 41  1  0  0  0  0
 91 50  1  0  0  0  0
 92 51  1  0  0  0  0
 93 52  1  0  0  0  0
M  END
