96
-1 1
C        -4.929781    7.143657   -5.498083
N        -5.218691    6.598321   -4.191735
C        -4.008787    6.310495   -3.443125
C        -4.206200    5.267626   -2.352284
C        -2.938977    4.792774   -1.710749
S        -1.612012    4.657885   -5.840038
C         0.135430    4.639674   -5.290899
C         0.970437    5.874889   -5.688273
H         0.803421    6.045553   -6.766846
N         2.384403    5.688484   -5.438920
C         3.203290    4.933311   -6.200862
C         4.667147    4.955614   -5.779385
O         2.834026    4.256112   -7.145327
C         0.596171    7.159795   -4.927132
N        -0.713681    7.456064   -4.901783
C        -1.204194    8.599216   -4.180626
O         1.455642    7.856535   -4.393750
C        -1.700132    5.178106   -2.027217
C        -0.489180    4.653180   -1.340677
N        -0.387612    3.288447   -1.140116
C        -1.035797    2.197312   -1.754873
C        -1.123379    1.007473   -1.014551
C        -1.717740   -0.139038   -1.552614
N        -1.828150   -1.345401   -0.816991
C        -1.652845   -1.282840    0.619614
C        -2.224081   -2.529121    1.287714
C        -1.610168   -3.815160    0.723895
C        -1.727122   -3.801334   -0.802287
C        -1.192438   -2.508238   -1.410786
N        -0.204625   -3.963255    1.095829
C         0.365776   -4.423892    2.228982
C        -0.458655   -4.956347    3.348871
C         0.108918   -5.492275    4.540136
N         1.468975   -5.585849    4.797593
C         1.995924   -6.094083    5.936222
C         3.508830   -6.063378    5.973805
C         4.196995   -4.960445    6.487083
Cl         3.292596   -3.572772    7.030856
C         5.586494   -4.937951    6.571985
C         6.309283   -6.044191    6.135000
C         5.656438   -7.159696    5.618242
C         4.266278   -7.156402    5.544451
Cl         3.449276   -8.551662    4.890756
O         1.346572   -6.539788    6.860590
C        -0.971050   -5.863010    5.317042
N        -2.066661   -5.539117    4.579069
H        -3.033734   -5.666197    4.846523
N        -1.788339   -4.998755    3.408599
O         1.591531   -4.427303    2.357804
C        -2.239018   -0.075114   -2.854043
C        -2.135833    1.101651   -3.586602
C        -1.534544    2.241900   -3.058958
O         0.376894    5.390005   -0.911323
C        -6.167704    7.402245   -3.467604
H        -4.221526    6.491894   -6.030897
H        -4.482808    8.165177   -5.453327
H        -5.854993    7.215131   -6.093113
H        -3.574192    7.237715   -3.001399
H        -3.264151    5.905684   -4.149638
H        -4.701336    4.390699   -2.806156
H        -4.893190    5.621772   -1.561936
H        -3.062157    4.020953   -0.940767
H         0.640989    3.776174   -5.745188
H         0.216554    4.520495   -4.193397
H         2.761637    6.359954   -4.774402
H         4.891460    5.692943   -4.995990
H         5.283198    5.160909   -6.665887
H         4.939156    3.954220   -5.414528
H        -1.352242    6.721748   -5.272237
H        -2.221700    8.835085   -4.521811
H        -0.551838    9.467275   -4.356508
H        -1.233667    8.426125   -3.089455
H        -1.498140    5.939368   -2.784952
H         0.405206    3.060243   -0.549573
H        -0.709986    0.997117   -0.004666
H        -2.177028   -0.394864    1.000140
H        -0.581920   -1.168939    0.905011
H        -3.311621   -2.560514    1.113848
H        -2.065751   -2.489993    2.375283
H        -2.153742   -4.677396    1.126843
H        -2.792854   -3.892604   -1.061781
H        -1.202855   -4.670056   -1.230826
H        -1.372368   -2.512171   -2.492976
H        -0.083702   -2.452045   -1.293571
H         0.490198   -3.602022    0.449304
H         2.047201   -5.210674    4.039568
H         6.089300   -4.058470    6.974565
H         7.399074   -6.035618    6.195310
H         6.214519   -8.029004    5.270059
H        -1.017206   -6.312858    6.302115
H        -2.741848   -0.946665   -3.278864
H        -2.529857    1.156515   -4.604022
H        -1.485033    3.138211   -3.684302
H        -7.096331    7.515455   -4.050302
H        -5.786627    8.427194   -3.238606
H        -6.435365    6.928189   -2.511040
