-1 1
 OpenBabel05232413493D

 96 98  0  0  1  0  0  0  0  0999 V2000
   -4.9298    7.1437   -5.4981 C   0  0  0  0  0  0  0  0  0  0  0  0
   -5.2187    6.5983   -4.1917 N   0  0  0  0  0  0  0  0  0  0  0  0
   -4.0088    6.3105   -3.4431 C   0  0  0  0  0  0  0  0  0  0  0  0
   -4.2062    5.2676   -2.3523 C   0  0  0  0  0  0  0  0  0  0  0  0
   -2.9390    4.7928   -1.7107 C   0  0  0  0  0  0  0  0  0  0  0  0
   -1.6120    4.6579   -5.8400 S   0  0  0  0  0  1  0  0  0  0  0  0
    0.1354    4.6397   -5.2909 C   0  0  0  0  0  0  0  0  0  0  0  0
    0.9704    5.8749   -5.6883 C   0  0  2  0  0  0  0  0  0  0  0  0
    0.8034    6.0456   -6.7668 H   0  0  0  0  0  0  0  0  0  0  0  0
    2.3844    5.6885   -5.4389 N   0  0  0  0  0  0  0  0  0  0  0  0
    3.2033    4.9333   -6.2009 C   0  0  0  0  0  0  0  0  0  0  0  0
    4.6671    4.9556   -5.7794 C   0  0  0  0  0  0  0  0  0  0  0  0
    2.8340    4.2561   -7.1453 O   0  0  0  0  0  0  0  0  0  0  0  0
    0.5962    7.1598   -4.9271 C   0  0  0  0  0  0  0  0  0  0  0  0
   -0.7137    7.4561   -4.9018 N   0  0  0  0  0  0  0  0  0  0  0  0
   -1.2042    8.5992   -4.1806 C   0  0  0  0  0  0  0  0  0  0  0  0
    1.4556    7.8565   -4.3937 O   0  0  0  0  0  0  0  0  0  0  0  0
   -1.7001    5.1781   -2.0272 C   0  0  0  0  0  0  0  0  0  0  0  0
   -0.4892    4.6532   -1.3407 C   0  0  0  0  0  0  0  0  0  0  0  0
   -0.3876    3.2884   -1.1401 N   0  0  0  0  0  0  0  0  0  0  0  0
   -1.0358    2.1973   -1.7549 C   0  0  0  0  0  0  0  0  0  0  0  0
   -1.1234    1.0075   -1.0146 C   0  0  0  0  0  0  0  0  0  0  0  0
   -1.7177   -0.1390   -1.5526 C   0  0  0  0  0  0  0  0  0  0  0  0
   -1.8281   -1.3454   -0.8170 N   0  0  0  0  0  0  0  0  0  0  0  0
   -1.6528   -1.2828    0.6196 C   0  0  0  0  0  0  0  0  0  0  0  0
   -2.2241   -2.5291    1.2877 C   0  0  0  0  0  0  0  0  0  0  0  0
   -1.6102   -3.8152    0.7239 C   0  0  1  0  0  0  0  0  0  0  0  0
   -1.7271   -3.8013   -0.8023 C   0  0  0  0  0  0  0  0  0  0  0  0
   -1.1924   -2.5082   -1.4108 C   0  0  0  0  0  0  0  0  0  0  0  0
   -0.2046   -3.9633    1.0958 N   0  0  0  0  0  0  0  0  0  0  0  0
    0.3658   -4.4239    2.2290 C   0  0  0  0  0  0  0  0  0  0  0  0
   -0.4587   -4.9563    3.3489 C   0  0  0  0  0  0  0  0  0  0  0  0
    0.1089   -5.4923    4.5401 C   0  0  0  0  0  0  0  0  0  0  0  0
    1.4690   -5.5858    4.7976 N   0  0  0  0  0  0  0  0  0  0  0  0
    1.9959   -6.0941    5.9362 C   0  0  0  0  0  0  0  0  0  0  0  0
    3.5088   -6.0634    5.9738 C   0  0  0  0  0  0  0  0  0  0  0  0
    4.1970   -4.9604    6.4871 C   0  0  0  0  0  0  0  0  0  0  0  0
    3.2926   -3.5728    7.0309 Cl  0  0  0  0  0  0  0  0  0  0  0  0
    5.5865   -4.9380    6.5720 C   0  0  0  0  0  0  0  0  0  0  0  0
    6.3093   -6.0442    6.1350 C   0  0  0  0  0  0  0  0  0  0  0  0
    5.6564   -7.1597    5.6182 C   0  0  0  0  0  0  0  0  0  0  0  0
    4.2663   -7.1564    5.5445 C   0  0  0  0  0  0  0  0  0  0  0  0
    3.4493   -8.5517    4.8908 Cl  0  0  0  0  0  0  0  0  0  0  0  0
    1.3466   -6.5398    6.8606 O   0  0  0  0  0  0  0  0  0  0  0  0
   -0.9710   -5.8630    5.3170 C   0  0  0  0  0  0  0  0  0  0  0  0
   -2.0667   -5.5391    4.5791 N   0  0  0  0  0  0  0  0  0  0  0  0
   -3.0337   -5.6662    4.8465 H   0  0  0  0  0  0  0  0  0  0  0  0
   -1.7883   -4.9988    3.4086 N   0  0  0  0  0  0  0  0  0  0  0  0
    1.5915   -4.4273    2.3578 O   0  0  0  0  0  0  0  0  0  0  0  0
   -2.2390   -0.0751   -2.8540 C   0  0  0  0  0  0  0  0  0  0  0  0
   -2.1358    1.1017   -3.5866 C   0  0  0  0  0  0  0  0  0  0  0  0
   -1.5345    2.2419   -3.0590 C   0  0  0  0  0  0  0  0  0  0  0  0
    0.3769    5.3900   -0.9113 O   0  0  0  0  0  0  0  0  0  0  0  0
   -6.1677    7.4022   -3.4676 C   0  0  0  0  0  0  0  0  0  0  0  0
   -4.2215    6.4919   -6.0309 H   0  0  0  0  0  0  0  0  0  0  0  0
   -4.4828    8.1652   -5.4533 H   0  0  0  0  0  0  0  0  0  0  0  0
   -5.8550    7.2151   -6.0931 H   0  0  0  0  0  0  0  0  0  0  0  0
   -3.5742    7.2377   -3.0014 H   0  0  0  0  0  0  0  0  0  0  0  0
   -3.2642    5.9057   -4.1496 H   0  0  0  0  0  0  0  0  0  0  0  0
   -4.7013    4.3907   -2.8062 H   0  0  0  0  0  0  0  0  0  0  0  0
   -4.8932    5.6218   -1.5619 H   0  0  0  0  0  0  0  0  0  0  0  0
   -3.0622    4.0210   -0.9408 H   0  0  0  0  0  0  0  0  0  0  0  0
    0.6410    3.7762   -5.7452 H   0  0  0  0  0  0  0  0  0  0  0  0
    0.2166    4.5205   -4.1934 H   0  0  0  0  0  0  0  0  0  0  0  0
    2.7616    6.3600   -4.7744 H   0  0  0  0  0  0  0  0  0  0  0  0
    4.8915    5.6929   -4.9960 H   0  0  0  0  0  0  0  0  0  0  0  0
    5.2832    5.1609   -6.6659 H   0  0  0  0  0  0  0  0  0  0  0  0
    4.9392    3.9542   -5.4145 H   0  0  0  0  0  0  0  0  0  0  0  0
   -1.3522    6.7217   -5.2722 H   0  0  0  0  0  0  0  0  0  0  0  0
   -2.2217    8.8351   -4.5218 H   0  0  0  0  0  0  0  0  0  0  0  0
   -0.5518    9.4673   -4.3565 H   0  0  0  0  0  0  0  0  0  0  0  0
   -1.2337    8.4261   -3.0895 H   0  0  0  0  0  0  0  0  0  0  0  0
   -1.4981    5.9394   -2.7850 H   0  0  0  0  0  0  0  0  0  0  0  0
    0.4052    3.0602   -0.5496 H   0  0  0  0  0  0  0  0  0  0  0  0
   -0.7100    0.9971   -0.0047 H   0  0  0  0  0  0  0  0  0  0  0  0
   -2.1770   -0.3949    1.0001 H   0  0  0  0  0  0  0  0  0  0  0  0
   -0.5819   -1.1689    0.9050 H   0  0  0  0  0  0  0  0  0  0  0  0
   -3.3116   -2.5605    1.1138 H   0  0  0  0  0  0  0  0  0  0  0  0
   -2.0658   -2.4900    2.3753 H   0  0  0  0  0  0  0  0  0  0  0  0
   -2.1537   -4.6774    1.1268 H   0  0  0  0  0  0  0  0  0  0  0  0
   -2.7929   -3.8926   -1.0618 H   0  0  0  0  0  0  0  0  0  0  0  0
   -1.2029   -4.6701   -1.2308 H   0  0  0  0  0  0  0  0  0  0  0  0
   -1.3724   -2.5122   -2.4930 H   0  0  0  0  0  0  0  0  0  0  0  0
   -0.0837   -2.4520   -1.2936 H   0  0  0  0  0  0  0  0  0  0  0  0
    0.4902   -3.6020    0.4493 H   0  0  0  0  0  0  0  0  0  0  0  0
    2.0472   -5.2107    4.0396 H   0  0  0  0  0  0  0  0  0  0  0  0
    6.0893   -4.0585    6.9746 H   0  0  0  0  0  0  0  0  0  0  0  0
    7.3991   -6.0356    6.1953 H   0  0  0  0  0  0  0  0  0  0  0  0
    6.2145   -8.0290    5.2701 H   0  0  0  0  0  0  0  0  0  0  0  0
   -1.0172   -6.3129    6.3021 H   0  0  0  0  0  0  0  0  0  0  0  0
   -2.7418   -0.9467   -3.2789 H   0  0  0  0  0  0  0  0  0  0  0  0
   -2.5299    1.1565   -4.6040 H   0  0  0  0  0  0  0  0  0  0  0  0
   -1.4850    3.1382   -3.6843 H   0  0  0  0  0  0  0  0  0  0  0  0
   -7.0963    7.5155   -4.0503 H   0  0  0  0  0  0  0  0  0  0  0  0
   -5.7866    8.4272   -3.2386 H   0  0  0  0  0  0  0  0  0  0  0  0
   -6.4354    6.9282   -2.5110 H   0  0  0  0  0  0  0  0  0  0  0  0
  1 56  1  0  0  0  0
  1  2  1  0  0  0  0
  2 54  1  0  0  0  0
  2  3  1  0  0  0  0
  3 58  1  0  0  0  0
  3  4  1  0  0  0  0
  4  5  1  0  0  0  0
  4 61  1  0  0  0  0
  5 62  1  0  0  0  0
  6  7  1  0  0  0  0
  7 64  1  0  0  0  0
  8  9  1  6  0  0  0
  8 10  1  0  0  0  0
  8  7  1  0  0  0  0
  8 14  1  0  0  0  0
 10 65  1  0  0  0  0
 11 12  1  0  0  0  0
 11 10  1  0  0  0  0
 12 68  1  0  0  0  0
 12 66  1  0  0  0  0
 13 11  2  0  0  0  0
 14 15  1  0  0  0  0
 14 17  2  0  0  0  0
 15 16  1  0  0  0  0
 16 72  1  0  0  0  0
 18  5  2  0  0  0  0
 18 19  1  0  0  0  0
 19 20  1  0  0  0  0
 19 53  2  0  0  0  0
 20 74  1  0  0  0  0
 21 20  1  0  0  0  0
 21 22  1  0  0  0  0
 22 75  1  0  0  0  0
 23 22  2  0  0  0  0
 23 24  1  0  0  0  0
 24 25  1  0  0  0  0
 25 77  1  0  0  0  0
 25 76  1  0  0  0  0
 25 26  1  0  0  0  0
 26 79  1  0  0  0  0
 27 30  1  0  0  0  0
 27 80  1  1  0  0  0
 27 26  1  0  0  0  0
 28 27  1  0  0  0  0
 29 84  1  0  0  0  0
 29 24  1  0  0  0  0
 29 28  1  0  0  0  0
 30 31  1  0  0  0  0
 31 49  2  0  0  0  0
 31 32  1  0  0  0  0
 32 48  2  0  0  0  0
 32 33  1  0  0  0  0
 33 34  1  0  0  0  0
 33 45  2  0  0  0  0
 34 35  1  0  0  0  0
 35 36  1  0  0  0  0
 35 44  2  0  0  0  0
 36 37  1  0  0  0  0
 37 39  2  0  0  0  0
 37 38  1  0  0  0  0
 39 87  1  0  0  0  0
 40 88  1  0  0  0  0
 40 39  1  0  0  0  0
 41 40  2  0  0  0  0
 42 41  1  0  0  0  0
 42 36  2  0  0  0  0
 43 42  1  0  0  0  0
 45 90  1  0  0  0  0
 46 47  1  0  0  0  0
 46 45  1  0  0  0  0
 48 46  1  0  0  0  0
 50 23  1  0  0  0  0
 51 52  1  0  0  0  0
 51 50  2  0  0  0  0
 52 21  2  0  0  0  0
 54 95  1  0  0  0  0
 54 96  1  0  0  0  0
 55  1  1  0  0  0  0
 57  1  1  0  0  0  0
 59  3  1  0  0  0  0
 60  4  1  0  0  0  0
 63  7  1  0  0  0  0
 67 12  1  0  0  0  0
 69 15  1  0  0  0  0
 70 16  1  0  0  0  0
 71 16  1  0  0  0  0
 73 18  1  0  0  0  0
 78 26  1  0  0  0  0
 81 28  1  0  0  0  0
 82 28  1  0  0  0  0
 83 29  1  0  0  0  0
 85 30  1  0  0  0  0
 86 34  1  0  0  0  0
 89 41  1  0  0  0  0
 91 50  1  0  0  0  0
 92 51  1  0  0  0  0
 93 52  1  0  0  0  0
 94 54  1  0  0  0  0
M  END
