96
-1 1
C         3.955924    5.783164   -0.580926
N         4.038304    4.467491    0.002071
C         5.365844    3.887002   -0.155538
C         5.390029    2.374129   -0.008362
C         6.749241    1.698698   -0.090886
S         7.001020    1.749814   -2.373239
C         8.805135    1.805519   -2.465976
C         9.410792    2.950121   -3.309030
H         8.836255    3.026639   -4.248396
N        10.799380    2.703636   -3.621336
C        11.214750    1.823455   -4.558486
C        12.721985    1.757561   -4.751875
O        10.462480    1.102913   -5.192379
C         9.383610    4.312895   -2.596983
N         8.176472    4.693117   -2.142057
C         8.009783    5.870715   -1.330918
O        10.401588    4.984620   -2.476342
C         7.875718    2.217477    0.567428
C         8.811378    1.558523    1.431874
N         8.762863    0.151684    1.697729
C         8.545062   -0.991892    0.951440
C         8.453891   -2.219195    1.645006
C         8.251881   -3.427294    0.975421
N         8.138513   -4.659880    1.669606
C         7.868260   -4.619257    3.091678
C         7.340807   -5.965488    3.577883
C         8.297731   -7.114045    3.240776
C         8.642433   -7.062986    1.750153
C         9.109317   -5.677423    1.313109
N         9.532352   -7.049307    4.020845
C         9.810519   -7.473881    5.270524
C         8.791144   -8.186197    6.090391
C         9.064803   -8.696883    7.391557
N        10.287889   -8.599649    8.039524
C        10.537111   -9.092321    9.274942
C        11.948714   -8.837752    9.758952
C        12.268653   -7.683648   10.479560
Cl        11.030954   -6.490044   10.765137
C        13.551439   -7.459020   10.972014
C        14.541182   -8.410084   10.741818
C        14.257559   -9.571145   10.028326
C        12.966797   -9.771101    9.546636
Cl        12.613981  -11.223267    8.647323
O         9.729173   -9.686969    9.959678
C         7.878948   -9.267275    7.810509
N         7.008482   -9.069332    6.784351
H         6.038152   -9.352665    6.752337
N         7.525985   -8.429142    5.753848
O        10.926827   -7.293890    5.762038
C         8.130858   -3.418975   -0.424355
C         8.240564   -2.215057   -1.110390
C         8.454473   -1.011285   -0.446088
O         9.620271    2.169101    2.131224
C         3.575547    4.468482    1.368342
H         4.229957    5.745453   -1.646479
H         4.624694    6.527172   -0.085527
H         2.925516    6.168184   -0.511426
H         6.089484    4.354268    0.548446
H         5.706072    4.125319   -1.172462
H         4.704738    1.942715   -0.755832
H         4.989147    2.094547    0.982818
H         6.623459    0.614792   -0.018983
H         9.175863    0.869128   -2.904345
H         9.182318    1.888956   -1.423786
H        11.432528    3.390177   -3.219502
H        13.259597    2.603962   -4.302184
H        12.935464    1.711740   -5.828111
H        13.091286    0.825069   -4.299637
H         7.448324    3.967219   -2.161096
H         7.018132    6.312807   -1.505275
H         8.785497    6.599912   -1.598407
H         8.106130    5.646992   -0.254585
H         8.025790    3.300138    0.593919
H         9.258924   -0.004767    2.567878
H         8.548311   -2.197575    2.732097
H         7.114990   -3.842949    3.285113
H         8.771882   -4.341091    3.681263
H         6.374474   -6.167135    3.088400
H         7.161538   -5.941011    4.662755
H         7.808914   -8.067087    3.473074
H         7.734009   -7.317361    1.183048
H         9.408444   -7.818177    1.512539
H         9.266390   -5.669543    0.227392
H        10.106141   -5.444480    1.759913
H        10.314874   -6.545509    3.614366
H        10.991508   -8.095052    7.491334
H        13.765172   -6.544948   11.526254
H        15.550494   -8.242359   11.121999
H        15.027190  -10.319864    9.840008
H         7.620981   -9.773236    8.733756
H         7.923799   -4.347468   -0.960317
H         8.148767   -2.198873   -2.199129
H         8.549485   -0.091209   -1.011426
H         2.538998    4.839208    1.417878
H         4.198465    5.108322    2.037379
H         3.582790    3.451280    1.784031
