96
-1 1
C        -5.002445    8.745286   -2.670853
N        -4.843800    7.376603   -2.247868
C        -3.609431    6.796379   -2.762482
C        -3.561807    5.277367   -2.690664
C        -2.260827    4.627221   -3.195873
S        -2.374500    4.760137   -5.133941
C        -0.640212    4.758611   -5.652532
C        -0.238038    5.935919   -6.568090
H        -1.031916    6.083213   -7.320845
N         1.006259    5.667463   -7.246276
C         1.111061    4.838412   -8.309105
C         2.507879    4.718506   -8.895418
O         0.173748    4.201417   -8.759107
C        -0.023639    7.255605   -5.804020
N        -1.086351    7.689347   -5.100492
C        -0.995432    8.806534   -4.194227
O         1.043707    7.851376   -5.864921
C        -0.998992    5.112444   -2.621111
C        -0.246132    4.465499   -1.629108
N        -0.582196    3.079046   -1.279850
C        -0.500210    1.937262   -2.040503
C        -0.559185    0.681868   -1.388468
C        -0.517216   -0.518929   -2.096846
N        -0.602699   -1.777326   -1.443172
C        -1.110224   -1.809374   -0.087781
C        -1.557073   -3.219685    0.284964
C        -0.433515   -4.245942    0.102152
C         0.152394   -4.109763   -1.305629
C         0.525271   -2.667678   -1.637789
N         0.635496   -4.072377    1.084393
C         0.742354   -4.502717    2.357748
C        -0.315144   -5.347531    2.980402
C        -0.212902   -5.862330    4.304590
N         0.861975   -5.648982    5.155786
C         0.950743   -6.144441    6.411628
C         2.220434   -5.747415    7.134267
C         2.279850   -4.582502    7.904375
Cl         0.884678   -3.540239    7.977060
C         3.425653   -4.229469    8.612248
C         4.541096   -5.059746    8.552642
C         4.516692   -6.227828    7.795995
C         3.358463   -6.557477    7.097512
Cl         3.331094   -8.018284    6.144806
O         0.111289   -6.843842    6.942302
C        -1.380391   -6.571868    4.505641
N        -2.078320   -6.441900    3.345447
H        -2.990251   -6.829172    3.142529
N        -1.467586   -5.718927    2.426693
O         1.730509   -4.217504    3.038113
C        -0.405071   -0.487724   -3.497352
C        -0.317904    0.742648   -4.140449
C        -0.361511    1.943162   -3.440060
O         0.635678    4.960781   -0.917970
C        -4.976996    7.252459   -0.815799
H        -4.981642    8.809728   -3.769996
H        -4.206554    9.422651   -2.278280
H        -5.972090    9.142133   -2.328676
H        -2.720671    7.218473   -2.243464
H        -3.536550    7.092691   -3.820474
H        -4.437251    4.874302   -3.231094
H        -3.654063    4.949868   -1.642426
H        -2.368497    3.549740   -3.018139
H        -0.435505    3.830805   -6.201841
H        -0.046241    4.782702   -4.718228
H         1.763573    6.286993   -6.969882
H         3.189207    5.516380   -8.568877
H         2.429936    4.721239   -9.990616
H         2.931099    3.748717   -8.594035
H        -1.849744    7.017049   -4.992160
H        -1.972054    9.305406   -4.117333
H        -0.252103    9.517275   -4.577316
H        -0.683505    8.489845   -3.184414
H        -0.730921    6.165332   -2.746519
H        -0.289992    2.940365   -0.318325
H        -0.635117    0.677870   -0.299406
H        -1.966606   -1.124546   -0.016366
H        -0.355360   -1.453379    0.650561
H        -2.397924   -3.510163   -0.365181
H        -1.918031   -3.249920    1.323630
H        -0.843601   -5.253715    0.234250
H        -0.611222   -4.444214   -2.024418
H         1.028530   -4.768534   -1.415967
H         0.863847   -2.606601   -2.679498
H         1.397583   -2.340107   -1.021446
H         1.412022   -3.470916    0.825946
H         1.586658   -5.054313    4.741160
H         3.436707   -3.310756    9.198950
H         5.444897   -4.790575    9.102250
H         5.386669   -6.882375    7.740365
H        -1.734505   -7.129480    5.365041
H        -0.419624   -1.417539   -4.069553
H        -0.227884    0.775174   -5.229629
H        -0.280015    2.891521   -3.961916
H        -5.953154    7.647900   -0.491859
H        -4.183352    7.801380   -0.256804
H        -4.928272    6.198765   -0.508911
