82
-1 1
C         0.143475   -4.682494   -1.562298
C         0.389313   -3.280666   -1.056599
S        -1.887243   -2.609412   -1.046750
C        -1.812451   -1.610953    0.442321
C        -1.991672   -0.097016    0.250176
H        -1.719206    0.402544    1.199064
N        -3.345109    0.278812   -0.074818
C        -4.341161    0.295182    0.824131
C        -5.715609    0.627606    0.277240
O        -4.178396    0.037848    2.012914
C        -1.093053    0.478419   -0.849378
N         0.212380    0.142618   -0.745939
C         1.129967    0.446607   -1.814947
O        -1.528031    1.213993   -1.721417
C         1.119517   -2.973207    0.101963
C         1.595718   -3.846168    1.152834
N         0.923269   -5.066577    1.401180
C        -0.446897   -5.204359    1.712221
C        -1.150752   -4.186423    2.355463
C        -2.512457   -4.331384    2.679257
N        -3.196136   -3.332539    3.339984
C        -4.625499   -3.380831    3.585581
C        -4.916933   -2.059916    4.300819
C        -3.589048   -1.753118    5.000646
H        -3.507122   -0.698832    5.293507
C        -2.575530   -2.160390    3.935843
N        -3.395968   -2.574177    6.188140
C        -3.877944   -2.252033    7.396451
C        -3.640508   -3.252200    8.470677
C        -4.042882   -3.101792    9.821352
N        -4.713723   -1.987423   10.310069
C        -5.099894   -1.834574   11.596290
C        -5.811850   -0.526276   11.869736
C        -7.202574   -0.425083   11.776667
Cl        -8.123722   -1.816343   11.269977
C        -7.873858    0.758301   12.072307
C        -7.139817    1.870754   12.473369
C        -5.753466    1.805610   12.578015
C        -5.106930    0.609952   12.276471
Cl        -3.370020    0.531560   12.403948
O        -4.910461   -2.648722   12.478076
C        -3.622128   -4.258785   10.448850
N        -3.021960   -4.993643    9.472119
H        -2.594721   -5.904244    9.576655
N        -3.022218   -4.411700    8.285075
O        -4.477141   -1.207784    7.654395
C        -3.156103   -5.538120    2.337347
C        -2.438170   -6.558478    1.721247
C        -1.092207   -6.411075    1.407290
O         2.623206   -3.626052    1.791381
H        -0.401903   -4.650361   -2.516816
H        -0.448834   -5.281782   -0.862122
H         1.108267   -5.194585   -1.723630
H         0.561387   -2.565608   -1.864706
H        -0.823496   -1.802479    0.915035
H        -2.567107   -1.947177    1.165902
H        -3.485983    0.577648   -1.034089
H        -6.296962   -0.304647    0.219048
H        -5.686610    1.084710   -0.721306
H        -6.224833    1.299088    0.980969
H         0.436735   -0.653164   -0.154701
H         1.093169    1.519107   -2.052820
H         0.886167   -0.110741   -2.735887
H         2.148427    0.183086   -1.499728
H         1.694865   -2.040986    0.104727
H         1.521448   -5.671929    1.955160
H        -0.622521   -3.262981    2.588234
H        -4.892757   -4.250435    4.219877
H        -5.192678   -3.478097    2.644075
H        -5.757065   -2.118878    5.006109
H        -5.103700   -1.262660    3.567869
H        -1.594117   -2.402458    4.374547
H        -2.449736   -1.336901    3.213224
H        -2.960038   -3.485858    6.087816
H        -4.893637   -1.278887    9.591982
H        -8.959545    0.800545   11.983506
H        -7.656076    2.804202   12.704889
H        -5.169451    2.672570   12.887392
H        -3.710681   -4.583010   11.479548
H        -4.214243   -5.681850    2.555502
H        -2.952782   -7.489029    1.466873
H        -0.536596   -7.199970    0.896913
