82
-1 1
C         3.454397   -2.394678   -6.838755
C         3.389730   -1.046130   -6.125908
S         1.437266   -0.691021   -6.078141
C         1.283417    0.309119   -4.595309
C         1.058202    1.812555   -4.790163
H         1.199587    2.293815   -3.803785
N        -0.265279    2.138643   -5.260105
C        -1.352704    2.083153   -4.470913
C        -2.668759    2.436125   -5.135258
O        -1.305522    1.747487   -3.293367
C         2.049845    2.462797   -5.760433
N         3.344989    2.171549   -5.530825
C         4.365995    2.604912   -6.451991
O         1.675814    3.215158   -6.648932
C         4.156032   -0.849958   -4.882949
C         4.591405   -1.817132   -3.937480
N         3.874924   -3.065147   -3.866385
C         2.534597   -3.215122   -3.490888
C         1.860584   -2.236926   -2.754274
C         0.506400   -2.383249   -2.406270
N        -0.152105   -1.406312   -1.682829
C        -1.583766   -1.426570   -1.447308
C        -1.857341   -0.098621   -0.735680
C        -0.517583    0.209557   -0.059151
H        -0.424296    1.266288    0.221873
C         0.476680   -0.219255   -1.133319
N        -0.311450   -0.597830    1.134658
C        -0.766257   -0.253064    2.346978
C        -0.521877   -1.240790    3.430805
C        -0.898331   -1.066587    4.786141
N        -1.547534    0.062633    5.270283
C        -1.912867    0.237386    6.559663
C        -2.604753    1.558052    6.825651
C        -3.995110    1.676253    6.748604
Cl        -4.940497    0.291276    6.270063
C        -4.647434    2.871612    7.038546
C        -3.894245    3.979076    7.417286
C        -2.507634    3.897167    7.505407
C        -1.880293    2.689776    7.210050
Cl        -0.143128    2.590612    7.316735
O        -1.720572   -0.566818    7.449923
C        -0.479892   -2.219512    5.422560
N         0.094081   -2.975068    4.445860
H         0.513556   -3.888684    4.555739
N         0.079359   -2.410007    3.250941
O        -1.347260    0.802789    2.600868
C        -0.166025   -3.560410   -2.791727
C         0.523468   -4.550630   -3.487733
C         1.856849   -4.395541   -3.842831
O         5.583052   -1.712156   -3.206685
H         2.880628   -2.368299   -7.780315
H         3.056708   -3.202555   -6.213134
H         4.503976   -2.630805   -7.077117
H         3.706548   -0.272987   -6.839391
H         2.226362    0.132980   -4.038426
H         0.463406   -0.085193   -3.982133
H        -0.294911    2.543064   -6.191232
H        -3.249289    1.510544   -5.262586
H        -2.546614    2.913660   -6.116919
H        -3.236415    3.097252   -4.467060
H         3.562338    1.366198   -4.940363
H         4.423837    3.703383   -6.487248
H         4.166788    2.247151   -7.475923
H         5.332589    2.205610   -6.118560
H         4.838223    0.008721   -4.873682
H         4.481326   -3.776845   -3.471332
H         2.414282   -1.342775   -2.472787
H        -1.872428   -2.293017   -0.819005
H        -2.147911   -1.508186   -2.392680
H        -2.686064   -0.147908   -0.016219
H        -2.058798    0.686714   -1.477083
H         1.468593   -0.443954   -0.710144
H         0.585957    0.587022   -1.879201
H         0.109735   -1.516722    1.035162
H        -1.730231    0.763311    4.545173
H        -5.733537    2.926778    6.962872
H        -4.395573    4.921743    7.644272
H        -1.908691    4.760007    7.797272
H        -0.553458   -2.528473    6.459080
H        -1.217604   -3.706609   -2.544720
H        -0.008365   -5.461493   -3.777178
H         2.380462   -5.157882   -4.423463
