-1 1
 OpenBabel05232414493D

 85 88  0  0  1  0  0  0  0  0999 V2000
    4.4620   -4.2627    1.7629 C   0  0  0  0  0  0  0  0  0  0  0  0
    3.3630   -5.1571    1.2263 C   0  0  1  0  0  0  0  0  0  0  0  0
    1.9322   -5.1363    2.9595 S   0  0  0  0  0  0  0  0  0  0  0  0
    2.5969   -6.5658    3.8634 C   0  0  0  0  0  0  0  0  0  0  0  0
    1.7296   -7.8429    3.8199 C   0  0  2  0  0  0  0  0  0  0  0  0
    0.7029   -7.5531    4.1022 H   0  0  0  0  0  0  0  0  0  0  0  0
    2.2135   -8.8475    4.7382 N   0  0  0  0  0  0  0  0  0  0  0  0
    2.0182   -8.7989    6.0750 C   0  0  0  0  0  0  0  0  0  0  0  0
    2.5359  -10.0030    6.8462 C   0  0  0  0  0  0  0  0  0  0  0  0
    1.4829   -7.8644    6.6460 O   0  0  0  0  0  0  0  0  0  0  0  0
    1.6932   -8.5262    2.4410 C   0  0  0  0  0  0  0  0  0  0  0  0
    1.2045   -7.7841    1.4339 N   0  0  0  0  0  0  0  0  0  0  0  0
    1.2015   -8.2752    0.0782 C   0  0  0  0  0  0  0  0  0  0  0  0
    2.0799   -9.6826    2.3015 O   0  0  0  0  0  0  0  0  0  0  0  0
    2.7775   -4.9782   -0.0526 C   0  0  0  0  0  3  0  0  0  0  0  0
    2.8229   -3.8845   -0.9595 C   0  0  0  0  0  0  0  0  0  0  0  0
    3.2195   -2.5768   -0.4906 N   0  0  0  0  0  0  0  0  0  0  0  0
    2.6011   -1.8096    0.4730 C   0  0  0  0  0  0  0  0  0  0  0  0
    2.9850   -0.4611    0.6223 C   0  0  0  0  0  0  0  0  0  0  0  0
    2.3798    0.3259    1.5944 C   0  0  0  0  0  0  0  0  0  0  0  0
    2.8257    2.0396    1.6969 S   0  0  0  0  0  0  0  0  0  0  0  0
    3.9931    2.2699    0.8419 O   0  0  0  0  0  0  0  0  0  0  0  0
    1.4783    2.7669    1.0318 N   0  0  0  0  0  0  0  0  0  0  0  0
    1.1708    2.5198   -0.3854 C   0  0  0  0  0  0  0  0  0  0  0  0
    0.6548    3.8682   -0.8869 C   0  0  0  0  0  0  0  0  0  0  0  0
    0.1228    4.5427    0.3830 C   0  0  1  0  0  0  0  0  0  0  0  0
   -0.8661    4.1366    0.6385 H   0  0  0  0  0  0  0  0  0  0  0  0
    1.1445    4.1245    1.4461 C   0  0  0  0  0  0  0  0  0  0  0  0
   -0.0366    5.9705    0.2800 N   0  0  0  0  0  0  0  0  0  0  0  0
   -1.2225    6.6035    0.3909 C   0  0  0  0  0  0  0  0  0  0  0  0
   -1.1670    8.0783    0.2383 C   0  0  0  0  0  0  0  0  0  0  0  0
   -2.2813    8.9496    0.3253 C   0  0  0  0  0  0  0  0  0  0  0  0
   -3.5831    8.5325    0.5669 N   0  0  0  0  0  0  0  0  0  0  0  0
   -4.6453    9.3692    0.6540 C   0  0  0  0  0  0  0  0  0  0  0  0
   -5.9563    8.6653    0.9297 C   0  0  0  0  0  0  0  0  0  0  0  0
   -6.4011    8.4510    2.2373 C   0  0  0  0  0  0  0  0  0  0  0  0
   -5.3924    8.9478    3.5696 Cl  0  0  0  0  0  0  0  0  0  0  0  0
   -7.6262    7.8460    2.5045 C   0  0  0  0  0  0  0  0  0  0  0  0
   -8.4294    7.4452    1.4407 C   0  0  0  0  0  0  0  0  0  0  0  0
   -8.0177    7.6435    0.1259 C   0  0  0  0  0  0  0  0  0  0  0  0
   -6.7883    8.2509   -0.1139 C   0  0  0  0  0  0  0  0  0  0  0  0
   -6.2696    8.4935   -1.7610 Cl  0  0  0  0  0  0  0  0  0  0  0  0
   -4.5823   10.5748    0.5273 O   0  0  0  0  0  0  0  0  0  0  0  0
   -1.7577   10.2128    0.1224 C   0  0  0  0  0  0  0  0  0  0  0  0
   -0.4232   10.0198   -0.0648 N   0  0  0  0  0  0  0  0  0  0  0  0
    0.2707   10.7347   -0.2391 H   0  0  0  0  0  0  0  0  0  0  0  0
   -0.0487    8.7545    0.0001 N   0  0  0  0  0  0  0  0  0  0  0  0
   -2.2940    6.0441    0.6023 O   0  0  0  0  0  0  0  0  0  0  0  0
    2.8618    2.5014    3.0821 O   0  0  0  0  0  0  0  0  0  0  0  0
    1.4059   -0.1664    2.4636 C   0  0  0  0  0  0  0  0  0  0  0  0
    1.0292   -1.4979    2.3074 C   0  0  0  0  0  0  0  0  0  0  0  0
    1.5948   -2.3023    1.3239 C   0  0  0  0  0  0  0  0  0  0  0  0
    2.6103   -3.9610   -2.1697 O   0  0  0  0  0  0  0  0  0  0  0  0
    5.2819   -4.2040    1.0278 H   0  0  0  0  0  0  0  0  0  0  0  0
    4.8578   -4.6645    2.7065 H   0  0  0  0  0  0  0  0  0  0  0  0
    4.1150   -3.2418    1.9628 H   0  0  0  0  0  0  0  0  0  0  0  0
    3.5671   -6.2164    1.4252 H   0  0  0  0  0  0  0  0  0  0  0  0
    2.7000   -6.2934    4.9221 H   0  0  0  0  0  0  0  0  0  0  0  0
    3.6071   -6.8054    3.4833 H   0  0  0  0  0  0  0  0  0  0  0  0
    2.5349   -9.6939    4.2741 H   0  0  0  0  0  0  0  0  0  0  0  0
    1.7150  -10.4073    7.4548 H   0  0  0  0  0  0  0  0  0  0  0  0
    3.3196   -9.6626    7.5381 H   0  0  0  0  0  0  0  0  0  0  0  0
    2.9422  -10.7975    6.2052 H   0  0  0  0  0  0  0  0  0  0  0  0
    1.0869   -6.7801    1.6200 H   0  0  0  0  0  0  0  0  0  0  0  0
    0.8336   -9.3107    0.0567 H   0  0  0  0  0  0  0  0  0  0  0  0
    2.2095   -8.2647   -0.3699 H   0  0  0  0  0  0  0  0  0  0  0  0
    0.5462   -7.6415   -0.5329 H   0  0  0  0  0  0  0  0  0  0  0  0
    2.3375   -5.8627   -0.5184 H   0  0  0  0  0  0  0  0  0  0  0  0
    3.5682   -2.0420   -1.2791 H   0  0  0  0  0  0  0  0  0  0  0  0
    3.7632   -0.0326   -0.0124 H   0  0  0  0  0  0  0  0  0  0  0  0
    0.4111    1.7259   -0.4678 H   0  0  0  0  0  0  0  0  0  0  0  0
    2.0644    2.1920   -0.9372 H   0  0  0  0  0  0  0  0  0  0  0  0
   -0.1094    3.7757   -1.6703 H   0  0  0  0  0  0  0  0  0  0  0  0
    1.4870    4.4686   -1.2901 H   0  0  0  0  0  0  0  0  0  0  0  0
    0.7348    4.1443    2.4646 H   0  0  0  0  0  0  0  0  0  0  0  0
    2.0182    4.8045    1.4155 H   0  0  0  0  0  0  0  0  0  0  0  0
    0.7756    6.5510    0.0953 H   0  0  0  0  0  0  0  0  0  0  0  0
   -3.6785    7.5209    0.6803 H   0  0  0  0  0  0  0  0  0  0  0  0
   -7.9388    7.6908    3.5372 H   0  0  0  0  0  0  0  0  0  0  0  0
   -9.3904    6.9674    1.6397 H   0  0  0  0  0  0  0  0  0  0  0  0
   -8.6385    7.3290   -0.7131 H   0  0  0  0  0  0  0  0  0  0  0  0
   -2.2346   11.1863    0.1025 H   0  0  0  0  0  0  0  0  0  0  0  0
    0.9684    0.4721    3.2315 H   0  0  0  0  0  0  0  0  0  0  0  0
    0.2763   -1.9332    2.9676 H   0  0  0  0  0  0  0  0  0  0  0  0
    1.2641   -3.3340    1.2066 H   0  0  0  0  0  0  0  0  0  0  0  0
  1 56  1  0  0  0  0
  1 55  1  0  0  0  0
  2 57  1  6  0  0  0
  2  1  1  0  0  0  0
  2  3  1  0  0  0  0
  3  4  1  0  0  0  0
  4 58  1  0  0  0  0
  5  4  1  0  0  0  0
  5  6  1  1  0  0  0
  5  7  1  0  0  0  0
  7  8  1  0  0  0  0
  8 10  2  0  0  0  0
  8  9  1  0  0  0  0
  9 61  1  0  0  0  0
  9 62  1  0  0  0  0
 11  5  1  0  0  0  0
 12 64  1  0  0  0  0
 12 11  1  0  0  0  0
 13 12  1  0  0  0  0
 14 11  2  0  0  0  0
 15  2  1  0  0  0  0
 16 17  1  0  0  0  0
 16 15  1  0  0  0  0
 17 18  1  0  0  0  0
 18 19  2  0  0  0  0
 18 52  1  0  0  0  0
 19 20  1  0  0  0  0
 20 21  1  0  0  0  0
 20 50  2  0  0  0  0
 21 49  2  0  0  0  0
 22 21  2  0  0  0  0
 23 28  1  0  0  0  0
 23 21  1  0  0  0  0
 24 23  1  0  0  0  0
 25 24  1  0  0  0  0
 25 26  1  0  0  0  0
 26 27  1  1  0  0  0
 26 28  1  0  0  0  0
 28 75  1  0  0  0  0
 29 26  1  0  0  0  0
 29 30  1  0  0  0  0
 30 48  2  0  0  0  0
 31 32  1  0  0  0  0
 31 30  1  0  0  0  0
 32 33  1  0  0  0  0
 33 34  1  0  0  0  0
 33 78  1  0  0  0  0
 34 35  1  0  0  0  0
 35 36  1  0  0  0  0
 36 38  2  0  0  0  0
 36 37  1  0  0  0  0
 38 79  1  0  0  0  0
 39 80  1  0  0  0  0
 39 38  1  0  0  0  0
 40 39  2  0  0  0  0
 41 40  1  0  0  0  0
 41 35  2  0  0  0  0
 42 41  1  0  0  0  0
 43 34  2  0  0  0  0
 44 32  2  0  0  0  0
 45 47  1  0  0  0  0
 45 44  1  0  0  0  0
 46 45  1  0  0  0  0
 47 31  2  0  0  0  0
 50 83  1  0  0  0  0
 51 50  1  0  0  0  0
 51 84  1  0  0  0  0
 52 51  2  0  0  0  0
 53 16  2  0  0  0  0
 54  1  1  0  0  0  0
 59  4  1  0  0  0  0
 60  7  1  0  0  0  0
 63  9  1  0  0  0  0
 65 13  1  0  0  0  0
 66 13  1  0  0  0  0
 67 13  1  0  0  0  0
 68 15  1  0  0  0  0
 69 17  1  0  0  0  0
 70 19  1  0  0  0  0
 71 24  1  0  0  0  0
 72 24  1  0  0  0  0
 73 25  1  0  0  0  0
 74 25  1  0  0  0  0
 76 28  1  0  0  0  0
 77 29  1  0  0  0  0
 81 40  1  0  0  0  0
 82 44  1  0  0  0  0
 85 52  1  0  0  0  0
M  END
