85
-1 1
C         4.384965   -5.837239    0.560667
C         3.300252   -6.750317    0.001826
S         2.008771   -7.087294    1.402109
C         2.854550   -8.338022    2.416247
C         2.380844   -9.791693    2.193148
H         1.284402   -9.806271    2.310697
N         2.975276  -10.686788    3.155938
C         2.568181  -10.774421    4.442765
C         3.290072  -11.815881    5.280764
O         1.694868  -10.068874    4.917767
C         2.751728  -10.355123    0.809908
N         2.099415   -9.807102   -0.232023
C         2.458005  -10.094786   -1.601095
O         3.581149  -11.251124    0.705848
C         2.614453   -6.391249   -1.256491
C         2.633832   -5.238962   -2.044386
N         3.229995   -4.006844   -1.490613
C         2.636649   -3.186634   -0.568347
C         3.022566   -1.828862   -0.489294
C         2.449901   -0.997006    0.464517
S         2.903289    0.716980    0.473467
O         4.060199    0.905166   -0.406534
N         1.546715    1.415451   -0.208956
C         1.205269    1.067502   -1.598351
C         0.743815    2.391630   -2.205724
C         0.260996    3.192961   -0.991552
H        -0.741842    2.857171   -0.692227
C         1.278185    2.817097    0.091538
N         0.167188    4.613538   -1.212498
C        -0.980343    5.315385   -1.119628
C        -0.855819    6.767872   -1.397912
C        -1.921787    7.700518   -1.353707
N        -3.234483    7.373077   -1.042253
C        -4.251230    8.267370   -1.002249
C        -5.587225    7.657858   -0.636331
C        -6.012008    7.591648    0.693542
Cl        -4.950902    8.163108    1.953337
C        -7.257822    7.075831    1.040056
C        -8.103140    6.615480    0.034652
C        -7.712564    6.666928   -1.300346
C        -6.461469    7.187218   -1.619912
Cl        -5.969752    7.245884   -3.291800
O        -4.132894    9.453191   -1.233484
C        -1.343018    8.913665   -1.676815
N        -0.026321    8.636303   -1.883947
H         0.696373    9.296906   -2.137488
N         0.286417    7.362819   -1.723038
O        -2.071450    4.834086   -0.829633
O         2.962379    1.250160    1.832855
C         1.494617   -1.438767    1.380371
C         1.112272   -2.776562    1.294562
C         1.655693   -3.632444    0.343931
O         2.241531   -5.121774   -3.212705
H         5.139936   -5.641154   -0.215273
H         4.881509   -6.311571    1.421982
H         3.985866   -4.872727    0.897598
H         3.736205   -7.759248   -0.101276
H         2.671134   -8.101694    3.472844
H         3.940287   -8.270965    2.240021
H         3.640652  -11.339062    2.748466
H         2.540121  -12.466907    5.750914
H         3.829179  -11.300458    6.088585
H         3.999826  -12.428509    4.708194
H         1.573385   -8.952689   -0.036291
H         2.962709  -11.068151   -1.633461
H         3.132378   -9.324974   -2.011122
H         1.555594  -10.129008   -2.227609
H         2.099019   -7.217434   -1.757127
H         3.635964   -3.492811   -2.266154
H         3.777774   -1.430027   -1.169543
H         0.409524    0.305682   -1.604289
H         2.072361    0.652127   -2.132679
H        -0.034331    2.269461   -2.971189
H         1.596878    2.917139   -2.665949
H         0.885062    2.941246    1.109302
H         2.180649    3.451942   -0.006632
H         1.000994    5.133049   -1.468411
H        -3.375371    6.380456   -0.841286
H        -7.553745    7.035452    2.088453
H        -9.080873    6.206770    0.296044
H        -8.366502    6.304903   -2.093854
H        -1.772010    9.905339   -1.765819
H         1.076585   -0.760942    2.124833
H         0.366758   -3.171601    1.988614
H         1.327877   -4.670290    0.289236
