85
-1 1
C        -0.858182   -1.875413   -2.291757
C        -0.182002   -1.710175   -0.946753
S        -1.614874   -2.852783    0.331248
C        -1.598145   -1.776645    1.800153
C        -1.119911   -2.409601    3.123178
H        -1.778758   -3.269141    3.339564
N        -1.178860   -1.468021    4.223454
C        -2.296090   -0.971007    4.796511
C        -2.027238   -0.076299    5.996583
O        -3.426811   -1.168301    4.376062
C         0.335178   -2.929424    3.134434
N         0.607463   -3.920131    2.279022
C         1.910419   -4.544833    2.205841
O         1.146149   -2.476341    3.944505
C         1.178169   -2.090758   -0.876811
C         2.113241   -1.806355    0.154041
N         1.761805   -0.851352    1.164578
C         1.243912    0.420174    1.047531
C         0.665063    1.025931    2.180133
C         0.080398    2.287476    2.119518
C        -0.676360    2.818087    3.314141
N        -2.105356    2.843679    3.073398
C        -2.676275    1.652008    2.447546
C        -4.157254    1.744334    2.773526
C        -4.114359    2.254722    4.210314
H        -3.889686    1.401486    4.861968
C        -2.923026    3.234293    4.211115
N        -5.355858    2.816637    4.687417
C        -5.772266    2.702674    5.959009
C        -7.072379    3.352681    6.270428
C        -7.699836    3.337806    7.541443
N        -7.172964    2.706367    8.660293
C        -7.765315    2.692092    9.876390
C        -6.982660    1.931579   10.925608
C        -6.045527    2.575445   11.737996
Cl        -5.734556    4.274301   11.494400
C        -5.347936    1.896728   12.733350
C        -5.591936    0.539902   12.925318
C        -6.519738   -0.132945   12.135632
C        -7.204236    0.569513   11.147443
Cl        -8.362054   -0.275021   10.155557
O        -8.823811    3.228779   10.135650
C        -8.867780    4.055987    7.369368
N        -8.861061    4.437263    6.062201
H        -9.570738    4.979750    5.588607
N        -7.799183    4.028334    5.388202
O        -5.158259    2.112094    6.846405
C         0.085603    2.992958    0.911164
C         0.666603    2.409304   -0.213314
C         1.239202    1.141580   -0.159629
O         3.198754   -2.377280    0.304741
H        -1.931427   -1.647974   -2.244821
H        -0.738142   -2.904090   -2.666616
H        -0.379692   -1.201237   -3.022132
H        -0.463355   -0.777870   -0.447866
H        -2.619458   -1.421432    1.990237
H        -0.975710   -0.894879    1.590571
H        -0.268450   -1.358073    4.670568
H        -2.968857    0.126531    6.521384
H        -1.605800    0.880816    5.650978
H        -1.301078   -0.528713    6.688229
H        -0.048526   -4.018003    1.493289
H         2.378478   -4.498248    3.198023
H         2.568354   -4.036421    1.482487
H         1.786982   -5.598657    1.915560
H         1.537471   -2.844176   -1.585081
H         2.138996   -1.103012    2.072891
H         0.616362    0.448106    3.107173
H        -0.342809    3.843526    3.552310
H        -0.422678    2.191231    4.200050
H        -2.259916    0.718104    2.866835
H        -2.470304    1.631734    1.367273
H        -4.669298    0.776715    2.691201
H        -4.653436    2.479105    2.115115
H        -2.372482    3.168036    5.169665
H        -3.283011    4.278090    4.123004
H        -5.937782    3.357237    4.056709
H        -6.277568    2.242980    8.479667
H        -4.620108    2.431170   13.344087
H        -5.047409   -0.002766   13.700150
H        -6.713794   -1.196527   12.275251
H        -9.660971    4.303476    8.065671
H        -0.396100    3.971768    0.851128
H         0.671520    2.951260   -1.163146
H         1.668540    0.681831   -1.051118
