-1 1
 OpenBabel05192410563D

 85 88  0  0  1  0  0  0  0  0999 V2000
    2.2908   -2.6930   -7.2521 C   0  0  0  0  0  0  0  0  0  0  0  0
    2.8981   -2.5122   -5.8646 C   0  0  1  0  0  0  0  0  0  0  0  0
    1.6505   -3.4971   -4.6809 S   0  0  0  0  0  0  0  0  0  0  0  0
    1.6780   -2.4572   -3.1852 C   0  0  0  0  0  0  0  0  0  0  0  0
    2.1589   -3.1200   -1.8794 C   0  0  2  0  0  0  0  0  0  0  0  0
    1.5009   -3.9832   -1.6733 H   0  0  0  0  0  0  0  0  0  0  0  0
    2.0954   -2.1894   -0.7722 N   0  0  0  0  0  0  0  0  0  0  0  0
    0.9765   -1.6831   -0.2102 C   0  0  0  0  0  0  0  0  0  0  0  0
    1.2437   -0.7732    0.9780 C   0  0  0  0  0  0  0  0  0  0  0  0
   -0.1522   -1.8859   -0.6336 O   0  0  0  0  0  0  0  0  0  0  0  0
    3.6169   -3.6387   -1.8676 C   0  0  0  0  0  0  0  0  0  0  0  0
    3.9039   -4.6123   -2.7382 N   0  0  0  0  0  0  0  0  0  0  0  0
    5.2282   -5.1925   -2.8366 C   0  0  0  0  0  0  0  0  0  0  0  0
    4.4136   -3.2027   -1.0369 O   0  0  0  0  0  0  0  0  0  0  0  0
    4.3122   -2.8816   -5.8144 C   0  0  0  0  0  3  0  0  0  0  0  0
    5.2723   -2.5150   -4.8659 C   0  0  0  0  0  0  0  0  0  0  0  0
    4.8856   -1.5436   -3.8543 N   0  0  0  0  0  0  0  0  0  0  0  0
    4.4036   -0.2687   -4.0042 C   0  0  0  0  0  0  0  0  0  0  0  0
    3.8826    0.4025   -2.8766 C   0  0  0  0  0  0  0  0  0  0  0  0
    3.2997    1.6617   -2.9727 C   0  0  0  0  0  0  0  0  0  0  0  0
    2.5742    2.2366   -1.7794 C   0  0  0  0  0  0  0  0  0  0  0  0
    1.1359    2.1972   -1.9637 N   0  0  0  0  0  0  0  0  0  0  0  0
    0.5854    0.9674   -2.5281 C   0  0  0  0  0  0  0  0  0  0  0  0
   -0.8910    1.0413   -2.1794 C   0  0  0  0  0  0  0  0  0  0  0  0
   -0.8345    1.6047   -0.7623 C   0  0  1  0  0  0  0  0  0  0  0  0
   -0.5946    0.7792   -0.0818 H   0  0  0  0  0  0  0  0  0  0  0  0
    0.3479    2.5953   -0.8091 C   0  0  0  0  0  0  0  0  0  0  0  0
   -2.0747    2.1706   -0.2873 N   0  0  0  0  0  0  0  0  0  0  0  0
   -2.5117    2.0353    0.9756 C   0  0  0  0  0  0  0  0  0  0  0  0
   -3.8082    2.6960    1.2799 C   0  0  0  0  0  0  0  0  0  0  0  0
   -4.4560    2.6643    2.5403 C   0  0  0  0  0  0  0  0  0  0  0  0
   -3.9558    2.0040    3.6547 N   0  0  0  0  0  0  0  0  0  0  0  0
   -4.5682    1.9746    4.8607 C   0  0  0  0  0  0  0  0  0  0  0  0
   -3.8138    1.1828    5.9074 C   0  0  0  0  0  0  0  0  0  0  0  0
   -2.8791    1.7966    6.7455 C   0  0  0  0  0  0  0  0  0  0  0  0
   -2.5368    3.4942    6.5371 Cl  0  0  0  0  0  0  0  0  0  0  0  0
   -2.2083    1.0891    7.7391 C   0  0  0  0  0  0  0  0  0  0  0  0
   -2.4773   -0.2667    7.9031 C   0  0  0  0  0  0  0  0  0  0  0  0
   -3.4034   -0.9101    7.0873 C   0  0  0  0  0  0  0  0  0  0  0  0
   -4.0608   -0.1791    6.1014 C   0  0  0  0  0  0  0  0  0  0  0  0
   -5.2168   -0.9869    5.0771 Cl  0  0  0  0  0  0  0  0  0  0  0  0
   -5.6234    2.5209    5.1130 O   0  0  0  0  0  0  0  0  0  0  0  0
   -5.6116    3.4012    2.3643 C   0  0  0  0  0  0  0  0  0  0  0  0
   -5.5792    3.8080    1.0653 N   0  0  0  0  0  0  0  0  0  0  0  0
   -6.2740    4.3695    0.5916 H   0  0  0  0  0  0  0  0  0  0  0  0
   -4.5121    3.3984    0.4000 N   0  0  0  0  0  0  0  0  0  0  0  0
   -1.9201    1.4186    1.8602 O   0  0  0  0  0  0  0  0  0  0  0  0
    3.2581    2.3120   -4.2116 C   0  0  0  0  0  0  0  0  0  0  0  0
    3.7831    1.6673   -5.3310 C   0  0  0  0  0  0  0  0  0  0  0  0
    4.3415    0.3952   -5.2452 C   0  0  0  0  0  0  0  0  0  0  0  0
    6.4154   -2.9866   -4.7348 O   0  0  0  0  0  0  0  0  0  0  0  0
    1.2289   -2.4085   -7.2825 H   0  0  0  0  0  0  0  0  0  0  0  0
    2.3776   -3.7407   -7.5837 H   0  0  0  0  0  0  0  0  0  0  0  0
    2.8509   -2.0751   -7.9713 H   0  0  0  0  0  0  0  0  0  0  0  0
    2.6876   -1.4942   -5.5093 H   0  0  0  0  0  0  0  0  0  0  0  0
    0.6551   -2.1100   -2.9908 H   0  0  0  0  0  0  0  0  0  0  0  0
    2.3001   -1.5776   -3.3892 H   0  0  0  0  0  0  0  0  0  0  0  0
    3.0072   -2.0744   -0.3287 H   0  0  0  0  0  0  0  0  0  0  0  0
    0.3034   -0.5732    1.5063 H   0  0  0  0  0  0  0  0  0  0  0  0
    1.6551    0.1831    0.6174 H   0  0  0  0  0  0  0  0  0  0  0  0
    1.9780   -1.2108    1.6704 H   0  0  0  0  0  0  0  0  0  0  0  0
    3.2682   -4.6996   -3.5359 H   0  0  0  0  0  0  0  0  0  0  0  0
    5.6876   -5.1886   -1.8395 H   0  0  0  0  0  0  0  0  0  0  0  0
    5.8693   -4.6207   -3.5296 H   0  0  0  0  0  0  0  0  0  0  0  0
    5.1364   -6.2311   -3.1863 H   0  0  0  0  0  0  0  0  0  0  0  0
    4.6551   -3.6391   -6.5268 H   0  0  0  0  0  0  0  0  0  0  0  0
    5.2972   -1.7608   -2.9524 H   0  0  0  0  0  0  0  0  0  0  0  0
    3.8695   -0.1291   -1.9204 H   0  0  0  0  0  0  0  0  0  0  0  0
    2.8775    3.2851   -1.6114 H   0  0  0  0  0  0  0  0  0  0  0  0
    2.8812    1.6703   -0.8694 H   0  0  0  0  0  0  0  0  0  0  0  0
    1.0315    0.0609   -2.0783 H   0  0  0  0  0  0  0  0  0  0  0  0
    0.7744    0.9069   -3.6099 H   0  0  0  0  0  0  0  0  0  0  0  0
   -1.3852    0.0616   -2.2158 H   0  0  0  0  0  0  0  0  0  0  0  0
   -1.4122    1.7418   -2.8552 H   0  0  0  0  0  0  0  0  0  0  0  0
    0.9263    2.5452    0.1350 H   0  0  0  0  0  0  0  0  0  0  0  0
   -0.0212    3.6357   -0.8991 H   0  0  0  0  0  0  0  0  0  0  0  0
   -2.6429    2.7293   -0.9149 H   0  0  0  0  0  0  0  0  0  0  0  0
   -3.0638    1.5321    3.4799 H   0  0  0  0  0  0  0  0  0  0  0  0
   -1.4816    1.6006    8.3705 H   0  0  0  0  0  0  0  0  0  0  0  0
   -1.9539   -0.8319    8.6764 H   0  0  0  0  0  0  0  0  0  0  0  0
   -3.6170   -1.9726    7.2049 H   0  0  0  0  0  0  0  0  0  0  0  0
   -6.4124    3.6453    3.0531 H   0  0  0  0  0  0  0  0  0  0  0  0
    2.7799    3.2905   -4.2984 H   0  0  0  0  0  0  0  0  0  0  0  0
    3.7489    2.1629   -6.3055 H   0  0  0  0  0  0  0  0  0  0  0  0
    4.7214   -0.1164   -6.1315 H   0  0  0  0  0  0  0  0  0  0  0  0
  1  2  1  0  0  0  0
  2 15  1  0  0  0  0
  2 55  1  1  0  0  0
  2  3  1  0  0  0  0
  3  4  1  0  0  0  0
  4 56  1  0  0  0  0
  4  5  1  0  0  0  0
  5 11  1  0  0  0  0
  5  6  1  1  0  0  0
  5  7  1  0  0  0  0
  7 58  1  0  0  0  0
  7  8  1  0  0  0  0
  8  9  1  0  0  0  0
  9 59  1  0  0  0  0
  9 61  1  0  0  0  0
 10  8  2  0  0  0  0
 11 14  2  0  0  0  0
 12 11  1  0  0  0  0
 13 12  1  0  0  0  0
 13 63  1  0  0  0  0
 15 16  1  0  0  0  0
 16 51  2  0  0  0  0
 16 17  1  0  0  0  0
 17 67  1  0  0  0  0
 18 17  1  0  0  0  0
 18 19  1  0  0  0  0
 19 68  1  0  0  0  0
 20 19  2  0  0  0  0
 20 21  1  0  0  0  0
 21 69  1  0  0  0  0
 21 70  1  0  0  0  0
 22 21  1  0  0  0  0
 22 27  1  0  0  0  0
 23 24  1  0  0  0  0
 23 71  1  0  0  0  0
 23 22  1  0  0  0  0
 24 25  1  0  0  0  0
 25 28  1  0  0  0  0
 25 26  1  1  0  0  0
 27 25  1  0  0  0  0
 27 75  1  0  0  0  0
 28 29  1  0  0  0  0
 29 30  1  0  0  0  0
 29 47  2  0  0  0  0
 30 31  1  0  0  0  0
 31 32  1  0  0  0  0
 32 33  1  0  0  0  0
 33 42  2  0  0  0  0
 33 34  1  0  0  0  0
 34 40  2  0  0  0  0
 34 35  1  0  0  0  0
 35 37  2  0  0  0  0
 36 35  1  0  0  0  0
 37 38  1  0  0  0  0
 37 79  1  0  0  0  0
 38 80  1  0  0  0  0
 39 81  1  0  0  0  0
 39 38  2  0  0  0  0
 40 39  1  0  0  0  0
 41 40  1  0  0  0  0
 43 31  2  0  0  0  0
 43 82  1  0  0  0  0
 44 43  1  0  0  0  0
 45 44  1  0  0  0  0
 46 44  1  0  0  0  0
 46 30  2  0  0  0  0
 48 20  1  0  0  0  0
 49 50  1  0  0  0  0
 49 48  2  0  0  0  0
 50 18  2  0  0  0  0
 52  1  1  0  0  0  0
 53  1  1  0  0  0  0
 54  1  1  0  0  0  0
 57  4  1  0  0  0  0
 60  9  1  0  0  0  0
 62 12  1  0  0  0  0
 64 13  1  0  0  0  0
 65 13  1  0  0  0  0
 66 15  1  0  0  0  0
 72 23  1  0  0  0  0
 73 24  1  0  0  0  0
 74 24  1  0  0  0  0
 76 27  1  0  0  0  0
 77 28  1  0  0  0  0
 78 32  1  0  0  0  0
 83 48  1  0  0  0  0
 84 49  1  0  0  0  0
 85 50  1  0  0  0  0
M  END
