85
-1 1
C         2.290777   -2.692983   -7.252092
C         2.898103   -2.512236   -5.864622
S         1.650468   -3.497088   -4.680922
C         1.677960   -2.457174   -3.185174
C         2.158854   -3.120015   -1.879363
H         1.500931   -3.983171   -1.673256
N         2.095405   -2.189422   -0.772156
C         0.976511   -1.683137   -0.210212
C         1.243676   -0.773222    0.978017
O        -0.152184   -1.885903   -0.633639
C         3.616858   -3.638742   -1.867649
N         3.903947   -4.612341   -2.738172
C         5.228197   -5.192471   -2.836646
O         4.413560   -3.202657   -1.036919
C         4.312154   -2.881599   -5.814377
C         5.272347   -2.514982   -4.865903
N         4.885567   -1.543623   -3.854289
C         4.403634   -0.268676   -4.004220
C         3.882611    0.402472   -2.876555
C         3.299684    1.661693   -2.972731
C         2.574195    2.236588   -1.779373
N         1.135853    2.197157   -1.963741
C         0.585393    0.967366   -2.528134
C        -0.891025    1.041310   -2.179361
C        -0.834521    1.604722   -0.762284
H        -0.594590    0.779171   -0.081767
C         0.347911    2.595320   -0.809146
N        -2.074726    2.170647   -0.287294
C        -2.511718    2.035346    0.975605
C        -3.808191    2.695958    1.279869
C        -4.455976    2.664317    2.540312
N        -3.955838    2.003978    3.654727
C        -4.568185    1.974558    4.860676
C        -3.813805    1.182811    5.907435
C        -2.879106    1.796637    6.745472
Cl        -2.536799    3.494188    6.537147
C        -2.208307    1.089056    7.739148
C        -2.477308   -0.266720    7.903051
C        -3.403387   -0.910117    7.087253
C        -4.060847   -0.179123    6.101413
Cl        -5.216759   -0.986913    5.077137
O        -5.623371    2.520900    5.113041
C        -5.611623    3.401203    2.364291
N        -5.579216    3.807975    1.065259
H        -6.273967    4.369459    0.591638
N        -4.512133    3.398412    0.399997
O        -1.920056    1.418568    1.860179
C         3.258139    2.312038   -4.211634
C         3.783062    1.667280   -5.331038
C         4.341545    0.395177   -5.245176
O         6.415444   -2.986649   -4.734758
H         1.228940   -2.408511   -7.282460
H         2.377582   -3.740698   -7.583745
H         2.850868   -2.075098   -7.971308
H         2.687565   -1.494191   -5.509338
H         0.655055   -2.109976   -2.990784
H         2.300055   -1.577556   -3.389208
H         3.007227   -2.074356   -0.328659
H         0.303445   -0.573170    1.506346
H         1.655086    0.183126    0.617445
H         1.978019   -1.210837    1.670400
H         3.268158   -4.699579   -3.535864
H         5.687605   -5.188638   -1.839457
H         5.869349   -4.620684   -3.529591
H         5.136428   -6.231074   -3.186279
H         4.655055   -3.639141   -6.526840
H         5.297243   -1.760809   -2.952364
H         3.869529   -0.129111   -1.920357
H         2.877460    3.285145   -1.611434
H         2.881213    1.670276   -0.869381
H         1.031529    0.060902   -2.078280
H         0.774354    0.906869   -3.609886
H        -1.385161    0.061636   -2.215840
H        -1.412196    1.741838   -2.855153
H         0.926327    2.545242    0.134982
H        -0.021169    3.635671   -0.899062
H        -2.642937    2.729336   -0.914887
H        -3.063842    1.532142    3.479871
H        -1.481638    1.600578    8.370530
H        -1.953947   -0.831860    8.676400
H        -3.616960   -1.972621    7.204933
H        -6.412380    3.645338    3.053108
H         2.779866    3.290541   -4.298394
H         3.748910    2.162907   -6.305511
H         4.721390   -0.116389   -6.131520
