99
-1 1
C       -14.102560    9.380299   -1.625830
N       -13.363475    8.162553   -1.837825
C       -13.723795    7.125317   -0.880287
C       -12.665424    6.040823   -0.776620
S       -12.646151    5.614205    1.481732
C       -12.108289    7.218104    2.154759
C       -10.594906    7.382966    2.429498
H       -10.234271    6.495011    2.962239
N       -10.335788    8.531680    3.271470
C        -9.866715    8.432731    4.537365
C        -9.464102    9.733086    5.197110
O        -9.755848    7.364905    5.123731
C        -9.764324    7.569675    1.152740
N        -9.585715    6.456300    0.411224
C        -8.925726    6.491121   -0.870506
O        -9.300933    8.665393    0.866127
C       -12.817764    4.918919   -1.614429
C       -11.788473    4.006606   -1.989803
N       -10.739298    3.819538   -0.999143
C       -11.028138    2.961872    0.080163
C       -10.100934    2.829500    1.125088
C       -10.378933    1.982253    2.192232
S        -9.329704    2.015260    3.632013
O        -8.131971    2.778480    3.300294
N       -10.195955    2.916958    4.731385
C       -10.515301    4.293551    4.302820
C       -11.641878    4.870738    5.150917
C       -11.526699    4.549360    6.643722
C       -11.358308    3.025532    6.868921
C       -11.197552    2.253151    5.558720
N       -10.485356    5.321886    7.335246
C       -10.861118    6.575850    7.770072
C        -9.853790    7.250316    8.655408
C        -9.271762    6.667452    9.812936
N        -9.474028    5.346503   10.211820
C        -8.874531    4.745781   11.267268
C        -9.238228    3.280505   11.400345
C        -8.555354    2.294283   10.681140
Cl        -7.280718    2.761728    9.589406
C        -8.869600    0.943444   10.808942
C        -9.886651    0.564492   11.679829
C       -10.584284    1.519079   12.414715
C       -10.252712    2.863010   12.266720
Cl       -11.141677    4.058202   13.173403
O        -8.122222    5.297448   12.042865
C        -8.522825    7.672114   10.389782
N        -8.699416    8.748666    9.579000
H        -8.285606    9.663721    9.690108
N        -9.498719    8.520183    8.544667
O       -11.966182    7.049763    7.607829
C        -9.074365    5.066471    7.021674
O        -9.219159    0.665997    4.183647
C       -11.558526    1.238811    2.261104
C       -12.477142    1.380580    1.226867
C       -12.222926    2.229459    0.153724
O       -11.725057    3.354528   -3.025634
C       -13.406207    7.739347   -3.217520
H       -13.969800    9.734379   -0.591668
H       -15.198623    9.270596   -1.808019
H       -13.734034   10.169779   -2.300587
H       -14.705897    6.657886   -1.122488
H       -13.850872    7.616689    0.092280
H       -11.665635    6.462326   -0.684692
H       -12.621102    7.378931    3.115054
H       -12.431680    8.038750    1.487673
H       -10.170426    9.391140    2.756360
H        -9.659672    9.645324    6.274481
H        -9.990280   10.600821    4.775698
H        -8.381284    9.875990    5.056665
H       -10.181587    5.653160    0.619735
H        -8.374634    7.436441   -0.947178
H        -9.649454    6.430517   -1.699857
H        -8.221355    5.651343   -0.963249
H       -13.769636    4.783786   -2.136445
H        -9.882536    3.530853   -1.466908
H        -9.180198    3.416267    1.127513
H       -10.849142    4.312804    3.250017
H        -9.612670    4.911609    4.386532
H       -12.606619    4.486844    4.784845
H       -11.659426    5.957947    5.012724
H       -12.461806    4.885846    7.106970
H       -12.232984    2.625520    7.404470
H       -10.484212    2.829281    7.508680
H       -12.167358    2.187590    5.030243
H       -10.857313    1.229980    5.757610
H       -10.059586    4.793153    9.590140
H        -8.320570    0.204299   10.225247
H       -10.142186   -0.491505   11.784580
H       -11.385739    1.232048   13.095697
H        -7.909846    7.679927   11.284290
H        -8.984306    4.083493    6.544849
H        -8.451784    5.052879    7.926268
H        -8.694550    5.828013    6.328499
H       -11.744526    0.568697    3.101377
H       -13.409918    0.812803    1.248692
H       -12.955227    2.322839   -0.647731
H       -14.440415    7.499075   -3.561862
H       -12.794375    6.838899   -3.360984
H       -13.012325    8.537754   -3.867022
