99
-1 1
C        -2.089796    3.688081   -6.110307
N        -1.508891    2.371756   -6.138661
C        -2.469726    1.335653   -6.456585
C        -1.906775   -0.026799   -6.191706
S        -2.533894    0.682617   -2.704189
C        -1.904370    2.395557   -2.647647
C        -0.394620    2.537963   -2.364737
H        -0.172630    1.979799   -1.442629
N        -0.011448    3.916531   -2.146470
C        -0.071500    4.506001   -0.938848
C         0.493026    5.912453   -0.862277
O        -0.546712    3.967110    0.053926
C         0.539123    2.001541   -3.459058
N         0.465872    0.672304   -3.648870
C         1.317934   -0.031208   -4.570591
O         1.325137    2.747646   -4.038934
C        -1.824851   -0.996252   -7.110328
C        -1.104449   -2.291625   -6.993651
N        -0.809597   -2.835643   -5.757173
C        -1.426252   -2.704497   -4.495483
C        -0.621487   -2.767008   -3.353229
C        -1.214716   -2.715473   -2.096965
S        -0.182701   -2.857658   -0.645948
O         1.184823   -2.553164   -1.072748
N        -0.693604   -1.702868    0.395191
C        -0.389854   -0.295133    0.094044
C        -1.411346    0.615143    0.769565
C        -1.522266    0.419130    2.291131
C        -1.111096   -1.019066    2.670120
C        -1.473714   -2.023736    1.587755
N        -0.745801    1.363834    3.110308
C        -1.236966    1.677656    4.354217
C        -0.205092    2.165648    5.337824
C         0.968456    1.429269    5.659207
N         1.328187    0.263271    4.995994
C         2.466588   -0.466453    5.123444
C         2.454416   -1.589373    4.101260
C         2.939792   -1.383365    2.804804
Cl         3.760270    0.113618    2.437219
C         2.749708   -2.314660    1.789248
C         2.078347   -3.500016    2.078174
C         1.610861   -3.754812    3.363760
C         1.798511   -2.796146    4.355956
Cl         1.141201   -3.085644    5.949034
O         3.351946   -0.247153    5.919678
C         1.565549    2.124122    6.687150
N         0.744424    3.187914    6.910576
H         0.876475    3.920063    7.594168
N        -0.323529    3.224898    6.121544
O        -2.367726    1.414141    4.716026
C         0.433350    1.992976    2.534004
O        -0.453418   -4.152995   -0.015881
C        -2.589745   -2.568987   -1.942810
C        -3.380678   -2.492277   -3.084245
C        -2.811032   -2.576457   -4.350349
O        -0.681501   -2.841670   -7.995528
C        -0.298848    2.326108   -6.923308
H        -2.969853    3.702651   -5.449703
H        -2.410769    4.046698   -7.117489
H        -1.358445    4.408630   -5.712221
H        -2.841039    1.405615   -7.507316
H        -3.330169    1.463022   -5.777828
H        -1.568789   -0.152406   -5.157079
H        -2.409562    2.947836   -1.840218
H        -2.112754    2.920011   -3.591150
H         0.557620    4.306423   -2.893547
H        -0.278610    6.575207   -0.446694
H         0.826018    6.303968   -1.833092
H         1.339385    5.913251   -0.160402
H        -0.398856    0.234413   -3.282241
H         1.971106    0.695894   -5.070485
H         0.730965   -0.565788   -5.333499
H         1.946029   -0.767819   -4.042801
H        -2.162103   -0.814098   -8.135654
H        -0.140427   -3.593521   -5.843740
H         0.463385   -2.843250   -3.440476
H        -0.476694   -0.139082   -0.991757
H         0.645715   -0.064828    0.398570
H        -2.383718    0.400701    0.301543
H        -1.204329    1.662018    0.506332
H        -2.569368    0.568554    2.584062
H        -1.561111   -1.303021    3.633497
H        -0.013752   -1.070200    2.782064
H        -2.559700   -1.986882    1.380929
H        -1.228645   -3.043831    1.906623
H         0.677789   -0.021948    4.272150
H         3.083055   -2.104274    0.772965
H         1.891744   -4.219251    1.279819
H         1.076167   -4.676849    3.592556
H         2.477581    1.933191    7.242876
H         1.125901    1.236004    2.135024
H         0.966420    2.563736    3.302427
H         0.157451    2.686413    1.726068
H        -3.034830   -2.486615   -0.951223
H        -4.457663   -2.351740   -2.986631
H        -3.441971   -2.522633   -5.238149
H        -0.463179    2.612331   -7.989338
H         0.125875    1.313002   -6.911301
H         0.451784    2.997434   -6.480895
