88
-1 1
O         3.133174    6.260679   -2.680836
C         2.506325    6.219192   -1.638267
N         2.617052    5.063311   -0.867053
C         1.804406    4.402411    0.061697
C         2.288919    3.182982    0.555268
C         1.538421    2.460000    1.476203
S         2.191168    0.911768    2.053274
O         1.311242    0.402977    3.104551
N         2.056056   -0.038869    0.668265
C         0.687889   -0.353572    0.258757
C         0.689204   -0.833912   -1.186830
C         1.632885   -2.028652   -1.378682
C         3.026788   -1.676515   -0.855963
C         2.989632   -1.158078    0.579363
N         1.133660   -3.217921   -0.707064
C         0.201281   -4.022439   -1.251882
C        -0.269760   -5.124970   -0.376997
C        -1.184075   -6.143314   -0.746777
N        -1.725312   -6.229714   -2.032940
C        -2.077012   -7.362134   -2.689522
C        -2.466453   -7.114491   -4.132862
C        -1.500644   -7.054537   -5.141634
Cl         0.183478   -7.207187   -4.717147
C        -1.847434   -6.876273   -6.478383
C        -3.191304   -6.754904   -6.818798
C        -4.179320   -6.809658   -5.839593
C        -3.806032   -6.989412   -4.510703
Cl        -5.045050   -7.046718   -3.284710
O        -2.099372   -8.480009   -2.218480
C        -1.376872   -6.891517    0.408016
C        -2.261386   -8.037977    0.763128
N        -0.575469   -6.291836    1.334575
H        -0.469062   -6.580902    2.298830
N         0.088166   -5.236336    0.894769
O        -0.255162   -3.877679   -2.384045
O         3.623554    1.031434    2.310357
C         0.314114    2.914954    1.957461
C        -0.161126    4.126899    1.458852
C         0.554051    4.855690    0.512609
C         1.728068    7.394984   -1.185871
C         1.576833    7.818499    0.072111
S        -1.329392    7.648270    1.703922
C        -0.441674    8.729083    2.893942
C         0.237386    8.006224    4.074889
H         0.922133    8.689594    4.595235
N         1.036838    6.899140    3.592190
C         2.339043    6.697810    3.917646
C         2.981988    5.509080    3.221394
O         2.968048    7.410638    4.679395
C        -0.747427    7.540228    5.164750
N        -1.774010    6.779539    4.708406
C        -2.814271    6.301710    5.575917
O        -0.585242    7.828127    6.339791
H         3.334668    4.473108   -1.275539
H         3.260257    2.801540    0.232583
H         0.071781    0.551714    0.352066
H         0.245672   -1.119662    0.924975
H         1.017693   -0.011053   -1.841123
H        -0.328249   -1.116566   -1.493885
H         1.682488   -2.273744   -2.449299
H         3.452091   -0.893800   -1.502116
H         3.687898   -2.554715   -0.916041
H         3.982875   -0.807310    0.885733
H         2.704516   -1.968093    1.283144
H         1.386017   -3.407328    0.257244
H        -1.554041   -5.380099   -2.578187
H        -1.066677   -6.831778   -7.237840
H        -3.473388   -6.612418   -7.863538
H        -5.234145   -6.710770   -6.096479
H        -2.248294   -8.780836   -0.042754
H        -3.301946   -7.700651    0.889670
H        -1.936918   -8.504700    1.704595
H        -0.234609    2.338497    2.702696
H        -1.101660    4.552254    1.816418
H         0.126673    5.802750    0.183001
H         1.376886    8.007767   -2.019880
H         1.062232    8.755432    0.286764
H         1.942120    7.263049    0.939285
H        -1.128831    9.486196    3.305411
H         0.352585    9.284110    2.365249
H         0.586557    6.342417    2.867633
H         2.272822    4.686246    3.057363
H         3.822775    5.156363    3.830592
H         3.378302    5.821020    2.241661
H        -1.905138    6.762956    3.684801
H        -3.015660    5.231603    5.403450
H        -2.486676    6.440484    6.614851
H        -3.759706    6.854332    5.433570
