88
-1 1
O         0.646770    5.949959   -2.675282
C         0.895800    6.321898   -1.524495
N         1.412960    5.251749   -0.618845
C         0.612324    4.574490    0.261521
C         1.061262    3.379527    0.858383
C         0.264930    2.720621    1.790761
S         0.918071    1.255420    2.549310
O        -0.103564    0.688755    3.431698
N         1.149756    0.266988    1.208195
C        -0.069130   -0.160509    0.525385
C         0.277714   -0.631467   -0.880938
C         1.342865   -1.735709   -0.853650
C         2.560384   -1.263832   -0.056396
C         2.177992   -0.758800    1.332992
N         0.822686   -2.967641   -0.279412
C         0.069162   -3.835737   -0.978456
C        -0.460571   -4.983575   -0.199368
C        -1.220192   -6.059748   -0.724352
N        -1.526580   -6.158359   -2.084924
C        -1.696470   -7.295552   -2.801386
C        -1.852050   -7.040708   -4.287145
C        -0.736565   -6.903004   -5.118282
Cl         0.858938   -6.971400   -4.419159
C        -0.865292   -6.712633   -6.491697
C        -2.138123   -6.658762   -7.051568
C        -3.270834   -6.792825   -6.253406
C        -3.114537   -6.982923   -4.883431
Cl        -4.535727   -7.140090   -3.884285
O        -1.733768   -8.422519   -2.352614
C        -1.549135   -6.840253    0.377094
C        -2.393267   -8.053553    0.573290
N        -0.963706   -6.199349    1.429571
H        -0.999472   -6.497268    2.396229
N        -0.316013   -5.090711    1.113966
O        -0.190903   -3.714639   -2.174208
O         2.253798    1.509198    3.087200
C        -0.995283    3.174959    2.163467
C        -1.448711    4.348762    1.552782
C        -0.672862    5.040407    0.635095
C         0.805815    7.585165   -0.946886
C         1.377443    7.964070    0.355648
S         0.099878    8.253254    1.731314
C         1.190432    8.526830    3.166720
C         1.536050    7.281812    4.007045
H         2.314833    7.573953    4.723098
N         2.093685    6.202095    3.219550
C         3.440591    6.079441    3.031335
C         3.842621    4.955747    2.100353
O         4.245805    6.818148    3.568142
C         0.368302    6.789199    4.870001
N        -0.672291    6.260942    4.173920
C        -1.848074    5.737214    4.817460
O         0.393737    6.872699    6.084780
H         2.035981    4.642091   -1.139719
H         2.039621    2.973248    0.595390
H        -0.763193    0.690465    0.475839
H        -0.575785   -0.964652    1.094156
H         0.661893    0.221137   -1.462617
H        -0.622591   -1.002774   -1.391679
H         1.636651   -1.971288   -1.886798
H         3.039083   -0.441888   -0.609590
H         3.295360   -2.078787    0.032982
H         3.049505   -0.318444    1.833093
H         1.828567   -1.595344    1.974466
H         0.916783   -3.148612    0.714437
H        -1.317009   -5.289186   -2.585485
H         0.027343   -6.605617   -7.108222
H        -2.249557   -6.506586   -8.126634
H        -4.271909   -6.747084   -6.682538
H        -2.221009   -8.760748   -0.246181
H        -3.462203   -7.788465    0.569030
H        -2.165297   -8.536822    1.534670
H        -1.586677    2.627554    2.897348
H        -2.438743    4.736956    1.804972
H        -1.039270    5.957219    0.172076
H         0.412755    8.372430   -1.595438
H         1.923198    8.921119    0.322481
H         2.048887    7.190811    0.747373
H         0.723323    9.282416    3.816273
H         2.132041    8.956793    2.790516
H         1.468279    5.620887    2.671439
H         3.485608    3.987128    2.482670
H         4.935329    4.942769    2.018375
H         3.395884    5.119023    1.106372
H        -0.670210    6.374138    3.160993
H        -2.007554    4.679177    4.555545
H        -1.701120    5.815827    5.902123
H        -2.748854    6.308372    4.539440
