96
-1 1
C        -7.379938    2.605283    6.988970
N        -6.480188    1.577075    6.541576
C        -5.183695    2.110804    6.181617
C        -4.240327    1.203583    5.375103
S        -3.083325    0.253424    6.681710
C        -3.150336   -1.458238    6.113706
C        -4.137472   -2.391135    6.831625
H        -5.136600   -2.295060    6.371496
N        -4.258596   -2.048192    8.243007
C        -5.348090   -2.342923    8.985936
C        -5.444015   -1.637708   10.322302
O        -6.218924   -3.130385    8.630563
C        -3.689436   -3.864314    6.655812
N        -4.658703   -4.761594    6.956862
C        -4.425569   -6.180640    6.934909
O        -2.575632   -4.171564    6.270579
C        -4.839576    0.360242    4.350656
C        -4.671990    0.497155    2.965590
N        -3.657208    1.453568    2.468437
C        -2.294184    1.330385    2.484073
C        -1.521808    2.050972    1.542186
C        -0.136492    1.953459    1.556530
S         0.788075    2.824139    0.315291
O         1.998351    3.411537    0.886689
N         1.315414    1.558889   -0.658205
C         0.289778    0.855704   -1.420516
C         0.063672    1.467878   -2.806336
C         1.375481    1.629070   -3.579176
C         2.407765    2.383899   -2.727274
C         2.584755    1.723737   -1.361639
N         1.872615    0.319106   -3.981691
C         2.764499    0.144740   -4.972720
C         3.175948   -1.260213   -5.218527
C         4.099201   -1.682744   -6.207594
N         4.746494   -0.823635   -7.084608
C         5.648419   -1.226429   -8.015711
C         6.245572   -0.106432   -8.830277
C         6.256881   -0.168667  -10.227041
F         5.658625   -1.187191  -10.829917
C         6.849411    0.813154  -11.011113
C         7.462881    1.895745  -10.385086
C         7.479115    1.998528   -8.997074
C         6.869938    0.999315   -8.248279
F         6.891195    1.095944   -6.920951
O         5.954670   -2.387152   -8.199865
C         4.165629   -3.056526   -6.062633
N         3.315288   -3.349302   -5.040182
H         3.118131   -4.266917   -4.662964
N         2.714521   -2.293017   -4.522337
O         3.231220    1.056913   -5.651974
O        -0.132522    3.691779   -0.427008
C         0.557983    1.170716    2.479318
C        -0.206236    0.459593    3.401981
C        -1.594892    0.524272    3.405971
O        -5.346623   -0.016738    2.070069
C        -6.447475    0.452701    7.436614
H        -7.469672    3.394140    6.225783
H        -7.058300    3.094246    7.941246
H        -8.384333    2.184224    7.156983
H        -4.644851    2.505148    7.078864
H        -5.375677    2.978130    5.527763
H        -3.493772    1.874647    4.929269
H        -2.141784   -1.885426    6.182722
H        -3.442790   -1.421088    5.048147
H        -3.735180   -1.211223    8.497063
H        -5.550960   -2.393405   11.112783
H        -6.357344   -1.026252   10.321141
H        -4.581555   -0.994646   10.541549
H        -5.495744   -4.387367    7.408905
H        -4.380686   -6.607053    7.951933
H        -3.463259   -6.362734    6.439581
H        -5.219021   -6.702425    6.377023
H        -5.701178   -0.254345    4.624358
H        -4.007932    1.808237    1.584671
H        -2.008500    2.690549    0.803027
H        -0.646021    0.840561   -0.844503
H         0.609034   -0.199755   -1.494790
H        -0.388730    2.461417   -2.676048
H        -0.643564    0.849910   -3.382070
H         1.197691    2.198269   -4.503994
H         2.061094    3.420629   -2.589792
H         3.365648    2.423681   -3.267063
H         3.264629    2.299629   -0.721882
H         3.020317    0.716316   -1.480988
H         1.570996   -0.515639   -3.491155
H         4.510449    0.160019   -6.937902
H         6.816650    0.715234  -12.096472
H         7.933479    2.673426  -10.989458
H         7.953253    2.834115   -8.481850
H         4.739643   -3.802356   -6.600419
H         1.647096    1.125093    2.469277
H         0.288314   -0.169986    4.145223
H        -2.157422   -0.051654    4.135072
H        -7.468815    0.078084    7.610005
H        -5.992254    0.693520    8.427035
H        -5.863596   -0.361844    6.996297
