-1 1
 OpenBabel05192410563D

 96 99  0  0  1  0  0  0  0  0999 V2000
   -7.3799    2.6053    6.9890 C   0  0  0  0  0  0  0  0  0  0  0  0
   -6.4802    1.5771    6.5416 N   0  0  0  0  0  0  0  0  0  0  0  0
   -5.1837    2.1108    6.1816 C   0  0  0  0  0  0  0  0  0  0  0  0
   -4.2403    1.2036    5.3751 C   0  0  1  0  0  0  0  0  0  0  0  0
   -3.0833    0.2534    6.6817 S   0  0  0  0  0  0  0  0  0  0  0  0
   -3.1503   -1.4582    6.1137 C   0  0  0  0  0  0  0  0  0  0  0  0
   -4.1375   -2.3911    6.8316 C   0  0  2  0  0  0  0  0  0  0  0  0
   -5.1366   -2.2951    6.3715 H   0  0  0  0  0  0  0  0  0  0  0  0
   -4.2586   -2.0482    8.2430 N   0  0  0  0  0  0  0  0  0  0  0  0
   -5.3481   -2.3429    8.9859 C   0  0  0  0  0  0  0  0  0  0  0  0
   -5.4440   -1.6377   10.3223 C   0  0  0  0  0  0  0  0  0  0  0  0
   -6.2189   -3.1304    8.6306 O   0  0  0  0  0  0  0  0  0  0  0  0
   -3.6894   -3.8643    6.6558 C   0  0  0  0  0  0  0  0  0  0  0  0
   -4.6587   -4.7616    6.9569 N   0  0  0  0  0  0  0  0  0  0  0  0
   -4.4256   -6.1806    6.9349 C   0  0  0  0  0  0  0  0  0  0  0  0
   -2.5756   -4.1716    6.2706 O   0  0  0  0  0  0  0  0  0  0  0  0
   -4.8396    0.3602    4.3507 C   0  0  0  0  0  3  0  0  0  0  0  0
   -4.6720    0.4972    2.9656 C   0  0  0  0  0  0  0  0  0  0  0  0
   -3.6572    1.4536    2.4684 N   0  0  0  0  0  0  0  0  0  0  0  0
   -2.2942    1.3304    2.4841 C   0  0  0  0  0  0  0  0  0  0  0  0
   -1.5218    2.0510    1.5422 C   0  0  0  0  0  0  0  0  0  0  0  0
   -0.1365    1.9535    1.5565 C   0  0  0  0  0  0  0  0  0  0  0  0
    0.7881    2.8241    0.3153 S   0  0  0  0  0  0  0  0  0  0  0  0
    1.9984    3.4115    0.8867 O   0  0  0  0  0  0  0  0  0  0  0  0
    1.3154    1.5589   -0.6582 N   0  0  0  0  0  0  0  0  0  0  0  0
    0.2898    0.8557   -1.4205 C   0  0  0  0  0  0  0  0  0  0  0  0
    0.0637    1.4679   -2.8063 C   0  0  0  0  0  0  0  0  0  0  0  0
    1.3755    1.6291   -3.5792 C   0  0  1  0  0  0  0  0  0  0  0  0
    2.4078    2.3839   -2.7273 C   0  0  0  0  0  0  0  0  0  0  0  0
    2.5848    1.7237   -1.3616 C   0  0  0  0  0  0  0  0  0  0  0  0
    1.8726    0.3191   -3.9817 N   0  0  0  0  0  0  0  0  0  0  0  0
    2.7645    0.1447   -4.9727 C   0  0  0  0  0  0  0  0  0  0  0  0
    3.1759   -1.2602   -5.2185 C   0  0  0  0  0  0  0  0  0  0  0  0
    4.0992   -1.6827   -6.2076 C   0  0  0  0  0  0  0  0  0  0  0  0
    4.7465   -0.8236   -7.0846 N   0  0  0  0  0  0  0  0  0  0  0  0
    5.6484   -1.2264   -8.0157 C   0  0  0  0  0  0  0  0  0  0  0  0
    6.2456   -0.1064   -8.8303 C   0  0  0  0  0  0  0  0  0  0  0  0
    6.2569   -0.1687  -10.2270 C   0  0  0  0  0  0  0  0  0  0  0  0
    5.6586   -1.1872  -10.8299 F   0  0  0  0  0  0  0  0  0  0  0  0
    6.8494    0.8132  -11.0111 C   0  0  0  0  0  0  0  0  0  0  0  0
    7.4629    1.8957  -10.3851 C   0  0  0  0  0  0  0  0  0  0  0  0
    7.4791    1.9985   -8.9971 C   0  0  0  0  0  0  0  0  0  0  0  0
    6.8699    0.9993   -8.2483 C   0  0  0  0  0  0  0  0  0  0  0  0
    6.8912    1.0959   -6.9210 F   0  0  0  0  0  0  0  0  0  0  0  0
    5.9547   -2.3872   -8.1999 O   0  0  0  0  0  0  0  0  0  0  0  0
    4.1656   -3.0565   -6.0626 C   0  0  0  0  0  0  0  0  0  0  0  0
    3.3153   -3.3493   -5.0402 N   0  0  0  0  0  0  0  0  0  0  0  0
    3.1181   -4.2669   -4.6630 H   0  0  0  0  0  0  0  0  0  0  0  0
    2.7145   -2.2930   -4.5223 N   0  0  0  0  0  0  0  0  0  0  0  0
    3.2312    1.0569   -5.6520 O   0  0  0  0  0  0  0  0  0  0  0  0
   -0.1325    3.6918   -0.4270 O   0  0  0  0  0  0  0  0  0  0  0  0
    0.5580    1.1707    2.4793 C   0  0  0  0  0  0  0  0  0  0  0  0
   -0.2062    0.4596    3.4020 C   0  0  0  0  0  0  0  0  0  0  0  0
   -1.5949    0.5243    3.4060 C   0  0  0  0  0  0  0  0  0  0  0  0
   -5.3466   -0.0167    2.0701 O   0  0  0  0  0  0  0  0  0  0  0  0
   -6.4475    0.4527    7.4366 C   0  0  0  0  0  0  0  0  0  0  0  0
   -7.4697    3.3941    6.2258 H   0  0  0  0  0  0  0  0  0  0  0  0
   -7.0583    3.0942    7.9412 H   0  0  0  0  0  0  0  0  0  0  0  0
   -8.3843    2.1842    7.1570 H   0  0  0  0  0  0  0  0  0  0  0  0
   -4.6449    2.5051    7.0789 H   0  0  0  0  0  0  0  0  0  0  0  0
   -5.3757    2.9781    5.5278 H   0  0  0  0  0  0  0  0  0  0  0  0
   -3.4938    1.8746    4.9293 H   0  0  0  0  0  0  0  0  0  0  0  0
   -2.1418   -1.8854    6.1827 H   0  0  0  0  0  0  0  0  0  0  0  0
   -3.4428   -1.4211    5.0481 H   0  0  0  0  0  0  0  0  0  0  0  0
   -3.7352   -1.2112    8.4971 H   0  0  0  0  0  0  0  0  0  0  0  0
   -5.5510   -2.3934   11.1128 H   0  0  0  0  0  0  0  0  0  0  0  0
   -6.3573   -1.0263   10.3211 H   0  0  0  0  0  0  0  0  0  0  0  0
   -4.5816   -0.9946   10.5415 H   0  0  0  0  0  0  0  0  0  0  0  0
   -5.4957   -4.3874    7.4089 H   0  0  0  0  0  0  0  0  0  0  0  0
   -4.3807   -6.6071    7.9519 H   0  0  0  0  0  0  0  0  0  0  0  0
   -3.4633   -6.3627    6.4396 H   0  0  0  0  0  0  0  0  0  0  0  0
   -5.2190   -6.7024    6.3770 H   0  0  0  0  0  0  0  0  0  0  0  0
   -5.7012   -0.2543    4.6244 H   0  0  0  0  0  0  0  0  0  0  0  0
   -4.0079    1.8082    1.5847 H   0  0  0  0  0  0  0  0  0  0  0  0
   -2.0085    2.6905    0.8030 H   0  0  0  0  0  0  0  0  0  0  0  0
   -0.6460    0.8406   -0.8445 H   0  0  0  0  0  0  0  0  0  0  0  0
    0.6090   -0.1998   -1.4948 H   0  0  0  0  0  0  0  0  0  0  0  0
   -0.3887    2.4614   -2.6760 H   0  0  0  0  0  0  0  0  0  0  0  0
   -0.6436    0.8499   -3.3821 H   0  0  0  0  0  0  0  0  0  0  0  0
    1.1977    2.1983   -4.5040 H   0  0  0  0  0  0  0  0  0  0  0  0
    2.0611    3.4206   -2.5898 H   0  0  0  0  0  0  0  0  0  0  0  0
    3.3656    2.4237   -3.2671 H   0  0  0  0  0  0  0  0  0  0  0  0
    3.2646    2.2996   -0.7219 H   0  0  0  0  0  0  0  0  0  0  0  0
    3.0203    0.7163   -1.4810 H   0  0  0  0  0  0  0  0  0  0  0  0
    1.5710   -0.5156   -3.4912 H   0  0  0  0  0  0  0  0  0  0  0  0
    4.5104    0.1600   -6.9379 H   0  0  0  0  0  0  0  0  0  0  0  0
    6.8167    0.7152  -12.0965 H   0  0  0  0  0  0  0  0  0  0  0  0
    7.9335    2.6734  -10.9895 H   0  0  0  0  0  0  0  0  0  0  0  0
    7.9533    2.8341   -8.4818 H   0  0  0  0  0  0  0  0  0  0  0  0
    4.7396   -3.8024   -6.6004 H   0  0  0  0  0  0  0  0  0  0  0  0
    1.6471    1.1251    2.4693 H   0  0  0  0  0  0  0  0  0  0  0  0
    0.2883   -0.1700    4.1452 H   0  0  0  0  0  0  0  0  0  0  0  0
   -2.1574   -0.0517    4.1351 H   0  0  0  0  0  0  0  0  0  0  0  0
   -7.4688    0.0781    7.6100 H   0  0  0  0  0  0  0  0  0  0  0  0
   -5.9923    0.6935    8.4270 H   0  0  0  0  0  0  0  0  0  0  0  0
   -5.8636   -0.3618    6.9963 H   0  0  0  0  0  0  0  0  0  0  0  0
  1 59  1  0  0  0  0
  1 58  1  0  0  0  0
  2  1  1  0  0  0  0
  2 56  1  0  0  0  0
  3  2  1  0  0  0  0
  3 60  1  0  0  0  0
  4 62  1  6  0  0  0
  4  3  1  0  0  0  0
  4  5  1  0  0  0  0
  6 63  1  0  0  0  0
  6  5  1  0  0  0  0
  6  7  1  0  0  0  0
  7  8  1  6  0  0  0
  7  9  1  0  0  0  0
  9 65  1  0  0  0  0
  9 10  1  0  0  0  0
 10 11  1  0  0  0  0
 11 68  1  0  0  0  0
 11 66  1  0  0  0  0
 12 10  2  0  0  0  0
 13  7  1  0  0  0  0
 13 14  1  0  0  0  0
 14 69  1  0  0  0  0
 15 14  1  0  0  0  0
 15 70  1  0  0  0  0
 16 13  2  0  0  0  0
 17 73  1  0  0  0  0
 17  4  1  0  0  0  0
 18 17  1  0  0  0  0
 19 20  1  0  0  0  0
 19 18  1  0  0  0  0
 20 54  1  0  0  0  0
 21 22  1  0  0  0  0
 21 20  2  0  0  0  0
 22 52  2  0  0  0  0
 23 24  2  0  0  0  0
 23 22  1  0  0  0  0
 25 23  1  0  0  0  0
 26 76  1  0  0  0  0
 26 25  1  0  0  0  0
 27 78  1  0  0  0  0
 27 26  1  0  0  0  0
 28 80  1  6  0  0  0
 28 27  1  0  0  0  0
 28 29  1  0  0  0  0
 29 81  1  0  0  0  0
 29 30  1  0  0  0  0
 30 83  1  0  0  0  0
 30 25  1  0  0  0  0
 31 28  1  0  0  0  0
 31 85  1  0  0  0  0
 32 31  1  0  0  0  0
 33 32  1  0  0  0  0
 33 49  2  0  0  0  0
 34 46  2  0  0  0  0
 34 33  1  0  0  0  0
 35 86  1  0  0  0  0
 35 34  1  0  0  0  0
 36 35  1  0  0  0  0
 37 43  1  0  0  0  0
 37 36  1  0  0  0  0
 38 37  2  0  0  0  0
 39 38  1  0  0  0  0
 40 41  2  0  0  0  0
 40 38  1  0  0  0  0
 41 42  1  0  0  0  0
 42 89  1  0  0  0  0
 42 43  2  0  0  0  0
 43 44  1  0  0  0  0
 45 36  2  0  0  0  0
 46 47  1  0  0  0  0
 47 48  1  0  0  0  0
 47 49  1  0  0  0  0
 50 32  2  0  0  0  0
 51 23  2  0  0  0  0
 52 53  1  0  0  0  0
 53 54  2  0  0  0  0
 53 92  1  0  0  0  0
 54 93  1  0  0  0  0
 55 18  2  0  0  0  0
 56 94  1  0  0  0  0
 56 95  1  0  0  0  0
 57  1  1  0  0  0  0
 61  3  1  0  0  0  0
 64  6  1  0  0  0  0
 67 11  1  0  0  0  0
 71 15  1  0  0  0  0
 72 15  1  0  0  0  0
 74 19  1  0  0  0  0
 75 21  1  0  0  0  0
 77 26  1  0  0  0  0
 79 27  1  0  0  0  0
 82 29  1  0  0  0  0
 84 30  1  0  0  0  0
 87 40  1  0  0  0  0
 88 41  1  0  0  0  0
 90 46  1  0  0  0  0
 91 52  1  0  0  0  0
 96 56  1  0  0  0  0
M  END
