-1 1
 OpenBabel05232414493D

 41 41  0  0  1  0  0  0  0  0999 V2000
    1.7694   -0.5604    1.7844 O   0  0  0  0  0  0  0  0  0  0  0  0
    2.6247    0.2737    1.5348 C   0  0  0  0  0  0  0  0  0  0  0  0
    2.3654    1.5023    0.6199 C   0  0  2  0  0  0  0  0  0  0  0  0
    0.8930    1.5171    0.1174 C   0  0  0  0  0  0  0  0  0  0  0  0
    0.6079    1.8951   -1.6280 S   0  0  0  0  0  0  0  0  0  0  0  0
    0.2553   -0.2105   -2.3075 C   0  0  2  0  0  0  0  0  0  0  0  0
   -0.6992   -0.8813   -1.5323 C   0  0  0  0  0  3  0  0  0  0  0  0
   -2.0536   -0.6699   -1.7786 N   0  0  0  0  0  0  0  0  0  0  0  0
   -2.8735   -1.2303   -1.0450 O   0  0  0  0  0  0  0  0  0  0  0  0
   -2.3995    0.0496   -2.7227 O   0  0  0  0  0  0  0  0  0  0  0  0
    1.6642   -0.6858   -2.3118 C   0  0  0  0  0  0  0  0  0  0  0  0
    2.2108   -1.4129   -1.2447 C   0  0  0  0  0  0  0  0  0  0  0  0
    3.5575   -1.7533   -1.2251 C   0  0  0  0  0  0  0  0  0  0  0  0
    4.3905   -1.3988   -2.2938 C   0  0  0  0  0  0  0  0  0  0  0  0
    5.7914   -1.7128   -2.2659 C   0  0  0  0  0  0  0  0  0  0  0  0
    6.9258   -1.9500   -2.2475 N   0  0  0  0  0  0  0  0  0  0  0  0
    3.8458   -0.7107   -3.3912 C   0  0  0  0  0  0  0  0  0  0  0  0
    2.5046   -0.3640   -3.3922 C   0  0  0  0  0  0  0  0  0  0  0  0
    3.2968    1.5672   -0.4909 N   0  0  0  0  0  0  0  0  0  0  0  0
    4.5612    2.0165   -0.4242 C   0  0  0  0  0  0  0  0  0  0  0  0
    5.2682    2.1766   -1.7524 C   0  0  0  0  0  0  0  0  0  0  0  0
    5.1460    2.2560    0.6329 O   0  0  0  0  0  0  0  0  0  0  0  0
    2.5487    2.3880    1.2544 H   0  0  0  0  0  0  0  0  0  0  0  0
    3.8758    0.2339    2.0464 N   0  0  0  0  0  0  0  0  0  0  0  0
    4.3406   -0.8511    2.8682 C   0  0  0  0  0  0  0  0  0  0  0  0
    0.4392    0.5311    0.3167 H   0  0  0  0  0  0  0  0  0  0  0  0
    0.3234    2.2340    0.7228 H   0  0  0  0  0  0  0  0  0  0  0  0
    1.5944   -1.6674   -0.3833 H   0  0  0  0  0  0  0  0  0  0  0  0
    3.9713   -2.2827   -0.3650 H   0  0  0  0  0  0  0  0  0  0  0  0
    4.4877   -0.4401   -4.2320 H   0  0  0  0  0  0  0  0  0  0  0  0
    2.0910    0.1996   -4.2316 H   0  0  0  0  0  0  0  0  0  0  0  0
    2.8172    1.5597   -1.3983 H   0  0  0  0  0  0  0  0  0  0  0  0
    4.5823    2.1557   -2.6096 H   0  0  0  0  0  0  0  0  0  0  0  0
    5.9959    1.3578   -1.8594 H   0  0  0  0  0  0  0  0  0  0  0  0
    5.8273    3.1215   -1.7390 H   0  0  0  0  0  0  0  0  0  0  0  0
    4.5171    0.9837    1.7672 H   0  0  0  0  0  0  0  0  0  0  0  0
    5.1775   -1.3876    2.3907 H   0  0  0  0  0  0  0  0  0  0  0  0
    3.5088   -1.5514    3.0176 H   0  0  0  0  0  0  0  0  0  0  0  0
    4.6813   -0.4933    3.8537 H   0  0  0  0  0  0  0  0  0  0  0  0
   -0.5040   -1.4776   -0.6457 H   0  0  0  0  0  0  0  0  0  0  0  0
   -0.1201    0.1240   -3.2774 H   0  0  0  0  0  0  0  0  0  0  0  0
  2  1  2  0  0  0  0
  2 24  1  0  0  0  0
  3 23  1  1  0  0  0
  3  2  1  0  0  0  0
  4 26  1  0  0  0  0
  4  3  1  0  0  0  0
  4 27  1  0  0  0  0
  5  4  1  0  0  0  0
  6 41  1  6  0  0  0
  6  5  1  0  0  0  0
  6  7  1  0  0  0  0
  7 40  1  0  0  0  0
  8  7  1  0  0  0  0
  8  9  2  0  0  0  0
 10  8  2  0  0  0  0
 11  6  1  0  0  0  0
 11 12  1  0  0  0  0
 12 13  2  0  0  0  0
 12 28  1  0  0  0  0
 13 29  1  0  0  0  0
 14 15  1  0  0  0  0
 14 13  1  0  0  0  0
 15 16  3  0  0  0  0
 17 14  2  0  0  0  0
 18 17  1  0  0  0  0
 18 11  2  0  0  0  0
 19 20  1  0  0  0  0
 19  3  1  0  0  0  0
 20 22  2  0  0  0  0
 21 35  1  0  0  0  0
 21 20  1  0  0  0  0
 24 25  1  0  0  0  0
 25 38  1  0  0  0  0
 25 39  1  0  0  0  0
 30 17  1  0  0  0  0
 31 18  1  0  0  0  0
 32 19  1  0  0  0  0
 33 21  1  0  0  0  0
 34 21  1  0  0  0  0
 36 24  1  0  0  0  0
 37 25  1  0  0  0  0
M  END
