-1 1
 OpenBabel05232413493D

 59 58  0  0  1  0  0  0  0  0999 V2000
   -0.5622    2.3977    2.6249 O   0  0  0  0  0  0  0  0  0  0  0  0
   -1.3769    1.4938    2.5332 C   0  0  0  0  0  0  0  0  0  0  0  0
   -1.7438    0.8230    1.1877 C   0  0  2  0  0  0  0  0  0  0  0  0
   -0.8571    1.3616    0.0478 C   0  0  0  0  0  0  0  0  0  0  0  0
   -1.5247    1.1254   -1.6357 S   0  0  0  0  0  1  0  0  0  0  0  0
   -1.4847   -1.9896   -1.0903 C   0  0  0  0  0  0  0  0  0  0  0  0
   -2.5870   -2.3854   -0.4307 C   0  0  0  0  0  0  0  0  0  0  0  0
   -3.8146   -2.5568   -1.1662 N   0  0  0  0  0  0  0  0  0  0  0  0
   -4.8007   -2.8656   -0.5101 O   0  0  0  0  0  0  0  0  0  0  0  0
   -3.8288   -2.4063   -2.3731 O   0  0  0  0  0  0  0  0  0  0  0  0
   -0.1304   -1.8211   -0.5603 C   0  0  0  0  0  0  0  0  0  0  0  0
    0.8626   -1.3373   -1.4252 C   0  0  0  0  0  0  0  0  0  0  0  0
    2.1628   -1.1091   -0.9940 C   0  0  0  0  0  0  0  0  0  0  0  0
    3.0845   -0.6578   -1.8992 O   0  0  0  0  0  0  0  0  0  0  0  0
    3.4185    0.7209   -1.9741 C   0  0  0  0  0  0  0  0  0  0  0  0
    3.6827    0.9910   -3.4553 C   0  0  0  0  0  0  0  0  0  0  0  0
    2.3315    1.6510   -1.4289 C   0  0  0  0  0  0  0  0  0  0  0  0
    4.6993    0.9458   -1.1542 C   0  0  0  0  0  0  0  0  0  0  0  0
    5.1996    2.1709   -1.3722 O   0  0  0  0  0  0  0  0  0  0  0  0
    6.3194    2.5716   -0.5873 C   0  0  0  0  0  0  0  0  0  0  0  0
    5.8876    3.0740    0.7769 C   0  0  0  0  0  0  0  0  0  0  0  0
    5.1960    0.1615   -0.3895 O   0  0  0  0  0  0  0  0  0  0  0  0
    2.5186   -1.3845    0.3300 C   0  0  0  0  0  0  0  0  0  0  0  0
    1.5558   -1.8734    1.2065 C   0  0  0  0  0  0  0  0  0  0  0  0
    0.2584   -2.0847    0.7577 C   0  0  0  0  0  0  0  0  0  0  0  0
   -0.6390   -2.5465    1.6384 F   0  0  0  0  0  0  0  0  0  0  0  0
   -3.1471    0.9809    0.8375 N   0  0  0  0  0  0  0  0  0  0  0  0
   -4.1317    0.2094    1.3358 C   0  0  0  0  0  0  0  0  0  0  0  0
   -5.4425    0.2440    0.5833 C   0  0  0  0  0  0  0  0  0  0  0  0
   -4.0069   -0.4939    2.3410 O   0  0  0  0  0  0  0  0  0  0  0  0
   -1.5595   -0.2548    1.3336 H   0  0  0  0  0  0  0  0  0  0  0  0
   -2.0095    0.9480    3.6013 N   0  0  0  0  0  0  0  0  0  0  0  0
   -1.8404    1.4509    4.9354 C   0  0  0  0  0  0  0  0  0  0  0  0
   -0.6760    2.4294    0.2343 H   0  0  0  0  0  0  0  0  0  0  0  0
    0.1192    0.8639    0.1571 H   0  0  0  0  0  0  0  0  0  0  0  0
    0.5911   -1.0804   -2.4491 H   0  0  0  0  0  0  0  0  0  0  0  0
    2.7427    0.8548   -4.0078 H   0  0  0  0  0  0  0  0  0  0  0  0
    4.4238    0.2770   -3.8433 H   0  0  0  0  0  0  0  0  0  0  0  0
    4.0484    2.0138   -3.6108 H   0  0  0  0  0  0  0  0  0  0  0  0
    1.3576    1.4505   -1.9059 H   0  0  0  0  0  0  0  0  0  0  0  0
    2.6128    2.6934   -1.6266 H   0  0  0  0  0  0  0  0  0  0  0  0
    2.2021    1.5310   -0.3442 H   0  0  0  0  0  0  0  0  0  0  0  0
    6.8039    3.3672   -1.1702 H   0  0  0  0  0  0  0  0  0  0  0  0
    7.0153    1.7251   -0.4911 H   0  0  0  0  0  0  0  0  0  0  0  0
    5.1612    3.8936    0.6788 H   0  0  0  0  0  0  0  0  0  0  0  0
    6.7596    3.4452    1.3360 H   0  0  0  0  0  0  0  0  0  0  0  0
    5.4262    2.2631    1.3574 H   0  0  0  0  0  0  0  0  0  0  0  0
    3.5452   -1.2008    0.6478 H   0  0  0  0  0  0  0  0  0  0  0  0
    1.7911   -2.0913    2.2492 H   0  0  0  0  0  0  0  0  0  0  0  0
   -3.2310    1.2942   -0.1421 H   0  0  0  0  0  0  0  0  0  0  0  0
   -5.4570    0.9900   -0.2219 H   0  0  0  0  0  0  0  0  0  0  0  0
   -6.2541    0.4446    1.2963 H   0  0  0  0  0  0  0  0  0  0  0  0
   -5.6112   -0.7565    0.1583 H   0  0  0  0  0  0  0  0  0  0  0  0
   -2.7257    0.2431    3.3932 H   0  0  0  0  0  0  0  0  0  0  0  0
   -1.0711    2.2341    4.9102 H   0  0  0  0  0  0  0  0  0  0  0  0
   -1.5153    0.6570    5.6287 H   0  0  0  0  0  0  0  0  0  0  0  0
   -2.7738    1.8873    5.3315 H   0  0  0  0  0  0  0  0  0  0  0  0
   -2.7130   -2.5425    0.6365 H   0  0  0  0  0  0  0  0  0  0  0  0
   -1.5968   -1.8292   -2.1629 H   0  0  0  0  0  0  0  0  0  0  0  0
  2  1  2  0  0  0  0
  2 32  1  0  0  0  0
  3 31  1  1  0  0  0
  3  2  1  0  0  0  0
  4 35  1  0  0  0  0
  4 34  1  0  0  0  0
  4  3  1  0  0  0  0
  5  4  1  0  0  0  0
  6 11  1  0  0  0  0
  6  7  2  0  0  0  0
  7 58  1  0  0  0  0
  8  9  2  0  0  0  0
  8  7  1  0  0  0  0
 10  8  2  0  0  0  0
 11 25  1  0  0  0  0
 12 13  1  0  0  0  0
 12 11  2  0  0  0  0
 13 23  2  0  0  0  0
 14 13  1  0  0  0  0
 15 14  1  0  0  0  0
 15 17  1  0  0  0  0
 15 18  1  0  0  0  0
 16 15  1  0  0  0  0
 17 42  1  0  0  0  0
 18 22  2  0  0  0  0
 19 18  1  0  0  0  0
 19 20  1  0  0  0  0
 20 44  1  0  0  0  0
 20 21  1  0  0  0  0
 21 46  1  0  0  0  0
 21 47  1  0  0  0  0
 23 48  1  0  0  0  0
 23 24  1  0  0  0  0
 24 49  1  0  0  0  0
 25 24  2  0  0  0  0
 25 26  1  0  0  0  0
 27  3  1  0  0  0  0
 27 28  1  0  0  0  0
 28 30  2  0  0  0  0
 29 52  1  0  0  0  0
 29 28  1  0  0  0  0
 32 33  1  0  0  0  0
 33 57  1  0  0  0  0
 33 56  1  0  0  0  0
 36 12  1  0  0  0  0
 37 16  1  0  0  0  0
 38 16  1  0  0  0  0
 39 16  1  0  0  0  0
 40 17  1  0  0  0  0
 41 17  1  0  0  0  0
 43 20  1  0  0  0  0
 45 21  1  0  0  0  0
 50 27  1  0  0  0  0
 51 29  1  0  0  0  0
 53 29  1  0  0  0  0
 54 32  1  0  0  0  0
 55 33  1  0  0  0  0
 59  6  1  0  0  0  0
M  END
