-1 1
 OpenBabel05232414493D

 59 58  0  0  1  0  0  0  0  0999 V2000
   -0.5812   -1.3131    7.6813 O   0  0  0  0  0  0  0  0  0  0  0  0
   -1.2876   -2.3038    7.7817 C   0  0  0  0  0  0  0  0  0  0  0  0
   -1.6671   -3.1882    6.5698 C   0  0  2  0  0  0  0  0  0  0  0  0
   -0.8904   -2.7318    5.3225 C   0  0  0  0  0  0  0  0  0  0  0  0
   -1.5946   -3.2545    3.7332 S   0  0  0  0  0  1  0  0  0  0  0  0
   -1.4015   -5.6443    4.0043 C   0  0  0  0  0  3  0  0  0  0  0  0
   -2.5011   -6.2043    4.6399 C   0  0  0  0  0  3  0  0  0  0  0  0
   -3.6634   -6.4133    3.8979 N   0  0  0  0  0  0  0  0  0  0  0  0
   -4.6559   -6.8648    4.4895 O   0  0  0  0  0  0  0  0  0  0  0  0
   -3.6876   -6.1577    2.6920 O   0  0  0  0  0  0  0  0  0  0  0  0
   -0.0212   -5.6591    4.5424 C   0  0  0  0  0  0  0  0  0  0  0  0
    1.0227   -5.2503    3.6986 C   0  0  0  0  0  0  0  0  0  0  0  0
    2.3357   -5.1461    4.1353 C   0  0  0  0  0  0  0  0  0  0  0  0
    3.2888   -4.7008    3.2539 O   0  0  0  0  0  0  0  0  0  0  0  0
    3.6389   -3.3273    3.2340 C   0  0  0  0  0  0  0  0  0  0  0  0
    4.0417   -3.0353    1.7876 C   0  0  0  0  0  0  0  0  0  0  0  0
    2.5122   -2.3948    3.6926 C   0  0  0  0  0  0  0  0  0  0  0  0
    4.8559   -3.1204    4.1535 C   0  0  0  0  0  0  0  0  0  0  0  0
    5.2968   -1.8554    4.0824 O   0  0  0  0  0  0  0  0  0  0  0  0
    6.3669   -1.4833    4.9477 C   0  0  0  0  0  0  0  0  0  0  0  0
    5.8635   -1.1477    6.3382 C   0  0  0  0  0  0  0  0  0  0  0  0
    5.3629   -3.9541    4.8550 O   0  0  0  0  0  0  0  0  0  0  0  0
    2.6716   -5.5088    5.4425 C   0  0  0  0  0  0  0  0  0  0  0  0
    1.6639   -5.9453    6.2935 C   0  0  0  0  0  0  0  0  0  0  0  0
    0.3477   -6.0086    5.8453 C   0  0  0  0  0  0  0  0  0  0  0  0
   -0.5746   -6.4116    6.7305 F   0  0  0  0  0  0  0  0  0  0  0  0
   -3.0988   -3.1908    6.3056 N   0  0  0  0  0  0  0  0  0  0  0  0
   -3.9642   -3.9974    6.9650 C   0  0  0  0  0  0  0  0  0  0  0  0
   -5.2933   -4.2236    6.2910 C   0  0  0  0  0  0  0  0  0  0  0  0
   -3.6935   -4.5344    8.0383 O   0  0  0  0  0  0  0  0  0  0  0  0
   -1.3779   -4.2184    6.8361 H   0  0  0  0  0  0  0  0  0  0  0  0
   -1.7803   -2.7590    8.9574 N   0  0  0  0  0  0  0  0  0  0  0  0
   -1.5917   -2.0562   10.1958 C   0  0  0  0  0  0  0  0  0  0  0  0
   -0.8276   -1.6347    5.3296 H   0  0  0  0  0  0  0  0  0  0  0  0
    0.1427   -3.0984    5.4255 H   0  0  0  0  0  0  0  0  0  0  0  0
    0.7813   -4.9454    2.6795 H   0  0  0  0  0  0  0  0  0  0  0  0
    3.1593   -3.1594    1.1445 H   0  0  0  0  0  0  0  0  0  0  0  0
    4.8119   -3.7491    1.4618 H   0  0  0  0  0  0  0  0  0  0  0  0
    4.4265   -2.0126    1.6835 H   0  0  0  0  0  0  0  0  0  0  0  0
    1.5904   -2.5836    3.1227 H   0  0  0  0  0  0  0  0  0  0  0  0
    2.8185   -1.3518    3.5432 H   0  0  0  0  0  0  0  0  0  0  0  0
    2.2770   -2.5349    4.7569 H   0  0  0  0  0  0  0  0  0  0  0  0
    6.8274   -0.6085    4.4683 H   0  0  0  0  0  0  0  0  0  0  0  0
    7.1033   -2.2997    4.9836 H   0  0  0  0  0  0  0  0  0  0  0  0
    5.0979   -0.3595    6.2966 H   0  0  0  0  0  0  0  0  0  0  0  0
    6.6953   -0.7934    6.9652 H   0  0  0  0  0  0  0  0  0  0  0  0
    5.4278   -2.0366    6.8150 H   0  0  0  0  0  0  0  0  0  0  0  0
    3.7088   -5.4283    5.7672 H   0  0  0  0  0  0  0  0  0  0  0  0
    1.8740   -6.2339    7.3247 H   0  0  0  0  0  0  0  0  0  0  0  0
   -3.2970   -3.0131    5.3161 H   0  0  0  0  0  0  0  0  0  0  0  0
   -5.5505   -3.4219    5.5855 H   0  0  0  0  0  0  0  0  0  0  0  0
   -6.0719   -4.3182    7.0585 H   0  0  0  0  0  0  0  0  0  0  0  0
   -5.2365   -5.1760    5.7350 H   0  0  0  0  0  0  0  0  0  0  0  0
   -2.4295   -3.5522    8.8978 H   0  0  0  0  0  0  0  0  0  0  0  0
   -0.9091   -1.2159   10.0126 H   0  0  0  0  0  0  0  0  0  0  0  0
   -1.1510   -2.7105   10.9661 H   0  0  0  0  0  0  0  0  0  0  0  0
   -2.5423   -1.6574   10.5899 H   0  0  0  0  0  0  0  0  0  0  0  0
   -2.6134   -6.3903    5.7026 H   0  0  0  0  0  0  0  0  0  0  0  0
   -1.4536   -5.6911    2.9167 H   0  0  0  0  0  0  0  0  0  0  0  0
  1  2  2  0  0  0  0
  2 32  1  0  0  0  0
  3 31  1  1  0  0  0
  3  2  1  0  0  0  0
  4 34  1  0  0  0  0
  4 35  1  0  0  0  0
  4  3  1  0  0  0  0
  5  4  1  0  0  0  0
  6 11  1  0  0  0  0
  6  7  1  0  0  0  0
  7 58  1  0  0  0  0
  8  9  2  0  0  0  0
  8  7  1  0  0  0  0
 10  8  2  0  0  0  0
 11 25  1  0  0  0  0
 12 13  1  0  0  0  0
 12 11  2  0  0  0  0
 13 23  2  0  0  0  0
 14 13  1  0  0  0  0
 15 14  1  0  0  0  0
 15 17  1  0  0  0  0
 15 18  1  0  0  0  0
 16 15  1  0  0  0  0
 17 42  1  0  0  0  0
 18 22  2  0  0  0  0
 19 18  1  0  0  0  0
 19 20  1  0  0  0  0
 20 44  1  0  0  0  0
 20 21  1  0  0  0  0
 21 47  1  0  0  0  0
 21 46  1  0  0  0  0
 23 48  1  0  0  0  0
 23 24  1  0  0  0  0
 24 49  1  0  0  0  0
 25 24  2  0  0  0  0
 25 26  1  0  0  0  0
 27  3  1  0  0  0  0
 27 28  1  0  0  0  0
 28 30  2  0  0  0  0
 29 28  1  0  0  0  0
 29 52  1  0  0  0  0
 32 33  1  0  0  0  0
 33 57  1  0  0  0  0
 33 56  1  0  0  0  0
 36 12  1  0  0  0  0
 37 16  1  0  0  0  0
 38 16  1  0  0  0  0
 39 16  1  0  0  0  0
 40 17  1  0  0  0  0
 41 17  1  0  0  0  0
 43 20  1  0  0  0  0
 45 21  1  0  0  0  0
 50 27  1  0  0  0  0
 51 29  1  0  0  0  0
 53 29  1  0  0  0  0
 54 32  1  0  0  0  0
 55 33  1  0  0  0  0
 59  6  1  0  0  0  0
M  END
