-1 1
 OpenBabel05232414493D

 62 61  0  0  1  0  0  0  0  0999 V2000
    2.7143   -7.2272    0.6234 O   0  0  0  0  0  0  0  0  0  0  0  0
    1.6049   -6.7097    0.5621 C   0  0  0  0  0  0  0  0  0  0  0  0
    1.3627   -5.4205   -0.2560 C   0  0  2  0  0  0  0  0  0  0  0  0
    2.6871   -4.6069   -0.3551 C   0  0  0  0  0  0  0  0  0  0  0  0
    2.5270   -2.8000   -0.4492 S   0  0  0  0  0  1  0  0  0  0  0  0
    2.2152   -2.1810    1.7542 C   0  0  0  0  0  3  0  0  0  0  0  0
    0.8639   -1.9927    2.0851 C   0  0  0  0  0  3  0  0  0  0  0  0
    0.1843   -0.8751    1.6354 N   0  0  0  0  0  0  0  0  0  0  0  0
    0.7858    0.0061    1.0114 O   0  0  0  0  0  0  0  0  0  0  0  0
   -1.0328   -0.7918    1.8775 O   0  0  0  0  0  0  0  0  0  0  0  0
    2.9979   -3.2432    2.4292 C   0  0  0  0  0  0  0  0  0  0  0  0
    4.3831   -3.1067    2.5601 C   0  0  0  0  0  0  0  0  0  0  0  0
    5.1957   -4.1302    3.0509 C   0  0  0  0  0  0  0  0  0  0  0  0
    6.6834   -3.9262    3.1759 C   0  0  0  0  0  0  0  0  0  0  0  0
    4.5860   -5.3469    3.3959 C   0  0  0  0  0  0  0  0  0  0  0  0
    5.3685   -6.4080    3.7897 O   0  0  0  0  0  0  0  0  0  0  0  0
    5.7168   -7.3932    2.8284 C   0  0  0  0  0  0  0  0  0  0  0  0
    5.9284   -6.8224    1.4228 C   0  0  0  0  0  0  0  0  0  0  0  0
    6.9949   -8.0379    3.3693 C   0  0  0  0  0  0  0  0  0  0  0  0
    4.6221   -8.4768    2.7688 C   0  0  0  0  0  0  0  0  0  0  0  0
    4.8986   -9.3577    1.8038 O   0  0  0  0  0  0  0  0  0  0  0  0
    3.8946  -10.3106    1.4627 C   0  0  0  0  0  0  0  0  0  0  0  0
    3.8515  -11.4818    2.4251 C   0  0  0  0  0  0  0  0  0  0  0  0
    3.6707   -8.5595    3.4993 O   0  0  0  0  0  0  0  0  0  0  0  0
    3.1987   -5.4755    3.3547 C   0  0  0  0  0  0  0  0  0  0  0  0
    2.4120   -4.4348    2.8776 C   0  0  0  0  0  0  0  0  0  0  0  0
    0.2833   -4.5737    0.2245 N   0  0  0  0  0  0  0  0  0  0  0  0
   -1.0353   -4.8010    0.0436 C   0  0  0  0  0  0  0  0  0  0  0  0
   -1.9339   -3.5940    0.1707 C   0  0  0  0  0  0  0  0  0  0  0  0
   -1.4891   -5.9148   -0.2257 O   0  0  0  0  0  0  0  0  0  0  0  0
    1.0848   -5.7811   -1.2649 H   0  0  0  0  0  0  0  0  0  0  0  0
    0.5132   -7.2327    1.1560 N   0  0  0  0  0  0  0  0  0  0  0  0
    0.5749   -8.4579    1.9089 C   0  0  0  0  0  0  0  0  0  0  0  0
    3.3186   -4.8626    0.5048 H   0  0  0  0  0  0  0  0  0  0  0  0
    3.2382   -4.9454   -1.2427 H   0  0  0  0  0  0  0  0  0  0  0  0
    4.8504   -2.1751    2.2276 H   0  0  0  0  0  0  0  0  0  0  0  0
    6.9013   -2.9969    3.7240 H   0  0  0  0  0  0  0  0  0  0  0  0
    7.1604   -3.8372    2.1863 H   0  0  0  0  0  0  0  0  0  0  0  0
    7.1513   -4.7626    3.7107 H   0  0  0  0  0  0  0  0  0  0  0  0
    6.6554   -6.0004    1.4582 H   0  0  0  0  0  0  0  0  0  0  0  0
    4.9818   -6.4651    0.9944 H   0  0  0  0  0  0  0  0  0  0  0  0
    6.3160   -7.6114    0.7667 H   0  0  0  0  0  0  0  0  0  0  0  0
    7.8029   -7.2919    3.3710 H   0  0  0  0  0  0  0  0  0  0  0  0
    7.2947   -8.8927    2.7487 H   0  0  0  0  0  0  0  0  0  0  0  0
    6.8320   -8.3773    4.4024 H   0  0  0  0  0  0  0  0  0  0  0  0
    4.1636  -10.6416    0.4503 H   0  0  0  0  0  0  0  0  0  0  0  0
    2.9321   -9.7864    1.4038 H   0  0  0  0  0  0  0  0  0  0  0  0
    4.8356  -11.9701    2.4929 H   0  0  0  0  0  0  0  0  0  0  0  0
    3.1216  -12.2263    2.0724 H   0  0  0  0  0  0  0  0  0  0  0  0
    3.5506  -11.1473    3.4269 H   0  0  0  0  0  0  0  0  0  0  0  0
    2.7590   -6.4253    3.6553 H   0  0  0  0  0  0  0  0  0  0  0  0
    1.3349   -4.5858    2.7877 H   0  0  0  0  0  0  0  0  0  0  0  0
    0.5692   -3.5936    0.3180 H   0  0  0  0  0  0  0  0  0  0  0  0
   -1.5642   -2.8228    0.8630 H   0  0  0  0  0  0  0  0  0  0  0  0
   -2.9329   -3.9296    0.4750 H   0  0  0  0  0  0  0  0  0  0  0  0
   -2.0176   -3.1260   -0.8228 H   0  0  0  0  0  0  0  0  0  0  0  0
   -0.3906   -6.9057    0.7967 H   0  0  0  0  0  0  0  0  0  0  0  0
    0.5964   -9.3527    1.2588 H   0  0  0  0  0  0  0  0  0  0  0  0
   -0.3092   -8.5290    2.5574 H   0  0  0  0  0  0  0  0  0  0  0  0
    1.4766   -8.4732    2.5369 H   0  0  0  0  0  0  0  0  0  0  0  0
    2.7605   -1.2606    1.5388 H   0  0  0  0  0  0  0  0  0  0  0  0
    0.2354   -2.7176    2.5943 H   0  0  0  0  0  0  0  0  0  0  0  0
  2  1  2  0  0  0  0
  2 32  1  0  0  0  0
  3 31  1  6  0  0  0
  3 27  1  0  0  0  0
  3  2  1  0  0  0  0
  4  3  1  0  0  0  0
  4 34  1  0  0  0  0
  5  4  1  0  0  0  0
  6  7  1  0  0  0  0
  6 11  1  0  0  0  0
  7 62  1  0  0  0  0
  8 10  2  0  0  0  0
  8  7  1  0  0  0  0
  9  8  2  0  0  0  0
 11 12  2  0  0  0  0
 11 26  1  0  0  0  0
 12 13  1  0  0  0  0
 13 14  1  0  0  0  0
 13 15  2  0  0  0  0
 14 39  1  0  0  0  0
 14 37  1  0  0  0  0
 15 16  1  0  0  0  0
 17 19  1  0  0  0  0
 17 16  1  0  0  0  0
 18 40  1  0  0  0  0
 18 17  1  0  0  0  0
 19 43  1  0  0  0  0
 19 45  1  0  0  0  0
 20 17  1  0  0  0  0
 20 24  2  0  0  0  0
 21 20  1  0  0  0  0
 22 21  1  0  0  0  0
 22 23  1  0  0  0  0
 23 48  1  0  0  0  0
 23 50  1  0  0  0  0
 25 15  1  0  0  0  0
 25 51  1  0  0  0  0
 26 25  2  0  0  0  0
 27 53  1  0  0  0  0
 28 29  1  0  0  0  0
 28 27  1  0  0  0  0
 29 55  1  0  0  0  0
 29 54  1  0  0  0  0
 30 28  2  0  0  0  0
 32 33  1  0  0  0  0
 33 60  1  0  0  0  0
 33 59  1  0  0  0  0
 35  4  1  0  0  0  0
 36 12  1  0  0  0  0
 38 14  1  0  0  0  0
 41 18  1  0  0  0  0
 42 18  1  0  0  0  0
 44 19  1  0  0  0  0
 46 22  1  0  0  0  0
 47 22  1  0  0  0  0
 49 23  1  0  0  0  0
 52 26  1  0  0  0  0
 56 29  1  0  0  0  0
 57 32  1  0  0  0  0
 58 33  1  0  0  0  0
 61  6  1  0  0  0  0
M  END
