-1 1
 OpenBabel05232413493D

 70 71  0  0  1  0  0  0  0  0999 V2000
   -3.7270    0.0981   -6.2174 O   0  0  0  0  0  0  0  0  0  0  0  0
   -2.9483    0.9902   -5.9276 N   0  0  0  0  0  0  0  0  0  0  0  0
   -2.7029    1.2510   -4.5219 C   0  0  0  0  0  0  0  0  0  0  0  0
   -3.3918    0.5196   -3.5530 C   0  0  0  0  0  0  0  0  0  0  0  0
   -3.1392    0.7421   -2.2155 C   0  0  0  0  0  0  0  0  0  0  0  0
   -2.1941    1.7123   -1.7932 C   0  0  0  0  0  0  0  0  0  0  0  0
   -1.9572    1.9389   -0.4583 N   0  0  0  0  0  0  0  0  0  0  0  0
   -1.0859    3.0274   -0.0269 C   0  0  0  0  0  0  0  0  0  0  0  0
   -1.4779    3.4916    1.3835 C   0  0  0  0  0  0  0  0  0  0  0  0
   -1.5315    2.4235    2.3654 N   0  0  0  0  0  0  0  0  0  0  0  0
   -2.4218    1.3835    1.8837 C   0  0  0  0  0  0  0  0  0  0  0  0
   -2.0212    0.8477    0.5128 C   0  0  0  0  0  0  0  0  0  0  0  0
   -0.1914    2.0204    2.8005 C   0  0  0  0  0  0  0  0  0  0  0  0
   -0.0639    0.6289    3.3119 C   0  0  0  0  0  0  0  0  0  0  0  0
    2.2810    1.1136    0.3299 S   0  0  0  0  0  1  0  0  0  0  0  0
    1.9424    0.9355   -1.4582 C   0  0  0  0  0  0  0  0  0  0  0  0
    0.8126   -0.0471   -1.7754 C   0  0  2  0  0  0  0  0  0  0  0  0
   -0.1468    0.3913   -1.4639 H   0  0  0  0  0  0  0  0  0  0  0  0
    1.0007   -1.2726   -1.0096 N   0  0  0  0  0  0  0  0  0  0  0  0
   -0.0242   -2.0479   -0.5981 C   0  0  0  0  0  0  0  0  0  0  0  0
    0.2947   -3.0084    0.5245 C   0  0  0  0  0  0  0  0  0  0  0  0
   -1.1563   -1.9798   -1.0789 O   0  0  0  0  0  0  0  0  0  0  0  0
    0.6937   -0.3036   -3.2925 C   0  0  0  0  0  0  0  0  0  0  0  0
   -0.3855   -1.0428   -3.6426 N   0  0  0  0  0  0  0  0  0  0  0  0
   -0.6691   -1.3656   -5.0149 C   0  0  0  0  0  0  0  0  0  0  0  0
    1.4782    0.1579   -4.1044 O   0  0  0  0  0  0  0  0  0  0  0  0
    0.5833    0.2642    4.4194 C   0  0  0  0  0  0  0  0  0  0  0  0
    0.8445   -1.4534    4.7404 S   0  0  0  0  0  0  0  0  0  0  0  0
   -0.0656   -2.2284    3.8867 O   0  0  0  0  0  0  0  0  0  0  0  0
    2.5177   -1.7437    4.1699 C   0  0  0  0  0  0  0  0  0  0  0  0
    3.3946   -2.4451    4.9958 C   0  0  0  0  0  0  0  0  0  0  0  0
    4.6802   -2.7175    4.5311 C   0  0  0  0  0  0  0  0  0  0  0  0
    5.0768   -2.2776    3.2671 C   0  0  0  0  0  0  0  0  0  0  0  0
    4.1911   -1.5633    2.4593 C   0  0  0  0  0  0  0  0  0  0  0  0
    2.8988   -1.2965    2.9047 C   0  0  0  0  0  0  0  0  0  0  0  0
    0.8235   -1.6703    6.1922 O   0  0  0  0  0  0  0  0  0  0  0  0
   -1.5091    2.4311   -2.8041 C   0  0  0  0  0  0  0  0  0  0  0  0
   -1.7566    2.2004   -4.1465 C   0  0  0  0  0  0  0  0  0  0  0  0
   -2.3667    1.6721   -6.7498 O   0  0  0  0  0  0  0  0  0  0  0  0
   -4.1225   -0.2249   -3.8673 H   0  0  0  0  0  0  0  0  0  0  0  0
   -3.6872    0.1560   -1.4806 H   0  0  0  0  0  0  0  0  0  0  0  0
   -1.2072    3.8809   -0.7072 H   0  0  0  0  0  0  0  0  0  0  0  0
   -0.0237    2.7080   -0.0485 H   0  0  0  0  0  0  0  0  0  0  0  0
   -2.4739    3.9665    1.3366 H   0  0  0  0  0  0  0  0  0  0  0  0
   -0.7623    4.2592    1.7173 H   0  0  0  0  0  0  0  0  0  0  0  0
   -3.4347    1.8170    1.8126 H   0  0  0  0  0  0  0  0  0  0  0  0
   -2.4801    0.5604    2.6103 H   0  0  0  0  0  0  0  0  0  0  0  0
   -2.7155    0.0692    0.1828 H   0  0  0  0  0  0  0  0  0  0  0  0
   -1.0234    0.3723    0.5741 H   0  0  0  0  0  0  0  0  0  0  0  0
    0.1679    2.7408    3.5549 H   0  0  0  0  0  0  0  0  0  0  0  0
    0.5451    2.0256    1.9608 H   0  0  0  0  0  0  0  0  0  0  0  0
   -0.4304   -0.1796    2.6719 H   0  0  0  0  0  0  0  0  0  0  0  0
    2.8467    0.6055   -1.9913 H   0  0  0  0  0  0  0  0  0  0  0  0
    1.6674    1.9009   -1.9096 H   0  0  0  0  0  0  0  0  0  0  0  0
    1.7916   -1.1852   -0.3661 H   0  0  0  0  0  0  0  0  0  0  0  0
    1.3641   -3.2545    0.5771 H   0  0  0  0  0  0  0  0  0  0  0  0
   -0.2940   -3.9245    0.3904 H   0  0  0  0  0  0  0  0  0  0  0  0
    0.0042   -2.5626    1.4895 H   0  0  0  0  0  0  0  0  0  0  0  0
   -0.9635   -1.4109   -2.8843 H   0  0  0  0  0  0  0  0  0  0  0  0
   -0.1429   -2.2760   -5.3539 H   0  0  0  0  0  0  0  0  0  0  0  0
   -0.3446   -0.5358   -5.6593 H   0  0  0  0  0  0  0  0  0  0  0  0
   -1.7492   -1.5175   -5.1501 H   0  0  0  0  0  0  0  0  0  0  0  0
    1.0390    0.9380    5.1482 H   0  0  0  0  0  0  0  0  0  0  0  0
    3.0640   -2.7634    5.9863 H   0  0  0  0  0  0  0  0  0  0  0  0
    5.3785   -3.2690    5.1648 H   0  0  0  0  0  0  0  0  0  0  0  0
    6.0899   -2.4839    2.9136 H   0  0  0  0  0  0  0  0  0  0  0  0
    4.4867   -1.1823    1.4788 H   0  0  0  0  0  0  0  0  0  0  0  0
    2.2358   -0.7148    2.2524 H   0  0  0  0  0  0  0  0  0  0  0  0
   -0.7231    3.1355   -2.5385 H   0  0  0  0  0  0  0  0  0  0  0  0
   -1.1942    2.7284   -4.9156 H   0  0  0  0  0  0  0  0  0  0  0  0
  1  2  2  0  0  0  0
  2  3  1  0  0  0  0
  3 38  2  0  0  0  0
  3  4  1  0  0  0  0
  4  5  2  0  0  0  0
  5  6  1  0  0  0  0
  5 41  1  0  0  0  0
  6  7  1  0  0  0  0
  7  8  1  0  0  0  0
  7 12  1  0  0  0  0
  8  9  1  0  0  0  0
  9 45  1  0  0  0  0
  9 10  1  0  0  0  0
 10 13  1  0  0  0  0
 11 10  1  0  0  0  0
 11 47  1  0  0  0  0
 12 49  1  0  0  0  0
 12 11  1  0  0  0  0
 13 14  1  0  0  0  0
 13 50  1  0  0  0  0
 14 27  2  0  0  0  0
 16 15  1  0  0  0  0
 17 18  1  1  0  0  0
 17 16  1  0  0  0  0
 17 19  1  0  0  0  0
 19 20  1  0  0  0  0
 19 55  1  0  0  0  0
 20 21  1  0  0  0  0
 21 56  1  0  0  0  0
 21 58  1  0  0  0  0
 22 20  2  0  0  0  0
 23 17  1  0  0  0  0
 24 23  1  0  0  0  0
 24 59  1  0  0  0  0
 25 24  1  0  0  0  0
 26 23  2  0  0  0  0
 27 28  1  0  0  0  0
 27 63  1  0  0  0  0
 28 36  2  0  0  0  0
 29 28  2  0  0  0  0
 30 28  1  0  0  0  0
 30 31  1  0  0  0  0
 31 64  1  0  0  0  0
 32 31  2  0  0  0  0
 32 65  1  0  0  0  0
 33 32  1  0  0  0  0
 34 35  1  0  0  0  0
 34 33  2  0  0  0  0
 35 30  2  0  0  0  0
 37 69  1  0  0  0  0
 37  6  2  0  0  0  0
 38 37  1  0  0  0  0
 39  2  2  0  0  0  0
 40  4  1  0  0  0  0
 42  8  1  0  0  0  0
 43  8  1  0  0  0  0
 44  9  1  0  0  0  0
 46 11  1  0  0  0  0
 48 12  1  0  0  0  0
 51 13  1  0  0  0  0
 52 14  1  0  0  0  0
 53 16  1  0  0  0  0
 54 16  1  0  0  0  0
 57 21  1  0  0  0  0
 60 25  1  0  0  0  0
 61 25  1  0  0  0  0
 62 25  1  0  0  0  0
 66 33  1  0  0  0  0
 67 34  1  0  0  0  0
 68 35  1  0  0  0  0
 70 38  1  0  0  0  0
M  END
