-1 1
 OpenBabel05232414493D

 70 71  0  0  1  0  0  0  0  0999 V2000
   -3.5583    3.2564   -1.6273 O   0  0  0  0  0  0  0  0  0  0  0  0
   -3.2906    4.4345   -1.4719 N   0  0  0  0  0  0  0  0  0  0  0  0
   -3.0673    4.9112   -0.1195 C   0  0  0  0  0  0  0  0  0  0  0  0
   -3.2198    4.0398    0.9588 C   0  0  0  0  0  0  0  0  0  0  0  0
   -2.9647    4.4773    2.2429 C   0  0  0  0  0  0  0  0  0  0  0  0
   -2.5521    5.8119    2.4979 C   0  0  0  0  0  0  0  0  0  0  0  0
   -2.2956    6.2458    3.7736 N   0  0  0  0  0  0  0  0  0  0  0  0
   -1.6840    7.5594    3.9416 C   0  0  0  0  0  0  0  0  0  0  0  0
   -1.4881    7.9649    5.4094 C   0  0  0  0  0  0  0  0  0  0  0  0
   -0.9894    6.9012    6.2476 N   0  0  0  0  0  0  0  0  0  0  0  0
   -1.9663    5.8320    6.2260 C   0  0  0  0  0  0  0  0  0  0  0  0
   -2.2214    5.2426    4.8396 C   0  0  0  0  0  0  0  0  0  0  0  0
    0.3952    6.5479    5.9063 C   0  0  0  0  0  0  0  0  0  0  0  0
    0.8132    5.2108    6.4589 C   0  0  0  0  0  3  0  0  0  0  0  0
    2.9300    5.1277    5.1460 S   0  0  0  0  0  1  0  0  0  0  0  0
    2.3994    5.3545    3.4146 C   0  0  0  0  0  0  0  0  0  0  0  0
    1.2391    4.4464    2.9654 C   0  0  2  0  0  0  0  0  0  0  0  0
    0.2728    4.8809    3.2839 H   0  0  0  0  0  0  0  0  0  0  0  0
    1.3706    3.1399    3.5938 N   0  0  0  0  0  0  0  0  0  0  0  0
    0.3328    2.3125    3.8356 C   0  0  0  0  0  0  0  0  0  0  0  0
    0.5796    1.2347    4.8605 C   0  0  0  0  0  0  0  0  0  0  0  0
   -0.7662    2.4404    3.2914 O   0  0  0  0  0  0  0  0  0  0  0  0
    1.1831    4.3723    1.4196 C   0  0  0  0  0  0  0  0  0  0  0  0
    0.1336    3.6795    0.9293 N   0  0  0  0  0  0  0  0  0  0  0  0
   -0.0417    3.5026   -0.4887 C   0  0  0  0  0  0  0  0  0  0  0  0
    2.0052    4.9223    0.7057 O   0  0  0  0  0  0  0  0  0  0  0  0
    1.0021    5.0285    7.8072 C   0  0  0  0  0  3  0  0  0  0  0  0
    0.8915    3.4555    8.4873 S   0  0  0  0  0  0  0  0  0  0  0  0
   -0.1631    2.6704    7.8088 O   0  0  0  0  0  0  0  0  0  0  0  0
    2.4192    2.5725    8.1082 C   0  0  0  0  0  0  0  0  0  0  0  0
    2.3790    1.1830    7.9948 C   0  0  0  0  0  0  0  0  0  0  0  0
    3.5545    0.4869    7.7231 C   0  0  0  0  0  0  0  0  0  0  0  0
    4.7560    1.1789    7.5594 C   0  0  0  0  0  0  0  0  0  0  0  0
    4.7830    2.5680    7.6700 C   0  0  0  0  0  0  0  0  0  0  0  0
    3.6118    3.2706    7.9469 C   0  0  0  0  0  0  0  0  0  0  0  0
    0.8290    3.5803    9.9534 O   0  0  0  0  0  0  0  0  0  0  0  0
   -2.3970    6.6678    1.3759 C   0  0  0  0  0  0  0  0  0  0  0  0
   -2.6522    6.2233    0.0907 C   0  0  0  0  0  0  0  0  0  0  0  0
   -3.1947    5.2325   -2.3854 O   0  0  0  0  0  0  0  0  0  0  0  0
   -3.5147    3.0072    0.7743 H   0  0  0  0  0  0  0  0  0  0  0  0
   -3.0278    3.7516    3.0488 H   0  0  0  0  0  0  0  0  0  0  0  0
   -2.3217    8.3213    3.4645 H   0  0  0  0  0  0  0  0  0  0  0  0
   -0.7130    7.5879    3.4107 H   0  0  0  0  0  0  0  0  0  0  0  0
   -2.4501    8.3088    5.8259 H   0  0  0  0  0  0  0  0  0  0  0  0
   -0.7993    8.8245    5.4351 H   0  0  0  0  0  0  0  0  0  0  0  0
   -2.9057    6.2468    6.6291 H   0  0  0  0  0  0  0  0  0  0  0  0
   -1.6650    5.0173    6.8986 H   0  0  0  0  0  0  0  0  0  0  0  0
   -3.1725    4.6897    4.8789 H   0  0  0  0  0  0  0  0  0  0  0  0
   -1.4451    4.4979    4.5924 H   0  0  0  0  0  0  0  0  0  0  0  0
    1.0580    7.3348    6.2993 H   0  0  0  0  0  0  0  0  0  0  0  0
    0.5513    6.5265    4.8154 H   0  0  0  0  0  0  0  0  0  0  0  0
    0.4575    4.3419    5.9004 H   0  0  0  0  0  0  0  0  0  0  0  0
    3.2578    5.1597    2.7567 H   0  0  0  0  0  0  0  0  0  0  0  0
    2.1040    6.3964    3.2166 H   0  0  0  0  0  0  0  0  0  0  0  0
    2.1539    3.1219    4.2580 H   0  0  0  0  0  0  0  0  0  0  0  0
    1.6443    0.9846    4.9631 H   0  0  0  0  0  0  0  0  0  0  0  0
    0.0010    0.3422    4.5915 H   0  0  0  0  0  0  0  0  0  0  0  0
    0.2194    1.6047    5.8359 H   0  0  0  0  0  0  0  0  0  0  0  0
   -0.4841    3.2197    1.6021 H   0  0  0  0  0  0  0  0  0  0  0  0
    0.8371    3.0202   -0.9471 H   0  0  0  0  0  0  0  0  0  0  0  0
   -0.1873    4.4691   -0.9984 H   0  0  0  0  0  0  0  0  0  0  0  0
   -0.9261    2.8782   -0.6701 H   0  0  0  0  0  0  0  0  0  0  0  0
    1.2561    5.8157    8.5165 H   0  0  0  0  0  0  0  0  0  0  0  0
    1.4260    0.6623    8.1054 H   0  0  0  0  0  0  0  0  0  0  0  0
    3.5308   -0.6014    7.6288 H   0  0  0  0  0  0  0  0  0  0  0  0
    5.6741    0.6317    7.3323 H   0  0  0  0  0  0  0  0  0  0  0  0
    5.7152    3.1153    7.5175 H   0  0  0  0  0  0  0  0  0  0  0  0
    3.6172    4.3609    8.0034 H   0  0  0  0  0  0  0  0  0  0  0  0
   -2.0533    7.6918    1.5013 H   0  0  0  0  0  0  0  0  0  0  0  0
   -2.5172    6.8827   -0.7661 H   0  0  0  0  0  0  0  0  0  0  0  0
  1  2  2  0  0  0  0
  2  3  1  0  0  0  0
  3 38  2  0  0  0  0
  3  4  1  0  0  0  0
  4  5  2  0  0  0  0
  5  6  1  0  0  0  0
  5 41  1  0  0  0  0
  6  7  1  0  0  0  0
  7  8  1  0  0  0  0
  7 12  1  0  0  0  0
  8  9  1  0  0  0  0
  9 45  1  0  0  0  0
  9 44  1  0  0  0  0
  9 10  1  0  0  0  0
 11 10  1  0  0  0  0
 11 46  1  0  0  0  0
 11 47  1  0  0  0  0
 12 48  1  0  0  0  0
 12 11  1  0  0  0  0
 13 10  1  0  0  0  0
 13 50  1  0  0  0  0
 13 14  1  0  0  0  0
 14 27  1  0  0  0  0
 16 15  1  0  0  0  0
 17 18  1  1  0  0  0
 17 16  1  0  0  0  0
 17 19  1  0  0  0  0
 19 20  1  0  0  0  0
 19 55  1  0  0  0  0
 20 21  1  0  0  0  0
 21 56  1  0  0  0  0
 21 58  1  0  0  0  0
 22 20  2  0  0  0  0
 23 17  1  0  0  0  0
 24 23  1  0  0  0  0
 24 59  1  0  0  0  0
 25 24  1  0  0  0  0
 26 23  2  0  0  0  0
 27 28  1  0  0  0  0
 27 63  1  0  0  0  0
 28 36  2  0  0  0  0
 29 28  2  0  0  0  0
 30 28  1  0  0  0  0
 31 64  1  0  0  0  0
 31 30  1  0  0  0  0
 32 31  2  0  0  0  0
 33 34  2  0  0  0  0
 33 32  1  0  0  0  0
 34 35  1  0  0  0  0
 35 68  1  0  0  0  0
 35 30  2  0  0  0  0
 37 69  1  0  0  0  0
 37  6  2  0  0  0  0
 38 37  1  0  0  0  0
 39  2  2  0  0  0  0
 40  4  1  0  0  0  0
 42  8  1  0  0  0  0
 43  8  1  0  0  0  0
 49 12  1  0  0  0  0
 51 13  1  0  0  0  0
 52 14  1  0  0  0  0
 53 16  1  0  0  0  0
 54 16  1  0  0  0  0
 57 21  1  0  0  0  0
 60 25  1  0  0  0  0
 61 25  1  0  0  0  0
 62 25  1  0  0  0  0
 65 32  1  0  0  0  0
 66 33  1  0  0  0  0
 67 34  1  0  0  0  0
 70 38  1  0  0  0  0
M  END
