-1 1
 OpenBabel05192410563D

 59 59  0  0  1  0  0  0  0  0999 V2000
   -1.5018   -2.3979    4.6037 O   0  0  0  0  0  0  0  0  0  0  0  0
   -1.1522   -1.3385    4.1132 C   0  0  0  0  0  0  0  0  0  0  0  0
   -1.2095   -1.0589    2.5909 C   0  0  2  0  0  0  0  0  0  0  0  0
   -2.0498   -2.1416    1.8906 C   0  0  0  0  0  0  0  0  0  0  0  0
   -1.6924   -2.4311    0.1472 S   0  0  0  0  0  0  0  0  0  0  0  0
   -2.4974   -0.7913   -0.6622 C   0  0  1  0  0  0  0  0  0  0  0  0
   -3.6261   -0.2673    0.0711 C   0  0  0  0  0  3  0  0  0  0  0  0
   -4.8651   -0.8247   -0.1013 N   0  0  0  0  0  0  0  0  0  0  0  0
   -5.0322   -1.7173   -0.9579 O   0  0  0  0  0  0  0  0  0  0  0  0
   -5.8106   -0.4160    0.5967 O   0  0  0  0  0  0  0  0  0  0  0  0
   -1.3521    0.1511   -0.9330 C   0  0  0  0  0  0  0  0  0  0  0  0
   -1.1184    1.3111   -0.1831 C   0  0  0  0  0  0  0  0  0  0  0  0
   -0.0369    2.1428   -0.4454 C   0  0  0  0  0  0  0  0  0  0  0  0
    0.8503    1.8491   -1.4831 C   0  0  0  0  0  0  0  0  0  0  0  0
    1.9016    2.7125   -1.6177 O   0  0  0  0  0  0  0  0  0  0  0  0
    2.8834    2.5704   -2.6219 C   0  0  0  0  0  0  0  0  0  0  0  0
    2.3199    2.8778   -4.0096 C   0  0  0  0  0  0  0  0  0  0  0  0
    3.9608    3.5909   -2.2466 C   0  0  0  0  0  0  0  0  0  0  0  0
    3.5489    1.1817   -2.4965 C   0  0  0  0  0  0  0  0  0  0  0  0
    3.6663    0.5481   -3.6678 O   0  0  0  0  0  0  0  0  0  0  0  0
    4.2317   -0.7659   -3.6402 C   0  0  0  0  0  0  0  0  0  0  0  0
    3.1996   -1.8091   -3.2591 C   0  0  0  0  0  0  0  0  0  0  0  0
    3.9579    0.7419   -1.4565 O   0  0  0  0  0  0  0  0  0  0  0  0
    0.6250    0.7106   -2.2608 C   0  0  0  0  0  0  0  0  0  0  0  0
   -0.4606   -0.1183   -1.9739 C   0  0  0  0  0  0  0  0  0  0  0  0
    0.1251   -0.9825    2.0179 N   0  0  0  0  0  0  0  0  0  0  0  0
    0.8990    0.1266    2.0657 C   0  0  0  0  0  0  0  0  0  0  0  0
    2.1081    0.0999    1.1596 C   0  0  0  0  0  0  0  0  0  0  0  0
    0.6722    1.0746    2.8141 O   0  0  0  0  0  0  0  0  0  0  0  0
   -1.6953   -0.0768    2.4562 H   0  0  0  0  0  0  0  0  0  0  0  0
   -0.6931   -0.2881    4.8357 N   0  0  0  0  0  0  0  0  0  0  0  0
   -0.4788   -0.3696    6.2548 C   0  0  0  0  0  0  0  0  0  0  0  0
   -1.9061   -3.0999    2.4071 H   0  0  0  0  0  0  0  0  0  0  0  0
   -3.1134   -1.8730    1.9796 H   0  0  0  0  0  0  0  0  0  0  0  0
   -1.7891    1.5717    0.6362 H   0  0  0  0  0  0  0  0  0  0  0  0
    0.1540    3.0215    0.1724 H   0  0  0  0  0  0  0  0  0  0  0  0
    1.8899    3.8894   -3.9901 H   0  0  0  0  0  0  0  0  0  0  0  0
    1.5313    2.1773   -4.3082 H   0  0  0  0  0  0  0  0  0  0  0  0
    3.1148    2.8420   -4.7664 H   0  0  0  0  0  0  0  0  0  0  0  0
    3.5189    4.5969   -2.2470 H   0  0  0  0  0  0  0  0  0  0  0  0
    4.7931    3.5632   -2.9652 H   0  0  0  0  0  0  0  0  0  0  0  0
    4.3406    3.3674   -1.2410 H   0  0  0  0  0  0  0  0  0  0  0  0
    5.0769   -0.7751   -2.9367 H   0  0  0  0  0  0  0  0  0  0  0  0
    4.6105   -0.9290   -4.6583 H   0  0  0  0  0  0  0  0  0  0  0  0
    2.8179   -1.6303   -2.2443 H   0  0  0  0  0  0  0  0  0  0  0  0
    3.6554   -2.8099   -3.2835 H   0  0  0  0  0  0  0  0  0  0  0  0
    2.3513   -1.8004   -3.9589 H   0  0  0  0  0  0  0  0  0  0  0  0
    1.2767    0.4424   -3.0907 H   0  0  0  0  0  0  0  0  0  0  0  0
   -0.6135   -1.0134   -2.5833 H   0  0  0  0  0  0  0  0  0  0  0  0
    0.2290   -1.5904    1.2019 H   0  0  0  0  0  0  0  0  0  0  0  0
    1.8911   -0.3928    0.2017 H   0  0  0  0  0  0  0  0  0  0  0  0
    2.9264   -0.4460    1.6539 H   0  0  0  0  0  0  0  0  0  0  0  0
    2.4412    1.1239    0.9607 H   0  0  0  0  0  0  0  0  0  0  0  0
   -0.2921    0.4858    4.2980 H   0  0  0  0  0  0  0  0  0  0  0  0
   -0.9350   -1.3001    6.6171 H   0  0  0  0  0  0  0  0  0  0  0  0
   -0.9436    0.4825    6.7764 H   0  0  0  0  0  0  0  0  0  0  0  0
    0.5951   -0.3846    6.5095 H   0  0  0  0  0  0  0  0  0  0  0  0
   -3.5700    0.4466    0.8885 H   0  0  0  0  0  0  0  0  0  0  0  0
   -2.8592   -1.2497   -1.5910 H   0  0  0  0  0  0  0  0  0  0  0  0
  2  1  2  0  0  0  0
  2 31  1  0  0  0  0
  3 30  1  6  0  0  0
  3  2  1  0  0  0  0
  4 34  1  0  0  0  0
  4 33  1  0  0  0  0
  4  3  1  0  0  0  0
  5  4  1  0  0  0  0
  6 59  1  6  0  0  0
  6  7  1  0  0  0  0
  6  5  1  0  0  0  0
  7 58  1  0  0  0  0
  8  7  1  0  0  0  0
  8 10  2  0  0  0  0
  9  8  2  0  0  0  0
 11  6  1  0  0  0  0
 11 12  1  0  0  0  0
 12 35  1  0  0  0  0
 13 12  2  0  0  0  0
 13 36  1  0  0  0  0
 14 13  1  0  0  0  0
 15 14  1  0  0  0  0
 16 19  1  0  0  0  0
 16 18  1  0  0  0  0
 16 15  1  0  0  0  0
 17 37  1  0  0  0  0
 17 16  1  0  0  0  0
 18 42  1  0  0  0  0
 19 23  2  0  0  0  0
 20 21  1  0  0  0  0
 20 19  1  0  0  0  0
 21 22  1  0  0  0  0
 21 43  1  0  0  0  0
 22 45  1  0  0  0  0
 24 25  1  0  0  0  0
 24 14  2  0  0  0  0
 25 11  2  0  0  0  0
 26 27  1  0  0  0  0
 26  3  1  0  0  0  0
 27 29  2  0  0  0  0
 28 52  1  0  0  0  0
 28 27  1  0  0  0  0
 31 32  1  0  0  0  0
 32 57  1  0  0  0  0
 32 55  1  0  0  0  0
 32 56  1  0  0  0  0
 38 17  1  0  0  0  0
 39 17  1  0  0  0  0
 40 18  1  0  0  0  0
 41 18  1  0  0  0  0
 44 21  1  0  0  0  0
 46 22  1  0  0  0  0
 47 22  1  0  0  0  0
 48 24  1  0  0  0  0
 49 25  1  0  0  0  0
 50 26  1  0  0  0  0
 51 28  1  0  0  0  0
 53 28  1  0  0  0  0
 54 31  1  0  0  0  0
M  END
