59
-1 1
O         1.338557    0.463421    2.821619
C         1.690102    1.511782    2.309572
C         1.690916    1.748545    0.779257
C         0.952334    0.602849    0.047915
S         1.507573    0.256450   -1.636601
C         0.288442    2.150286   -2.592231
C        -0.763524    2.501224   -1.769437
N        -1.985572    1.811875   -1.841706
O        -2.147991    0.938244   -2.692296
O        -2.867633    2.131170   -1.042023
C         1.451340    3.041007   -2.809351
C         1.742611    4.139692   -1.987528
C         2.847200    4.947280   -2.218788
C         3.704685    4.687601   -3.290900
O         4.785034    5.517481   -3.391298
C         5.783594    5.360797   -4.378852
C         5.272029    5.757374   -5.763933
C         6.905268    6.302992   -3.936117
C         6.365854    3.931180   -4.297345
O         6.438051    3.322692   -5.484983
C         6.911057    1.971026   -5.491617
C         5.805175    0.991823   -5.150514
O         6.751543    3.441155   -3.271324
C         3.421481    3.611594   -4.136895
C         2.310704    2.807919   -3.886200
N         3.041627    1.897298    0.263907
C         3.753655    3.041006    0.316045
C         5.000326    3.053517   -0.539620
O         3.454039    4.000077    1.029257
H         1.156731    2.699959    0.607493
N         2.096877    2.593954    3.020048
C         2.252392    2.557327    4.447996
H         1.038727   -0.309765    0.651817
H        -0.119605    0.863835    0.022134
H         1.111983    4.362226   -1.125639
H         3.085288    5.769832   -1.543053
H         4.904187    6.792112   -5.712485
H         4.450044    5.118966   -6.108015
H         6.080876    5.702443   -6.504754
H         6.517503    7.330423   -3.896506
H         7.749442    6.264013   -4.640225
H         7.252412    6.012382   -2.936089
H         7.745491    1.884061   -4.780824
H         7.289142    1.812450   -6.510775
H         5.418641    1.167954   -4.136948
H         6.193048   -0.036499   -5.194354
H         4.970226    1.073884   -5.861555
H         4.053771    3.369486   -4.988933
H         2.118247    1.953190   -4.539488
H         3.192537    1.275771   -0.542541
H         4.862313    2.502101   -1.479605
H         5.829654    2.587759    0.014767
H         5.275661    4.087824   -0.772917
H         2.494529    3.366827    2.477039
H         1.813825    1.620369    4.815634
H         1.736483    3.404808    4.928311
H         3.314265    2.587667    4.748913
H        -0.739487    3.234299   -0.967614
H         0.018810    1.500739   -3.424645
