59
-1 1
O         7.970721   -0.410301    0.189849
C         7.826873   -1.348770   -0.578047
C         6.435658   -1.927128   -0.934694
C         5.331957   -1.100934   -0.261158
S         3.678267   -1.845826   -0.308669
C         3.336718   -2.215296    2.064522
C         2.043218   -1.907938    2.434512
N         1.661302   -0.578006    2.648374
O         2.502251    0.322167    2.579266
O         0.480166   -0.355761    2.919065
C         3.782784   -3.627749    2.188111
C         4.802606   -3.954106    3.101686
O         5.277067   -2.959294    3.897683
C         6.654787   -2.586270    3.979263
C         7.314239   -3.262488    5.176447
C         7.413909   -2.840452    2.681102
C         6.594063   -1.064354    4.237063
O         5.948319   -0.439389    3.270289
C         5.740906    0.975415    3.378717
C         5.506909    1.532735    1.995360
O         7.088955   -0.525696    5.195473
C         5.212918   -5.284643    3.254310
C         4.604476   -6.298865    2.520608
C         3.572970   -5.990488    1.632838
C         3.175217   -4.667250    1.472687
N         6.295325   -3.321427   -0.534374
C         6.771976   -4.369213   -1.239448
C         6.172921   -5.706785   -0.866535
O         7.621203   -4.268975   -2.123000
H         6.332353   -1.870048   -2.034103
N         8.856774   -1.955373   -1.213510
C        10.228078   -1.603176   -0.965509
H         5.617499   -0.942473    0.789378
H         5.324501   -0.102437   -0.719126
H         7.431701   -4.339639    4.993699
H         6.703564   -3.114109    6.076834
H         8.305603   -2.827186    5.359696
H         7.519052   -3.916937    2.487092
H         8.416484   -2.393801    2.741939
H         6.893278   -2.381245    1.834707
H         6.621820    1.416654    3.867762
H         4.863140    1.130761    4.024490
H         6.352145    1.287899    1.335642
H         5.400489    2.626243    2.060838
H         4.578158    1.121184    1.575677
H         5.991297   -5.522430    3.980097
H         4.931631   -7.333130    2.652294
H         3.087942   -6.780176    1.054735
H         2.395457   -4.406448    0.754272
H         5.411836   -3.474696   -0.035799
H         6.062427   -5.808348    0.221978
H         6.805485   -6.507985   -1.266204
H         5.166313   -5.786723   -1.305252
H         8.624166   -2.783377   -1.771017
H        10.772874   -2.414646   -0.453075
H        10.242586   -0.712800   -0.323583
H        10.758866   -1.374055   -1.903977
H         4.087787   -1.453692    2.273410
H         1.219714   -2.615774    2.491590
