59
-1 1
O         2.685250    1.686819   -1.471865
C         2.402948    0.856676   -2.319133
C         0.973185    0.283172   -2.478645
C        -0.018794    1.170886   -1.734204
S        -1.746786    0.613477   -1.700489
C        -1.955798    0.132793    0.153816
C        -3.300253    0.389390    0.659581
N        -3.621003    1.631129    1.109382
O        -2.756119    2.546002    1.084623
O        -4.763849    1.850417    1.549607
C        -1.542549   -1.298961    0.388364
C        -0.679635   -1.624284    1.454501
O        -0.281787   -0.621182    2.278480
C         1.081186   -0.261129    2.515168
C         1.603070   -0.954474    3.769139
C         1.982821   -0.508547    1.309002
C         0.979407    1.257605    2.785366
O         0.507220    1.894337    1.731530
C         0.165422    3.283908    1.856124
C         0.038270    3.860256    0.466894
O         1.291150    1.777733    3.826848
C        -0.345759   -2.960330    1.712151
C        -0.880183   -3.985902    0.936324
C        -1.751929   -3.680005   -0.107871
C        -2.063561   -2.350362   -0.377557
N         0.922142   -1.092614   -2.007102
C         1.315651   -2.139853   -2.764383
C         0.978726   -3.506302   -2.216554
O         1.900774   -2.004838   -3.836178
H         0.735391    0.270167   -3.556219
N         3.293083    0.352300   -3.207702
C         4.694971    0.671062   -3.154449
H         0.312446    1.308080   -0.695209
H         0.017528    2.171456   -2.185530
H         1.764086   -2.025204    3.580282
H         0.883273   -0.835072    4.589323
H         2.555849   -0.506783    4.082353
H         2.031777   -1.580666    1.069851
H         3.000383   -0.156981    1.531796
H         1.631957    0.042281    0.429323
H         0.944654    3.777641    2.456030
H        -0.800450    3.335454    2.379652
H         0.953664    3.682945   -0.117924
H        -0.138756    4.943847    0.539071
H        -0.829310    3.405882   -0.032931
H         0.306840   -3.191347    2.554741
H        -0.620993   -5.024147    1.157533
H        -2.182455   -4.476975   -0.718705
H        -2.724036   -2.097915   -1.210263
H         0.323761   -1.279461   -1.206219
H         0.934162   -3.520567   -1.119414
H         1.722149   -4.225338   -2.581563
H        -0.011780   -3.805059   -2.590758
H         2.967966   -0.441819   -3.764210
H         5.296541   -0.181062   -2.794431
H         4.829983    1.509703   -2.459427
H         5.072660    0.964543   -4.146689
H        -1.262408    0.821702    0.648261
H        -4.098805   -0.347792    0.685160
