-1 1
 OpenBabel05192410563D

 59 59  0  0  1  0  0  0  0  0999 V2000
    2.6852    1.6868   -1.4719 O   0  0  0  0  0  0  0  0  0  0  0  0
    2.4029    0.8567   -2.3191 C   0  0  0  0  0  0  0  0  0  0  0  0
    0.9732    0.2832   -2.4786 C   0  0  2  0  0  0  0  0  0  0  0  0
   -0.0188    1.1709   -1.7342 C   0  0  0  0  0  0  0  0  0  0  0  0
   -1.7468    0.6135   -1.7005 S   0  0  0  0  0  0  0  0  0  0  0  0
   -1.9558    0.1328    0.1538 C   0  0  1  0  0  0  0  0  0  0  0  0
   -3.3003    0.3894    0.6596 C   0  0  0  0  0  3  0  0  0  0  0  0
   -3.6210    1.6311    1.1094 N   0  0  0  0  0  0  0  0  0  0  0  0
   -2.7561    2.5460    1.0846 O   0  0  0  0  0  0  0  0  0  0  0  0
   -4.7638    1.8504    1.5496 O   0  0  0  0  0  0  0  0  0  0  0  0
   -1.5425   -1.2990    0.3884 C   0  0  0  0  0  0  0  0  0  0  0  0
   -0.6796   -1.6243    1.4545 C   0  0  0  0  0  0  0  0  0  0  0  0
   -0.2818   -0.6212    2.2785 O   0  0  0  0  0  0  0  0  0  0  0  0
    1.0812   -0.2611    2.5152 C   0  0  0  0  0  0  0  0  0  0  0  0
    1.6031   -0.9545    3.7691 C   0  0  0  0  0  0  0  0  0  0  0  0
    1.9828   -0.5085    1.3090 C   0  0  0  0  0  0  0  0  0  0  0  0
    0.9794    1.2576    2.7854 C   0  0  0  0  0  0  0  0  0  0  0  0
    0.5072    1.8943    1.7315 O   0  0  0  0  0  0  0  0  0  0  0  0
    0.1654    3.2839    1.8561 C   0  0  0  0  0  0  0  0  0  0  0  0
    0.0383    3.8603    0.4669 C   0  0  0  0  0  0  0  0  0  0  0  0
    1.2912    1.7777    3.8268 O   0  0  0  0  0  0  0  0  0  0  0  0
   -0.3458   -2.9603    1.7122 C   0  0  0  0  0  0  0  0  0  0  0  0
   -0.8802   -3.9859    0.9363 C   0  0  0  0  0  0  0  0  0  0  0  0
   -1.7519   -3.6800   -0.1079 C   0  0  0  0  0  0  0  0  0  0  0  0
   -2.0636   -2.3504   -0.3776 C   0  0  0  0  0  0  0  0  0  0  0  0
    0.9221   -1.0926   -2.0071 N   0  0  0  0  0  0  0  0  0  0  0  0
    1.3157   -2.1399   -2.7644 C   0  0  0  0  0  0  0  0  0  0  0  0
    0.9787   -3.5063   -2.2166 C   0  0  0  0  0  0  0  0  0  0  0  0
    1.9008   -2.0048   -3.8362 O   0  0  0  0  0  0  0  0  0  0  0  0
    0.7354    0.2702   -3.5562 H   0  0  0  0  0  0  0  0  0  0  0  0
    3.2931    0.3523   -3.2077 N   0  0  0  0  0  0  0  0  0  0  0  0
    4.6950    0.6711   -3.1544 C   0  0  0  0  0  0  0  0  0  0  0  0
    0.3124    1.3081   -0.6952 H   0  0  0  0  0  0  0  0  0  0  0  0
    0.0175    2.1715   -2.1855 H   0  0  0  0  0  0  0  0  0  0  0  0
    1.7641   -2.0252    3.5803 H   0  0  0  0  0  0  0  0  0  0  0  0
    0.8833   -0.8351    4.5893 H   0  0  0  0  0  0  0  0  0  0  0  0
    2.5558   -0.5068    4.0824 H   0  0  0  0  0  0  0  0  0  0  0  0
    2.0318   -1.5807    1.0699 H   0  0  0  0  0  0  0  0  0  0  0  0
    3.0004   -0.1570    1.5318 H   0  0  0  0  0  0  0  0  0  0  0  0
    1.6320    0.0423    0.4293 H   0  0  0  0  0  0  0  0  0  0  0  0
    0.9447    3.7776    2.4560 H   0  0  0  0  0  0  0  0  0  0  0  0
   -0.8004    3.3355    2.3797 H   0  0  0  0  0  0  0  0  0  0  0  0
    0.9537    3.6829   -0.1179 H   0  0  0  0  0  0  0  0  0  0  0  0
   -0.1388    4.9438    0.5391 H   0  0  0  0  0  0  0  0  0  0  0  0
   -0.8293    3.4059   -0.0329 H   0  0  0  0  0  0  0  0  0  0  0  0
    0.3068   -3.1913    2.5547 H   0  0  0  0  0  0  0  0  0  0  0  0
   -0.6210   -5.0241    1.1575 H   0  0  0  0  0  0  0  0  0  0  0  0
   -2.1825   -4.4770   -0.7187 H   0  0  0  0  0  0  0  0  0  0  0  0
   -2.7240   -2.0979   -1.2103 H   0  0  0  0  0  0  0  0  0  0  0  0
    0.3238   -1.2795   -1.2062 H   0  0  0  0  0  0  0  0  0  0  0  0
    0.9342   -3.5206   -1.1194 H   0  0  0  0  0  0  0  0  0  0  0  0
    1.7221   -4.2253   -2.5816 H   0  0  0  0  0  0  0  0  0  0  0  0
   -0.0118   -3.8051   -2.5908 H   0  0  0  0  0  0  0  0  0  0  0  0
    2.9680   -0.4418   -3.7642 H   0  0  0  0  0  0  0  0  0  0  0  0
    5.2965   -0.1811   -2.7944 H   0  0  0  0  0  0  0  0  0  0  0  0
    4.8300    1.5097   -2.4594 H   0  0  0  0  0  0  0  0  0  0  0  0
    5.0727    0.9645   -4.1467 H   0  0  0  0  0  0  0  0  0  0  0  0
   -1.2624    0.8217    0.6483 H   0  0  0  0  0  0  0  0  0  0  0  0
   -4.0988   -0.3478    0.6852 H   0  0  0  0  0  0  0  0  0  0  0  0
  2  1  2  0  0  0  0
  3 30  1  6  0  0  0
  3  2  1  0  0  0  0
  3 26  1  0  0  0  0
  3  4  1  0  0  0  0
  4  5  1  0  0  0  0
  4 33  1  0  0  0  0
  5  6  1  0  0  0  0
  6 11  1  0  0  0  0
  6 58  1  1  0  0  0
  6  7  1  0  0  0  0
  7 59  1  0  0  0  0
  7  8  1  0  0  0  0
  8 10  2  0  0  0  0
  9  8  2  0  0  0  0
 11 12  1  0  0  0  0
 12 22  2  0  0  0  0
 12 13  1  0  0  0  0
 13 14  1  0  0  0  0
 14 17  1  0  0  0  0
 14 15  1  0  0  0  0
 15 37  1  0  0  0  0
 15 36  1  0  0  0  0
 16 39  1  0  0  0  0
 16 14  1  0  0  0  0
 17 21  2  0  0  0  0
 18 19  1  0  0  0  0
 18 17  1  0  0  0  0
 19 42  1  0  0  0  0
 19 41  1  0  0  0  0
 20 44  1  0  0  0  0
 20 19  1  0  0  0  0
 22 46  1  0  0  0  0
 23 47  1  0  0  0  0
 23 22  1  0  0  0  0
 24 23  2  0  0  0  0
 25 24  1  0  0  0  0
 25 11  2  0  0  0  0
 26 50  1  0  0  0  0
 27 28  1  0  0  0  0
 27 26  1  0  0  0  0
 28 51  1  0  0  0  0
 29 27  2  0  0  0  0
 31 32  1  0  0  0  0
 31  2  1  0  0  0  0
 32 55  1  0  0  0  0
 32 56  1  0  0  0  0
 34  4  1  0  0  0  0
 35 15  1  0  0  0  0
 38 16  1  0  0  0  0
 40 16  1  0  0  0  0
 43 20  1  0  0  0  0
 45 20  1  0  0  0  0
 48 24  1  0  0  0  0
 49 25  1  0  0  0  0
 52 28  1  0  0  0  0
 53 28  1  0  0  0  0
 54 31  1  0  0  0  0
 57 32  1  0  0  0  0
M  END
