-1 1
 OpenBabel05232413493D

 59 58  0  0  1  0  0  0  0  0999 V2000
    1.3416    2.3601   -1.7085 O   0  0  0  0  0  0  0  0  0  0  0  0
    1.6072    1.2156   -2.0490 C   0  0  0  0  0  0  0  0  0  0  0  0
    0.5777    0.3040   -2.7488 C   0  0  2  0  0  0  0  0  0  0  0  0
   -0.8385    0.9106   -2.6626 C   0  0  0  0  0  0  0  0  0  0  0  0
   -2.1779   -0.2559   -3.0927 S   0  0  0  0  0  1  0  0  0  0  0  0
   -2.0102    0.1659    1.0649 C   0  0  0  0  0  0  0  0  0  0  0  0
   -2.7686    0.8292    0.1863 C   0  0  0  0  0  0  0  0  0  0  0  0
   -3.2196    2.1664    0.5260 N   0  0  0  0  0  0  0  0  0  0  0  0
   -3.2382    2.5077    1.6980 O   0  0  0  0  0  0  0  0  0  0  0  0
   -3.5699    2.8774   -0.3930 O   0  0  0  0  0  0  0  0  0  0  0  0
   -1.5765   -1.2255    0.9120 C   0  0  0  0  0  0  0  0  0  0  0  0
   -0.4935   -1.7059    1.6739 C   0  0  0  0  0  0  0  0  0  0  0  0
    0.2077   -0.8245    2.4331 O   0  0  0  0  0  0  0  0  0  0  0  0
    1.6039   -0.5933    2.2205 C   0  0  0  0  0  0  0  0  0  0  0  0
    2.3647   -1.1295    3.4292 C   0  0  0  0  0  0  0  0  0  0  0  0
    2.1367   -1.1719    0.9067 C   0  0  0  0  0  0  0  0  0  0  0  0
    1.8291    0.9271    2.1146 C   0  0  0  0  0  0  0  0  0  0  0  0
    0.8225    1.5722    1.5625 O   0  0  0  0  0  0  0  0  0  0  0  0
    1.0238    2.9741    1.3015 C   0  0  0  0  0  0  0  0  0  0  0  0
   -0.2583    3.5572    0.7683 C   0  0  0  0  0  0  0  0  0  0  0  0
    2.8727    1.4414    2.4425 O   0  0  0  0  0  0  0  0  0  0  0  0
   -0.1940   -3.0717    1.6857 C   0  0  0  0  0  0  0  0  0  0  0  0
   -0.9174   -3.9549    0.8903 C   0  0  0  0  0  0  0  0  0  0  0  0
   -1.9465   -3.4809    0.0772 C   0  0  0  0  0  0  0  0  0  0  0  0
   -2.2772   -2.1311    0.0990 C   0  0  0  0  0  0  0  0  0  0  0  0
    0.5168   -1.0498   -2.2107 N   0  0  0  0  0  0  0  0  0  0  0  0
    1.3918   -2.0390   -2.4710 C   0  0  0  0  0  0  0  0  0  0  0  0
    0.8905   -3.4310   -2.1533 C   0  0  0  0  0  0  0  0  0  0  0  0
    2.5404   -1.8621   -2.8816 O   0  0  0  0  0  0  0  0  0  0  0  0
    0.8848    0.2425   -3.8106 H   0  0  0  0  0  0  0  0  0  0  0  0
    2.8373    0.6833   -1.8805 N   0  0  0  0  0  0  0  0  0  0  0  0
    3.8932    1.4318   -1.2509 C   0  0  0  0  0  0  0  0  0  0  0  0
   -0.9711    1.2799   -1.6326 H   0  0  0  0  0  0  0  0  0  0  0  0
   -0.8590    1.7989   -3.3078 H   0  0  0  0  0  0  0  0  0  0  0  0
    2.2841   -2.2256    3.4644 H   0  0  0  0  0  0  0  0  0  0  0  0
    1.9415   -0.7174    4.3561 H   0  0  0  0  0  0  0  0  0  0  0  0
    3.4229   -0.8455    3.3705 H   0  0  0  0  0  0  0  0  0  0  0  0
    2.1942   -2.2679    0.9385 H   0  0  0  0  0  0  0  0  0  0  0  0
    3.1486   -0.7814    0.7342 H   0  0  0  0  0  0  0  0  0  0  0  0
    1.5021   -0.8769    0.0598 H   0  0  0  0  0  0  0  0  0  0  0  0
    1.8272    3.0653    0.5577 H   0  0  0  0  0  0  0  0  0  0  0  0
    1.3490    3.4524    2.2384 H   0  0  0  0  0  0  0  0  0  0  0  0
   -0.5311    3.0651   -0.1753 H   0  0  0  0  0  0  0  0  0  0  0  0
   -0.1009    4.6233    0.5485 H   0  0  0  0  0  0  0  0  0  0  0  0
   -1.0806    3.4703    1.4916 H   0  0  0  0  0  0  0  0  0  0  0  0
    0.6134   -3.4320    2.3252 H   0  0  0  0  0  0  0  0  0  0  0  0
   -0.6696   -5.0191    0.9016 H   0  0  0  0  0  0  0  0  0  0  0  0
   -2.5024   -4.1637   -0.5680 H   0  0  0  0  0  0  0  0  0  0  0  0
   -3.0891   -1.7590   -0.5271 H   0  0  0  0  0  0  0  0  0  0  0  0
   -0.4845   -1.3207   -2.1485 H   0  0  0  0  0  0  0  0  0  0  0  0
    0.9887   -3.6108   -1.0723 H   0  0  0  0  0  0  0  0  0  0  0  0
    1.5045   -4.1607   -2.6946 H   0  0  0  0  0  0  0  0  0  0  0  0
   -0.1707   -3.5492   -2.4144 H   0  0  0  0  0  0  0  0  0  0  0  0
    3.0007   -0.2542   -2.2643 H   0  0  0  0  0  0  0  0  0  0  0  0
    4.8462    0.9065   -1.4024 H   0  0  0  0  0  0  0  0  0  0  0  0
    3.7327    1.5494   -0.1646 H   0  0  0  0  0  0  0  0  0  0  0  0
    3.9704    2.4432   -1.6806 H   0  0  0  0  0  0  0  0  0  0  0  0
   -1.7163    0.6761    1.9841 H   0  0  0  0  0  0  0  0  0  0  0  0
   -3.0176    0.5128   -0.8400 H   0  0  0  0  0  0  0  0  0  0  0  0
  2 31  1  0  0  0  0
  2  1  2  0  0  0  0
  3 30  1  6  0  0  0
  3  4  1  0  0  0  0
  3 26  1  0  0  0  0
  3  2  1  0  0  0  0
  4 33  1  0  0  0  0
  5  4  1  0  0  0  0
  6 58  1  0  0  0  0
  7  8  1  0  0  0  0
  7  6  2  0  0  0  0
  8  9  2  0  0  0  0
 10  8  2  0  0  0  0
 11  6  1  0  0  0  0
 11 12  1  0  0  0  0
 12 22  2  0  0  0  0
 12 13  1  0  0  0  0
 14 13  1  0  0  0  0
 14 15  1  0  0  0  0
 15 35  1  0  0  0  0
 15 36  1  0  0  0  0
 16 38  1  0  0  0  0
 16 14  1  0  0  0  0
 17 14  1  0  0  0  0
 17 21  2  0  0  0  0
 18 17  1  0  0  0  0
 19 18  1  0  0  0  0
 19 42  1  0  0  0  0
 20 19  1  0  0  0  0
 20 45  1  0  0  0  0
 22 46  1  0  0  0  0
 23 47  1  0  0  0  0
 23 22  1  0  0  0  0
 24 25  1  0  0  0  0
 24 23  2  0  0  0  0
 25 11  2  0  0  0  0
 26 50  1  0  0  0  0
 27 26  1  0  0  0  0
 27 28  1  0  0  0  0
 28 51  1  0  0  0  0
 29 27  2  0  0  0  0
 31 32  1  0  0  0  0
 32 56  1  0  0  0  0
 34  4  1  0  0  0  0
 37 15  1  0  0  0  0
 39 16  1  0  0  0  0
 40 16  1  0  0  0  0
 41 19  1  0  0  0  0
 43 20  1  0  0  0  0
 44 20  1  0  0  0  0
 48 24  1  0  0  0  0
 49 25  1  0  0  0  0
 52 28  1  0  0  0  0
 53 28  1  0  0  0  0
 54 31  1  0  0  0  0
 55 32  1  0  0  0  0
 57 32  1  0  0  0  0
 59  7  1  0  0  0  0
M  END
