59
-1 1
O         1.341606    2.360056   -1.708463
C         1.607205    1.215598   -2.049050
C         0.577686    0.304002   -2.748758
C        -0.838475    0.910606   -2.662586
S        -2.177915   -0.255909   -3.092722
C        -2.010183    0.165864    1.064892
C        -2.768643    0.829226    0.186347
N        -3.219578    2.166383    0.525964
O        -3.238184    2.507730    1.698036
O        -3.569887    2.877434   -0.392970
C        -1.576497   -1.225527    0.911963
C        -0.493538   -1.705918    1.673895
O         0.207713   -0.824495    2.433140
C         1.603945   -0.593263    2.220549
C         2.364726   -1.129504    3.429152
C         2.136691   -1.171939    0.906688
C         1.829072    0.927135    2.114609
O         0.822507    1.572238    1.562481
C         1.023834    2.974106    1.301517
C        -0.258317    3.557199    0.768264
O         2.872705    1.441445    2.442490
C        -0.193963   -3.071702    1.685746
C        -0.917425   -3.954906    0.890337
C        -1.946499   -3.480874    0.077151
C        -2.277250   -2.131149    0.099045
N         0.516826   -1.049794   -2.210663
C         1.391813   -2.039043   -2.471040
C         0.890527   -3.430999   -2.153287
O         2.540412   -1.862052   -2.881590
H         0.884769    0.242488   -3.810570
N         2.837279    0.683313   -1.880529
C         3.893240    1.431771   -1.250857
H        -0.971130    1.279879   -1.632642
H        -0.858962    1.798934   -3.307771
H         2.284117   -2.225583    3.464409
H         1.941528   -0.717415    4.356062
H         3.422855   -0.845452    3.370497
H         2.194196   -2.267914    0.938497
H         3.148630   -0.781438    0.734240
H         1.502130   -0.876932    0.059845
H         1.827158    3.065305    0.557686
H         1.349039    3.452438    2.238387
H        -0.531055    3.065082   -0.175269
H        -0.100881    4.623271    0.548476
H        -1.080597    3.470258    1.491595
H         0.613449   -3.431969    2.325194
H        -0.669576   -5.019116    0.901638
H        -2.502410   -4.163680   -0.567968
H        -3.089068   -1.758998   -0.527115
H        -0.484522   -1.320702   -2.148504
H         0.988686   -3.610777   -1.072264
H         1.504489   -4.160710   -2.694639
H        -0.170681   -3.549201   -2.414378
H         3.000662   -0.254225   -2.264320
H         4.846173    0.906549   -1.402388
H         3.732704    1.549351   -0.164576
H         3.970359    2.443161   -1.680634
H        -1.716272    0.676114    1.984138
H        -3.017646    0.512771   -0.839983
