59
-1 1
O        -0.294109   -3.131548    3.864694
C         0.670971   -3.095282    3.123769
C         1.012469   -1.857848    2.260972
C         0.194657   -0.652632    2.714005
S         0.481110    0.872061    1.772554
C        -1.218858    1.094324    0.859367
C        -1.576402    2.493635    0.671692
N        -1.896377    3.267855    1.746436
O        -2.044869    2.734005    2.864377
O        -2.032252    4.497169    1.587233
C        -1.143088    0.423095   -0.487819
C        -0.150967    0.874799   -1.371627
C        -0.022139    0.376292   -2.661501
O         0.941402    0.746916   -3.538635
C         2.122814    1.415230   -3.111573
C         2.907049    0.583224   -2.096783
C         2.928699    1.595106   -4.398951
C         1.768414    2.842870   -2.631570
O         2.414535    3.175197   -1.518809
C         2.238151    4.505257   -1.001726
C         0.953180    4.664960   -0.220113
O         1.040649    3.574247   -3.247277
C        -0.929297   -0.595106   -3.110693
C        -1.908145   -1.070017   -2.251735
C        -2.005265   -0.577637   -0.944395
Br        -3.354106   -1.306693    0.180822
N         0.804713   -2.140210    0.848681
C         1.725010   -2.765085    0.083692
C         1.410405   -2.847809   -1.391308
O         2.738556   -3.279858    0.549920
H         2.088155   -1.649572    2.391684
N         1.555294   -4.114562    2.978554
C         1.368729   -5.388970    3.618503
H        -0.878663   -0.895892    2.671439
H         0.413061   -0.462242    3.772959
H         0.531388    1.627271   -0.980149
H         3.088626   -0.411780   -2.528542
H         2.383958    0.461568   -1.139240
H         3.873199    1.059695   -1.887349
H         3.176347    0.608561   -4.815676
H         3.860291    2.143333   -4.197189
H         2.328945    2.155763   -5.128114
H         2.281891    5.211112   -1.845572
H         3.118178    4.657300   -0.362263
H         0.076049    4.585463   -0.873833
H         0.927013    5.656117    0.254578
H         0.855892    3.909556    0.572653
H        -0.829110   -0.983559   -4.125169
H        -2.602734   -1.840809   -2.589447
H         0.046376   -1.648346    0.386110
H         2.352804   -2.799321   -1.950730
H         0.730332   -2.057256   -1.731215
H         0.943876   -3.822973   -1.598144
H         2.264171   -4.000885    2.251030
H         0.524218   -5.299568    4.314114
H         2.265940   -5.687870    4.184222
H         1.139678   -6.184826    2.889509
H        -1.900384    0.586166    1.554861
H        -1.437812    3.020607   -0.266788
