-1 1
 OpenBabel05232414493D

 59 58  0  0  1  0  0  0  0  0999 V2000
    2.7053   -0.9560    0.7958 O   0  0  0  0  0  0  0  0  0  0  0  0
    3.6701   -1.1533    0.0793 C   0  0  0  0  0  0  0  0  0  0  0  0
    4.3161   -0.0408   -0.7807 C   0  0  2  0  0  0  0  0  0  0  0  0
    3.7394    1.3332   -0.4072 C   0  0  0  0  0  0  0  0  0  0  0  0
    4.0714    2.6495   -1.6110 S   0  0  0  0  0  1  0  0  0  0  0  0
    1.8542    2.8643   -2.4240 C   0  0  0  0  0  3  0  0  0  0  0  0
    1.4033    4.1732   -2.4472 C   0  0  0  0  0  3  0  0  0  0  0  0
    1.1041    4.8426   -1.2561 N   0  0  0  0  0  0  0  0  0  0  0  0
    1.1128    4.2228   -0.1938 O   0  0  0  0  0  0  0  0  0  0  0  0
    0.8446    6.0471   -1.3256 O   0  0  0  0  0  0  0  0  0  0  0  0
    2.0139    2.2077   -3.7477 C   0  0  0  0  0  0  0  0  0  0  0  0
    2.8625    2.8117   -4.6860 C   0  0  0  0  0  0  0  0  0  0  0  0
    3.0690    2.2724   -5.9495 C   0  0  0  0  0  0  0  0  0  0  0  0
    3.9299    2.7884   -6.8641 O   0  0  0  0  0  0  0  0  0  0  0  0
    5.1415    3.4161   -6.4513 C   0  0  0  0  0  0  0  0  0  0  0  0
    5.9410    2.5214   -5.5059 C   0  0  0  0  0  0  0  0  0  0  0  0
    5.8975    3.6561   -7.7575 C   0  0  0  0  0  0  0  0  0  0  0  0
    4.8279    4.8137   -5.8693 C   0  0  0  0  0  0  0  0  0  0  0  0
    5.5069    5.0540   -4.7520 O   0  0  0  0  0  0  0  0  0  0  0  0
    5.2963    6.3051   -4.0825 C   0  0  0  0  0  0  0  0  0  0  0  0
    4.0355    6.2907   -3.2452 C   0  0  0  0  0  0  0  0  0  0  0  0
    4.0883    5.5971   -6.4028 O   0  0  0  0  0  0  0  0  0  0  0  0
    2.3661    1.1192   -6.3229 C   0  0  0  0  0  0  0  0  0  0  0  0
    1.5170    0.5057   -5.4131 C   0  0  0  0  0  0  0  0  0  0  0  0
    1.3581    1.0314   -4.1273 C   0  0  0  0  0  0  0  0  0  0  0  0
    0.2419    0.1015   -2.9059 Br  0  0  0  0  0  0  0  0  0  0  0  0
    4.1228   -0.2909   -2.2018 N   0  0  0  0  0  0  0  0  0  0  0  0
    4.8952   -1.1220   -2.9308 C   0  0  0  0  0  0  0  0  0  0  0  0
    4.7224   -1.0148   -4.4299 C   0  0  0  0  0  0  0  0  0  0  0  0
    5.6652   -1.9443   -2.4381 O   0  0  0  0  0  0  0  0  0  0  0  0
    5.4026   -0.0595   -0.5804 H   0  0  0  0  0  0  0  0  0  0  0  0
    4.2980   -2.3520   -0.0253 N   0  0  0  0  0  0  0  0  0  0  0  0
    3.7915   -3.5380    0.6102 C   0  0  0  0  0  0  0  0  0  0  0  0
    2.6504    1.2268   -0.2748 H   0  0  0  0  0  0  0  0  0  0  0  0
    4.1295    1.6153    0.5802 H   0  0  0  0  0  0  0  0  0  0  0  0
    3.4022    3.6947   -4.3502 H   0  0  0  0  0  0  0  0  0  0  0  0
    6.0639    1.5348   -5.9771 H   0  0  0  0  0  0  0  0  0  0  0  0
    5.4587    2.3927   -4.5267 H   0  0  0  0  0  0  0  0  0  0  0  0
    6.9331    2.9552   -5.3266 H   0  0  0  0  0  0  0  0  0  0  0  0
    6.1201    2.6906   -8.2333 H   0  0  0  0  0  0  0  0  0  0  0  0
    6.8408    4.1876   -7.5652 H   0  0  0  0  0  0  0  0  0  0  0  0
    5.2746    4.2575   -8.4331 H   0  0  0  0  0  0  0  0  0  0  0  0
    5.2680    7.1062   -4.8369 H   0  0  0  0  0  0  0  0  0  0  0  0
    6.1904    6.4290   -3.4573 H   0  0  0  0  0  0  0  0  0  0  0  0
    3.1447    6.2237   -3.8830 H   0  0  0  0  0  0  0  0  0  0  0  0
    3.9584    7.2191   -2.6614 H   0  0  0  0  0  0  0  0  0  0  0  0
    4.0320    5.4451   -2.5407 H   0  0  0  0  0  0  0  0  0  0  0  0
    2.5267    0.7013   -7.3178 H   0  0  0  0  0  0  0  0  0  0  0  0
    0.9855   -0.4059   -5.6907 H   0  0  0  0  0  0  0  0  0  0  0  0
    3.7347    0.5195   -2.6875 H   0  0  0  0  0  0  0  0  0  0  0  0
    5.6905   -1.2099   -4.9087 H   0  0  0  0  0  0  0  0  0  0  0  0
    4.3339   -0.0379   -4.7455 H   0  0  0  0  0  0  0  0  0  0  0  0
    4.0141   -1.7883   -4.7629 H   0  0  0  0  0  0  0  0  0  0  0  0
    5.0106   -2.4256   -0.7562 H   0  0  0  0  0  0  0  0  0  0  0  0
    3.0016   -3.2400    1.3118 H   0  0  0  0  0  0  0  0  0  0  0  0
    4.5852   -4.0616    1.1674 H   0  0  0  0  0  0  0  0  0  0  0  0
    3.3603   -4.2447   -0.1199 H   0  0  0  0  0  0  0  0  0  0  0  0
    1.5287    2.2498   -1.5826 H   0  0  0  0  0  0  0  0  0  0  0  0
    1.4050    4.8136   -3.3248 H   0  0  0  0  0  0  0  0  0  0  0  0
  2  1  2  0  0  0  0
  3 31  1  1  0  0  0
  3  4  1  0  0  0  0
  3  2  1  0  0  0  0
  4 34  1  0  0  0  0
  4 35  1  0  0  0  0
  5  4  1  0  0  0  0
  6 58  1  0  0  0  0
  7  6  1  0  0  0  0
  7  8  1  0  0  0  0
  8  9  2  0  0  0  0
 10  8  2  0  0  0  0
 11  6  1  0  0  0  0
 12 36  1  0  0  0  0
 12 11  2  0  0  0  0
 13 12  1  0  0  0  0
 14 15  1  0  0  0  0
 14 13  1  0  0  0  0
 15 18  1  0  0  0  0
 15 16  1  0  0  0  0
 16 39  1  0  0  0  0
 16 38  1  0  0  0  0
 17 41  1  0  0  0  0
 17 15  1  0  0  0  0
 18 19  1  0  0  0  0
 19 20  1  0  0  0  0
 20 44  1  0  0  0  0
 20 21  1  0  0  0  0
 21 46  1  0  0  0  0
 21 47  1  0  0  0  0
 22 18  2  0  0  0  0
 23 13  2  0  0  0  0
 23 24  1  0  0  0  0
 24 25  2  0  0  0  0
 25 11  1  0  0  0  0
 25 26  1  0  0  0  0
 27  3  1  0  0  0  0
 28 30  2  0  0  0  0
 28 27  1  0  0  0  0
 29 28  1  0  0  0  0
 32  2  1  0  0  0  0
 32 33  1  0  0  0  0
 33 56  1  0  0  0  0
 33 55  1  0  0  0  0
 37 16  1  0  0  0  0
 40 17  1  0  0  0  0
 42 17  1  0  0  0  0
 43 20  1  0  0  0  0
 45 21  1  0  0  0  0
 48 23  1  0  0  0  0
 49 24  1  0  0  0  0
 50 27  1  0  0  0  0
 51 29  1  0  0  0  0
 52 29  1  0  0  0  0
 53 29  1  0  0  0  0
 54 32  1  0  0  0  0
 57 33  1  0  0  0  0
 59  7  1  0  0  0  0
M  END
