59
-1 1
O         3.074533    3.233607   -2.981096
C         2.474198    2.425357   -2.289808
C         1.595624    1.345985   -2.940081
C         0.099893    1.724716   -2.951744
S        -0.922878    0.481773   -3.815417
C        -2.548850   -0.182779   -0.826684
C        -3.604624    0.628026   -0.879507
N        -4.541720    0.846452    0.213724
O        -4.502476    0.130611    1.194113
O        -5.333916    1.757984    0.062439
C        -2.023342   -0.953537    0.319584
C        -1.348457   -0.284743    1.345463
C        -0.664625   -0.985997    2.332136
O         0.020003   -0.364105    3.341017
C         1.162759    0.442584    3.089263
C         0.810406    1.799760    2.476106
C         1.796721    0.627711    4.471421
C         2.182478   -0.334185    2.238918
O         3.058124    0.488830    1.659417
C         4.028316   -0.087514    0.784187
C         5.316826   -0.385918    1.522882
O         2.240243   -1.533482    2.177219
C        -0.712375   -2.381876    2.346600
C        -1.417922   -3.062805    1.364206
C        -2.047502   -2.347706    0.347479
Cl        -2.878754   -3.220076   -0.921652
N         1.812612   -0.020541   -2.444133
C         1.291085   -0.497795   -1.290636
C         1.077634   -1.988122   -1.219051
O         1.009921    0.222890   -0.332993
H         1.935489    1.330034   -3.983323
N         2.490143    2.450753   -0.933095
C         3.182684    3.464000   -0.186793
H        -0.240907    1.855237   -1.909907
H         0.027692    2.710138   -3.439337
H        -1.340702    0.802286    1.335612
H        -0.018901    2.241114    3.047814
H         0.524150    1.702909    1.423137
H         1.675593    2.473728    2.526890
H         1.088024    1.157972    5.123756
H         2.725018    1.211212    4.397283
H         2.014944   -0.354192    4.913692
H         4.166854    0.652654   -0.015301
H         3.608446   -1.001174    0.342409
H         5.718229    0.522322    1.996644
H         6.071486   -0.770255    0.820580
H         5.149431   -1.146629    2.299184
H        -0.164927   -2.915022    3.123435
H        -1.460914   -4.152684    1.363067
H         1.760145   -0.689577   -3.204184
H         0.091547   -2.201407   -1.661638
H         1.079830   -2.305457   -0.168779
H         1.835638   -2.543276   -1.789853
H         1.910854    1.756135   -0.453364
H         3.910132    3.952879   -0.848590
H         3.706672    3.017526    0.673299
H         2.496715    4.239861    0.197604
H        -3.851495    1.216988   -1.762090
H        -1.962970   -0.210487   -1.779204
