-1 1
 OpenBabel05192410563D

 59 59  0  0  1  0  0  0  0  0999 V2000
    2.3235    3.1986   -2.9383 O   0  0  0  0  0  0  0  0  0  0  0  0
    2.0001    2.2937   -2.1872 C   0  0  0  0  0  0  0  0  0  0  0  0
    0.8523    1.3356   -2.5640 C   0  0  2  0  0  0  0  0  0  0  0  0
   -0.4074    1.6200   -1.7336 C   0  0  0  0  0  0  0  0  0  0  0  0
   -1.8394    0.6706   -2.3329 S   0  0  0  0  0  0  0  0  0  0  0  0
   -2.8007    0.3710   -0.6629 C   0  0  1  0  0  0  0  0  0  0  0  0
   -4.1976    0.0202   -0.8466 C   0  0  0  0  0  3  0  0  0  0  0  0
   -5.1159    1.0299   -0.9235 N   0  0  0  0  0  0  0  0  0  0  0  0
   -4.7529    2.2216   -0.7907 O   0  0  0  0  0  0  0  0  0  0  0  0
   -6.3123    0.7436   -1.1102 O   0  0  0  0  0  0  0  0  0  0  0  0
   -1.9612   -0.5510    0.1838 C   0  0  0  0  0  0  0  0  0  0  0  0
   -1.3265   -0.0090    1.3104 C   0  0  0  0  0  0  0  0  0  0  0  0
   -0.4763   -0.7579    2.1213 C   0  0  0  0  0  0  0  0  0  0  0  0
    0.1284   -0.1973    3.2205 O   0  0  0  0  0  0  0  0  0  0  0  0
    1.2977    0.5906    3.0663 C   0  0  0  0  0  0  0  0  0  0  0  0
    1.0428    1.8686    2.2697 C   0  0  0  0  0  0  0  0  0  0  0  0
    1.7226    0.9208    4.4991 C   0  0  0  0  0  0  0  0  0  0  0  0
    2.4313   -0.2652    2.4660 C   0  0  0  0  0  0  0  0  0  0  0  0
    3.2982    0.4698    1.7598 O   0  0  0  0  0  0  0  0  0  0  0  0
    4.3614   -0.2284    1.1134 C   0  0  0  0  0  0  0  0  0  0  0  0
    5.5449   -0.4239    2.0399 C   0  0  0  0  0  0  0  0  0  0  0  0
    2.5749   -1.4387    2.6791 O   0  0  0  0  0  0  0  0  0  0  0  0
   -0.2882   -2.1128    1.8628 C   0  0  0  0  0  0  0  0  0  0  0  0
   -0.9319   -2.6867    0.7738 C   0  0  0  0  0  0  0  0  0  0  0  0
   -1.7365   -1.9139   -0.0606 C   0  0  0  0  0  0  0  0  0  0  0  0
   -2.4418   -2.7198   -1.4493 Cl  0  0  0  0  0  0  0  0  0  0  0  0
    1.2191   -0.0806   -2.5832 N   0  0  0  0  0  0  0  0  0  0  0  0
    1.3993   -0.8644   -1.4913 C   0  0  0  0  0  0  0  0  0  0  0  0
    1.3661   -2.3510   -1.7562 C   0  0  0  0  0  0  0  0  0  0  0  0
    1.5990   -0.4139   -0.3686 O   0  0  0  0  0  0  0  0  0  0  0  0
    0.6449    1.6002   -3.6089 H   0  0  0  0  0  0  0  0  0  0  0  0
    2.5568    2.1131   -0.9689 N   0  0  0  0  0  0  0  0  0  0  0  0
    3.5831    2.9959   -0.4814 C   0  0  0  0  0  0  0  0  0  0  0  0
   -0.2228    1.3441   -0.6856 H   0  0  0  0  0  0  0  0  0  0  0  0
   -0.6148    2.7002   -1.7721 H   0  0  0  0  0  0  0  0  0  0  0  0
   -1.5103    1.0376    1.5550 H   0  0  0  0  0  0  0  0  0  0  0  0
    0.1885    2.4003    2.7122 H   0  0  0  0  0  0  0  0  0  0  0  0
    0.8235    1.6558    1.2172 H   0  0  0  0  0  0  0  0  0  0  0  0
    1.9226    2.5239    2.3045 H   0  0  0  0  0  0  0  0  0  0  0  0
    0.9312    1.5117    4.9814 H   0  0  0  0  0  0  0  0  0  0  0  0
    2.6584    1.4982    4.5054 H   0  0  0  0  0  0  0  0  0  0  0  0
    1.8631   -0.0112    5.0634 H   0  0  0  0  0  0  0  0  0  0  0  0
    4.6250    0.3968    0.2492 H   0  0  0  0  0  0  0  0  0  0  0  0
    3.9746   -1.1877    0.7442 H   0  0  0  0  0  0  0  0  0  0  0  0
    5.9012    0.5408    2.4311 H   0  0  0  0  0  0  0  0  0  0  0  0
    6.3728   -0.9021    1.4952 H   0  0  0  0  0  0  0  0  0  0  0  0
    5.2683   -1.0708    2.8841 H   0  0  0  0  0  0  0  0  0  0  0  0
    0.3782   -2.6884    2.5037 H   0  0  0  0  0  0  0  0  0  0  0  0
   -0.7979   -3.7464    0.5504 H   0  0  0  0  0  0  0  0  0  0  0  0
    0.9058   -0.5717   -3.4104 H   0  0  0  0  0  0  0  0  0  0  0  0
    0.3294   -2.6573   -1.9649 H   0  0  0  0  0  0  0  0  0  0  0  0
    1.7204   -2.8775   -0.8632 H   0  0  0  0  0  0  0  0  0  0  0  0
    1.9886   -2.6150   -2.6241 H   0  0  0  0  0  0  0  0  0  0  0  0
    2.2808    1.2857   -0.4342 H   0  0  0  0  0  0  0  0  0  0  0  0
    4.5306    2.8807   -1.0366 H   0  0  0  0  0  0  0  0  0  0  0  0
    3.7624    2.7730    0.5786 H   0  0  0  0  0  0  0  0  0  0  0  0
    3.2735    4.0471   -0.5845 H   0  0  0  0  0  0  0  0  0  0  0  0
   -4.5823   -0.9762   -1.0376 H   0  0  0  0  0  0  0  0  0  0  0  0
   -2.7885    1.3814   -0.2350 H   0  0  0  0  0  0  0  0  0  0  0  0
  1  2  2  0  0  0  0
  2 32  1  0  0  0  0
  3 31  1  6  0  0  0
  3  2  1  0  0  0  0
  3  4  1  0  0  0  0
  4 34  1  0  0  0  0
  5  4  1  0  0  0  0
  5  6  1  0  0  0  0
  6 59  1  1  0  0  0
  6 11  1  0  0  0  0
  7  6  1  0  0  0  0
  8  7  1  0  0  0  0
  8  9  2  0  0  0  0
 10  8  2  0  0  0  0
 11 12  1  0  0  0  0
 12 36  1  0  0  0  0
 12 13  2  0  0  0  0
 13 14  1  0  0  0  0
 15 14  1  0  0  0  0
 15 17  1  0  0  0  0
 16 39  1  0  0  0  0
 16 37  1  0  0  0  0
 16 15  1  0  0  0  0
 17 41  1  0  0  0  0
 17 40  1  0  0  0  0
 17 42  1  0  0  0  0
 18 22  2  0  0  0  0
 18 15  1  0  0  0  0
 19 18  1  0  0  0  0
 20 19  1  0  0  0  0
 20 21  1  0  0  0  0
 21 45  1  0  0  0  0
 21 47  1  0  0  0  0
 23 13  1  0  0  0  0
 23 48  1  0  0  0  0
 24 23  2  0  0  0  0
 25 11  2  0  0  0  0
 25 24  1  0  0  0  0
 26 25  1  0  0  0  0
 27  3  1  0  0  0  0
 27 28  1  0  0  0  0
 28 30  2  0  0  0  0
 29 28  1  0  0  0  0
 29 52  1  0  0  0  0
 32 33  1  0  0  0  0
 32 54  1  0  0  0  0
 33 56  1  0  0  0  0
 35  4  1  0  0  0  0
 38 16  1  0  0  0  0
 43 20  1  0  0  0  0
 44 20  1  0  0  0  0
 46 21  1  0  0  0  0
 49 24  1  0  0  0  0
 50 27  1  0  0  0  0
 51 29  1  0  0  0  0
 53 29  1  0  0  0  0
 55 33  1  0  0  0  0
 57 33  1  0  0  0  0
 58  7  1  0  0  0  0
M  END
