59
-1 1
O         7.679698   -0.042859   -0.264883
C         7.334657   -0.954287    0.470890
C         6.200483   -1.906790    0.050146
C         4.879053   -1.550762    0.752435
S         3.480959   -2.533097    0.132047
C         2.326674   -2.556837    2.100853
C         0.931205   -2.581594    1.949794
N         0.057279   -3.617219    2.257951
O         0.442939   -4.611784    2.881990
O        -1.128179   -3.472719    1.937201
C         3.132066   -3.512934    2.919124
C         3.798206   -2.978575    4.029192
C         4.629659   -3.746783    4.842188
O         5.261292   -3.188164    5.929920
C         6.466113   -2.463653    5.749941
C         6.275405   -1.217081    4.887848
C         6.895758   -2.083099    7.168888
C         7.565863   -3.395944    5.202107
O         8.482442   -2.729307    4.490109
C         9.510319   -3.503481    3.874315
C        10.671440   -3.743339    4.818628
O         7.648026   -4.566629    5.457835
C         4.769064   -5.106941    4.592838
C         4.108831   -5.664694    3.503743
C         3.324769   -4.880621    2.662842
Cl         2.642572   -5.659105    1.264216
N         6.519555   -3.333057    0.123675
C         6.587698   -4.068274    1.261371
C         6.460681   -5.560046    1.066735
O         6.765568   -3.575754    2.370816
H         6.080884   -1.690062   -1.018875
N         7.856464   -1.135418    1.704029
C         8.855741   -0.240746    2.223533
H         4.988146   -1.732886    1.835470
H         4.711600   -0.471294    0.609460
H         3.653436   -1.924761    4.269998
H         5.453592   -0.618053    5.306013
H         6.036073   -1.476994    3.849866
H         7.188570   -0.608472    4.884282
H         6.128266   -1.434763    7.615199
H         7.856784   -1.548861    7.156062
H         6.989531   -2.991837    7.779041
H         9.817700   -2.917114    2.997251
H         9.071742   -4.447802    3.524590
H        11.078459   -2.791141    5.190789
H        11.476158   -4.280888    4.294803
H        10.349616   -4.352498    5.674695
H         5.416973   -5.701909    5.234841
H         4.215746   -6.727764    3.283162
H         6.181786   -3.849014   -0.679263
H         5.409931   -5.799757    0.839463
H         6.749978   -6.066248    1.994253
H         7.086653   -5.908092    0.231585
H         7.532671   -1.940254    2.247843
H         9.791309   -0.284539    1.639943
H         9.068997   -0.520366    3.263560
H         8.507007    0.804081    2.195275
H         0.424855   -1.737857    1.487262
H         2.685814   -1.534499    2.244529
