-1 1
 OpenBabel05232413493D

 81 83  0  0  1  0  0  0  0  0999 V2000
    1.3374   -2.9926    3.1972 C   0  0  0  0  0  0  0  0  0  0  0  0
    0.6750   -3.4237    1.9852 N   0  0  0  0  0  0  0  0  0  0  0  0
   -0.4858   -4.2320    2.2975 C   0  0  0  0  0  0  0  0  0  0  0  0
   -1.4508   -4.4729    1.1750 C   0  0  0  0  0  0  0  0  0  0  0  0
   -3.1261   -1.8840    2.7385 S   0  0  0  0  0  1  0  0  0  0  0  0
   -3.4779   -0.3243    3.6259 C   0  0  0  0  0  0  0  0  0  0  0  0
   -2.4084    0.1100    4.6493 C   0  0  2  0  0  0  0  0  0  0  0  0
   -2.1638   -0.7726    5.2670 H   0  0  0  0  0  0  0  0  0  0  0  0
   -2.8728    1.1826    5.5027 N   0  0  0  0  0  0  0  0  0  0  0  0
   -3.7386    1.0195    6.5259 C   0  0  0  0  0  0  0  0  0  0  0  0
   -4.0106    2.2762    7.3414 C   0  0  0  0  0  0  0  0  0  0  0  0
   -4.2901   -0.0344    6.7942 O   0  0  0  0  0  0  0  0  0  0  0  0
   -1.1104    0.6370    4.0122 C   0  0  0  0  0  0  0  0  0  0  0  0
   -0.5214   -0.1795    3.1233 N   0  0  0  0  0  0  0  0  0  0  0  0
    0.6846    0.2084    2.4384 C   0  0  0  0  0  0  0  0  0  0  0  0
   -0.6489    1.7322    4.3200 O   0  0  0  0  0  0  0  0  0  0  0  0
   -1.6719   -3.7408    0.0832 C   0  0  0  0  0  0  0  0  0  0  0  0
   -0.9318   -2.5255   -0.3964 C   0  0  0  0  0  0  0  0  0  0  0  0
   -1.4367   -1.3383    0.0565 N   0  0  0  0  0  0  0  0  0  0  0  0
   -1.0039   -0.0718   -0.3317 C   0  0  0  0  0  0  0  0  0  0  0  0
    0.1907    0.1525   -0.9942 C   0  0  0  0  0  0  0  0  0  0  0  0
   -1.8151    1.0656    0.0006 C   0  0  0  0  0  0  0  0  0  0  0  0
   -3.0185    0.9158    0.6055 O   0  0  0  0  0  0  0  0  0  0  0  0
   -4.0546    0.3053   -0.1396 C   0  0  1  0  0  0  0  0  0  0  0  0
   -3.7509   -0.7058   -0.4570 H   0  0  0  0  0  0  0  0  0  0  0  0
   -5.3301    0.2221    0.6777 C   0  0  0  0  0  0  0  0  0  0  0  0
   -6.3755    0.0878   -0.4213 C   0  0  0  0  0  0  0  0  0  0  0  0
   -5.8598    0.7706   -1.5578 O   0  0  0  0  0  0  0  0  0  0  0  0
   -4.5150    1.1308   -1.3462 C   0  0  0  0  0  0  0  0  0  0  0  0
   -1.3659    2.3434   -0.2428 C   0  0  0  0  0  0  0  0  0  0  0  0
   -0.1264    2.5780   -0.8790 C   0  0  0  0  0  0  0  0  0  0  0  0
    0.6388    1.4594   -1.2809 C   0  0  0  0  0  0  0  0  0  0  0  0
    1.8744    1.7658   -1.9560 C   0  0  1  0  0  3  0  0  0  0  0  0
    2.6499    0.7213   -2.3904 N   0  0  0  0  0  0  0  0  0  0  0  0
    3.8810    0.7001   -3.0438 C   0  0  0  0  0  0  0  0  0  0  0  0
    4.6018    1.8499   -3.3975 C   0  0  0  0  0  0  0  0  0  0  0  0
    5.8256    1.7207   -4.0477 C   0  0  0  0  0  0  0  0  0  0  0  0
    6.7257    3.1445   -4.4904 Cl  0  0  0  0  0  0  0  0  0  0  0  0
    6.3482    0.4677   -4.3541 C   0  0  0  0  0  0  0  0  0  0  0  0
    7.5211    0.3570   -4.9773 F   0  0  0  0  0  0  0  0  0  0  0  0
    5.6396   -0.6748   -4.0069 C   0  0  0  0  0  0  0  0  0  0  0  0
    4.4180   -0.5611   -3.3579 C   0  0  0  0  0  0  0  0  0  0  0  0
    2.2541    3.0093   -2.1562 N   0  0  0  0  0  0  0  0  0  0  0  0
    1.4328    3.9907   -1.7159 C   0  0  0  0  0  0  0  0  0  0  0  0
    0.2886    3.8593   -1.1098 N   0  0  0  0  0  2  0  0  0  0  0  0
   -0.0371   -2.6314   -1.2239 O   0  0  0  0  0  0  0  0  0  0  0  0
    1.5966   -4.0915    1.0916 C   0  0  0  0  0  0  0  0  0  0  0  0
    1.7142   -3.8495    3.8022 H   0  0  0  0  0  0  0  0  0  0  0  0
    0.6481   -2.4051    3.8202 H   0  0  0  0  0  0  0  0  0  0  0  0
    2.1982   -2.3532    2.9503 H   0  0  0  0  0  0  0  0  0  0  0  0
   -1.0697   -3.7177    3.0826 H   0  0  0  0  0  0  0  0  0  0  0  0
   -0.1818   -5.2199    2.7198 H   0  0  0  0  0  0  0  0  0  0  0  0
   -2.1048   -5.3375    1.3290 H   0  0  0  0  0  0  0  0  0  0  0  0
   -4.4075   -0.4513    4.1979 H   0  0  0  0  0  0  0  0  0  0  0  0
   -3.6219    0.5011    2.9112 H   0  0  0  0  0  0  0  0  0  0  0  0
   -2.3189    2.0311    5.4121 H   0  0  0  0  0  0  0  0  0  0  0  0
   -3.4064    3.1420    7.0368 H   0  0  0  0  0  0  0  0  0  0  0  0
   -3.8224    2.0529    8.4010 H   0  0  0  0  0  0  0  0  0  0  0  0
   -5.0762    2.5300    7.2445 H   0  0  0  0  0  0  0  0  0  0  0  0
   -1.0680   -1.0046    2.8281 H   0  0  0  0  0  0  0  0  0  0  0  0
    1.5134    0.3575    3.1497 H   0  0  0  0  0  0  0  0  0  0  0  0
    0.5534    1.1508    1.8814 H   0  0  0  0  0  0  0  0  0  0  0  0
    0.9520   -0.5900    1.7350 H   0  0  0  0  0  0  0  0  0  0  0  0
   -2.4699   -4.0523   -0.5996 H   0  0  0  0  0  0  0  0  0  0  0  0
   -2.1052   -1.4024    0.8727 H   0  0  0  0  0  0  0  0  0  0  0  0
    0.7650   -0.7336   -1.2533 H   0  0  0  0  0  0  0  0  0  0  0  0
   -5.4506    1.1658    1.2328 H   0  0  0  0  0  0  0  0  0  0  0  0
   -5.3044   -0.6139    1.3902 H   0  0  0  0  0  0  0  0  0  0  0  0
   -7.3473    0.5264   -0.1431 H   0  0  0  0  0  0  0  0  0  0  0  0
   -6.5484   -0.9732   -0.6801 H   0  0  0  0  0  0  0  0  0  0  0  0
   -4.4169    2.2082   -1.1052 H   0  0  0  0  0  0  0  0  0  0  0  0
   -3.9329    0.9310   -2.2598 H   0  0  0  0  0  0  0  0  0  0  0  0
   -1.9830    3.1927    0.0489 H   0  0  0  0  0  0  0  0  0  0  0  0
    2.2561   -0.1928   -2.2152 H   0  0  0  0  0  0  0  0  0  0  0  0
    4.1932    2.8295   -3.1597 H   0  0  0  0  0  0  0  0  0  0  0  0
    6.0599   -1.6513   -4.2521 H   0  0  0  0  0  0  0  0  0  0  0  0
    3.8684   -1.4664   -3.0883 H   0  0  0  0  0  0  0  0  0  0  0  0
    1.7882    5.0110   -1.9040 H   0  0  0  0  0  0  0  0  0  0  0  0
    2.4256   -3.4132    0.8377 H   0  0  0  0  0  0  0  0  0  0  0  0
    1.0967   -4.3626    0.1527 H   0  0  0  0  0  0  0  0  0  0  0  0
    2.0318   -5.0118    1.5467 H   0  0  0  0  0  0  0  0  0  0  0  0
  1 48  1  0  0  0  0
  1 49  1  0  0  0  0
  2  3  1  0  0  0  0
  2  1  1  0  0  0  0
  3 52  1  0  0  0  0
  3 51  1  0  0  0  0
  4 53  1  0  0  0  0
  4  3  1  0  0  0  0
  5  6  1  0  0  0  0
  6 54  1  0  0  0  0
  6  7  1  0  0  0  0
  7  8  1  1  0  0  0
  7  9  1  0  0  0  0
  9 10  1  0  0  0  0
 10 12  2  0  0  0  0
 10 11  1  0  0  0  0
 11 58  1  0  0  0  0
 13 16  2  0  0  0  0
 13  7  1  0  0  0  0
 14 13  1  0  0  0  0
 15 14  1  0  0  0  0
 15 61  1  0  0  0  0
 17  4  2  0  0  0  0
 18 19  1  0  0  0  0
 18 17  1  0  0  0  0
 19 65  1  0  0  0  0
 20 22  1  0  0  0  0
 20 19  1  0  0  0  0
 21 20  2  0  0  0  0
 22 23  1  0  0  0  0
 24 25  1  6  0  0  0
 24 23  1  0  0  0  0
 24 26  1  0  0  0  0
 26 67  1  0  0  0  0
 26 68  1  0  0  0  0
 27 69  1  0  0  0  0
 27 26  1  0  0  0  0
 28 29  1  0  0  0  0
 28 27  1  0  0  0  0
 29 71  1  0  0  0  0
 29 24  1  0  0  0  0
 30 22  2  0  0  0  0
 30 73  1  0  0  0  0
 31 30  1  0  0  0  0
 32 21  1  0  0  0  0
 32 31  2  0  0  0  0
 33 34  1  6  0  0  0
 33 32  1  0  0  0  0
 34 74  1  0  0  0  0
 35 34  1  0  0  0  0
 36 75  1  0  0  0  0
 36 35  2  0  0  0  0
 37 36  1  0  0  0  0
 38 37  1  0  0  0  0
 39 37  2  0  0  0  0
 39 41  1  0  0  0  0
 40 39  1  0  0  0  0
 41 42  2  0  0  0  0
 42 77  1  0  0  0  0
 42 35  1  0  0  0  0
 43 33  1  0  0  0  0
 43 44  2  0  0  0  0
 44 45  1  0  0  0  0
 45 31  1  0  0  0  0
 46 18  2  0  0  0  0
 47 81  1  0  0  0  0
 47  2  1  0  0  0  0
 50  1  1  0  0  0  0
 55  6  1  0  0  0  0
 56  9  1  0  0  0  0
 57 11  1  0  0  0  0
 59 11  1  0  0  0  0
 60 14  1  0  0  0  0
 62 15  1  0  0  0  0
 63 15  1  0  0  0  0
 64 17  1  0  0  0  0
 66 21  1  0  0  0  0
 70 27  1  0  0  0  0
 72 29  1  0  0  0  0
 76 41  1  0  0  0  0
 78 44  1  0  0  0  0
 79 47  1  0  0  0  0
 80 47  1  0  0  0  0
M  END
