-1 1
 OpenBabel05232414493D

 81 83  0  0  1  0  0  0  0  0999 V2000
    1.0427   -1.2673    7.9284 C   0  0  0  0  0  0  0  0  0  0  0  0
    0.6085   -1.4394    6.5485 N   0  0  0  0  0  0  0  0  0  0  0  0
   -0.1599   -2.6723    6.4170 C   0  0  0  0  0  0  0  0  0  0  0  0
   -0.9913   -3.0023    5.1824 C   0  0  0  0  0  3  0  0  0  0  0  0
   -2.8878   -1.7111    5.3210 S   0  0  0  0  0  1  0  0  0  0  0  0
   -3.5061   -1.1811    6.9531 C   0  0  0  0  0  0  0  0  0  0  0  0
   -2.5201   -0.3714    7.8000 C   0  0  2  0  0  0  0  0  0  0  0  0
   -1.6115   -0.9637    7.9265 H   0  0  0  0  0  0  0  0  0  0  0  0
   -3.0492   -0.1299    9.1283 N   0  0  0  0  0  0  0  0  0  0  0  0
   -2.6393   -0.8116   10.2203 C   0  0  0  0  0  0  0  0  0  0  0  0
   -3.2607   -0.3720   11.5340 C   0  0  0  0  0  0  0  0  0  0  0  0
   -1.8295   -1.7257   10.1808 O   0  0  0  0  0  0  0  0  0  0  0  0
   -2.1607    1.0050    7.2317 C   0  0  0  0  0  0  0  0  0  0  0  0
   -0.9595    1.0850    6.6404 N   0  0  0  0  0  0  0  0  0  0  0  0
   -0.4229    2.3421    6.1852 C   0  0  0  0  0  0  0  0  0  0  0  0
   -2.9150    1.9565    7.4058 O   0  0  0  0  0  0  0  0  0  0  0  0
   -0.6306   -2.9739    3.8254 C   0  0  0  0  0  3  0  0  0  0  0  0
   -0.1341   -1.9022    3.0082 C   0  0  0  0  0  0  0  0  0  0  0  0
   -0.4180   -0.5901    3.4635 N   0  0  0  0  0  0  0  0  0  0  0  0
   -0.0005    0.5619    2.8320 C   0  0  0  0  0  0  0  0  0  0  0  0
    1.1553    0.6256    2.0642 C   0  0  0  0  0  0  0  0  0  0  0  0
   -0.7672    1.7675    2.9729 C   0  0  0  0  0  0  0  0  0  0  0  0
   -1.9210    1.7543    3.6913 O   0  0  0  0  0  0  0  0  0  0  0  0
   -3.0693    1.2050    3.0708 C   0  0  1  0  0  0  0  0  0  0  0  0
   -2.8994    0.1397    2.8370 H   0  0  0  0  0  0  0  0  0  0  0  0
   -4.2728    1.3510    3.9824 C   0  0  0  0  0  0  0  0  0  0  0  0
   -5.4172    1.2513    2.9835 C   0  0  0  0  0  0  0  0  0  0  0  0
   -4.9252    1.7642    1.7522 O   0  0  0  0  0  0  0  0  0  0  0  0
   -3.5337    1.9691    1.8254 C   0  0  0  0  0  0  0  0  0  0  0  0
   -0.3219    2.9620    2.4547 C   0  0  0  0  0  0  0  0  0  0  0  0
    0.8700    3.0331    1.6993 C   0  0  0  0  0  0  0  0  0  0  0  0
    1.5843    1.8324    1.4765 C   0  0  0  0  0  0  0  0  0  0  0  0
    2.7457    1.9578    0.6320 C   0  0  1  0  0  3  0  0  0  0  0  0
    3.4256    0.8117    0.3024 N   0  0  0  0  0  0  0  0  0  0  0  0
    4.5753    0.6137   -0.4582 C   0  0  0  0  0  0  0  0  0  0  0  0
    5.3284    1.6521   -1.0260 C   0  0  0  0  0  0  0  0  0  0  0  0
    6.4707    1.3499   -1.7616 C   0  0  0  0  0  0  0  0  0  0  0  0
    7.4102    2.6351   -2.4697 Cl  0  0  0  0  0  0  0  0  0  0  0  0
    6.8795    0.0328   -1.9466 C   0  0  0  0  0  0  0  0  0  0  0  0
    7.9752   -0.2438   -2.6544 F   0  0  0  0  0  0  0  0  0  0  0  0
    6.1373   -1.0002   -1.3895 C   0  0  0  0  0  0  0  0  0  0  0  0
    4.9968   -0.7141   -0.6522 C   0  0  0  0  0  0  0  0  0  0  0  0
    3.1412    3.1268    0.1777 N   0  0  0  0  0  0  0  0  0  0  0  0
    2.3914    4.2074    0.5001 C   0  0  0  0  0  0  0  0  0  0  0  0
    1.2946    4.2328    1.2004 N   0  0  0  0  0  2  0  0  0  0  0  0
    0.4558   -2.0652    1.9398 O   0  0  0  0  0  0  0  0  0  0  0  0
    1.7730   -1.3874    5.6793 C   0  0  0  0  0  0  0  0  0  0  0  0
    1.7740   -2.0480    8.2317 H   0  0  0  0  0  0  0  0  0  0  0  0
    0.1947   -1.3209    8.6263 H   0  0  0  0  0  0  0  0  0  0  0  0
    1.5284   -0.2858    8.0447 H   0  0  0  0  0  0  0  0  0  0  0  0
   -0.8300   -2.7361    7.2869 H   0  0  0  0  0  0  0  0  0  0  0  0
    0.5356   -3.5408    6.5130 H   0  0  0  0  0  0  0  0  0  0  0  0
   -1.4878   -3.9487    5.4252 H   0  0  0  0  0  0  0  0  0  0  0  0
   -3.7963   -2.0603    7.5495 H   0  0  0  0  0  0  0  0  0  0  0  0
   -4.4188   -0.5794    6.8000 H   0  0  0  0  0  0  0  0  0  0  0  0
   -3.6330    0.6957    9.2098 H   0  0  0  0  0  0  0  0  0  0  0  0
   -3.9845    0.4475   11.4270 H   0  0  0  0  0  0  0  0  0  0  0  0
   -2.4557   -0.0602   12.2144 H   0  0  0  0  0  0  0  0  0  0  0  0
   -3.7587   -1.2388   11.9907 H   0  0  0  0  0  0  0  0  0  0  0  0
   -0.4388    0.2106    6.4767 H   0  0  0  0  0  0  0  0  0  0  0  0
   -0.0287    2.9399    7.0256 H   0  0  0  0  0  0  0  0  0  0  0  0
   -1.1973    2.9281    5.6747 H   0  0  0  0  0  0  0  0  0  0  0  0
    0.3948    2.1517    5.4777 H   0  0  0  0  0  0  0  0  0  0  0  0
   -0.8877   -3.8533    3.2293 H   0  0  0  0  0  0  0  0  0  0  0  0
   -1.1500   -0.5096    4.1784 H   0  0  0  0  0  0  0  0  0  0  0  0
    1.6938   -0.3096    1.9318 H   0  0  0  0  0  0  0  0  0  0  0  0
   -4.2293    2.3389    4.4661 H   0  0  0  0  0  0  0  0  0  0  0  0
   -4.2950    0.5781    4.7593 H   0  0  0  0  0  0  0  0  0  0  0  0
   -6.3043    1.8291    3.2899 H   0  0  0  0  0  0  0  0  0  0  0  0
   -5.7292    0.2001    2.8437 H   0  0  0  0  0  0  0  0  0  0  0  0
   -3.2924    3.0438    1.9479 H   0  0  0  0  0  0  0  0  0  0  0  0
   -3.0603    1.6164    0.8958 H   0  0  0  0  0  0  0  0  0  0  0  0
   -0.9032    3.8699    2.6158 H   0  0  0  0  0  0  0  0  0  0  0  0
    2.9838   -0.0395    0.6234 H   0  0  0  0  0  0  0  0  0  0  0  0
    5.0045    2.6815   -0.8894 H   0  0  0  0  0  0  0  0  0  0  0  0
    6.4668   -2.0289   -1.5427 H   0  0  0  0  0  0  0  0  0  0  0  0
    4.4192   -1.5341   -0.2183 H   0  0  0  0  0  0  0  0  0  0  0  0
    2.7610    5.1621    0.1069 H   0  0  0  0  0  0  0  0  0  0  0  0
    2.2436   -0.3942    5.7489 H   0  0  0  0  0  0  0  0  0  0  0  0
    1.5008   -1.5638    4.6369 H   0  0  0  0  0  0  0  0  0  0  0  0
    2.5299   -2.1490    5.9685 H   0  0  0  0  0  0  0  0  0  0  0  0
  1 50  1  0  0  0  0
  1 48  1  0  0  0  0
  1 49  1  0  0  0  0
  2  1  1  0  0  0  0
  3 52  1  0  0  0  0
  3  2  1  0  0  0  0
  3 51  1  0  0  0  0
  4 53  1  0  0  0  0
  4  3  1  0  0  0  0
  5  6  1  0  0  0  0
  6 54  1  0  0  0  0
  6  7  1  0  0  0  0
  7  8  1  1  0  0  0
  7  9  1  0  0  0  0
  9 56  1  0  0  0  0
  9 10  1  0  0  0  0
 10 11  1  0  0  0  0
 11 59  1  0  0  0  0
 11 58  1  0  0  0  0
 12 10  2  0  0  0  0
 13 16  2  0  0  0  0
 13  7  1  0  0  0  0
 14 13  1  0  0  0  0
 15 14  1  0  0  0  0
 15 61  1  0  0  0  0
 17  4  1  0  0  0  0
 18 19  1  0  0  0  0
 18 17  1  0  0  0  0
 19 65  1  0  0  0  0
 20 22  1  0  0  0  0
 20 19  1  0  0  0  0
 21 20  2  0  0  0  0
 22 23  1  0  0  0  0
 24 25  1  6  0  0  0
 24 23  1  0  0  0  0
 24 26  1  0  0  0  0
 26 67  1  0  0  0  0
 26 68  1  0  0  0  0
 27 69  1  0  0  0  0
 27 26  1  0  0  0  0
 28 29  1  0  0  0  0
 28 27  1  0  0  0  0
 29 71  1  0  0  0  0
 29 24  1  0  0  0  0
 30 73  1  0  0  0  0
 30 22  2  0  0  0  0
 31 30  1  0  0  0  0
 32 31  2  0  0  0  0
 32 21  1  0  0  0  0
 33 34  1  6  0  0  0
 33 32  1  0  0  0  0
 34 74  1  0  0  0  0
 35 34  1  0  0  0  0
 36 75  1  0  0  0  0
 36 35  2  0  0  0  0
 37 36  1  0  0  0  0
 38 37  1  0  0  0  0
 39 37  2  0  0  0  0
 39 41  1  0  0  0  0
 40 39  1  0  0  0  0
 41 42  2  0  0  0  0
 42 35  1  0  0  0  0
 42 77  1  0  0  0  0
 43 44  2  0  0  0  0
 43 33  1  0  0  0  0
 44 45  1  0  0  0  0
 45 31  1  0  0  0  0
 46 18  2  0  0  0  0
 47 79  1  0  0  0  0
 47 81  1  0  0  0  0
 47  2  1  0  0  0  0
 55  6  1  0  0  0  0
 57 11  1  0  0  0  0
 60 14  1  0  0  0  0
 62 15  1  0  0  0  0
 63 15  1  0  0  0  0
 64 17  1  0  0  0  0
 66 21  1  0  0  0  0
 70 27  1  0  0  0  0
 72 29  1  0  0  0  0
 76 41  1  0  0  0  0
 78 44  1  0  0  0  0
 80 47  1  0  0  0  0
M  END
