80
-1 1
C         9.623877  -10.799116    3.852213
O         9.233892   -9.479134    3.599675
C         7.975822   -9.097175    3.938150
C         7.053597   -9.915636    4.538476
C         7.653972   -7.743970    3.578410
N         8.673108   -7.011758    2.992911
C         8.633820   -5.690074    2.475666
O         9.267735   -5.474892    1.444130
C         7.880666   -4.750084    3.252138
C         7.296321   -3.618382    2.706248
S         5.126678   -4.183864    1.835248
C         5.750464   -5.451952    0.693874
C         5.055188   -6.804401    0.797155
H         4.859412   -7.035597    1.848395
N         5.940437   -7.864614    0.321792
C         5.911719   -9.111401    0.852918
C         7.127828   -9.967849    0.562503
O         4.989142   -9.514964    1.546765
C         3.686451   -6.828354    0.088224
N         2.837677   -7.737607    0.629117
C         1.472037   -7.888329    0.207561
O         3.399817   -6.090565   -0.836916
C         6.901252   -2.499130    3.637937
N         5.915901   -1.546582    3.169313
C         5.519655   -0.579333    4.172188
C         6.546150    0.545284    4.386287
C         6.878730    1.224146    3.054790
C         7.268935    0.187966    1.996699
C         6.194717   -0.903568    1.898692
C         6.356083   -7.309418    3.793213
C         5.374691   -8.160082    4.358108
C         5.730989   -9.463749    4.770691
N         4.847701  -10.327249    5.347621
C         3.624941   -9.890014    5.452168
N         3.137731   -8.710533    5.027121
C         3.966613   -7.848255    4.465332
N         3.465366   -6.683555    3.944494
C         2.125923   -6.359436    3.662576
C         1.018908   -7.029162    4.202215
C        -0.268704   -6.646368    3.830518
Cl        -1.647612   -7.490282    4.493863
C        -0.478668   -5.603953    2.937307
F        -1.717898   -5.250493    2.585568
C         0.614527   -4.929824    2.407193
C         1.901802   -5.299886    2.764240
H        10.652895  -10.900905    3.485396
H         8.976415  -11.520681    3.323682
H         9.601649  -11.029553    4.931380
H         7.278570  -10.939819    4.831412
H         9.419293   -7.569652    2.594584
H         7.610875   -5.039262    4.270473
H         7.650833   -3.333613    1.711427
H         6.815495   -5.608256    0.922778
H         5.671439   -5.092955   -0.343669
H         6.770769   -7.570589   -0.177716
H         6.865408  -11.021025    0.716414
H         7.928746   -9.695358    1.267280
H         7.505141   -9.819993   -0.459794
H         3.238669   -8.394257    1.295890
H         1.296261   -8.858350   -0.287509
H         1.246606   -7.084968   -0.505434
H         0.788506   -7.803739    1.068314
H         7.866293   -2.013230    3.917571
H         6.512930   -2.948450    4.566703
H         5.318300   -1.105800    5.118888
H         4.562292   -0.127072    3.851819
H         7.467700    0.125242    4.825532
H         6.157377    1.278350    5.112810
H         7.675762    1.974581    3.186926
H         5.986046    1.773583    2.701763
H         8.238020   -0.269362    2.263079
H         7.408871    0.668628    1.014573
H         6.453446   -1.670331    1.156784
H         5.252001   -0.450075    1.541607
H         6.094041   -6.298892    3.477416
H         2.892159  -10.554036    5.927894
H         4.128853   -6.025413    3.526124
H         1.171193   -7.852806    4.893099
H         0.447325   -4.118400    1.697263
H         2.758200   -4.777034    2.325418
