-1 1
 OpenBabel05232413493D

 80 82  0  0  1  0  0  0  0  0999 V2000
    3.8417   -4.6439    1.1439 C   0  0  0  0  0  0  0  0  0  0  0  0
    3.8274   -3.2485    0.9654 O   0  0  0  0  0  0  0  0  0  0  0  0
    2.6754   -2.5936    1.2338 C   0  0  0  0  0  0  0  0  0  0  0  0
    1.6840   -3.0707    2.0559 C   0  0  0  0  0  0  0  0  0  0  0  0
    2.5400   -1.3275    0.5782 C   0  0  0  0  0  0  0  0  0  0  0  0
    3.6429   -0.9127   -0.1731 N   0  0  0  0  0  0  0  0  0  0  0  0
    3.9949    0.3194   -0.6770 C   0  0  0  0  0  0  0  0  0  0  0  0
    4.8475    0.3922   -1.5461 O   0  0  0  0  0  0  0  0  0  0  0  0
    3.3298    1.5074   -0.0859 C   0  0  0  0  0  0  0  0  0  0  0  0
    3.1992    2.6383   -0.7812 C   0  0  0  0  0  0  0  0  0  0  0  0
   -0.2320    1.0229   -2.2222 S   0  0  0  0  0  1  0  0  0  0  0  0
    1.1319   -0.0396   -2.8093 C   0  0  0  0  0  0  0  0  0  0  0  0
    0.9377   -1.5651   -2.6787 C   0  0  2  0  0  0  0  0  0  0  0  0
    0.5570   -1.8035   -1.6739 H   0  0  0  0  0  0  0  0  0  0  0  0
    2.2175   -2.2224   -2.8109 N   0  0  0  0  0  0  0  0  0  0  0  0
    2.5374   -3.3779   -2.1858 C   0  0  0  0  0  0  0  0  0  0  0  0
    3.9023   -3.9446   -2.5361 C   0  0  0  0  0  0  0  0  0  0  0  0
    1.8301   -3.9172   -1.3501 O   0  0  0  0  0  0  0  0  0  0  0  0
   -0.0480   -2.1510   -3.7103 C   0  0  0  0  0  0  0  0  0  0  0  0
   -1.2793   -1.5932   -3.6718 N   0  0  0  0  0  0  0  0  0  0  0  0
   -2.3127   -1.9537   -4.6038 C   0  0  0  0  0  0  0  0  0  0  0  0
    0.2773   -3.0462   -4.4738 O   0  0  0  0  0  0  0  0  0  0  0  0
    2.5332    3.8825   -0.2634 C   0  0  0  0  0  0  0  0  0  0  0  0
    1.9096    3.7160    1.0307 N   0  0  0  0  0  0  0  0  0  0  0  0
    2.1186    4.7737    1.9982 C   0  0  0  0  0  0  0  0  0  0  0  0
    1.2060    5.9888    1.7901 C   0  0  0  0  0  0  0  0  0  0  0  0
   -0.2575    5.5439    1.7670 C   0  0  0  0  0  0  0  0  0  0  0  0
   -0.4660    4.4267    0.7442 C   0  0  0  0  0  0  0  0  0  0  0  0
    0.5199    3.2757    0.9739 C   0  0  0  0  0  0  0  0  0  0  0  0
    1.3375   -0.6612    0.6609 C   0  0  0  0  0  0  0  0  0  0  0  0
    0.2941   -1.1583    1.4796 C   0  0  0  0  0  0  0  0  0  0  0  0
    0.4891   -2.3340    2.2396 C   0  0  0  0  0  0  0  0  0  0  0  0
   -0.4339   -2.7737    3.1433 N   0  0  0  0  0  0  0  0  0  0  0  0
   -1.5001   -2.0284    3.2705 C   0  0  0  0  0  0  0  0  0  0  0  0
   -1.8394   -0.9397    2.5574 N   0  0  0  0  0  0  0  0  0  0  0  0
   -0.9948   -0.5322    1.6229 C   0  0  0  0  0  0  0  0  0  0  0  0
   -1.3468    0.4739    0.7756 N   0  0  0  0  0  0  0  0  0  0  0  0
   -2.4228    1.3522    0.9043 C   0  0  0  0  0  0  0  0  0  0  0  0
   -2.9319    1.7499    2.1492 C   0  0  0  0  0  0  0  0  0  0  0  0
   -3.9316    2.7135    2.2125 C   0  0  0  0  0  0  0  0  0  0  0  0
   -4.5581    3.2211    3.7605 Cl  0  0  0  0  0  0  0  0  0  0  0  0
   -4.4411    3.2903    1.0518 C   0  0  0  0  0  0  0  0  0  0  0  0
   -5.4025    4.2146    1.1240 F   0  0  0  0  0  0  0  0  0  0  0  0
   -3.9495    2.8944   -0.1839 C   0  0  0  0  0  0  0  0  0  0  0  0
   -2.9525    1.9295   -0.2616 C   0  0  0  0  0  0  0  0  0  0  0  0
    4.7952   -5.0015    0.7337 H   0  0  0  0  0  0  0  0  0  0  0  0
    3.0052   -5.1004    0.5903 H   0  0  0  0  0  0  0  0  0  0  0  0
    3.7938   -4.9205    2.2109 H   0  0  0  0  0  0  0  0  0  0  0  0
    1.7763   -4.0145    2.5907 H   0  0  0  0  0  0  0  0  0  0  0  0
    4.2372   -1.6651   -0.5042 H   0  0  0  0  0  0  0  0  0  0  0  0
    2.9200    1.4535    0.9254 H   0  0  0  0  0  0  0  0  0  0  0  0
    3.5872    2.6732   -1.8053 H   0  0  0  0  0  0  0  0  0  0  0  0
    2.0441    0.2091   -2.2506 H   0  0  0  0  0  0  0  0  0  0  0  0
    1.3456    0.1971   -3.8666 H   0  0  0  0  0  0  0  0  0  0  0  0
    2.8048   -1.9187   -3.5755 H   0  0  0  0  0  0  0  0  0  0  0  0
    3.7870   -5.0119   -2.7676 H   0  0  0  0  0  0  0  0  0  0  0  0
    4.5461   -3.8618   -1.6478 H   0  0  0  0  0  0  0  0  0  0  0  0
    4.3932   -3.4377   -3.3779 H   0  0  0  0  0  0  0  0  0  0  0  0
   -1.3667   -0.7270   -3.1219 H   0  0  0  0  0  0  0  0  0  0  0  0
   -3.2743   -2.0969   -4.0862 H   0  0  0  0  0  0  0  0  0  0  0  0
   -2.0259   -2.8939   -5.0928 H   0  0  0  0  0  0  0  0  0  0  0  0
   -2.4528   -1.1853   -5.3841 H   0  0  0  0  0  0  0  0  0  0  0  0
    1.8233    4.2306   -1.0423 H   0  0  0  0  0  0  0  0  0  0  0  0
    3.3025    4.6741   -0.2036 H   0  0  0  0  0  0  0  0  0  0  0  0
    3.1802    5.0690    1.9856 H   0  0  0  0  0  0  0  0  0  0  0  0
    1.9230    4.3579    3.0047 H   0  0  0  0  0  0  0  0  0  0  0  0
    1.4605    6.4761    0.8315 H   0  0  0  0  0  0  0  0  0  0  0  0
    1.3810    6.7348    2.5836 H   0  0  0  0  0  0  0  0  0  0  0  0
   -0.9241    6.3958    1.5567 H   0  0  0  0  0  0  0  0  0  0  0  0
   -0.5359    5.1699    2.7696 H   0  0  0  0  0  0  0  0  0  0  0  0
   -0.3278    4.8253   -0.2763 H   0  0  0  0  0  0  0  0  0  0  0  0
   -1.4966    4.0458    0.7894 H   0  0  0  0  0  0  0  0  0  0  0  0
    0.4191    2.5262    0.1740 H   0  0  0  0  0  0  0  0  0  0  0  0
    0.2732    2.7680    1.9249 H   0  0  0  0  0  0  0  0  0  0  0  0
    1.1751    0.2414    0.0705 H   0  0  0  0  0  0  0  0  0  0  0  0
   -2.2275   -2.3297    4.0353 H   0  0  0  0  0  0  0  0  0  0  0  0
   -0.8503    0.5353   -0.1404 H   0  0  0  0  0  0  0  0  0  0  0  0
   -2.5548    1.3004    3.0647 H   0  0  0  0  0  0  0  0  0  0  0  0
   -4.3581    3.3531   -1.0856 H   0  0  0  0  0  0  0  0  0  0  0  0
   -2.5565    1.6260   -1.2332 H   0  0  0  0  0  0  0  0  0  0  0  0
  1 48  1  0  0  0  0
  2  1  1  0  0  0  0
  2  3  1  0  0  0  0
  3  4  1  0  0  0  0
  4 32  2  0  0  0  0
  4 49  1  0  0  0  0
  5 30  1  0  0  0  0
  5  3  2  0  0  0  0
  6  5  1  0  0  0  0
  7  6  1  0  0  0  0
  7  9  1  0  0  0  0
  8  7  2  0  0  0  0
  9 51  1  0  0  0  0
 10 23  1  0  0  0  0
 10  9  2  0  0  0  0
 12 13  1  0  0  0  0
 12 53  1  0  0  0  0
 12 11  1  0  0  0  0
 13 14  1  1  0  0  0
 15 13  1  0  0  0  0
 15 16  1  0  0  0  0
 16 18  2  0  0  0  0
 17 16  1  0  0  0  0
 17 57  1  0  0  0  0
 19 20  1  0  0  0  0
 19 13  1  0  0  0  0
 20 59  1  0  0  0  0
 21 60  1  0  0  0  0
 21 20  1  0  0  0  0
 22 19  2  0  0  0  0
 23 64  1  0  0  0  0
 23 24  1  0  0  0  0
 24 25  1  0  0  0  0
 25 66  1  0  0  0  0
 26 25  1  0  0  0  0
 26 68  1  0  0  0  0
 27 26  1  0  0  0  0
 27 70  1  0  0  0  0
 28 72  1  0  0  0  0
 28 29  1  0  0  0  0
 28 27  1  0  0  0  0
 29 24  1  0  0  0  0
 29 74  1  0  0  0  0
 30 31  2  0  0  0  0
 31 36  1  0  0  0  0
 31 32  1  0  0  0  0
 32 33  1  0  0  0  0
 33 34  2  0  0  0  0
 34 76  1  0  0  0  0
 35 34  1  0  0  0  0
 36 35  2  0  0  0  0
 37 38  1  0  0  0  0
 37 36  1  0  0  0  0
 38 39  1  0  0  0  0
 39 40  2  0  0  0  0
 39 78  1  0  0  0  0
 40 41  1  0  0  0  0
 42 43  1  0  0  0  0
 42 40  1  0  0  0  0
 44 42  2  0  0  0  0
 45 44  1  0  0  0  0
 45 38  2  0  0  0  0
 46  1  1  0  0  0  0
 47  1  1  0  0  0  0
 50  6  1  0  0  0  0
 52 10  1  0  0  0  0
 54 12  1  0  0  0  0
 55 15  1  0  0  0  0
 56 17  1  0  0  0  0
 58 17  1  0  0  0  0
 61 21  1  0  0  0  0
 62 21  1  0  0  0  0
 63 23  1  0  0  0  0
 65 25  1  0  0  0  0
 67 26  1  0  0  0  0
 69 27  1  0  0  0  0
 71 28  1  0  0  0  0
 73 29  1  0  0  0  0
 75 30  1  0  0  0  0
 77 37  1  0  0  0  0
 79 44  1  0  0  0  0
 80 45  1  0  0  0  0
M  END
