86
-1 1
O         6.190140   -6.668708    5.250078
C         6.833341   -6.844987    6.278173
N         6.415125   -7.952444    7.081192
C         6.151996   -8.074519    8.432679
C         5.519630   -9.280620    8.848738
N         5.228986  -10.251524    7.860814
C         4.090995  -11.118504    8.086352
C         3.770384  -11.876825    6.794147
N         4.894515  -12.628359    6.266215
C         6.051909  -11.756599    6.114623
C         6.398997  -10.996913    7.390218
C         5.170956  -13.863997    6.963812
C         5.194227   -9.448437   10.193050
C         5.483137   -8.464363   11.131951
O         5.173600   -8.633085   12.467004
C         3.818799   -8.411772   12.776615
C         6.117971   -7.279134   10.733086
N         6.394995   -6.371107   11.765368
C         6.990325   -5.151105   11.765453
N         7.183674   -4.618037   12.981507
C         7.757419   -3.418983   13.092036
C         7.927911   -2.913536   14.456771
C         8.184881   -1.611172   14.945471
N         8.238101   -1.551569   16.267760
C         7.820908   -3.691317   15.627564
N         8.026027   -2.811083   16.673949
C         8.017997   -3.188583   17.985804
C         7.797960   -4.496809   18.298972
C         7.582247   -5.445547   17.258554
C         7.590326   -5.055766   15.945336
C         8.159938   -2.754029   11.913591
Cl         8.977466   -1.212884   11.884631
C         7.914514   -3.388618   10.699504
N         7.327884   -4.568591   10.610342
C         6.433514   -7.087609    9.385399
C         7.965202   -6.041569    6.667210
C         8.940821   -6.339571    7.596713
S        10.914976   -7.495905    6.728409
C        10.010272   -8.823679    5.885912
C        10.001215  -10.164515    6.645975
H         9.133839  -10.765267    6.314814
N         9.834012   -9.884379    8.058310
C         9.337227  -10.690407    9.005586
C         9.029571  -10.021101   10.325974
O         9.093867  -11.887625    8.824708
C        11.232503  -11.041726    6.318420
N        11.322452  -12.157304    7.090199
C        12.368911  -13.126226    6.917208
O        12.002995  -10.788290    5.411881
H         5.790442   -8.545384    6.537491
H         3.226332  -10.506605    8.387855
H         4.278125  -11.849386    8.905044
H         3.461155  -11.137506    6.034980
H         2.921107  -12.559720    6.959745
H         5.834413  -11.027255    5.314746
H         6.918333  -12.353445    5.790582
H         7.212137  -10.285606    7.192773
H         6.766009  -11.689032    8.172240
H         4.269516  -14.498039    6.962969
H         5.499744  -13.749850    8.018331
H         5.965459  -14.413837    6.435755
H         4.725959  -10.371826   10.537513
H         3.698422   -8.558763   13.859101
H         3.159842   -9.121037   12.245768
H         3.505385   -7.385334   12.512821
H         6.184692   -6.734545   12.687776
H         8.320128   -0.699507   14.370528
H         8.196069   -2.384842   18.699258
H         7.791293   -4.801257   19.345599
H         7.408535   -6.492580   17.513200
H         7.419993   -5.744089   15.120905
H         8.214415   -2.909823    9.761267
H         6.875080   -6.147658    9.071827
H         8.103003   -5.176638    6.014079
H         8.778334   -7.133457    8.326428
H         9.618802   -5.552617    7.926705
H        10.442743   -9.004348    4.894196
H         8.967301   -8.484066    5.748615
H        10.169338   -8.935108    8.277360
H         7.964677   -9.738156   10.327424
H         9.623797   -9.111224   10.487740
H         9.195928  -10.734667   11.142661
H        10.562347  -12.333685    7.751738
H        12.901783  -13.316028    7.863597
H        13.081462  -12.730458    6.181803
H        11.982201  -14.090228    6.542572
