61
-1 1
O         1.179741   -1.943812    3.141970
C         0.480056   -1.124869    2.574658
C         0.589022   -0.860393    1.066400
C         0.293221   -2.149637    0.292243
S         0.242730   -1.949806   -1.524068
C        -0.371439    2.164709   -0.850953
C        -0.855824    2.596897    0.323337
C        -2.074920    1.974445    0.877061
O        -2.882220    1.480821   -0.068806
C        -3.757831    0.413444    0.286025
C        -2.955109   -0.876248    0.435394
C        -3.770624   -2.141141    0.353998
C        -4.955045   -2.307410    1.083307
C        -5.685045   -3.492614    1.001104
C        -5.236534   -4.535052    0.190647
C        -4.055179   -4.381559   -0.534842
C        -3.328773   -3.194025   -0.458696
O        -2.290606    1.846701    2.063685
C         0.953654    2.448014   -1.416945
C         1.597894    1.374780   -2.045340
C         2.894409    1.506320   -2.534414
C         3.671211    0.337681   -3.091834
N         3.169121   -0.892521   -2.837260
O         4.720982    0.514461   -3.693015
C         3.526807    2.752148   -2.470447
C         2.885063    3.832007   -1.867448
C         1.610140    3.679567   -1.320469
N         1.910466   -0.378768    0.735098
C         2.385104    0.790388    1.215301
C         3.770366    1.184600    0.748100
O         1.751319    1.486137    1.997381
H        -0.150385   -0.095642    0.781800
N        -0.514355   -0.437792    3.201031
C        -0.692793   -0.545283    4.625026
H         1.045636   -2.895934    0.594000
H        -0.675605   -2.533492    0.652073
H        -4.468192    0.338734   -0.548367
H        -4.305987    0.675632    1.203555
H        -2.411500   -0.850241    1.394552
H        -2.192243   -0.896952   -0.361253
H        -5.309418   -1.503043    1.734181
H        -6.606781   -3.604021    1.578174
H        -5.805397   -5.466173    0.127708
H        -3.691437   -5.192989   -1.169846
H        -2.399248   -3.071312   -1.028771
H         1.070287    0.412673   -2.074920
H         2.267636   -1.120155   -2.382373
H         3.684434   -1.669360   -3.230701
H         4.533120    2.840079   -2.884708
H         3.387400    4.800616   -1.809274
H         1.114265    4.521343   -0.830873
H         2.392118   -0.859615   -0.016241
H         4.431651    1.229063    1.625497
H         3.716218    2.191976    0.313852
H         4.195549    0.495882    0.005812
H        -0.852384    0.412962    2.759800
H        -1.692933   -0.180063    4.896429
H         0.061396    0.035367    5.185365
H        -0.594808   -1.596957    4.926403
H        -0.961639    1.425384   -1.401282
H        -0.270709    3.209053    1.012128
