-1 1
 OpenBabel05232414493D

 61 61  0  0  1  0  0  0  0  0999 V2000
    2.9518   -0.7542    2.0376 O   0  0  0  0  0  0  0  0  0  0  0  0
    2.4925    0.2359    1.4981 C   0  0  0  0  0  0  0  0  0  0  0  0
    3.2734    1.0357    0.4464 C   0  0  2  0  0  0  0  0  0  0  0  0
    3.0644    0.3728   -0.9263 C   0  0  0  0  0  0  0  0  0  0  0  0
    4.0101    1.1217   -2.2770 S   0  0  0  0  0  1  0  0  0  0  0  0
    2.5042    2.8159   -2.7323 C   0  0  0  0  0  3  0  0  0  0  0  0
    1.7312    3.1555   -1.6136 C   0  0  0  0  0  3  0  0  0  0  0  0
    0.5273    2.4955   -1.2578 C   0  0  0  0  0  0  0  0  0  0  0  0
    0.0201    1.6792   -2.2442 O   0  0  0  0  0  0  0  0  0  0  0  0
   -1.1521    0.9701   -1.9308 C   0  0  0  0  0  0  0  0  0  0  0  0
   -0.8669   -0.3013   -1.1249 C   0  0  0  0  0  0  0  0  0  0  0  0
   -2.1350   -0.9180   -0.5958 C   0  0  0  0  0  0  0  0  0  0  0  0
   -2.8467   -0.2683    0.4238 C   0  0  0  0  0  0  0  0  0  0  0  0
   -4.0345   -0.8003    0.9180 C   0  0  0  0  0  0  0  0  0  0  0  0
   -4.5385   -1.9941    0.3986 C   0  0  0  0  0  0  0  0  0  0  0  0
   -3.8440   -2.6470   -0.6177 C   0  0  0  0  0  0  0  0  0  0  0  0
   -2.6537   -2.1100   -1.1104 C   0  0  0  0  0  0  0  0  0  0  0  0
   -0.0711    2.5915   -0.1822 O   0  0  0  0  0  0  0  0  0  0  0  0
    3.4956    3.7566   -3.3298 C   0  0  0  0  0  0  0  0  0  0  0  0
    4.1609    3.3901   -4.5068 C   0  0  0  0  0  0  0  0  0  0  0  0
    5.1084    4.2213   -5.1036 C   0  0  0  0  0  0  0  0  0  0  0  0
    5.8754    3.8153   -6.3296 C   0  0  0  0  0  0  0  0  0  0  0  0
    5.9472    2.4705   -6.5572 N   0  0  0  0  0  0  0  0  0  0  0  0
    6.4077    4.6223   -7.0697 O   0  0  0  0  0  0  0  0  0  0  0  0
    5.3744    5.4755   -4.5431 C   0  0  0  0  0  0  0  0  0  0  0  0
    4.7124    5.8593   -3.3824 C   0  0  0  0  0  0  0  0  0  0  0  0
    3.7846    5.0089   -2.7785 C   0  0  0  0  0  0  0  0  0  0  0  0
    4.6778    1.0739    0.7618 N   0  0  0  0  0  0  0  0  0  0  0  0
    5.1383    1.6644    1.8892 C   0  0  0  0  0  0  0  0  0  0  0  0
    6.6512    1.6828    2.0314 C   0  0  0  0  0  0  0  0  0  0  0  0
    4.4058    2.1111    2.7543 O   0  0  0  0  0  0  0  0  0  0  0  0
    2.8703    2.0593    0.4129 H   0  0  0  0  0  0  0  0  0  0  0  0
    1.2280    0.6902    1.6981 N   0  0  0  0  0  0  0  0  0  0  0  0
    0.3203    0.0338    2.6007 C   0  0  0  0  0  0  0  0  0  0  0  0
    3.3309   -0.6932   -0.8502 H   0  0  0  0  0  0  0  0  0  0  0  0
    1.9951    0.4238   -1.1755 H   0  0  0  0  0  0  0  0  0  0  0  0
   -1.6239    0.7136   -2.8916 H   0  0  0  0  0  0  0  0  0  0  0  0
   -1.8399    1.6154   -1.3638 H   0  0  0  0  0  0  0  0  0  0  0  0
   -0.2146   -0.0273   -0.2831 H   0  0  0  0  0  0  0  0  0  0  0  0
   -0.3116   -1.0194   -1.7473 H   0  0  0  0  0  0  0  0  0  0  0  0
   -2.4483    0.6662    0.8297 H   0  0  0  0  0  0  0  0  0  0  0  0
   -4.5700   -0.2814    1.7168 H   0  0  0  0  0  0  0  0  0  0  0  0
   -5.4692   -2.4142    0.7874 H   0  0  0  0  0  0  0  0  0  0  0  0
   -4.2290   -3.5829   -1.0304 H   0  0  0  0  0  0  0  0  0  0  0  0
   -2.1111   -2.6285   -1.9057 H   0  0  0  0  0  0  0  0  0  0  0  0
    3.9163    2.4198   -4.9468 H   0  0  0  0  0  0  0  0  0  0  0  0
    5.7158    1.8024   -5.8348 H   0  0  0  0  0  0  0  0  0  0  0  0
    6.5318    2.1680   -7.3243 H   0  0  0  0  0  0  0  0  0  0  0  0
    6.1033    6.1249   -5.0313 H   0  0  0  0  0  0  0  0  0  0  0  0
    4.9182    6.8354   -2.9361 H   0  0  0  0  0  0  0  0  0  0  0  0
    3.2669    5.3280   -1.8729 H   0  0  0  0  0  0  0  0  0  0  0  0
    5.3016    0.9346   -0.0267 H   0  0  0  0  0  0  0  0  0  0  0  0
    6.9613    0.7966    2.6057 H   0  0  0  0  0  0  0  0  0  0  0  0
    6.9411    2.5765    2.5981 H   0  0  0  0  0  0  0  0  0  0  0  0
    7.1732    1.6698    1.0638 H   0  0  0  0  0  0  0  0  0  0  0  0
    0.8952    1.5101    1.1855 H   0  0  0  0  0  0  0  0  0  0  0  0
   -0.5193   -0.4463    2.0692 H   0  0  0  0  0  0  0  0  0  0  0  0
   -0.0954    0.7461    3.3310 H   0  0  0  0  0  0  0  0  0  0  0  0
    0.8802   -0.7426    3.1378 H   0  0  0  0  0  0  0  0  0  0  0  0
    1.9907    2.2034   -3.4764 H   0  0  0  0  0  0  0  0  0  0  0  0
    2.1168    3.8287   -0.8461 H   0  0  0  0  0  0  0  0  0  0  0  0
  2 33  1  0  0  0  0
  2  1  2  0  0  0  0
  3 32  1  6  0  0  0
  3 28  1  0  0  0  0
  3  2  1  0  0  0  0
  4 35  1  0  0  0  0
  4  3  1  0  0  0  0
  5  4  1  0  0  0  0
  6  7  1  0  0  0  0
  7  8  1  0  0  0  0
  7 61  1  0  0  0  0
  8 18  2  0  0  0  0
  9 10  1  0  0  0  0
  9  8  1  0  0  0  0
 10 38  1  0  0  0  0
 10 11  1  0  0  0  0
 11 12  1  0  0  0  0
 11 39  1  0  0  0  0
 12 13  1  0  0  0  0
 13 41  1  0  0  0  0
 13 14  2  0  0  0  0
 14 42  1  0  0  0  0
 15 43  1  0  0  0  0
 15 14  1  0  0  0  0
 16 15  2  0  0  0  0
 17 16  1  0  0  0  0
 17 12  2  0  0  0  0
 19 27  1  0  0  0  0
 19  6  1  0  0  0  0
 20 19  2  0  0  0  0
 21 25  2  0  0  0  0
 21 20  1  0  0  0  0
 22 21  1  0  0  0  0
 23 22  1  0  0  0  0
 23 47  1  0  0  0  0
 24 22  2  0  0  0  0
 25 26  1  0  0  0  0
 26 50  1  0  0  0  0
 26 27  2  0  0  0  0
 27 51  1  0  0  0  0
 28 29  1  0  0  0  0
 29 30  1  0  0  0  0
 29 31  2  0  0  0  0
 30 54  1  0  0  0  0
 30 53  1  0  0  0  0
 33 34  1  0  0  0  0
 34 59  1  0  0  0  0
 34 58  1  0  0  0  0
 36  4  1  0  0  0  0
 37 10  1  0  0  0  0
 40 11  1  0  0  0  0
 44 16  1  0  0  0  0
 45 17  1  0  0  0  0
 46 20  1  0  0  0  0
 48 23  1  0  0  0  0
 49 25  1  0  0  0  0
 52 28  1  0  0  0  0
 55 30  1  0  0  0  0
 56 33  1  0  0  0  0
 57 34  1  0  0  0  0
 60  6  1  0  0  0  0
M  END
