-1 1
 OpenBabel05192410563D

 61 62  0  0  1  0  0  0  0  0999 V2000
    0.4940   -2.0291    3.8692 O   0  0  0  0  0  0  0  0  0  0  0  0
    0.1249   -1.2170    3.0265 C   0  0  0  0  0  0  0  0  0  0  0  0
    1.1315   -0.6140    2.0415 C   0  0  2  0  0  0  0  0  0  0  0  0
    1.1381   -1.4441    0.7436 C   0  0  0  0  0  0  0  0  0  0  0  0
    2.1576   -0.7580   -0.5825 S   0  0  0  0  0  0  0  0  0  0  0  0
    0.9503    0.5859   -1.3176 C   0  0  1  0  0  0  0  0  0  0  0  0
   -0.0942    1.0469   -0.3910 C   0  0  0  0  0  3  0  0  0  0  0  0
   -1.3174    0.4198   -0.2382 C   0  0  0  0  0  0  0  0  0  0  0  0
   -1.5813   -0.5703   -1.1938 O   0  0  0  0  0  0  0  0  0  0  0  0
   -2.8177   -1.2159   -1.0803 C   0  0  0  0  0  0  0  0  0  0  0  0
   -2.8171   -2.3207   -0.0085 C   0  0  0  0  0  0  0  0  0  0  0  0
   -4.1859   -2.5732    0.5676 C   0  0  0  0  0  0  0  0  0  0  0  0
   -4.8259   -1.5409    1.2725 C   0  0  0  0  0  0  0  0  0  0  0  0
   -6.0885   -1.7347    1.8242 C   0  0  0  0  0  0  0  0  0  0  0  0
   -6.7402   -2.9622    1.6804 C   0  0  0  0  0  0  0  0  0  0  0  0
   -6.1167   -3.9914    0.9790 C   0  0  0  0  0  0  0  0  0  0  0  0
   -4.8491   -3.7949    0.4264 C   0  0  0  0  0  0  0  0  0  0  0  0
   -2.1753    0.6085    0.6602 O   0  0  0  0  0  0  0  0  0  0  0  0
    1.8593    1.6795   -1.8240 C   0  0  0  0  0  0  0  0  0  0  0  0
    1.9236    1.9675   -3.1876 C   0  0  0  0  0  0  0  0  0  0  0  0
    2.7380    2.9963   -3.6819 C   0  0  0  0  0  0  0  0  0  0  0  0
    2.8519    3.3164   -5.1433 C   0  0  0  0  0  0  0  0  0  0  0  0
    2.4257    2.3412   -6.0032 N   0  0  0  0  0  0  0  0  0  0  0  0
    3.2972    4.3722   -5.5553 O   0  0  0  0  0  0  0  0  0  0  0  0
    3.4818    3.7661   -2.7858 C   0  0  0  0  0  0  0  0  0  0  0  0
    3.4310    3.4812   -1.4224 C   0  0  0  0  0  0  0  0  0  0  0  0
    2.6379    2.4427   -0.9412 C   0  0  0  0  0  0  0  0  0  0  0  0
    2.4234   -0.5896    2.6783 N   0  0  0  0  0  0  0  0  0  0  0  0
    3.2027    0.5151    2.7613 C   0  0  0  0  0  0  0  0  0  0  0  0
    4.5248    0.3064    3.4793 C   0  0  0  0  0  0  0  0  0  0  0  0
    2.9126    1.5957    2.2783 O   0  0  0  0  0  0  0  0  0  0  0  0
    0.8546    0.4167    1.7937 H   0  0  0  0  0  0  0  0  0  0  0  0
   -1.1517   -0.8193    2.8711 N   0  0  0  0  0  0  0  0  0  0  0  0
   -2.2094   -1.3800    3.6745 C   0  0  0  0  0  0  0  0  0  0  0  0
    1.5319   -2.4502    0.9586 H   0  0  0  0  0  0  0  0  0  0  0  0
    0.1135   -1.5653    0.3686 H   0  0  0  0  0  0  0  0  0  0  0  0
   -3.0355   -1.6481   -2.0697 H   0  0  0  0  0  0  0  0  0  0  0  0
   -3.6040   -0.4835   -0.8437 H   0  0  0  0  0  0  0  0  0  0  0  0
   -2.1582   -1.9829    0.8035 H   0  0  0  0  0  0  0  0  0  0  0  0
   -2.3844   -3.2498   -0.4113 H   0  0  0  0  0  0  0  0  0  0  0  0
   -4.3013   -0.5851    1.3744 H   0  0  0  0  0  0  0  0  0  0  0  0
   -6.5697   -0.9214    2.3735 H   0  0  0  0  0  0  0  0  0  0  0  0
   -7.7314   -3.1139    2.1150 H   0  0  0  0  0  0  0  0  0  0  0  0
   -6.6177   -4.9557    0.8599 H   0  0  0  0  0  0  0  0  0  0  0  0
   -4.3627   -4.6074   -0.1210 H   0  0  0  0  0  0  0  0  0  0  0  0
    1.2907    1.3855   -3.8638 H   0  0  0  0  0  0  0  0  0  0  0  0
    2.2762    1.3939   -5.6893 H   0  0  0  0  0  0  0  0  0  0  0  0
    2.5778    2.5057   -6.9886 H   0  0  0  0  0  0  0  0  0  0  0  0
    4.0986    4.5755   -3.1810 H   0  0  0  0  0  0  0  0  0  0  0  0
    4.0237    4.0721   -0.7198 H   0  0  0  0  0  0  0  0  0  0  0  0
    2.6239    2.2097    0.1282 H   0  0  0  0  0  0  0  0  0  0  0  0
    2.6268   -1.3987    3.2542 H   0  0  0  0  0  0  0  0  0  0  0  0
    4.7614    1.2107    4.0544 H   0  0  0  0  0  0  0  0  0  0  0  0
    5.3099    0.1727    2.7201 H   0  0  0  0  0  0  0  0  0  0  0  0
    4.5265   -0.5694    4.1438 H   0  0  0  0  0  0  0  0  0  0  0  0
   -1.4254   -0.1690    2.1115 H   0  0  0  0  0  0  0  0  0  0  0  0
   -2.6516   -2.2813    3.2150 H   0  0  0  0  0  0  0  0  0  0  0  0
   -3.0099   -0.6378    3.7983 H   0  0  0  0  0  0  0  0  0  0  0  0
   -1.8120   -1.6611    4.6593 H   0  0  0  0  0  0  0  0  0  0  0  0
    0.4964    0.0582   -2.1644 H   0  0  0  0  0  0  0  0  0  0  0  0
    0.1400    1.8327    0.3291 H   0  0  0  0  0  0  0  0  0  0  0  0
  2  1  2  0  0  0  0
  3 32  1  6  0  0  0
  3 28  1  0  0  0  0
  3  2  1  0  0  0  0
  4 35  1  0  0  0  0
  4  3  1  0  0  0  0
  5  4  1  0  0  0  0
  6 60  1  6  0  0  0
  6  5  1  0  0  0  0
  6  7  1  0  0  0  0
  7  8  1  0  0  0  0
  7 61  1  0  0  0  0
  8 18  2  0  0  0  0
  9 10  1  0  0  0  0
  9  8  1  0  0  0  0
 10 38  1  0  0  0  0
 10 11  1  0  0  0  0
 11 12  1  0  0  0  0
 11 39  1  0  0  0  0
 12 13  1  0  0  0  0
 13 41  1  0  0  0  0
 13 14  2  0  0  0  0
 14 42  1  0  0  0  0
 15 14  1  0  0  0  0
 15 43  1  0  0  0  0
 16 15  2  0  0  0  0
 17 12  2  0  0  0  0
 17 16  1  0  0  0  0
 19  6  1  0  0  0  0
 19 27  1  0  0  0  0
 20 19  2  0  0  0  0
 21 20  1  0  0  0  0
 21 25  2  0  0  0  0
 22 21  1  0  0  0  0
 23 47  1  0  0  0  0
 23 22  1  0  0  0  0
 24 22  2  0  0  0  0
 25 26  1  0  0  0  0
 26 27  2  0  0  0  0
 26 50  1  0  0  0  0
 27 51  1  0  0  0  0
 28 29  1  0  0  0  0
 28 52  1  0  0  0  0
 29 30  1  0  0  0  0
 30 53  1  0  0  0  0
 30 55  1  0  0  0  0
 31 29  2  0  0  0  0
 33  2  1  0  0  0  0
 33 34  1  0  0  0  0
 34 58  1  0  0  0  0
 34 59  1  0  0  0  0
 36  4  1  0  0  0  0
 37 10  1  0  0  0  0
 40 11  1  0  0  0  0
 44 16  1  0  0  0  0
 45 17  1  0  0  0  0
 46 20  1  0  0  0  0
 48 23  1  0  0  0  0
 49 25  1  0  0  0  0
 54 30  1  0  0  0  0
 56 33  1  0  0  0  0
 57 34  1  0  0  0  0
M  END
