87
-1 1
O         1.927575    1.043614    2.255605
C         2.621096   -0.007820    2.346821
N         2.518858   -0.955026    1.264278
C         1.500951   -0.964514    0.333975
C         0.972551   -2.212872   -0.077924
N         1.541049   -3.387134    0.492851
C         2.680400   -3.926074   -0.238046
C         3.393194   -4.975706    0.616413
N         2.507757   -6.029009    1.083183
C         1.377281   -5.443906    1.788107
C         0.617894   -4.408447    0.954631
C         2.157345   -7.008479    0.082891
C        -0.081450   -2.255551   -0.990679
C        -0.640418   -1.091252   -1.508835
O        -1.730708   -1.169227   -2.336980
C        -2.953509   -0.918796   -1.695128
C        -0.082348    0.143669   -1.148324
N        -0.643704    1.350953   -1.625468
C        -0.821182    1.712844   -2.924782
N        -1.458513    2.876619   -3.117541
C        -1.678907    3.267971   -4.373955
C        -2.389513    4.545239   -4.535181
C        -3.033472    5.168344   -3.492505
N        -3.620549    6.324324   -3.922007
H        -4.153202    6.956301   -3.343556
C        -2.583835    5.391878   -5.694797
C        -3.365060    6.495622   -5.262819
C        -3.748424    7.533758   -6.118463
C        -3.329263    7.467640   -7.438323
C        -2.537502    6.394707   -7.889995
C        -2.161741    5.367511   -7.037060
C        -1.270601    2.471377   -5.452456
C        -0.590648    1.299211   -5.128616
N        -0.344054    0.913396   -3.888988
C         0.975319    0.201034   -0.245117
C         3.429704   -0.364939    3.415462
C         4.015761   -1.695116    3.649270
S         2.946371   -2.935395    4.637486
C         1.285424   -2.526805    4.043843
C         0.590446   -1.338039    4.733687
H         1.272003   -0.479654    4.767804
N         0.188474   -1.664455    6.079560
C         0.695252   -1.077688    7.194517
C         0.091579   -1.584673    8.496340
O         1.582181   -0.247099    7.189997
C        -0.668932   -1.028119    3.918817
N        -0.537966   -0.099745    2.959770
C        -1.601447    0.132707    2.017300
O        -1.701055   -1.663184    4.127885
H         2.781221   -1.900642    1.516052
H         3.371357   -3.101378   -0.473355
H         2.361270   -4.363561   -1.210729
H         3.817696   -4.472632    1.502724
H         4.228206   -5.421578    0.052015
H         1.765624   -4.949524    2.694095
H         0.692860   -6.245749    2.108558
H        -0.158166   -3.926912    1.569546
H         0.098999   -4.915924    0.110329
H         3.074119   -7.464610   -0.324743
H         1.570405   -6.623782   -0.779435
H         1.564923   -7.813227    0.547315
H        -0.512839   -3.211247   -1.294857
H        -3.144818   -1.647562   -0.885666
H        -3.746638   -1.008197   -2.450970
H        -2.989735    0.097444   -1.263021
H        -0.838593    2.081407   -0.952920
H        -3.098917    4.832834   -2.460532
H        -4.352339    8.369001   -5.756682
H        -3.609925    8.261683   -8.133847
H        -2.208435    6.374637   -8.931237
H        -1.530997    4.560635   -7.410472
H        -1.479460    2.733825   -6.486718
H        -0.220133    0.640809   -5.923683
H         1.383327    1.158794    0.070874
H         3.445447    0.351996    4.239117
H         4.917957   -1.653944    4.277446
H         4.296612   -2.226823    2.726083
H         0.666982   -3.425310    4.199033
H         1.324611   -2.355291    2.960369
H        -0.662326   -2.213276    6.137083
H         0.056904   -0.755568    9.214458
H         0.753100   -2.362416    8.907053
H        -0.914000   -2.012191    8.372492
H         0.370593    0.379085    2.791773
H        -1.444785    1.106589    1.534157
H        -1.627374   -0.639399    1.228438
H        -2.574171    0.129313    2.530604
