-1 1
 OpenBabel05232414493D

 87 90  0  0  1  0  0  0  0  0999 V2000
    8.1959   11.5912   -8.0806 O   0  0  0  0  0  0  0  0  0  0  0  0
    8.7848   10.5056   -7.9798 C   0  0  0  0  0  0  0  0  0  0  0  0
    8.6282    9.5247   -8.9717 N   0  0  0  0  0  0  0  0  0  0  0  0
    7.6523    9.5343   -9.9610 C   0  0  0  0  0  0  0  0  0  0  0  0
    7.1593    8.2826  -10.4042 C   0  0  0  0  0  0  0  0  0  0  0  0
    7.7263    7.1126   -9.8387 N   0  0  0  0  0  0  0  0  0  0  0  0
    8.9775    6.6761  -10.4503 C   0  0  0  0  0  0  0  0  0  0  0  0
    9.6408    5.6177   -9.5659 C   0  0  0  0  0  0  0  0  0  0  0  0
    8.7704    4.4917   -9.2786 N   0  0  0  0  0  0  0  0  0  0  0  0
    7.5356    4.9744   -8.6773 C   0  0  0  0  0  0  0  0  0  0  0  0
    6.8197    6.0155   -9.5414 C   0  0  0  0  0  0  0  0  0  0  0  0
    8.5983    3.5658  -10.3708 C   0  0  0  0  0  0  0  0  0  0  0  0
    6.1227    8.2466  -11.3362 C   0  0  0  0  0  0  0  0  0  0  0  0
    5.5626    9.4145  -11.8478 C   0  0  0  0  0  0  0  0  0  0  0  0
    4.4941    9.3339  -12.6998 O   0  0  0  0  0  0  0  0  0  0  0  0
    3.2528    9.5778  -12.0890 C   0  0  0  0  0  0  0  0  0  0  0  0
    6.0995   10.6494  -11.4644 C   0  0  0  0  0  0  0  0  0  0  0  0
    5.5387   11.8567  -11.9387 N   0  0  0  0  0  0  0  0  0  0  0  0
    5.3877   12.2284  -13.2397 C   0  0  0  0  0  0  0  0  0  0  0  0
    4.7156   13.3702  -13.4394 N   0  0  0  0  0  0  0  0  0  0  0  0
    4.5235   13.7695  -14.6985 C   0  0  0  0  0  0  0  0  0  0  0  0
    3.7724   15.0213  -14.8705 C   0  0  0  0  0  0  0  0  0  0  0  0
    3.0645   15.6049  -13.8463 C   0  0  0  0  0  0  0  0  0  0  0  0
    2.4508   16.7433  -14.2845 N   0  0  0  0  0  0  0  0  0  0  0  0
    1.8707   17.3458  -13.7202 H   0  0  0  0  0  0  0  0  0  0  0  0
    3.5913   15.8760  -16.0264 C   0  0  0  0  0  0  0  0  0  0  0  0
    2.7519   16.9429  -15.6120 C   0  0  0  0  0  0  0  0  0  0  0  0
    2.3626   17.9776  -16.4691 C   0  0  0  0  0  0  0  0  0  0  0  0
    2.8357   17.9460  -17.7718 C   0  0  0  0  0  0  0  0  0  0  0  0
    3.6856   16.9105  -18.2050 C   0  0  0  0  0  0  0  0  0  0  0  0
    4.0668   15.8865  -17.3508 C   0  0  0  0  0  0  0  0  0  0  0  0
    4.9966   13.0010  -15.7711 C   0  0  0  0  0  0  0  0  0  0  0  0
    5.7050   11.8488  -15.4383 C   0  0  0  0  0  0  0  0  0  0  0  0
    5.9235   11.4567  -14.1949 N   0  0  0  0  0  0  0  0  0  0  0  0
    7.1373   10.7019  -10.5342 C   0  0  0  0  0  0  0  0  0  0  0  0
    9.5933   10.1476   -6.8477 C   0  0  0  0  0  3  0  0  0  0  0  0
   10.1785    8.9178   -6.6348 C   0  0  0  0  0  3  0  0  0  0  0  0
    8.6415    7.1835   -5.7098 S   0  0  0  0  0  1  0  0  0  0  0  0
    7.0906    7.8880   -6.3366 C   0  0  0  0  0  0  0  0  0  0  0  0
    6.5970    9.1729   -5.6365 C   0  0  2  0  0  0  0  0  0  0  0  0
    7.3736    9.9457   -5.6803 H   0  0  0  0  0  0  0  0  0  0  0  0
    6.3131    8.9479   -4.2435 N   0  0  0  0  0  0  0  0  0  0  0  0
    7.0150    9.5190   -3.2333 C   0  0  0  0  0  0  0  0  0  0  0  0
    6.7196    8.9363   -1.8610 C   0  0  0  0  0  0  0  0  0  0  0  0
    7.8327   10.4073   -3.3868 O   0  0  0  0  0  0  0  0  0  0  0  0
    5.3270    9.6210   -6.3601 C   0  0  0  0  0  0  0  0  0  0  0  0
    5.5059   10.5483   -7.3293 N   0  0  0  0  0  0  0  0  0  0  0  0
    4.4462   10.9126   -8.2320 C   0  0  0  0  0  0  0  0  0  0  0  0
    4.2457    9.1051   -6.1090 O   0  0  0  0  0  0  0  0  0  0  0  0
    8.8293    8.5774   -8.6619 H   0  0  0  0  0  0  0  0  0  0  0  0
    9.6449    7.5453  -10.5604 H   0  0  0  0  0  0  0  0  0  0  0  0
    8.7991    6.2795  -11.4746 H   0  0  0  0  0  0  0  0  0  0  0  0
    9.9082    6.0862   -8.6030 H   0  0  0  0  0  0  0  0  0  0  0  0
   10.5679    5.2571  -10.0408 H   0  0  0  0  0  0  0  0  0  0  0  0
    7.7897    5.4353   -7.7070 H   0  0  0  0  0  0  0  0  0  0  0  0
    6.8644    4.1216   -8.4866 H   0  0  0  0  0  0  0  0  0  0  0  0
    5.9528    6.4192   -8.9965 H   0  0  0  0  0  0  0  0  0  0  0  0
    6.4342    5.5370  -10.4698 H   0  0  0  0  0  0  0  0  0  0  0  0
    9.5817    3.1852  -10.6921 H   0  0  0  0  0  0  0  0  0  0  0  0
    8.0946    3.9751  -11.2743 H   0  0  0  0  0  0  0  0  0  0  0  0
    8.0038    2.7024  -10.0308 H   0  0  0  0  0  0  0  0  0  0  0  0
    5.7073    7.2932  -11.6660 H   0  0  0  0  0  0  0  0  0  0  0  0
    3.0544    8.8587  -11.2733 H   0  0  0  0  0  0  0  0  0  0  0  0
    2.4795    9.4655  -12.8615 H   0  0  0  0  0  0  0  0  0  0  0  0
    3.1932   10.6003  -11.6750 H   0  0  0  0  0  0  0  0  0  0  0  0
    5.2775   12.5613  -11.2611 H   0  0  0  0  0  0  0  0  0  0  0  0
    2.9706   15.2528  -12.8221 H   0  0  0  0  0  0  0  0  0  0  0  0
    1.7131   18.7840  -16.1212 H   0  0  0  0  0  0  0  0  0  0  0  0
    2.5521   18.7384  -18.4680 H   0  0  0  0  0  0  0  0  0  0  0  0
    4.0558   16.9177  -19.2325 H   0  0  0  0  0  0  0  0  0  0  0  0
    4.7427   15.1097  -17.7090 H   0  0  0  0  0  0  0  0  0  0  0  0
    4.8127   13.2687  -16.8087 H   0  0  0  0  0  0  0  0  0  0  0  0
    6.1231   11.2125  -16.2276 H   0  0  0  0  0  0  0  0  0  0  0  0
    7.5238   11.6629  -10.2039 H   0  0  0  0  0  0  0  0  0  0  0  0
    9.5627   10.8784   -6.0373 H   0  0  0  0  0  0  0  0  0  0  0  0
   10.8165    8.7823   -5.7622 H   0  0  0  0  0  0  0  0  0  0  0  0
   10.4016    8.2419   -7.4622 H   0  0  0  0  0  0  0  0  0  0  0  0
    6.2890    7.1340   -6.2441 H   0  0  0  0  0  0  0  0  0  0  0  0
    7.1727    8.1051   -7.4123 H   0  0  0  0  0  0  0  0  0  0  0  0
    5.6357    8.2261   -4.0371 H   0  0  0  0  0  0  0  0  0  0  0  0
    6.9233    9.6984   -1.0989 H   0  0  0  0  0  0  0  0  0  0  0  0
    7.3977    8.0850   -1.6963 H   0  0  0  0  0  0  0  0  0  0  0  0
    5.6839    8.5782   -1.7639 H   0  0  0  0  0  0  0  0  0  0  0  0
    6.4331   10.9472   -7.4961 H   0  0  0  0  0  0  0  0  0  0  0  0
    4.5141   11.9821   -8.4828 H   0  0  0  0  0  0  0  0  0  0  0  0
    4.4892   10.3334   -9.1712 H   0  0  0  0  0  0  0  0  0  0  0  0
    3.4813   10.7147   -7.7464 H   0  0  0  0  0  0  0  0  0  0  0  0
  1  2  2  0  0  0  0
  2 36  1  0  0  0  0
  3 50  1  0  0  0  0
  3  2  1  0  0  0  0
  4  3  1  0  0  0  0
  5  4  1  0  0  0  0
  5  6  1  0  0  0  0
  6 11  1  0  0  0  0
  7  6  1  0  0  0  0
  7  8  1  0  0  0  0
  8  9  1  0  0  0  0
  8 53  1  0  0  0  0
  9 10  1  0  0  0  0
 10 56  1  0  0  0  0
 10 55  1  0  0  0  0
 11 57  1  0  0  0  0
 11 10  1  0  0  0  0
 12 61  1  0  0  0  0
 12  9  1  0  0  0  0
 13  5  2  0  0  0  0
 14 17  2  0  0  0  0
 14 13  1  0  0  0  0
 15 16  1  0  0  0  0
 15 14  1  0  0  0  0
 16 65  1  0  0  0  0
 16 63  1  0  0  0  0
 17 35  1  0  0  0  0
 18 17  1  0  0  0  0
 18 66  1  0  0  0  0
 19 18  1  0  0  0  0
 20 19  2  0  0  0  0
 21 20  1  0  0  0  0
 22 21  1  0  0  0  0
 22 23  2  0  0  0  0
 23 67  1  0  0  0  0
 24 23  1  0  0  0  0
 24 25  1  0  0  0  0
 26 27  1  0  0  0  0
 26 22  1  0  0  0  0
 27 24  1  0  0  0  0
 28 68  1  0  0  0  0
 28 27  2  0  0  0  0
 29 28  1  0  0  0  0
 30 29  2  0  0  0  0
 30 31  1  0  0  0  0
 31 26  2  0  0  0  0
 32 33  1  0  0  0  0
 32 21  2  0  0  0  0
 33 34  2  0  0  0  0
 34 19  1  0  0  0  0
 35 74  1  0  0  0  0
 35  4  2  0  0  0  0
 36 37  1  0  0  0  0
 36 75  1  0  0  0  0
 37 76  1  0  0  0  0
 39 78  1  0  0  0  0
 39 38  1  0  0  0  0
 39 40  1  0  0  0  0
 40 41  1  6  0  0  0
 40 42  1  0  0  0  0
 42 80  1  0  0  0  0
 42 43  1  0  0  0  0
 43 44  1  0  0  0  0
 44 83  1  0  0  0  0
 44 82  1  0  0  0  0
 44 81  1  0  0  0  0
 45 43  2  0  0  0  0
 46 49  2  0  0  0  0
 46 40  1  0  0  0  0
 47 46  1  0  0  0  0
 48 87  1  0  0  0  0
 48 47  1  0  0  0  0
 51  7  1  0  0  0  0
 52  7  1  0  0  0  0
 54  8  1  0  0  0  0
 58 11  1  0  0  0  0
 59 12  1  0  0  0  0
 60 12  1  0  0  0  0
 62 13  1  0  0  0  0
 64 16  1  0  0  0  0
 69 29  1  0  0  0  0
 70 30  1  0  0  0  0
 71 31  1  0  0  0  0
 72 32  1  0  0  0  0
 73 33  1  0  0  0  0
 77 37  1  0  0  0  0
 79 39  1  0  0  0  0
 84 47  1  0  0  0  0
 85 48  1  0  0  0  0
 86 48  1  0  0  0  0
M  END
