66
-1 1
O         4.510917    1.479899   -1.043968
C         3.602138    0.920836   -1.686734
N         2.266824    1.119061   -1.126056
C         1.358686    0.145841   -0.743790
C         0.158025    0.547325   -0.130183
C        -0.793261   -0.381056    0.294879
N        -1.986643    0.127438    0.857565
C        -2.765302   -0.377366    1.847938
N        -2.439910   -1.532334    2.425275
C        -3.195960   -2.025179    3.409887
C        -2.740611   -3.295321    3.982079
C        -3.458926   -4.206153    4.730685
N        -2.678534   -5.283507    5.028747
H        -2.980893   -6.085346    5.560833
C        -1.414074   -3.868723    3.815785
C        -1.420410   -5.109654    4.492430
C        -0.299045   -5.944499    4.555689
C         0.853212   -5.510676    3.918320
C         0.886249   -4.275681    3.241765
C        -0.227629   -3.452060    3.184489
C        -4.329446   -1.287874    3.810219
Cl        -5.414193   -1.749906    5.102143
C        -4.590771   -0.089861    3.145980
N        -3.835477    0.377896    2.172802
C        -0.572643   -1.749499    0.106352
C         0.626484   -2.148612   -0.482778
C         1.585864   -1.234756   -0.902032
C         3.704486    0.223098   -2.891797
C         2.612255   -0.214740   -3.780480
S         1.610831    1.115149   -4.714086
C         2.910746    2.288673   -5.198020
C         2.659142    3.707532   -4.677650
H         3.504384    4.347128   -4.977396
N         2.582863    3.727931   -3.235171
C         3.200680    4.711729   -2.510596
C         3.254186    4.461482   -1.020558
O         3.666000    5.708790   -3.032250
C         1.443506    4.322118   -5.385799
N         0.400266    4.629804   -4.578940
C        -0.840214    5.157383   -5.073361
O         1.445438    4.495912   -6.592477
H         2.318595    1.881888   -0.458659
H        -0.031328    1.615775    0.009104
H        -2.274120    1.050704    0.558690
H        -4.493138   -4.169072    5.057240
H        -0.331913   -6.899175    5.085562
H         1.748680   -6.135925    3.941673
H         1.806089   -3.958524    2.746016
H        -0.197289   -2.505465    2.647739
H        -5.461934    0.507091    3.438613
H        -1.314427   -2.478971    0.423849
H         0.818519   -3.216635   -0.615533
H         2.528483   -1.561733   -1.343567
H         4.727697    0.137150   -3.265858
H         1.779316   -0.747667   -3.295160
H         3.002412   -0.877697   -4.565132
H         3.002794    2.326074   -6.291358
H         3.848837    1.917864   -4.754860
H         2.345579    2.844657   -2.779929
H         2.244812    4.268870   -0.623160
H         3.676676    5.344780   -0.527886
H         3.878813    3.570134   -0.823619
H         0.512945    4.400269   -3.599730
H        -0.723889    5.316387   -6.153589
H        -1.090651    6.119626   -4.597177
H        -1.675029    4.456174   -4.909451
