-1 1
 OpenBabel05232414493D

 66 68  0  0  1  0  0  0  0  0999 V2000
    4.9661   -7.1668   -6.1372 O   0  0  0  0  0  0  0  0  0  0  0  0
    4.0072   -7.8099   -6.5491 C   0  0  0  0  0  0  0  0  0  0  0  0
    2.8073   -7.7094   -5.7893 N   0  0  0  0  0  0  0  0  0  0  0  0
    1.9056   -8.6903   -5.3844 C   0  0  0  0  0  0  0  0  0  0  0  0
    0.7366   -8.2776   -4.7279 C   0  0  0  0  0  0  0  0  0  0  0  0
   -0.1999   -9.2000   -4.2533 C   0  0  0  0  0  0  0  0  0  0  0  0
   -1.3609   -8.6817   -3.6431 N   0  0  0  0  0  0  0  0  0  0  0  0
   -2.1365   -9.2015   -2.6546 C   0  0  0  0  0  0  0  0  0  0  0  0
   -1.8326  -10.3828   -2.1230 N   0  0  0  0  0  0  0  0  0  0  0  0
   -2.5874  -10.8884   -1.1427 C   0  0  0  0  0  0  0  0  0  0  0  0
   -2.1609  -12.1899   -0.6221 C   0  0  0  0  0  0  0  0  0  0  0  0
   -2.9040  -13.1174    0.0803 C   0  0  0  0  0  0  0  0  0  0  0  0
   -2.1495  -14.2240    0.3333 N   0  0  0  0  0  0  0  0  0  0  0  0
   -2.4732  -15.0428    0.8258 H   0  0  0  0  0  0  0  0  0  0  0  0
   -0.8465  -12.7838   -0.8063 C   0  0  0  0  0  0  0  0  0  0  0  0
   -0.8843  -14.0538   -0.1871 C   0  0  0  0  0  0  0  0  0  0  0  0
    0.2186  -14.9145   -0.1553 C   0  0  0  0  0  0  0  0  0  0  0  0
    1.3846  -14.4769   -0.7642 C   0  0  0  0  0  0  0  0  0  0  0  0
    1.4494  -13.2126   -1.3820 C   0  0  0  0  0  0  0  0  0  0  0  0
    0.3536  -12.3637   -1.4085 C   0  0  0  0  0  0  0  0  0  0  0  0
   -3.6923  -10.1346   -0.6981 C   0  0  0  0  0  0  0  0  0  0  0  0
   -4.7654  -10.6126    0.5962 Cl  0  0  0  0  0  0  0  0  0  0  0  0
   -3.9307   -8.9073   -1.3162 C   0  0  0  0  0  0  0  0  0  0  0  0
   -3.1779   -8.4287   -2.2863 N   0  0  0  0  0  0  0  0  0  0  0  0
    0.0125  -10.5691   -4.4446 C   0  0  0  0  0  0  0  0  0  0  0  0
    1.1819  -10.9763   -5.0847 C   0  0  0  0  0  0  0  0  0  0  0  0
    2.1273  -10.0684   -5.5459 C   0  0  0  0  0  0  0  0  0  0  0  0
    3.9976   -8.5719   -7.7760 C   0  0  0  0  0  3  0  0  0  0  0  0
    2.8706   -8.9676   -8.4664 C   0  0  0  0  0  3  0  0  0  0  0  0
    1.8750   -7.1977   -9.8880 S   0  0  0  0  0  1  0  0  0  0  0  0
    3.4229   -6.2856  -10.1503 C   0  0  0  0  0  0  0  0  0  0  0  0
    3.4379   -4.8597   -9.5682 C   0  0  2  0  0  0  0  0  0  0  0  0
    4.4494   -4.4379   -9.6688 H   0  0  0  0  0  0  0  0  0  0  0  0
    3.0927   -4.9180   -8.1688 N   0  0  0  0  0  0  0  0  0  0  0  0
    3.4775   -3.9643   -7.2856 C   0  0  0  0  0  0  0  0  0  0  0  0
    3.1816   -4.2838   -5.8319 C   0  0  0  0  0  0  0  0  0  0  0  0
    4.0513   -2.9429   -7.6201 O   0  0  0  0  0  0  0  0  0  0  0  0
    2.5508   -3.9243  -10.3983 C   0  0  0  0  0  0  0  0  0  0  0  0
    1.2510   -3.8633  -10.0022 N   0  0  0  0  0  0  0  0  0  0  0  0
    0.2493   -3.2134  -10.8022 C   0  0  0  0  0  0  0  0  0  0  0  0
    2.9937   -3.3219  -11.3604 O   0  0  0  0  0  0  0  0  0  0  0  0
    2.8781   -6.9280   -5.1474 H   0  0  0  0  0  0  0  0  0  0  0  0
    0.5564   -7.2073   -4.5936 H   0  0  0  0  0  0  0  0  0  0  0  0
   -1.6335   -7.7430   -3.9064 H   0  0  0  0  0  0  0  0  0  0  0  0
   -3.9398  -13.0721    0.4012 H   0  0  0  0  0  0  0  0  0  0  0  0
    0.1617  -15.8916    0.3296 H   0  0  0  0  0  0  0  0  0  0  0  0
    2.2662  -15.1219   -0.7640 H   0  0  0  0  0  0  0  0  0  0  0  0
    2.3804  -12.8933   -1.8550 H   0  0  0  0  0  0  0  0  0  0  0  0
    0.4078  -11.3929   -1.8983 H   0  0  0  0  0  0  0  0  0  0  0  0
   -4.7790   -8.2960   -0.9886 H   0  0  0  0  0  0  0  0  0  0  0  0
   -0.7156  -11.2957   -4.0924 H   0  0  0  0  0  0  0  0  0  0  0  0
    1.3611  -12.0453   -5.2241 H   0  0  0  0  0  0  0  0  0  0  0  0
    3.0348  -10.4110   -6.0420 H   0  0  0  0  0  0  0  0  0  0  0  0
    4.9828   -8.6508   -8.2413 H   0  0  0  0  0  0  0  0  0  0  0  0
    1.9004   -9.0407   -7.9780 H   0  0  0  0  0  0  0  0  0  0  0  0
    2.9866   -9.5973   -9.3482 H   0  0  0  0  0  0  0  0  0  0  0  0
    3.6670   -6.2222  -11.2207 H   0  0  0  0  0  0  0  0  0  0  0  0
    4.2356   -6.8419   -9.6462 H   0  0  0  0  0  0  0  0  0  0  0  0
    2.6202   -5.7681   -7.8644 H   0  0  0  0  0  0  0  0  0  0  0  0
    2.1924   -4.7513   -5.7109 H   0  0  0  0  0  0  0  0  0  0  0  0
    3.2309   -3.3578   -5.2467 H   0  0  0  0  0  0  0  0  0  0  0  0
    3.9529   -4.9867   -5.4762 H   0  0  0  0  0  0  0  0  0  0  0  0
    0.9601   -4.5979   -9.3643 H   0  0  0  0  0  0  0  0  0  0  0  0
    0.7575   -2.5050  -11.4693 H   0  0  0  0  0  0  0  0  0  0  0  0
   -0.4652   -2.6626  -10.1700 H   0  0  0  0  0  0  0  0  0  0  0  0
   -0.3129   -3.9310  -11.4252 H   0  0  0  0  0  0  0  0  0  0  0  0
  2  1  2  0  0  0  0
  2  3  1  0  0  0  0
  3  4  1  0  0  0  0
  3 42  1  0  0  0  0
  4  5  1  0  0  0  0
  5 43  1  0  0  0  0
  5  6  2  0  0  0  0
  6  7  1  0  0  0  0
  7  8  1  0  0  0  0
  8 24  1  0  0  0  0
  8  9  2  0  0  0  0
  9 10  1  0  0  0  0
 10 21  2  0  0  0  0
 10 11  1  0  0  0  0
 11 12  2  0  0  0  0
 12 13  1  0  0  0  0
 12 45  1  0  0  0  0
 13 14  1  0  0  0  0
 15 11  1  0  0  0  0
 15 16  1  0  0  0  0
 16 17  2  0  0  0  0
 16 13  1  0  0  0  0
 17 46  1  0  0  0  0
 18 47  1  0  0  0  0
 18 17  1  0  0  0  0
 19 18  2  0  0  0  0
 20 19  1  0  0  0  0
 20 15  2  0  0  0  0
 21 22  1  0  0  0  0
 23 50  1  0  0  0  0
 23 21  1  0  0  0  0
 24 23  2  0  0  0  0
 25  6  1  0  0  0  0
 25 51  1  0  0  0  0
 26 25  2  0  0  0  0
 27  4  2  0  0  0  0
 27 26  1  0  0  0  0
 28  2  1  0  0  0  0
 29 55  1  0  0  0  0
 29 28  1  0  0  0  0
 31 30  1  0  0  0  0
 31 58  1  0  0  0  0
 31 32  1  0  0  0  0
 32 33  1  6  0  0  0
 32 34  1  0  0  0  0
 34 59  1  0  0  0  0
 34 35  1  0  0  0  0
 35 36  1  0  0  0  0
 36 60  1  0  0  0  0
 36 62  1  0  0  0  0
 36 61  1  0  0  0  0
 37 35  2  0  0  0  0
 38 39  1  0  0  0  0
 38 32  1  0  0  0  0
 39 63  1  0  0  0  0
 40 65  1  0  0  0  0
 40 39  1  0  0  0  0
 41 38  2  0  0  0  0
 44  7  1  0  0  0  0
 48 19  1  0  0  0  0
 49 20  1  0  0  0  0
 52 26  1  0  0  0  0
 53 27  1  0  0  0  0
 54 28  1  0  0  0  0
 56 29  1  0  0  0  0
 57 31  1  0  0  0  0
 64 40  1  0  0  0  0
 66 40  1  0  0  0  0
M  END
