-1 1
 OpenBabel05192410563D

 63 65  0  0  1  0  0  0  0  0999 V2000
   -2.2213    1.1743    3.8557 O   0  0  0  0  0  0  0  0  0  0  0  0
   -2.7250    0.4668    2.9921 C   0  0  0  0  0  0  0  0  0  0  0  0
   -2.6518   -1.0725    3.0321 C   0  0  2  0  0  0  0  0  0  0  0  0
   -2.3939   -1.5663    4.4552 C   0  0  0  0  0  0  0  0  0  0  0  0
   -2.0422   -3.3427    4.5696 S   0  0  0  0  0  0  0  0  0  0  0  0
   -0.1739   -3.2897    4.7858 C   0  0  0  0  0  0  0  0  0  0  0  0
    0.6351   -2.5232    3.7949 C   0  0  0  0  0  3  0  0  0  0  0  0
    1.4214   -1.1245    4.3354 S   0  0  0  0  0  0  0  0  0  0  0  0
    2.8489   -1.1330    3.9742 O   0  0  0  0  0  0  0  0  0  0  0  0
    0.8218    0.2607    3.4891 N   0  0  0  0  0  0  0  0  0  0  0  0
    0.9400    0.4828    2.1287 C   0  0  0  0  0  0  0  0  0  0  0  0
    0.1142    1.4458    1.5181 C   0  0  0  0  0  0  0  0  0  0  0  0
    0.1727    1.7116    0.1566 C   0  0  0  0  0  0  0  0  0  0  0  0
    1.0796    1.0163   -0.6513 C   0  0  0  0  0  0  0  0  0  0  0  0
    1.1831    1.1926   -2.0526 N   0  0  0  0  0  0  0  0  0  0  0  0
    0.5663    2.1023   -2.8521 C   0  0  0  0  0  0  0  0  0  0  0  0
    0.8765    1.9568   -4.3239 C   0  0  0  0  0  0  0  0  0  0  0  0
    0.8022    3.1331   -5.1177 C   0  0  0  0  0  0  0  0  0  0  0  0
    1.0536    3.0852   -6.4634 C   0  0  0  0  0  0  0  0  0  0  0  0
    1.1630    0.7517   -4.9252 C   0  0  0  0  0  0  0  0  0  0  0  0
    1.4178    0.6669   -6.3211 C   0  0  0  0  0  0  0  0  0  0  0  0
    1.3719    1.8553   -7.1050 C   0  0  0  0  0  0  0  0  0  0  0  0
    1.6338    1.7692   -8.4992 C   0  0  0  0  0  0  0  0  0  0  0  0
    1.9233    0.5618   -9.0874 C   0  0  0  0  0  0  0  0  0  0  0  0
    1.9629   -0.6209   -8.3088 C   0  0  0  0  0  0  0  0  0  0  0  0
    1.7143   -0.5688   -6.9590 C   0  0  0  0  0  0  0  0  0  0  0  0
   -0.1733    2.9897   -2.4657 O   0  0  0  0  0  0  0  0  0  0  0  0
    1.9227    0.0777   -0.0504 C   0  0  0  0  0  0  0  0  0  0  0  0
    1.8627   -0.1945    1.3102 C   0  0  0  0  0  0  0  0  0  0  0  0
    1.0156   -0.7777    5.7078 O   0  0  0  0  0  0  0  0  0  0  0  0
   -1.6278   -1.5302    2.1183 N   0  0  0  0  0  0  0  0  0  0  0  0
   -1.8627   -1.6596    0.8036 C   0  0  0  0  0  0  0  0  0  0  0  0
   -0.7387   -2.2571   -0.0092 C   0  0  0  0  0  0  0  0  0  0  0  0
   -2.9183   -1.3119    0.2674 O   0  0  0  0  0  0  0  0  0  0  0  0
   -3.6179   -1.4640    2.6709 H   0  0  0  0  0  0  0  0  0  0  0  0
   -3.3669    0.9420    1.9019 N   0  0  0  0  0  0  0  0  0  0  0  0
   -3.4025    2.3445    1.5780 C   0  0  0  0  0  0  0  0  0  0  0  0
   -1.5539   -1.0178    4.9047 H   0  0  0  0  0  0  0  0  0  0  0  0
   -3.2742   -1.3422    5.0731 H   0  0  0  0  0  0  0  0  0  0  0  0
   -0.0199    0.6349    3.9284 H   0  0  0  0  0  0  0  0  0  0  0  0
   -0.5931    1.9938    2.1430 H   0  0  0  0  0  0  0  0  0  0  0  0
   -0.4780    2.4613   -0.2893 H   0  0  0  0  0  0  0  0  0  0  0  0
    1.8682    0.5991   -2.4999 H   0  0  0  0  0  0  0  0  0  0  0  0
    0.5347    4.0665   -4.6198 H   0  0  0  0  0  0  0  0  0  0  0  0
    1.0057    3.9962   -7.0655 H   0  0  0  0  0  0  0  0  0  0  0  0
    1.1708   -0.1748   -4.3440 H   0  0  0  0  0  0  0  0  0  0  0  0
    1.5990    2.6829   -9.0982 H   0  0  0  0  0  0  0  0  0  0  0  0
    2.1223    0.5091  -10.1601 H   0  0  0  0  0  0  0  0  0  0  0  0
    2.1916   -1.5760   -8.7869 H   0  0  0  0  0  0  0  0  0  0  0  0
    1.7427   -1.4796   -6.3553 H   0  0  0  0  0  0  0  0  0  0  0  0
    2.6466   -0.4704   -0.6629 H   0  0  0  0  0  0  0  0  0  0  0  0
    2.5446   -0.9185    1.7533 H   0  0  0  0  0  0  0  0  0  0  0  0
   -0.7374   -1.8692    2.5518 H   0  0  0  0  0  0  0  0  0  0  0  0
    0.0958   -2.6038    0.6136 H   0  0  0  0  0  0  0  0  0  0  0  0
   -0.3712   -1.4866   -0.7021 H   0  0  0  0  0  0  0  0  0  0  0  0
   -1.1430   -3.0885   -0.6034 H   0  0  0  0  0  0  0  0  0  0  0  0
   -3.5361    0.2498    1.1643 H   0  0  0  0  0  0  0  0  0  0  0  0
   -2.6909    2.5956    0.7739 H   0  0  0  0  0  0  0  0  0  0  0  0
   -3.1323    2.9161    2.4753 H   0  0  0  0  0  0  0  0  0  0  0  0
   -4.4107    2.6443    1.2531 H   0  0  0  0  0  0  0  0  0  0  0  0
   -0.0258   -2.9206    5.8095 H   0  0  0  0  0  0  0  0  0  0  0  0
    0.0834   -4.3598    4.7738 H   0  0  0  0  0  0  0  0  0  0  0  0
    1.2871   -3.0827    3.1200 H   0  0  0  0  0  0  0  0  0  0  0  0
  2  3  1  0  0  0  0
  2  1  2  0  0  0  0
  3 35  1  6  0  0  0
  3  4  1  0  0  0  0
  4  5  1  0  0  0  0
  4 38  1  0  0  0  0
  4 39  1  0  0  0  0
  5  6  1  0  0  0  0
  6 61  1  0  0  0  0
  7  8  1  0  0  0  0
  7  6  1  0  0  0  0
  8 30  2  0  0  0  0
  9  8  2  0  0  0  0
 10 40  1  0  0  0  0
 10  8  1  0  0  0  0
 11 10  1  0  0  0  0
 12 11  1  0  0  0  0
 12 41  1  0  0  0  0
 13 12  2  0  0  0  0
 14 28  2  0  0  0  0
 14 13  1  0  0  0  0
 15 14  1  0  0  0  0
 16 27  2  0  0  0  0
 16 15  1  0  0  0  0
 17 16  1  0  0  0  0
 18 44  1  0  0  0  0
 18 17  2  0  0  0  0
 19 18  1  0  0  0  0
 20 46  1  0  0  0  0
 20 17  1  0  0  0  0
 21 20  2  0  0  0  0
 22 19  2  0  0  0  0
 22 21  1  0  0  0  0
 23 22  1  0  0  0  0
 24 23  2  0  0  0  0
 24 25  1  0  0  0  0
 25 26  2  0  0  0  0
 26 50  1  0  0  0  0
 26 21  1  0  0  0  0
 28 29  1  0  0  0  0
 29 52  1  0  0  0  0
 29 11  2  0  0  0  0
 31 53  1  0  0  0  0
 31  3  1  0  0  0  0
 32 31  1  0  0  0  0
 33 54  1  0  0  0  0
 33 32  1  0  0  0  0
 34 32  2  0  0  0  0
 36  2  1  0  0  0  0
 37 36  1  0  0  0  0
 37 59  1  0  0  0  0
 42 13  1  0  0  0  0
 43 15  1  0  0  0  0
 45 19  1  0  0  0  0
 47 23  1  0  0  0  0
 48 24  1  0  0  0  0
 49 25  1  0  0  0  0
 51 28  1  0  0  0  0
 55 33  1  0  0  0  0
 56 33  1  0  0  0  0
 57 36  1  0  0  0  0
 58 37  1  0  0  0  0
 60 37  1  0  0  0  0
 62  6  1  0  0  0  0
 63  7  1  0  0  0  0
M  END
