-1 1
 OpenBabel05232414493D

 64 65  0  0  1  0  0  0  0  0999 V2000
   -2.8680    3.5339    3.3159 O   0  0  0  0  0  0  0  0  0  0  0  0
   -2.4708    2.8476    2.3962 C   0  0  0  0  0  0  0  0  0  0  0  0
   -3.3608    1.8707    1.6203 C   0  0  2  0  0  0  0  0  0  0  0  0
   -3.9652    2.6420    0.4398 C   0  0  0  0  0  0  0  0  0  0  0  0
   -5.1243    1.7184   -0.6028 S   0  0  0  0  0  1  0  0  0  0  0  0
   -4.2376    2.7722   -2.5566 C   0  0  0  0  0  3  0  0  0  0  0  0
   -2.8667    2.6455   -2.6682 C   0  0  0  0  0  3  0  0  0  0  0  0
   -2.2087    1.2378   -3.3908 S   0  0  0  0  0  0  0  0  0  0  0  0
   -0.7568    1.3926   -3.5101 O   0  0  0  0  0  0  0  0  0  0  0  0
   -2.4604   -0.0964   -2.3541 N   0  0  0  0  0  0  0  0  0  0  0  0
   -1.9087   -0.3015   -1.0888 C   0  0  0  0  0  0  0  0  0  0  0  0
   -0.6889    0.2426   -0.6699 C   0  0  0  0  0  0  0  0  0  0  0  0
   -0.1657   -0.0543    0.5970 C   0  0  0  0  0  0  0  0  0  0  0  0
    1.1537    0.5437    1.0358 C   0  0  0  0  0  0  0  0  0  0  0  0
    1.2643    0.5612    2.5556 C   0  0  0  0  0  0  0  0  0  0  0  0
    0.9895   -0.7593    3.0941 N   0  0  0  0  0  0  0  0  0  0  0  0
   -0.3754   -1.2131    2.8674 C   0  0  0  0  0  0  0  0  0  0  0  0
    2.0354   -1.5307    3.4996 C   0  0  0  0  0  0  0  0  0  0  0  0
    1.7236   -2.8375    4.1867 C   0  0  0  0  0  0  0  0  0  0  0  0
    0.7536   -2.9441    5.1889 C   0  0  0  0  0  0  0  0  0  0  0  0
    0.5694   -4.1498    5.8634 C   0  0  0  0  0  0  0  0  0  0  0  0
    1.3469   -5.2601    5.5363 C   0  0  0  0  0  0  0  0  0  0  0  0
    2.3228   -5.1560    4.5446 C   0  0  0  0  0  0  0  0  0  0  0  0
    2.5194   -3.9462    3.8840 C   0  0  0  0  0  0  0  0  0  0  0  0
    3.2014   -1.1892    3.3677 O   0  0  0  0  0  0  0  0  0  0  0  0
   -0.8576   -0.9050    1.4654 C   0  0  0  0  0  0  0  0  0  0  0  0
   -2.0782   -1.4408    1.0421 C   0  0  0  0  0  0  0  0  0  0  0  0
   -2.6029   -1.1462   -0.2036 C   0  0  0  0  0  0  0  0  0  0  0  0
   -3.0083    0.8340   -4.5501 O   0  0  0  0  0  0  0  0  0  0  0  0
   -4.3978    1.3255    2.4555 N   0  0  0  0  0  0  0  0  0  0  0  0
   -4.1303    0.5487    3.5238 C   0  0  0  0  0  0  0  0  0  0  0  0
   -5.3414    0.0314    4.2771 C   0  0  0  0  0  0  0  0  0  0  0  0
   -2.9941    0.2935    3.8956 O   0  0  0  0  0  0  0  0  0  0  0  0
   -2.7369    1.0527    1.2321 H   0  0  0  0  0  0  0  0  0  0  0  0
   -1.2134    2.9403    1.8735 N   0  0  0  0  0  0  0  0  0  0  0  0
   -0.2702    3.9440    2.2864 C   0  0  0  0  0  0  0  0  0  0  0  0
   -4.4423    3.5553    0.8337 H   0  0  0  0  0  0  0  0  0  0  0  0
   -3.1152    2.9555   -0.1906 H   0  0  0  0  0  0  0  0  0  0  0  0
   -3.4392   -0.3646   -2.4168 H   0  0  0  0  0  0  0  0  0  0  0  0
   -0.1305    0.8852   -1.3528 H   0  0  0  0  0  0  0  0  0  0  0  0
    1.2668    1.5639    0.6337 H   0  0  0  0  0  0  0  0  0  0  0  0
    1.9905   -0.0451    0.6232 H   0  0  0  0  0  0  0  0  0  0  0  0
    0.5168    1.2541    2.9765 H   0  0  0  0  0  0  0  0  0  0  0  0
    2.2667    0.8628    2.8791 H   0  0  0  0  0  0  0  0  0  0  0  0
   -1.0682   -0.7275    3.5768 H   0  0  0  0  0  0  0  0  0  0  0  0
   -0.4302   -2.2962    3.0321 H   0  0  0  0  0  0  0  0  0  0  0  0
    0.1430   -2.0760    5.4472 H   0  0  0  0  0  0  0  0  0  0  0  0
   -0.1869   -4.2212    6.6484 H   0  0  0  0  0  0  0  0  0  0  0  0
    1.1957   -6.2075    6.0593 H   0  0  0  0  0  0  0  0  0  0  0  0
    2.9390   -6.0214    4.2898 H   0  0  0  0  0  0  0  0  0  0  0  0
    3.2985   -3.8406    3.1266 H   0  0  0  0  0  0  0  0  0  0  0  0
   -2.6445   -2.0817    1.7232 H   0  0  0  0  0  0  0  0  0  0  0  0
   -3.5724   -1.5504   -0.5000 H   0  0  0  0  0  0  0  0  0  0  0  0
   -5.3450    1.4105    2.1046 H   0  0  0  0  0  0  0  0  0  0  0  0
   -6.2723    0.0893    3.6961 H   0  0  0  0  0  0  0  0  0  0  0  0
   -5.4596    0.6255    5.1954 H   0  0  0  0  0  0  0  0  0  0  0  0
   -5.1537   -1.0093    4.5717 H   0  0  0  0  0  0  0  0  0  0  0  0
   -0.9858    2.3311    1.0959 H   0  0  0  0  0  0  0  0  0  0  0  0
   -0.7103    4.4801    3.1373 H   0  0  0  0  0  0  0  0  0  0  0  0
   -0.0620    4.6678    1.4810 H   0  0  0  0  0  0  0  0  0  0  0  0
    0.6851    3.4978    2.6078 H   0  0  0  0  0  0  0  0  0  0  0  0
   -2.1327    3.2805   -2.1728 H   0  0  0  0  0  0  0  0  0  0  0  0
   -4.6441    3.7333   -2.2401 H   0  0  0  0  0  0  0  0  0  0  0  0
   -4.8784    2.1964   -3.2264 H   0  0  0  0  0  0  0  0  0  0  0  0
  2  1  2  0  0  0  0
  3 34  1  6  0  0  0
  3  2  1  0  0  0  0
  3 30  1  0  0  0  0
  4 37  1  0  0  0  0
  4  3  1  0  0  0  0
  5  4  1  0  0  0  0
  6 63  1  0  0  0  0
  7  6  1  0  0  0  0
  7 62  1  0  0  0  0
  8  7  1  0  0  0  0
  8 10  1  0  0  0  0
  9  8  2  0  0  0  0
 10 11  1  0  0  0  0
 11 12  2  0  0  0  0
 11 28  1  0  0  0  0
 12 13  1  0  0  0  0
 13 14  1  0  0  0  0
 13 26  2  0  0  0  0
 14 15  1  0  0  0  0
 15 44  1  0  0  0  0
 15 43  1  0  0  0  0
 15 16  1  0  0  0  0
 16 18  1  0  0  0  0
 17 46  1  0  0  0  0
 17 16  1  0  0  0  0
 17 45  1  0  0  0  0
 18 19  1  0  0  0  0
 19 20  1  0  0  0  0
 20 47  1  0  0  0  0
 20 21  2  0  0  0  0
 21 48  1  0  0  0  0
 22 21  1  0  0  0  0
 22 49  1  0  0  0  0
 23 22  2  0  0  0  0
 24 19  2  0  0  0  0
 24 23  1  0  0  0  0
 25 18  2  0  0  0  0
 26 17  1  0  0  0  0
 27 26  1  0  0  0  0
 27 52  1  0  0  0  0
 28 27  2  0  0  0  0
 29  8  2  0  0  0  0
 30 31  1  0  0  0  0
 31 33  2  0  0  0  0
 31 32  1  0  0  0  0
 32 57  1  0  0  0  0
 32 56  1  0  0  0  0
 35 36  1  0  0  0  0
 35  2  1  0  0  0  0
 36 61  1  0  0  0  0
 36 59  1  0  0  0  0
 38  4  1  0  0  0  0
 39 10  1  0  0  0  0
 40 12  1  0  0  0  0
 41 14  1  0  0  0  0
 42 14  1  0  0  0  0
 50 23  1  0  0  0  0
 51 24  1  0  0  0  0
 53 28  1  0  0  0  0
 54 30  1  0  0  0  0
 55 32  1  0  0  0  0
 58 35  1  0  0  0  0
 60 36  1  0  0  0  0
 64  6  1  0  0  0  0
M  END
