-1 1
 OpenBabel05232413493D

 64 65  0  0  1  0  0  0  0  0999 V2000
   -1.7318    3.6921    1.7149 O   0  0  0  0  0  0  0  0  0  0  0  0
   -1.2603    2.8787    0.9465 C   0  0  0  0  0  0  0  0  0  0  0  0
   -2.0737    1.7858    0.2557 C   0  0  2  0  0  0  0  0  0  0  0  0
   -2.9139    2.4088   -0.8739 C   0  0  0  0  0  0  0  0  0  0  0  0
   -4.0215    1.2335   -1.7292 S   0  0  0  0  0  1  0  0  0  0  0  0
   -1.8492    3.4023   -4.3400 C   0  0  0  0  0  0  0  0  0  0  0  0
   -0.9163    2.5352   -3.9649 C   0  0  0  0  0  0  0  0  0  0  0  0
   -0.9594    0.8457   -4.5156 S   0  0  0  0  0  0  0  0  0  0  0  0
    0.4193    0.4437   -4.7908 O   0  0  0  0  0  0  0  0  0  0  0  0
   -1.5124   -0.0076   -3.2218 N   0  0  0  0  0  0  0  0  0  0  0  0
   -0.7419   -0.4213   -2.1157 C   0  0  0  0  0  0  0  0  0  0  0  0
    0.5318    0.0505   -1.7885 C   0  0  0  0  0  0  0  0  0  0  0  0
    1.1370   -0.2920   -0.5719 C   0  0  0  0  0  0  0  0  0  0  0  0
    2.4733    0.3033   -0.1857 C   0  0  0  0  0  0  0  0  0  0  0  0
    2.5999    0.3641    1.3320 C   0  0  0  0  0  0  0  0  0  0  0  0
    2.3720   -0.9553    1.8958 N   0  0  0  0  0  0  0  0  0  0  0  0
    1.0193   -1.4578    1.7015 C   0  0  0  0  0  0  0  0  0  0  0  0
    3.4502   -1.6926    2.2829 C   0  0  0  0  0  0  0  0  0  0  0  0
    3.1917   -3.0006    2.9888 C   0  0  0  0  0  0  0  0  0  0  0  0
    2.2479   -3.1237    4.0137 C   0  0  0  0  0  0  0  0  0  0  0  0
    2.1115   -4.3274    4.7029 C   0  0  0  0  0  0  0  0  0  0  0  0
    2.9109   -5.4195    4.3676 C   0  0  0  0  0  0  0  0  0  0  0  0
    3.8611   -5.2985    3.3530 C   0  0  0  0  0  0  0  0  0  0  0  0
    4.0103   -4.0901    2.6775 C   0  0  0  0  0  0  0  0  0  0  0  0
    4.6015   -1.3185    2.1182 O   0  0  0  0  0  0  0  0  0  0  0  0
    0.4742   -1.1359    0.3256 C   0  0  0  0  0  0  0  0  0  0  0  0
   -0.7771   -1.6455   -0.0328 C   0  0  0  0  0  0  0  0  0  0  0  0
   -1.3807   -1.3045   -1.2308 C   0  0  0  0  0  0  0  0  0  0  0  0
   -1.9744    0.7461   -5.5550 O   0  0  0  0  0  0  0  0  0  0  0  0
   -2.9406    1.0891    1.1692 N   0  0  0  0  0  0  0  0  0  0  0  0
   -2.4659    0.4132    2.2293 C   0  0  0  0  0  0  0  0  0  0  0  0
   -3.4663   -0.4734    2.9460 C   0  0  0  0  0  0  0  0  0  0  0  0
   -1.2995    0.4828    2.6031 O   0  0  0  0  0  0  0  0  0  0  0  0
   -1.3701    1.0643   -0.1834 H   0  0  0  0  0  0  0  0  0  0  0  0
    0.0384    2.9151    0.5171 N   0  0  0  0  0  0  0  0  0  0  0  0
    0.9866    3.8800    1.0013 C   0  0  0  0  0  0  0  0  0  0  0  0
   -3.5048    3.2293   -0.4355 H   0  0  0  0  0  0  0  0  0  0  0  0
   -2.2067    2.8659   -1.5828 H   0  0  0  0  0  0  0  0  0  0  0  0
   -2.4894    0.3081   -2.9171 H   0  0  0  0  0  0  0  0  0  0  0  0
    1.0630    0.7121   -2.4741 H   0  0  0  0  0  0  0  0  0  0  0  0
    2.5850    1.3106   -0.6197 H   0  0  0  0  0  0  0  0  0  0  0  0
    3.3015   -0.3036   -0.5892 H   0  0  0  0  0  0  0  0  0  0  0  0
    1.8352    1.0434    1.7459 H   0  0  0  0  0  0  0  0  0  0  0  0
    3.5962    0.7012    1.6384 H   0  0  0  0  0  0  0  0  0  0  0  0
    0.3337   -1.0047    2.4394 H   0  0  0  0  0  0  0  0  0  0  0  0
    1.0119   -2.5457    1.8447 H   0  0  0  0  0  0  0  0  0  0  0  0
    1.6215   -2.2690    4.2790 H   0  0  0  0  0  0  0  0  0  0  0  0
    1.3759   -4.4117    5.5061 H   0  0  0  0  0  0  0  0  0  0  0  0
    2.7973   -6.3656    4.9021 H   0  0  0  0  0  0  0  0  0  0  0  0
    4.4945   -6.1495    3.0920 H   0  0  0  0  0  0  0  0  0  0  0  0
    4.7690   -3.9711    1.9016 H   0  0  0  0  0  0  0  0  0  0  0  0
   -1.3055   -2.3034    0.6633 H   0  0  0  0  0  0  0  0  0  0  0  0
   -2.3782   -1.6663   -1.4801 H   0  0  0  0  0  0  0  0  0  0  0  0
   -3.8407    0.8444    0.7515 H   0  0  0  0  0  0  0  0  0  0  0  0
   -4.5066   -0.2707    2.6587 H   0  0  0  0  0  0  0  0  0  0  0  0
   -3.3466   -0.3363    4.0289 H   0  0  0  0  0  0  0  0  0  0  0  0
   -3.2320   -1.5233    2.7129 H   0  0  0  0  0  0  0  0  0  0  0  0
    0.3632    2.1255   -0.0265 H   0  0  0  0  0  0  0  0  0  0  0  0
    0.4301    4.6185    1.5935 H   0  0  0  0  0  0  0  0  0  0  0  0
    1.4983    4.3973    0.1733 H   0  0  0  0  0  0  0  0  0  0  0  0
    1.7515    3.4220    1.6519 H   0  0  0  0  0  0  0  0  0  0  0  0
   -0.1070    2.7568   -3.2647 H   0  0  0  0  0  0  0  0  0  0  0  0
   -1.8434    4.4264   -3.9599 H   0  0  0  0  0  0  0  0  0  0  0  0
   -2.6519    3.0976   -5.0157 H   0  0  0  0  0  0  0  0  0  0  0  0
  2  1  2  0  0  0  0
  3 34  1  6  0  0  0
  3  2  1  0  0  0  0
  3 30  1  0  0  0  0
  4 37  1  0  0  0  0
  4  3  1  0  0  0  0
  5  4  1  0  0  0  0
  6  7  2  0  0  0  0
  6 63  1  0  0  0  0
  7 62  1  0  0  0  0
  8  7  1  0  0  0  0
  8 10  1  0  0  0  0
  9  8  2  0  0  0  0
 10 39  1  0  0  0  0
 10 11  1  0  0  0  0
 11 12  2  0  0  0  0
 11 28  1  0  0  0  0
 12 13  1  0  0  0  0
 13 14  1  0  0  0  0
 13 26  2  0  0  0  0
 14 15  1  0  0  0  0
 15 44  1  0  0  0  0
 15 43  1  0  0  0  0
 15 16  1  0  0  0  0
 16 18  1  0  0  0  0
 17 46  1  0  0  0  0
 17 16  1  0  0  0  0
 17 45  1  0  0  0  0
 18 19  1  0  0  0  0
 19 20  1  0  0  0  0
 20 47  1  0  0  0  0
 20 21  2  0  0  0  0
 21 48  1  0  0  0  0
 22 21  1  0  0  0  0
 22 49  1  0  0  0  0
 23 22  2  0  0  0  0
 24 19  2  0  0  0  0
 24 23  1  0  0  0  0
 25 18  2  0  0  0  0
 26 17  1  0  0  0  0
 27 26  1  0  0  0  0
 27 52  1  0  0  0  0
 28 27  2  0  0  0  0
 29  8  2  0  0  0  0
 30 31  1  0  0  0  0
 31 33  2  0  0  0  0
 31 32  1  0  0  0  0
 32 56  1  0  0  0  0
 35  2  1  0  0  0  0
 35 36  1  0  0  0  0
 36 59  1  0  0  0  0
 36 61  1  0  0  0  0
 38  4  1  0  0  0  0
 40 12  1  0  0  0  0
 41 14  1  0  0  0  0
 42 14  1  0  0  0  0
 50 23  1  0  0  0  0
 51 24  1  0  0  0  0
 53 28  1  0  0  0  0
 54 30  1  0  0  0  0
 55 32  1  0  0  0  0
 57 32  1  0  0  0  0
 58 35  1  0  0  0  0
 60 36  1  0  0  0  0
 64  6  1  0  0  0  0
M  END
