64
-1 1
O        -2.867955    3.533863    3.315944
C        -2.470803    2.847643    2.396195
C        -3.360805    1.870690    1.620327
C        -3.965235    2.642034    0.439833
S        -5.124283    1.718353   -0.602813
C        -4.237645    2.772208   -2.556597
C        -2.866703    2.645545   -2.668195
S        -2.208699    1.237827   -3.390751
O        -0.756827    1.392605   -3.510121
N        -2.460395   -0.096387   -2.354126
C        -1.908721   -0.301493   -1.088752
C        -0.688949    0.242635   -0.669933
C        -0.165679   -0.054314    0.597023
C         1.153669    0.543688    1.035840
C         1.264259    0.561237    2.555574
N         0.989469   -0.759263    3.094093
C        -0.375362   -1.213079    2.867358
C         2.035393   -1.530718    3.499563
C         1.723613   -2.837529    4.186719
C         0.753644   -2.944143    5.188885
C         0.569388   -4.149847    5.863448
C         1.346851   -5.260146    5.536348
C         2.322761   -5.155975    4.544580
C         2.519422   -3.946170    3.883970
O         3.201372   -1.189153    3.367695
C        -0.857587   -0.904964    1.465388
C        -2.078202   -1.440796    1.042066
C        -2.602871   -1.146179   -0.203632
O        -3.008300    0.834028   -4.550129
N        -4.397755    1.325543    2.455492
C        -4.130320    0.548728    3.523787
C        -5.341437    0.031377    4.277063
O        -2.994096    0.293466    3.895616
H        -2.736888    1.052665    1.232137
N        -1.213388    2.940270    1.873451
C        -0.270221    3.943950    2.286429
H        -4.442342    3.555296    0.833722
H        -3.115199    2.955505   -0.190575
H        -3.439230   -0.364650   -2.416809
H        -0.130516    0.885201   -1.352766
H         1.266817    1.563881    0.633681
H         1.990462   -0.045079    0.623203
H         0.516830    1.254104    2.976462
H         2.266706    0.862848    2.879068
H        -1.068208   -0.727453    3.576791
H        -0.430223   -2.296182    3.032070
H         0.143006   -2.076025    5.447155
H        -0.186925   -4.221182    6.648375
H         1.195693   -6.207538    6.059281
H         2.938954   -6.021385    4.289824
H         3.298521   -3.840635    3.126560
H        -2.644469   -2.081686    1.723216
H        -3.572410   -1.550357   -0.500012
H        -5.344976    1.410478    2.104569
H        -6.272312    0.089256    3.696143
H        -5.459607    0.625496    5.195418
H        -5.153665   -1.009320    4.571729
H        -0.985814    2.331076    1.095905
H        -0.710255    4.480057    3.137270
H        -0.061951    4.667837    1.480954
H         0.685115    3.497832    2.607822
H        -2.132677    3.280532   -2.172844
H        -4.644059    3.733289   -2.240100
H        -4.878408    2.196401   -3.226424
