69
-1 1
O        -2.846878   -2.427544   -6.444988
C        -2.435066   -1.571274   -5.681640
N        -2.626407   -1.700602   -4.326820
C        -2.624382   -0.729327   -3.297591
C        -2.123158   -1.096734   -2.043439
C        -2.167623   -0.206170   -0.974948
N        -1.667663   -0.468415    0.305328
C        -0.564589   -1.207103    0.642956
N        -0.025973   -0.883947    1.823046
C         1.145245   -1.418447    2.166116
C         1.697497   -0.985784    3.450167
C         3.031694   -0.725770    3.827952
N         3.133018   -0.223752    5.051011
C         0.945213   -0.582310    4.560269
N         1.869969   -0.146992    5.493598
C         1.521007    0.319607    6.727139
C         0.202466    0.375981    7.069549
C        -0.790716   -0.050419    6.138729
C        -0.430640   -0.521368    4.904616
C         1.752028   -2.341650    1.293820
Cl         3.276842   -3.108801    1.631833
C         1.055867   -2.692490    0.143266
N        -0.108917   -2.150546   -0.180243
C        -2.719971    1.081589   -1.165577
O        -2.738545    1.872175   -0.063545
C        -3.213695    3.189990   -0.185238
C        -3.195245    1.447521   -2.418755
C        -3.161589    0.541615   -3.480836
C        -1.656603   -0.408954   -6.200499
C        -0.569632    0.105299   -5.621708
S         2.237482    0.150151   -3.168643
C         1.357250    0.467654   -1.597572
C         1.266922    1.944888   -1.168261
H         2.283322    2.371218   -1.251759
N         0.782635    2.105195    0.190073
C         1.508221    1.854674    1.302565
C         0.820140    2.253029    2.599072
O         2.607161    1.321624    1.294510
C         0.318925    2.785967   -2.040114
N         0.467782    2.638686   -3.358846
C        -0.388685    3.309647   -4.296931
O        -0.510977    3.544100   -1.526820
H        -2.998714   -2.611576   -4.080830
H        -1.655257   -2.068367   -1.902170
H        -1.820185    0.299907    0.949236
H         3.923658   -0.849449    3.219271
H         2.354389    0.625401    7.358767
H        -0.077457    0.753214    8.053210
H        -1.845284    0.006347    6.414939
H        -1.159300   -0.836586    4.159172
H         1.466479   -3.443498   -0.538226
H        -3.113019    3.647465    0.807310
H        -4.279480    3.202885   -0.477024
H        -2.601879    3.751251   -0.907444
H        -3.590750    2.448984   -2.583993
H        -3.556152    0.833860   -4.454574
H        -1.961503   -0.103353   -7.206155
H        -0.167445   -0.209253   -4.649721
H         0.016429    0.871609   -6.136462
H         1.878707   -0.046316   -0.777113
H         0.333239    0.067052   -1.647606
H        -0.063769    2.665509    0.247831
H         0.052142    1.500896    2.832463
H         0.337424    3.239152    2.523249
H         1.563411    2.262162    3.406038
H         1.120140    1.873091   -3.658081
H        -0.662010    4.302150   -3.910758
H        -1.321511    2.747605   -4.482485
H         0.137413    3.429407   -5.255344
