-1 1
 OpenBabel05232413493D

 69 71  0  0  1  0  0  0  0  0999 V2000
   -2.8469   -2.4275   -6.4450 O   0  0  0  0  0  0  0  0  0  0  0  0
   -2.4351   -1.5713   -5.6816 C   0  0  0  0  0  0  0  0  0  0  0  0
   -2.6264   -1.7006   -4.3268 N   0  0  0  0  0  0  0  0  0  0  0  0
   -2.6244   -0.7293   -3.2976 C   0  0  0  0  0  0  0  0  0  0  0  0
   -2.1232   -1.0967   -2.0434 C   0  0  0  0  0  0  0  0  0  0  0  0
   -2.1676   -0.2062   -0.9749 C   0  0  0  0  0  0  0  0  0  0  0  0
   -1.6677   -0.4684    0.3053 N   0  0  0  0  0  0  0  0  0  0  0  0
   -0.5646   -1.2071    0.6430 C   0  0  0  0  0  0  0  0  0  0  0  0
   -0.0260   -0.8839    1.8230 N   0  0  0  0  0  0  0  0  0  0  0  0
    1.1452   -1.4184    2.1661 C   0  0  0  0  0  0  0  0  0  0  0  0
    1.6975   -0.9858    3.4502 C   0  0  0  0  0  0  0  0  0  0  0  0
    3.0317   -0.7258    3.8280 C   0  0  0  0  0  0  0  0  0  0  0  0
    3.1330   -0.2238    5.0510 N   0  0  0  0  0  0  0  0  0  0  0  0
    0.9452   -0.5823    4.5603 C   0  0  0  0  0  0  0  0  0  0  0  0
    1.8700   -0.1470    5.4936 N   0  0  0  0  0  0  0  0  0  0  0  0
    1.5210    0.3196    6.7271 C   0  0  0  0  0  0  0  0  0  0  0  0
    0.2025    0.3760    7.0695 C   0  0  0  0  0  0  0  0  0  0  0  0
   -0.7907   -0.0504    6.1387 C   0  0  0  0  0  0  0  0  0  0  0  0
   -0.4306   -0.5214    4.9046 C   0  0  0  0  0  0  0  0  0  0  0  0
    1.7520   -2.3417    1.2938 C   0  0  0  0  0  0  0  0  0  0  0  0
    3.2768   -3.1088    1.6318 Cl  0  0  0  0  0  0  0  0  0  0  0  0
    1.0559   -2.6925    0.1433 C   0  0  0  0  0  0  0  0  0  0  0  0
   -0.1089   -2.1505   -0.1802 N   0  0  0  0  0  0  0  0  0  0  0  0
   -2.7200    1.0816   -1.1656 C   0  0  0  0  0  0  0  0  0  0  0  0
   -2.7385    1.8722   -0.0635 O   0  0  0  0  0  0  0  0  0  0  0  0
   -3.2137    3.1900   -0.1852 C   0  0  0  0  0  0  0  0  0  0  0  0
   -3.1952    1.4475   -2.4188 C   0  0  0  0  0  0  0  0  0  0  0  0
   -3.1616    0.5416   -3.4808 C   0  0  0  0  0  0  0  0  0  0  0  0
   -1.6566   -0.4090   -6.2005 C   0  0  0  0  0  0  0  0  0  0  0  0
   -0.5696    0.1053   -5.6217 C   0  0  0  0  0  0  0  0  0  0  0  0
    2.2375    0.1502   -3.1686 S   0  0  0  0  0  1  0  0  0  0  0  0
    1.3573    0.4677   -1.5976 C   0  0  0  0  0  0  0  0  0  0  0  0
    1.2669    1.9449   -1.1683 C   0  0  2  0  0  0  0  0  0  0  0  0
    2.2833    2.3712   -1.2518 H   0  0  0  0  0  0  0  0  0  0  0  0
    0.7826    2.1052    0.1901 N   0  0  0  0  0  0  0  0  0  0  0  0
    1.5082    1.8547    1.3026 C   0  0  0  0  0  0  0  0  0  0  0  0
    0.8201    2.2530    2.5991 C   0  0  0  0  0  0  0  0  0  0  0  0
    2.6072    1.3216    1.2945 O   0  0  0  0  0  0  0  0  0  0  0  0
    0.3189    2.7860   -2.0401 C   0  0  0  0  0  0  0  0  0  0  0  0
    0.4678    2.6387   -3.3588 N   0  0  0  0  0  0  0  0  0  0  0  0
   -0.3887    3.3096   -4.2969 C   0  0  0  0  0  0  0  0  0  0  0  0
   -0.5110    3.5441   -1.5268 O   0  0  0  0  0  0  0  0  0  0  0  0
   -2.9987   -2.6116   -4.0808 H   0  0  0  0  0  0  0  0  0  0  0  0
   -1.6553   -2.0684   -1.9022 H   0  0  0  0  0  0  0  0  0  0  0  0
   -1.8202    0.2999    0.9492 H   0  0  0  0  0  0  0  0  0  0  0  0
    3.9237   -0.8494    3.2193 H   0  0  0  0  0  0  0  0  0  0  0  0
    2.3544    0.6254    7.3588 H   0  0  0  0  0  0  0  0  0  0  0  0
   -0.0775    0.7532    8.0532 H   0  0  0  0  0  0  0  0  0  0  0  0
   -1.8453    0.0063    6.4149 H   0  0  0  0  0  0  0  0  0  0  0  0
   -1.1593   -0.8366    4.1592 H   0  0  0  0  0  0  0  0  0  0  0  0
    1.4665   -3.4435   -0.5382 H   0  0  0  0  0  0  0  0  0  0  0  0
   -3.1130    3.6475    0.8073 H   0  0  0  0  0  0  0  0  0  0  0  0
   -4.2795    3.2029   -0.4770 H   0  0  0  0  0  0  0  0  0  0  0  0
   -2.6019    3.7513   -0.9074 H   0  0  0  0  0  0  0  0  0  0  0  0
   -3.5907    2.4490   -2.5840 H   0  0  0  0  0  0  0  0  0  0  0  0
   -3.5562    0.8339   -4.4546 H   0  0  0  0  0  0  0  0  0  0  0  0
   -1.9615   -0.1034   -7.2062 H   0  0  0  0  0  0  0  0  0  0  0  0
   -0.1674   -0.2093   -4.6497 H   0  0  0  0  0  0  0  0  0  0  0  0
    0.0164    0.8716   -6.1365 H   0  0  0  0  0  0  0  0  0  0  0  0
    1.8787   -0.0463   -0.7771 H   0  0  0  0  0  0  0  0  0  0  0  0
    0.3332    0.0671   -1.6476 H   0  0  0  0  0  0  0  0  0  0  0  0
   -0.0638    2.6655    0.2478 H   0  0  0  0  0  0  0  0  0  0  0  0
    0.0521    1.5009    2.8325 H   0  0  0  0  0  0  0  0  0  0  0  0
    0.3374    3.2392    2.5232 H   0  0  0  0  0  0  0  0  0  0  0  0
    1.5634    2.2622    3.4060 H   0  0  0  0  0  0  0  0  0  0  0  0
    1.1201    1.8731   -3.6581 H   0  0  0  0  0  0  0  0  0  0  0  0
   -0.6620    4.3022   -3.9108 H   0  0  0  0  0  0  0  0  0  0  0  0
   -1.3215    2.7476   -4.4825 H   0  0  0  0  0  0  0  0  0  0  0  0
    0.1374    3.4294   -5.2553 H   0  0  0  0  0  0  0  0  0  0  0  0
  1  2  2  0  0  0  0
  2  3  1  0  0  0  0
  3 43  1  0  0  0  0
  3  4  1  0  0  0  0
  4  5  1  0  0  0  0
  5 44  1  0  0  0  0
  5  6  2  0  0  0  0
  6  7  1  0  0  0  0
  7  8  1  0  0  0  0
  7 45  1  0  0  0  0
  8  9  2  0  0  0  0
  9 10  1  0  0  0  0
 10 11  1  0  0  0  0
 11 12  1  0  0  0  0
 11 14  2  0  0  0  0
 12 13  2  0  0  0  0
 13 15  1  0  0  0  0
 14 19  1  0  0  0  0
 14 15  1  0  0  0  0
 15 16  1  0  0  0  0
 16 17  2  0  0  0  0
 16 47  1  0  0  0  0
 17 48  1  0  0  0  0
 18 49  1  0  0  0  0
 18 17  1  0  0  0  0
 19 18  2  0  0  0  0
 20 21  1  0  0  0  0
 20 10  2  0  0  0  0
 22 20  1  0  0  0  0
 23 22  2  0  0  0  0
 23  8  1  0  0  0  0
 24  6  1  0  0  0  0
 24 25  1  0  0  0  0
 26 25  1  0  0  0  0
 26 52  1  0  0  0  0
 27 24  2  0  0  0  0
 28  4  2  0  0  0  0
 28 27  1  0  0  0  0
 29  2  1  0  0  0  0
 29 30  2  0  0  0  0
 30 58  1  0  0  0  0
 31 32  1  0  0  0  0
 32 33  1  0  0  0  0
 32 60  1  0  0  0  0
 33 34  1  6  0  0  0
 33 35  1  0  0  0  0
 35 62  1  0  0  0  0
 35 36  1  0  0  0  0
 36 37  1  0  0  0  0
 37 63  1  0  0  0  0
 37 65  1  0  0  0  0
 38 36  2  0  0  0  0
 39 42  2  0  0  0  0
 39 33  1  0  0  0  0
 40 39  1  0  0  0  0
 41 67  1  0  0  0  0
 41 40  1  0  0  0  0
 46 12  1  0  0  0  0
 50 19  1  0  0  0  0
 51 22  1  0  0  0  0
 53 26  1  0  0  0  0
 54 26  1  0  0  0  0
 55 27  1  0  0  0  0
 56 28  1  0  0  0  0
 57 29  1  0  0  0  0
 59 30  1  0  0  0  0
 61 32  1  0  0  0  0
 64 37  1  0  0  0  0
 66 40  1  0  0  0  0
 68 41  1  0  0  0  0
 69 41  1  0  0  0  0
M  END
