69
-1 1
O        -1.782288   -2.382775   -6.190817
C        -1.533164   -1.351847   -5.556193
N        -1.355126   -1.564450   -4.130447
C        -1.816493   -0.873698   -3.033402
C        -1.362543   -1.264733   -1.753691
C        -1.694653   -0.531057   -0.618999
N        -1.238128   -0.793373    0.683895
C        -0.323652   -1.664312    1.173730
N        -0.015274   -1.478067    2.467740
C         0.872356   -2.273525    3.062372
C         1.163173   -1.970839    4.464747
C         1.786443   -2.733857    5.479559
N         1.846508   -2.103196    6.642739
C         0.826051   -0.765538    5.115181
N         1.273582   -0.912374    6.414247
C         1.152416    0.060063    7.364756
C         0.562917    1.243350    7.032273
C         0.084574    1.446342    5.706329
C         0.207229    0.462158    4.761384
C         1.468385   -3.301019    2.297952
Cl         2.679022   -4.402240    2.904528
C         1.087654   -3.413485    0.965261
N         0.199898   -2.618169    0.392924
C        -2.497657    0.624053   -0.736705
O        -2.701377    1.324310    0.423221
C        -3.182175    2.642443    0.316206
C        -2.994834    0.974838   -1.984085
C        -2.677348    0.231187   -3.119638
C        -1.348132   -0.059833   -6.095000
C        -0.764247    1.112460   -5.475965
S         1.199894    1.165190   -5.106918
C         1.178234    0.925654   -3.305376
C         1.087889    2.153159   -2.369916
H         2.031877    2.717470   -2.416501
N         0.942352    1.669017   -1.018807
C         1.366827    2.401584    0.050712
C         0.813494    1.926822    1.381869
O         2.142843    3.332741   -0.043448
C        -0.034290    3.176004   -2.657550
N         0.042094    3.789836   -3.858512
C        -1.015146    4.655035   -4.314322
O        -0.886780    3.448081   -1.825478
H        -1.140971   -2.541408   -3.967017
H        -0.700567   -2.121536   -1.650283
H        -1.582177   -0.128578    1.367893
H         2.186369   -3.741137    5.404532
H         1.553720   -0.198008    8.344036
H         0.466376    2.022520    7.788378
H        -0.384257    2.395743    5.441828
H        -0.152973    0.573928    3.741721
H         1.537074   -4.192098    0.339534
H        -3.111639    3.084036    1.319366
H        -4.241326    2.658316    0.001718
H        -2.570263    3.222477   -0.392575
H        -3.616206    1.863611   -2.093436
H        -3.067439    0.516228   -4.097477
H        -1.443051   -0.048895   -7.184313
H        -1.116971    1.373295   -4.468100
H        -0.872677    2.000702   -6.113634
H         2.098502    0.390401   -3.033684
H         0.346661    0.245073   -3.080186
H         0.145468    1.057333   -0.871023
H         1.135405    0.895298    1.591262
H        -0.287112    1.936016    1.352931
H         1.176681    2.589216    2.176209
H         0.643476    3.334308   -4.550913
H        -1.322307    5.323264   -3.498387
H        -1.904064    4.086720   -4.641249
H        -0.656346    5.260054   -5.158284
