-1 1
 OpenBabel05232413493D

 40 39  0  0  1  0  0  0  0  0999 V2000
    0.5273    3.7985    1.1277 O   0  0  0  0  0  0  0  0  0  0  0  0
   -0.2136    3.0341    0.5331 C   0  0  0  0  0  0  0  0  0  0  0  0
   -0.5147    3.2774   -0.9239 C   0  0  0  0  0  0  0  0  0  0  0  0
   -0.8588    2.2511   -1.8134 C   0  0  0  0  0  0  0  0  0  0  0  0
   -1.0530    2.5407   -3.1650 C   0  0  0  0  0  0  0  0  0  0  0  0
   -0.9161    3.8452   -3.6349 C   0  0  0  0  0  0  0  0  0  0  0  0
   -0.5659    4.8699   -2.7519 C   0  0  0  0  0  0  0  0  0  0  0  0
   -0.3551    4.5833   -1.4077 C   0  0  0  0  0  0  0  0  0  0  0  0
   -0.8075    1.8776    1.2423 C   0  0  0  0  0  0  0  0  0  0  0  0
   -1.9547    1.2662    0.9208 C   0  0  0  0  0  0  0  0  0  0  0  0
   -1.5181   -1.3327   -1.0246 S   0  0  0  0  0  1  0  0  0  0  0  0
   -0.9105   -2.0972    0.5229 C   0  0  0  0  0  0  0  0  0  0  0  0
    0.5756   -2.5185    0.5238 C   0  0  2  0  0  0  0  0  0  0  0  0
    0.7493   -3.1066   -0.3945 H   0  0  0  0  0  0  0  0  0  0  0  0
    0.9229   -3.3127    1.6840 N   0  0  0  0  0  0  0  0  0  0  0  0
    0.6058   -4.6135    1.8491 C   0  0  0  0  0  0  0  0  0  0  0  0
    1.1682   -5.2521    3.1135 C   0  0  0  0  0  0  0  0  0  0  0  0
   -0.0847   -5.2584    1.0783 O   0  0  0  0  0  0  0  0  0  0  0  0
    1.5554   -1.3315    0.5457 C   0  0  0  0  0  0  0  0  0  0  0  0
    1.3930   -0.4304   -0.4325 N   0  0  0  0  0  0  0  0  0  0  0  0
    2.2001    0.7602   -0.4834 C   0  0  0  0  0  0  0  0  0  0  0  0
    2.4263   -1.2400    1.4104 O   0  0  0  0  0  0  0  0  0  0  0  0
   -0.9667    1.2131   -1.4717 H   0  0  0  0  0  0  0  0  0  0  0  0
   -1.3127    1.7289   -3.8481 H   0  0  0  0  0  0  0  0  0  0  0  0
   -1.0762    4.0663   -4.6935 H   0  0  0  0  0  0  0  0  0  0  0  0
   -0.4499    5.8934   -3.1175 H   0  0  0  0  0  0  0  0  0  0  0  0
   -0.0546    5.3616   -0.7032 H   0  0  0  0  0  0  0  0  0  0  0  0
   -0.2526    1.5834    2.1385 H   0  0  0  0  0  0  0  0  0  0  0  0
   -2.5594    1.5578    0.0617 H   0  0  0  0  0  0  0  0  0  0  0  0
   -2.3498    0.4526    1.5316 H   0  0  0  0  0  0  0  0  0  0  0  0
   -1.4807   -3.0173    0.7138 H   0  0  0  0  0  0  0  0  0  0  0  0
   -1.0642   -1.4293    1.3904 H   0  0  0  0  0  0  0  0  0  0  0  0
    1.6267   -2.8654    2.2675 H   0  0  0  0  0  0  0  0  0  0  0  0
    0.3270   -5.5810    3.7408 H   0  0  0  0  0  0  0  0  0  0  0  0
    1.8136   -4.5831    3.6999 H   0  0  0  0  0  0  0  0  0  0  0  0
    1.7349   -6.1501    2.8292 H   0  0  0  0  0  0  0  0  0  0  0  0
    0.5095   -0.5142   -0.9728 H   0  0  0  0  0  0  0  0  0  0  0  0
    2.0889    1.3798    0.4225 H   0  0  0  0  0  0  0  0  0  0  0  0
    1.9006    1.3587   -1.3539 H   0  0  0  0  0  0  0  0  0  0  0  0
    3.2688    0.5084   -0.5754 H   0  0  0  0  0  0  0  0  0  0  0  0
  2  1  2  0  0  0  0
  2  9  1  0  0  0  0
  3  2  1  0  0  0  0
  4 23  1  0  0  0  0
  4  3  2  0  0  0  0
  5  4  1  0  0  0  0
  6  5  2  0  0  0  0
  6  7  1  0  0  0  0
  7  8  2  0  0  0  0
  8  3  1  0  0  0  0
  8 27  1  0  0  0  0
  9 28  1  0  0  0  0
 10  9  2  0  0  0  0
 10 30  1  0  0  0  0
 11 12  1  0  0  0  0
 12 13  1  0  0  0  0
 12 31  1  0  0  0  0
 12 32  1  0  0  0  0
 13 14  1  6  0  0  0
 13 19  1  0  0  0  0
 13 15  1  0  0  0  0
 15 16  1  0  0  0  0
 15 33  1  0  0  0  0
 16 17  1  0  0  0  0
 17 35  1  0  0  0  0
 17 34  1  0  0  0  0
 18 16  2  0  0  0  0
 19 22  2  0  0  0  0
 20 19  1  0  0  0  0
 21 20  1  0  0  0  0
 21 38  1  0  0  0  0
 24  5  1  0  0  0  0
 25  6  1  0  0  0  0
 26  7  1  0  0  0  0
 29 10  1  0  0  0  0
 36 17  1  0  0  0  0
 37 20  1  0  0  0  0
 39 21  1  0  0  0  0
 40 21  1  0  0  0  0
M  END
