-1 1
 OpenBabel05232413493D

 75 77  0  0  1  0  0  0  0  0999 V2000
   -4.3121   -0.8359   -4.6520 O   0  0  0  0  0  0  0  0  0  0  0  0
   -3.5384   -1.6837   -4.2482 C   0  0  0  0  0  0  0  0  0  0  0  0
   -3.8725   -3.1751   -4.1914 C   0  0  2  0  0  0  0  0  0  0  0  0
   -3.2683   -3.8816   -5.4404 C   0  0  0  0  0  0  0  0  0  0  0  0
   -3.9769   -5.5301   -5.7551 S   0  0  0  0  0  1  0  0  0  0  0  0
   -2.5805   -5.1498   -0.3406 C   0  0  0  0  0  0  0  0  0  0  0  0
   -3.2903   -4.0563   -0.6157 C   0  0  0  0  0  0  0  0  0  0  0  0
   -2.7119   -2.6925   -0.3901 C   0  0  0  0  0  0  0  0  0  0  0  0
   -3.5108   -1.6945   -0.8616 N   0  0  0  0  0  0  0  0  0  0  0  0
   -3.2346   -0.3258   -0.8993 C   0  0  0  0  0  0  0  0  0  0  0  0
   -2.1280    0.2517   -0.2679 C   0  0  0  0  0  0  0  0  0  0  0  0
   -1.8900    1.6287   -0.3674 C   0  0  0  0  0  0  0  0  0  0  0  0
   -0.6953    2.2382    0.2737 C   0  0  0  0  0  0  0  0  0  0  0  0
   -0.6268    3.5866    0.3105 N   0  0  0  0  0  0  0  0  0  0  0  0
    0.4377    4.1145    0.8786 C   0  0  0  0  0  0  0  0  0  0  0  0
    1.4681    3.4771    1.4327 N   0  0  0  0  0  0  0  0  0  0  0  0
    1.4204    2.1443    1.3987 C   0  0  0  0  0  0  0  0  0  0  0  0
    2.4379    1.3995    1.9378 N   0  0  0  0  0  0  0  0  0  0  0  0
    3.6340    1.7726    2.5636 C   0  0  0  0  0  0  0  0  0  0  0  0
    4.0481    3.0913    2.7769 C   0  0  0  0  0  0  0  0  0  0  0  0
    5.2586    3.3552    3.4189 C   0  0  0  0  0  0  0  0  0  0  0  0
    6.1074    2.3308    3.8537 C   0  0  0  0  0  0  0  0  0  0  0  0
    7.3517    2.5753    4.4738 N   0  0  0  0  0  0  0  0  0  0  0  0
    7.5737    1.9568    5.7721 C   0  0  0  0  0  0  0  0  0  0  0  0
    9.0499    2.0183    6.1330 C   0  0  0  0  0  0  0  0  0  0  0  0
    9.5322    3.3360    6.1023 O   0  0  0  0  0  0  0  0  0  0  0  0
    9.3446    3.9168    4.8387 C   0  0  0  0  0  0  0  0  0  0  0  0
    7.8768    3.9237    4.4323 C   0  0  0  0  0  0  0  0  0  0  0  0
    5.6879    1.0098    3.6234 C   0  0  0  0  0  0  0  0  0  0  0  0
    4.4790    0.7389    3.0034 C   0  0  0  0  0  0  0  0  0  0  0  0
    0.3318    1.4713    0.8093 C   0  0  0  0  0  0  0  0  0  0  0  0
   -2.7746    2.4375   -1.0879 C   0  0  0  0  0  0  0  0  0  0  0  0
   -3.8794    1.8597   -1.7108 C   0  0  0  0  0  0  0  0  0  0  0  0
   -4.1155    0.4938   -1.6252 C   0  0  0  0  0  0  0  0  0  0  0  0
   -1.6271   -2.5292    0.1524 O   0  0  0  0  0  0  0  0  0  0  0  0
   -5.2912   -3.3991   -4.1939 N   0  0  0  0  0  0  0  0  0  0  0  0
   -6.1321   -3.0246   -3.2346 C   0  0  0  0  0  0  0  0  0  0  0  0
   -7.5812   -3.4047   -3.4458 C   0  0  0  0  0  0  0  0  0  0  0  0
   -5.8064   -2.3865   -2.2237 O   0  0  0  0  0  0  0  0  0  0  0  0
   -3.4215   -3.6204   -3.2862 H   0  0  0  0  0  0  0  0  0  0  0  0
   -2.2603   -1.4018   -3.8662 N   0  0  0  0  0  0  0  0  0  0  0  0
   -1.6850   -0.0852   -3.9603 C   0  0  0  0  0  0  0  0  0  0  0  0
   -3.4380   -3.2197   -6.3071 H   0  0  0  0  0  0  0  0  0  0  0  0
   -2.1788   -3.9345   -5.2873 H   0  0  0  0  0  0  0  0  0  0  0  0
   -4.3634   -1.9810   -1.3756 H   0  0  0  0  0  0  0  0  0  0  0  0
   -1.4688   -0.4084    0.2879 H   0  0  0  0  0  0  0  0  0  0  0  0
    0.4880    5.2101    0.9036 H   0  0  0  0  0  0  0  0  0  0  0  0
    2.3005    0.4006    1.8628 H   0  0  0  0  0  0  0  0  0  0  0  0
    3.4073    3.9046    2.4455 H   0  0  0  0  0  0  0  0  0  0  0  0
    5.5274    4.3996    3.5813 H   0  0  0  0  0  0  0  0  0  0  0  0
    7.2512    0.9072    5.7532 H   0  0  0  0  0  0  0  0  0  0  0  0
    6.9834    2.4710    6.5614 H   0  0  0  0  0  0  0  0  0  0  0  0
    9.6215    1.3836    5.4255 H   0  0  0  0  0  0  0  0  0  0  0  0
    9.2111    1.6366    7.1514 H   0  0  0  0  0  0  0  0  0  0  0  0
    9.9271    3.3657    4.0727 H   0  0  0  0  0  0  0  0  0  0  0  0
    9.7290    4.9453    4.8937 H   0  0  0  0  0  0  0  0  0  0  0  0
    7.7909    4.3187    3.4089 H   0  0  0  0  0  0  0  0  0  0  0  0
    7.3194    4.6098    5.1077 H   0  0  0  0  0  0  0  0  0  0  0  0
    6.3315    0.1774    3.9150 H   0  0  0  0  0  0  0  0  0  0  0  0
    4.1892   -0.3030    2.8383 H   0  0  0  0  0  0  0  0  0  0  0  0
    0.3100    0.3821    0.7692 H   0  0  0  0  0  0  0  0  0  0  0  0
   -2.5769    3.5075   -1.1528 H   0  0  0  0  0  0  0  0  0  0  0  0
   -4.5650    2.4816   -2.2904 H   0  0  0  0  0  0  0  0  0  0  0  0
   -4.9601    0.0361   -2.1445 H   0  0  0  0  0  0  0  0  0  0  0  0
   -5.5393   -4.1521   -4.8602 H   0  0  0  0  0  0  0  0  0  0  0  0
   -7.7122   -4.1586   -4.2332 H   0  0  0  0  0  0  0  0  0  0  0  0
   -8.1381   -2.4978   -3.7245 H   0  0  0  0  0  0  0  0  0  0  0  0
   -7.9936   -3.7738   -2.4974 H   0  0  0  0  0  0  0  0  0  0  0  0
   -1.6910   -2.1609   -3.5171 H   0  0  0  0  0  0  0  0  0  0  0  0
   -2.4761    0.5939   -4.3019 H   0  0  0  0  0  0  0  0  0  0  0  0
   -0.8533   -0.0554   -4.6844 H   0  0  0  0  0  0  0  0  0  0  0  0
   -1.3223    0.2684   -2.9823 H   0  0  0  0  0  0  0  0  0  0  0  0
   -1.5709   -5.0525    0.0686 H   0  0  0  0  0  0  0  0  0  0  0  0
   -2.9788   -6.1491   -0.5272 H   0  0  0  0  0  0  0  0  0  0  0  0
   -4.2983   -4.1188   -1.0357 H   0  0  0  0  0  0  0  0  0  0  0  0
  1  2  2  0  0  0  0
  2  3  1  0  0  0  0
  2 41  1  0  0  0  0
  3 40  1  1  0  0  0
  4 44  1  0  0  0  0
  4  3  1  0  0  0  0
  5  4  1  0  0  0  0
  6 73  1  0  0  0  0
  7  8  1  0  0  0  0
  7  6  2  0  0  0  0
  8 35  2  0  0  0  0
  9  8  1  0  0  0  0
 10  9  1  0  0  0  0
 10 11  1  0  0  0  0
 11 46  1  0  0  0  0
 12 11  2  0  0  0  0
 12 13  1  0  0  0  0
 13 14  1  0  0  0  0
 13 31  2  0  0  0  0
 14 15  2  0  0  0  0
 15 47  1  0  0  0  0
 15 16  1  0  0  0  0
 17 16  2  0  0  0  0
 17 18  1  0  0  0  0
 18 19  1  0  0  0  0
 19 20  2  0  0  0  0
 19 30  1  0  0  0  0
 20 21  1  0  0  0  0
 21 50  1  0  0  0  0
 21 22  2  0  0  0  0
 22 23  1  0  0  0  0
 23 24  1  0  0  0  0
 24 25  1  0  0  0  0
 24 52  1  0  0  0  0
 25 54  1  0  0  0  0
 26 25  1  0  0  0  0
 27 56  1  0  0  0  0
 27 26  1  0  0  0  0
 28 23  1  0  0  0  0
 28 27  1  0  0  0  0
 28 58  1  0  0  0  0
 29 22  1  0  0  0  0
 29 59  1  0  0  0  0
 30 29  2  0  0  0  0
 31 17  1  0  0  0  0
 32 12  1  0  0  0  0
 33 34  1  0  0  0  0
 33 32  2  0  0  0  0
 34 10  2  0  0  0  0
 36  3  1  0  0  0  0
 36 37  1  0  0  0  0
 37 39  2  0  0  0  0
 38 37  1  0  0  0  0
 38 68  1  0  0  0  0
 41 69  1  0  0  0  0
 42 41  1  0  0  0  0
 42 72  1  0  0  0  0
 43  4  1  0  0  0  0
 45  9  1  0  0  0  0
 48 18  1  0  0  0  0
 49 20  1  0  0  0  0
 51 24  1  0  0  0  0
 53 25  1  0  0  0  0
 55 27  1  0  0  0  0
 57 28  1  0  0  0  0
 60 30  1  0  0  0  0
 61 31  1  0  0  0  0
 62 32  1  0  0  0  0
 63 33  1  0  0  0  0
 64 34  1  0  0  0  0
 65 36  1  0  0  0  0
 66 38  1  0  0  0  0
 67 38  1  0  0  0  0
 70 42  1  0  0  0  0
 71 42  1  0  0  0  0
 74  6  1  0  0  0  0
 75  7  1  0  0  0  0
M  END
