75
-1 1
O         0.057839    2.900376   -2.480783
C         0.156942    2.427098   -1.359137
C        -0.562020    1.135225   -0.956292
C         0.393946   -0.068200   -1.065653
S        -0.292258   -1.644787   -0.476124
C        -0.334843   -1.075175    1.952807
C        -1.103220    0.026913    2.263575
C        -0.540323    1.347983    2.271332
N        -1.497569    2.371220    2.154219
C        -1.210898    3.725213    2.042831
C        -0.121462    4.313498    2.699413
C         0.148897    5.677494    2.560732
C         1.370607    6.256304    3.171374
N         1.402857    7.588301    3.390941
C         2.507402    8.072366    3.922107
N         3.605265    7.405029    4.276338
C         3.593566    6.090044    4.050068
N         4.683454    5.319451    4.366807
C         5.929054    5.649178    4.913255
C         6.325495    6.939275    5.280182
C         7.590643    7.159856    5.826264
C         8.510544    6.121591    6.010529
N         9.807708    6.326153    6.531134
C        10.176529    5.542537    7.700327
C        11.679857    5.611212    7.920033
O        12.123459    6.938521    8.030285
C        11.791309    7.682487    6.887581
C        10.289687    7.687060    6.632900
C         8.107790    4.831819    5.626250
C         6.847086    4.600804    5.100755
C         2.470012    5.463391    3.476694
C        -0.703151    6.488969    1.802458
C        -1.792768    5.908151    1.157251
C        -2.042561    4.543233    1.258693
O         0.671006    1.616729    2.302271
N        -1.763370    0.960722   -1.728685
C        -2.998552    1.181558   -1.244814
C        -4.134422    0.793551   -2.171036
O        -3.234746    1.634171   -0.128203
H        -0.888809    1.221876    0.078546
N         0.930773    2.949683   -0.377354
C         1.649986    4.185114   -0.540305
H         0.711978   -0.164989   -2.119255
H         1.297540    0.187050   -0.490256
H        -2.330728    2.076647    1.642251
H         0.512715    3.674777    3.308085
H         2.533172    9.154917    4.098826
H         4.565618    4.337272    4.156971
H         5.628659    7.762455    5.143482
H         7.845702    8.179753    6.116578
H         9.879866    4.494013    7.563573
H         9.657346    5.918376    8.608769
H        12.191591    5.104418    7.076542
H        11.954497    5.098178    8.852828
H        12.305509    7.267704    5.996895
H        12.152932    8.707710    7.051359
H        10.088091    8.218418    5.690666
H         9.787721    8.248281    7.451888
H         8.804017    3.995847    5.719865
H         6.571354    3.583060    4.809538
H         2.472538    4.394550    3.256643
H        -0.486000    7.553966    1.715118
H        -2.451544    6.526191    0.542367
H        -2.871171    4.081585    0.716360
H        -1.661311    0.613411   -2.672003
H        -3.834181    0.741366   -3.226866
H        -4.951926    1.515845   -2.052450
H        -4.502626   -0.196278   -1.862350
H         0.917486    2.517240    0.550821
H         1.593807    4.475589   -1.597357
H         2.708477    4.070799   -0.255361
H         1.209113    4.989649    0.071531
H         0.752393   -0.979137    1.968077
H        -0.728688   -2.079396    2.104372
H        -2.191463   -0.062711    2.305179
