-1 1
 OpenBabel05232413493D

 73 74  0  0  1  0  0  0  0  0999 V2000
   -1.1368   -4.1096   -5.4589 O   0  0  0  0  0  0  0  0  0  0  0  0
   -0.6069   -4.2257   -4.3546 C   0  0  0  0  0  0  0  0  0  0  0  0
    0.7985   -4.8372   -4.2101 C   0  0  2  0  0  0  0  0  0  0  0  0
    1.7927   -3.9396   -3.4391 C   0  0  0  0  0  0  0  0  0  0  0  0
    1.4657   -3.7607   -1.6496 S   0  0  0  0  0  1  0  0  0  0  0  0
    0.1948   -0.8054   -2.2110 C   0  0  0  0  0  0  0  0  0  0  0  0
    0.9074    0.3250   -2.1666 C   0  0  0  0  0  0  0  0  0  0  0  0
    0.7694    1.2797   -1.0423 C   0  0  0  0  0  0  0  0  0  0  0  0
    1.5619    2.4055   -1.1900 N   0  0  0  0  0  0  0  0  0  0  0  0
    1.6464    3.5447   -0.3849 C   0  0  0  0  0  0  0  0  0  0  0  0
    0.8792    3.7177    0.7734 C   0  0  0  0  0  0  0  0  0  0  0  0
    0.9924    4.8878    1.5326 C   0  0  0  0  0  0  0  0  0  0  0  0
    0.1844    5.0761    2.7727 C   0  0  0  0  0  0  0  0  0  0  0  0
    0.2996    6.2594    3.4048 N   0  0  0  0  0  0  0  0  0  0  0  0
   -0.4218    6.4168    4.5023 C   0  0  0  0  0  0  0  0  0  0  0  0
   -1.2359    5.5373    5.0707 N   0  0  0  0  0  0  0  0  0  0  0  0
   -1.3453    4.3493    4.4583 C   0  0  0  0  0  0  0  0  0  0  0  0
   -2.1700    3.4474    5.0619 N   0  0  0  0  0  0  0  0  0  0  0  0
   -2.3774    2.1129    4.6891 C   0  0  0  0  0  0  0  0  0  0  0  0
   -1.4358    1.1469    4.3654 C   0  0  0  0  0  0  0  0  0  0  0  0
   -2.1251    0.0141    4.1008 N   0  0  0  0  0  0  0  0  0  0  0  0
   -1.5795   -1.2375    3.6089 C   0  0  0  0  0  0  0  0  0  0  0  0
   -1.7473   -1.3947    2.0975 C   0  0  0  0  0  0  0  0  0  0  0  0
   -1.1285   -2.6189    1.6391 N   0  0  0  0  0  0  0  0  0  0  0  0
   -1.7646   -3.1603    0.4580 C   0  0  0  0  0  0  0  0  0  0  0  0
    0.3108   -2.4917    1.4800 C   0  0  0  0  0  0  0  0  0  0  0  0
   -3.4383    0.1699    4.2384 N   0  0  0  0  0  0  0  0  0  0  0  0
   -3.6142    1.4364    4.5882 C   0  0  0  0  0  0  0  0  0  0  0  0
   -0.6449    4.0775    3.2685 C   0  0  0  0  0  0  0  0  0  0  0  0
    1.8772    5.8960    1.1351 C   0  0  0  0  0  0  0  0  0  0  0  0
    2.6443    5.7222   -0.0130 C   0  0  0  0  0  0  0  0  0  0  0  0
    2.5355    4.5610   -0.7695 C   0  0  0  0  0  0  0  0  0  0  0  0
    0.0248    1.1142   -0.0914 O   0  0  0  0  0  0  0  0  0  0  0  0
    1.2339   -5.1124   -5.5635 N   0  0  0  0  0  0  0  0  0  0  0  0
    2.2064   -5.9900   -5.8906 C   0  0  0  0  0  0  0  0  0  0  0  0
    2.4162   -6.1827   -7.3874 C   0  0  0  0  0  0  0  0  0  0  0  0
    2.8918   -6.5899   -5.0808 O   0  0  0  0  0  0  0  0  0  0  0  0
    0.7157   -5.7835   -3.6467 H   0  0  0  0  0  0  0  0  0  0  0  0
   -1.1829   -3.8455   -3.2017 N   0  0  0  0  0  0  0  0  0  0  0  0
   -2.4679   -3.2021   -3.1636 C   0  0  0  0  0  0  0  0  0  0  0  0
    2.7813   -4.3971   -3.5837 H   0  0  0  0  0  0  0  0  0  0  0  0
    1.8179   -2.9539   -3.9438 H   0  0  0  0  0  0  0  0  0  0  0  0
    2.1537    2.4134   -2.0096 H   0  0  0  0  0  0  0  0  0  0  0  0
    0.2006    2.9146    1.0461 H   0  0  0  0  0  0  0  0  0  0  0  0
   -0.3361    7.3874    5.0072 H   0  0  0  0  0  0  0  0  0  0  0  0
   -2.6313    3.8008    5.8910 H   0  0  0  0  0  0  0  0  0  0  0  0
   -0.3519    1.1885    4.2942 H   0  0  0  0  0  0  0  0  0  0  0  0
   -2.0846   -2.0622    4.1289 H   0  0  0  0  0  0  0  0  0  0  0  0
   -0.5172   -1.2608    3.8880 H   0  0  0  0  0  0  0  0  0  0  0  0
   -1.3449   -0.4963    1.5802 H   0  0  0  0  0  0  0  0  0  0  0  0
   -2.8277   -1.4283    1.8881 H   0  0  0  0  0  0  0  0  0  0  0  0
   -2.8193   -3.4000    0.6705 H   0  0  0  0  0  0  0  0  0  0  0  0
   -1.2502   -4.0797    0.1433 H   0  0  0  0  0  0  0  0  0  0  0  0
   -1.7399   -2.4678   -0.4098 H   0  0  0  0  0  0  0  0  0  0  0  0
    0.7853   -2.2396    2.4421 H   0  0  0  0  0  0  0  0  0  0  0  0
    0.5967   -1.7177    0.7404 H   0  0  0  0  0  0  0  0  0  0  0  0
    0.7387   -3.4431    1.1353 H   0  0  0  0  0  0  0  0  0  0  0  0
   -4.6133    1.8299    4.7706 H   0  0  0  0  0  0  0  0  0  0  0  0
   -0.7606    3.1209    2.7653 H   0  0  0  0  0  0  0  0  0  0  0  0
    1.9458    6.7997    1.7405 H   0  0  0  0  0  0  0  0  0  0  0  0
    3.3403    6.5033   -0.3273 H   0  0  0  0  0  0  0  0  0  0  0  0
    3.1429    4.4364   -1.6705 H   0  0  0  0  0  0  0  0  0  0  0  0
    0.5862   -4.7636   -6.2660 H   0  0  0  0  0  0  0  0  0  0  0  0
    3.4447   -5.8833   -7.6357 H   0  0  0  0  0  0  0  0  0  0  0  0
    1.7145   -5.6121   -8.0117 H   0  0  0  0  0  0  0  0  0  0  0  0
    2.3227   -7.2534   -7.6184 H   0  0  0  0  0  0  0  0  0  0  0  0
   -0.5486   -3.8319   -2.3718 H   0  0  0  0  0  0  0  0  0  0  0  0
   -2.3804   -2.1171   -2.9774 H   0  0  0  0  0  0  0  0  0  0  0  0
   -3.0953   -3.6329   -2.3676 H   0  0  0  0  0  0  0  0  0  0  0  0
   -2.9654   -3.3453   -4.1320 H   0  0  0  0  0  0  0  0  0  0  0  0
   -0.5071   -1.0386   -1.4080 H   0  0  0  0  0  0  0  0  0  0  0  0
    0.2721   -1.5120   -3.0359 H   0  0  0  0  0  0  0  0  0  0  0  0
    1.6205    0.5592   -2.9635 H   0  0  0  0  0  0  0  0  0  0  0  0
  1  2  2  0  0  0  0
  2  3  1  0  0  0  0
  2 39  1  0  0  0  0
  3 38  1  1  0  0  0
  3  4  1  0  0  0  0
  4  5  1  0  0  0  0
  6  7  2  0  0  0  0
  6 71  1  0  0  0  0
  7  8  1  0  0  0  0
  8 33  2  0  0  0  0
  9  8  1  0  0  0  0
  9 10  1  0  0  0  0
 10 11  1  0  0  0  0
 11 44  1  0  0  0  0
 11 12  2  0  0  0  0
 12 13  1  0  0  0  0
 13 29  2  0  0  0  0
 13 14  1  0  0  0  0
 14 15  2  0  0  0  0
 15 45  1  0  0  0  0
 15 16  1  0  0  0  0
 17 18  1  0  0  0  0
 17 16  2  0  0  0  0
 18 46  1  0  0  0  0
 19 18  1  0  0  0  0
 20 19  2  0  0  0  0
 21 27  1  0  0  0  0
 21 20  1  0  0  0  0
 22 49  1  0  0  0  0
 22 21  1  0  0  0  0
 22 48  1  0  0  0  0
 23 22  1  0  0  0  0
 24 23  1  0  0  0  0
 25 52  1  0  0  0  0
 25 24  1  0  0  0  0
 26 24  1  0  0  0  0
 26 55  1  0  0  0  0
 27 28  2  0  0  0  0
 28 19  1  0  0  0  0
 28 58  1  0  0  0  0
 29 17  1  0  0  0  0
 30 12  1  0  0  0  0
 30 60  1  0  0  0  0
 31 30  2  0  0  0  0
 32 10  2  0  0  0  0
 32 31  1  0  0  0  0
 34  3  1  0  0  0  0
 35 34  1  0  0  0  0
 35 37  2  0  0  0  0
 36 35  1  0  0  0  0
 39 40  1  0  0  0  0
 39 67  1  0  0  0  0
 40 68  1  0  0  0  0
 40 69  1  0  0  0  0
 41  4  1  0  0  0  0
 42  4  1  0  0  0  0
 43  9  1  0  0  0  0
 47 20  1  0  0  0  0
 50 23  1  0  0  0  0
 51 23  1  0  0  0  0
 53 25  1  0  0  0  0
 54 25  1  0  0  0  0
 56 26  1  0  0  0  0
 57 26  1  0  0  0  0
 59 29  1  0  0  0  0
 61 31  1  0  0  0  0
 62 32  1  0  0  0  0
 63 34  1  0  0  0  0
 64 36  1  0  0  0  0
 65 36  1  0  0  0  0
 66 36  1  0  0  0  0
 70 40  1  0  0  0  0
 72  6  1  0  0  0  0
 73  7  1  0  0  0  0
M  END
