73
-1 1
O        -1.136781   -4.109577   -5.458866
C        -0.606942   -4.225721   -4.354635
C         0.798494   -4.837231   -4.210080
C         1.792696   -3.939564   -3.439117
S         1.465733   -3.760682   -1.649605
C         0.194780   -0.805353   -2.211009
C         0.907432    0.324994   -2.166564
C         0.769379    1.279691   -1.042305
N         1.561937    2.405457   -1.190010
C         1.646355    3.544695   -0.384908
C         0.879231    3.717714    0.773367
C         0.992378    4.887811    1.532610
C         0.184370    5.076112    2.772733
N         0.299604    6.259377    3.404826
C        -0.421803    6.416833    4.502347
N        -1.235867    5.537325    5.070665
C        -1.345316    4.349285    4.458303
N        -2.169969    3.447351    5.061934
C        -2.377428    2.112923    4.689139
C        -1.435775    1.146945    4.365365
N        -2.125097    0.014143    4.100799
C        -1.579478   -1.237480    3.608916
C        -1.747291   -1.394745    2.097528
N        -1.128540   -2.618854    1.639149
C        -1.764647   -3.160322    0.458002
C         0.310769   -2.491718    1.480011
N        -3.438320    0.169855    4.238378
C        -3.614221    1.436368    4.588241
C        -0.644945    4.077467    3.268524
C         1.877157    5.896023    1.135095
C         2.644257    5.722166   -0.013016
C         2.535470    4.560958   -0.769517
O         0.024754    1.114237   -0.091387
N         1.233867   -5.112375   -5.563463
C         2.206380   -5.989983   -5.890618
C         2.416205   -6.182719   -7.387390
O         2.891832   -6.589905   -5.080764
H         0.715709   -5.783519   -3.646738
N        -1.182926   -3.845548   -3.201689
C        -2.467938   -3.202116   -3.163579
H         2.781342   -4.397093   -3.583668
H         1.817887   -2.953883   -3.943763
H         2.153724    2.413449   -2.009616
H         0.200623    2.914630    1.046078
H        -0.336110    7.387399    5.007159
H        -2.631327    3.800829    5.891014
H        -0.351852    1.188547    4.294185
H        -2.084637   -2.062180    4.128914
H        -0.517237   -1.260809    3.887963
H        -1.344886   -0.496259    1.580245
H        -2.827700   -1.428257    1.888069
H        -2.819323   -3.399963    0.670517
H        -1.250222   -4.079735    0.143281
H        -1.739941   -2.467796   -0.409833
H         0.785304   -2.239571    2.442050
H         0.596739   -1.717664    0.740376
H         0.738697   -3.443079    1.135250
H        -4.613337    1.829940    4.770583
H        -0.760618    3.120944    2.765343
H         1.945819    6.799691    1.740470
H         3.340258    6.503329   -0.327347
H         3.142944    4.436387   -1.670534
H         0.586247   -4.763580   -6.265960
H         3.444669   -5.883260   -7.635710
H         1.714527   -5.612076   -8.011739
H         2.322679   -7.253382   -7.618356
H        -0.548573   -3.831906   -2.371783
H        -2.380383   -2.117145   -2.977378
H        -3.095338   -3.632860   -2.367629
H        -2.965352   -3.345270   -4.131954
H        -0.507112   -1.038604   -1.407990
H         0.272052   -1.511990   -3.035932
H         1.620534    0.559190   -2.963538
