66
-1 1
O        -4.443365   -9.143659   -1.783132
C        -4.025403   -8.140278   -2.340366
C        -3.604367   -8.145243   -3.813764
C        -4.748802   -7.619514   -4.701387
S        -4.328509   -7.436018   -6.460245
C        -2.776748   -5.499799   -6.205829
C        -1.692006   -5.746206   -5.390690
C        -1.751489   -5.498485   -3.977498
N        -0.783280   -6.201681   -3.239073
C        -0.687490   -6.213334   -1.853876
C        -0.996629   -5.090044   -1.074661
C        -0.896710   -5.134106    0.318622
C        -1.327249   -3.970814    1.132492
N        -0.858121   -3.873666    2.395779
C        -1.265842   -2.838336    3.101010
N        -2.088870   -1.862060    2.719432
C        -2.570595   -1.955690    1.477081
N        -3.432309   -0.993341    1.028127
C        -3.905078    0.114597    1.724491
C        -3.629761    0.554549    3.007860
N        -4.349784    1.699565    3.175212
C        -4.471565    2.477635    4.383898
C        -5.783781    2.199754    5.118474
O        -5.908253    2.979072    6.277490
N        -5.072537    2.017624    2.106821
C        -4.814174    1.073654    1.212818
C        -2.213618   -3.024229    0.633127
C        -0.435214   -6.293449    0.953284
C        -0.119465   -7.408279    0.180017
C        -0.253709   -7.381959   -1.204397
O        -2.599576   -4.799215   -3.401284
N        -3.153351   -9.453245   -4.208765
C        -1.858738   -9.773867   -4.380593
C        -1.604965  -11.157307   -4.946512
O        -0.920218   -9.020124   -4.138441
H        -2.744220   -7.489252   -3.936811
N        -3.930153   -6.924528   -1.749972
C        -4.234571   -6.718686   -0.358942
H        -5.615053   -8.295861   -4.588577
H        -5.056954   -6.647643   -4.285237
H        -0.506441   -7.078215   -3.684084
H        -1.327545   -4.190386   -1.586538
H        -0.883886   -2.764051    4.127171
H        -3.770662   -1.103631    0.082570
H        -2.981593    0.136106    3.768741
H        -4.411657    3.545618    4.130020
H        -3.612991    2.232528    5.028259
H        -5.861923    1.115174    5.326319
H        -6.618479    2.462968    4.453291
H        -5.276811    2.659616    6.927821
H        -5.277381    1.103408    0.226924
H        -2.637490   -3.117322   -0.367906
H        -0.350774   -6.306782    2.040285
H         0.218652   -8.327058    0.665394
H        -0.047528   -8.270120   -1.806490
H        -3.860653  -10.147051   -4.406922
H        -1.424649  -11.055361   -6.027124
H        -2.446161  -11.848228   -4.795973
H        -0.698615  -11.569178   -4.485007
H        -3.521894   -6.145880   -2.275228
H        -4.697665   -7.635479    0.028240
H        -4.934958   -5.878444   -0.224176
H        -3.322466   -6.509356    0.224325
H        -0.846847   -6.325601   -5.770301
H        -2.669570   -5.539245   -7.289124
H        -3.587880   -4.875252   -5.826904
