66
-1 1
O        -0.176769   -5.133286   -1.229998
C        -0.703837   -4.255660   -1.887579
C        -0.796396   -4.282632   -3.413879
C        -2.203809   -4.801284   -3.831083
S        -2.293757   -5.335577   -5.570359
C         0.189622   -0.306817   -5.322274
C         0.811043   -1.070762   -4.424691
C         0.872526   -0.662087   -2.984403
N         1.409654   -1.625079   -2.183928
C         1.525226   -1.611487   -0.792031
C         1.254683   -0.483699   -0.009644
C         1.361488   -0.543142    1.386034
C         1.044371    0.645237    2.221235
N         1.332492    0.574194    3.539442
C         1.045992    1.629929    4.272379
N         0.502389    2.778610    3.871926
C         0.206994    2.861090    2.572208
N        -0.358261    4.011304    2.096065
C        -0.688956    5.156134    2.815372
C        -0.526875    5.453172    4.157758
N        -1.008286    6.717110    4.323453
C        -1.145708    7.436229    5.566943
C        -2.583624    7.417607    6.087510
O        -2.716252    8.144092    7.279028
N        -1.476501    7.244734    3.197904
C        -1.288209    6.318091    2.269120
C         0.463255    1.791481    1.693097
C         1.757256   -1.734197    2.003113
C         2.031795   -2.853994    1.220348
C         1.919226   -2.804567   -0.162912
O         0.462163    0.424700   -2.599803
N         0.189547   -5.155449   -3.987490
C         1.505733   -4.979004   -3.923255
C         2.343351   -6.017585   -4.636456
O         2.062327   -4.054020   -3.315149
H        -0.670232   -3.258648   -3.809771
N        -1.331706   -3.182861   -1.327481
C        -1.484001   -3.016230    0.094562
H        -2.458352   -5.639036   -3.159116
H        -2.922330   -3.993298   -3.620789
H         1.638812   -2.531018   -2.630999
H         0.954248    0.422698   -0.526942
H         1.282052    1.562099    5.341845
H        -0.564442    4.032096    1.107423
H        -0.104719    4.860991    4.961063
H        -0.822930    8.476275    5.416486
H        -0.467124    6.972043    6.299286
H        -2.919918    6.367893    6.190824
H        -3.232007    7.893057    5.337783
H        -2.277701    7.658099    7.982729
H        -1.579078    6.503793    1.235481
H         0.201318    1.866934    0.637752
H         1.837473   -1.763957    3.089760
H         2.324747   -3.792515    1.695957
H         2.098388   -3.692402   -0.772958
H        -0.235864   -5.755138   -4.716771
H         3.153251   -5.510655   -5.177498
H         1.755585   -6.635007   -5.328607
H         2.801856   -6.670131   -3.878622
H        -1.721803   -2.485128   -1.946504
H        -0.936744   -3.833421    0.580626
H        -2.542988   -3.066398    0.399630
H        -1.056728   -2.060554    0.436839
H         1.268620   -2.024388   -4.703262
H         0.112464   -0.606741   -6.369259
H        -0.267261    0.636111   -5.008836
