-1 1
 OpenBabel05192410563D

 72 74  0  0  1  0  0  0  0  0999 V2000
   -1.8583   -4.2101    2.9609 O   0  0  0  0  0  0  0  0  0  0  0  0
   -2.5866   -3.2995    2.5742 C   0  0  0  0  0  0  0  0  0  0  0  0
   -3.5324   -2.5893    3.5508 C   0  0  2  0  0  0  0  0  0  0  0  0
   -2.8010   -1.3564    4.1131 C   0  0  0  0  0  0  0  0  0  0  0  0
   -3.8088   -0.2592    5.1302 S   0  0  0  0  0  0  0  0  0  0  0  0
   -4.8962    0.5123    3.7807 C   0  0  2  0  0  0  0  0  0  0  0  0
   -4.1217    1.0485    2.6413 C   0  0  0  0  0  3  0  0  0  0  0  0
   -3.9551    0.3309    1.4723 C   0  0  0  0  0  0  0  0  0  0  0  0
   -3.0431    0.9098    0.5199 N   0  0  0  0  0  0  0  0  0  0  0  0
   -2.5904    0.3332   -0.6428 C   0  0  0  0  0  0  0  0  0  0  0  0
   -1.3015    0.6471   -1.1139 C   0  0  0  0  0  0  0  0  0  0  0  0
   -0.7978    0.1148   -2.3061 C   0  0  0  0  0  0  0  0  0  0  0  0
    0.5757    0.4353   -2.7698 C   0  0  0  0  0  0  0  0  0  0  0  0
    0.8609    0.2199   -4.0731 N   0  0  0  0  0  0  0  0  0  0  0  0
    2.0818    0.5073   -4.4740 C   0  0  0  0  0  0  0  0  0  0  0  0
    3.0874    0.9946   -3.7474 N   0  0  0  0  0  0  0  0  0  0  0  0
    2.8256    1.1978   -2.4544 C   0  0  0  0  0  0  0  0  0  0  0  0
    3.8203    1.6813   -1.6488 N   0  0  0  0  0  0  0  0  0  0  0  0
    5.1272    1.9984   -2.0075 C   0  0  0  0  0  0  0  0  0  0  0  0
    5.7722    1.9135   -3.2298 C   0  0  0  0  0  0  0  0  0  0  0  0
    7.0488    2.3360   -3.0102 N   0  0  0  0  0  0  0  0  0  0  0  0
    8.0851    2.5188   -3.9979 C   0  0  0  0  0  0  0  0  0  0  0  0
    8.1892    3.9815   -4.4386 C   0  0  0  0  0  0  0  0  0  0  0  0
    9.2021    4.1774   -5.3834 O   0  0  0  0  0  0  0  0  0  0  0  0
   10.4816    4.3397   -4.8467 C   0  0  0  0  0  0  0  0  0  0  0  0
    7.2661    2.6969   -1.7502 N   0  0  0  0  0  0  0  0  0  0  0  0
    6.1158    2.4953   -1.1228 C   0  0  0  0  0  0  0  0  0  0  0  0
    1.5572    0.9187   -1.9116 C   0  0  0  0  0  0  0  0  0  0  0  0
   -1.5905   -0.7561   -3.0616 C   0  0  0  0  0  0  0  0  0  0  0  0
   -2.8647   -1.0810   -2.5979 C   0  0  0  0  0  0  0  0  0  0  0  0
   -3.3728   -0.5534   -1.4178 C   0  0  0  0  0  0  0  0  0  0  0  0
   -4.4767   -0.7804    1.1665 O   0  0  0  0  0  0  0  0  0  0  0  0
   -5.7550    1.5464    4.5019 C   0  0  0  0  0  0  0  0  0  0  0  0
   -3.9090   -3.5252    4.5780 N   0  0  0  0  0  0  0  0  0  0  0  0
   -5.1813   -3.7010    5.0130 C   0  0  0  0  0  0  0  0  0  0  0  0
   -5.3310   -4.7427    6.1117 C   0  0  0  0  0  0  0  0  0  0  0  0
   -6.1381   -3.0696    4.6061 O   0  0  0  0  0  0  0  0  0  0  0  0
   -4.4337   -2.2560    3.0180 H   0  0  0  0  0  0  0  0  0  0  0  0
   -2.6018   -2.7897    1.3324 N   0  0  0  0  0  0  0  0  0  0  0  0
   -1.7061   -3.2305    0.2963 C   0  0  0  0  0  0  0  0  0  0  0  0
   -1.9537   -1.6862    4.7345 H   0  0  0  0  0  0  0  0  0  0  0  0
   -2.4004   -0.7593    3.2793 H   0  0  0  0  0  0  0  0  0  0  0  0
   -2.4404    1.6213    0.9102 H   0  0  0  0  0  0  0  0  0  0  0  0
   -0.6957    1.3394   -0.5233 H   0  0  0  0  0  0  0  0  0  0  0  0
    2.3041    0.3281   -5.5335 H   0  0  0  0  0  0  0  0  0  0  0  0
    3.5827    1.8155   -0.6765 H   0  0  0  0  0  0  0  0  0  0  0  0
    5.4088    1.5807   -4.1949 H   0  0  0  0  0  0  0  0  0  0  0  0
    7.8599    1.8827   -4.8650 H   0  0  0  0  0  0  0  0  0  0  0  0
    9.0326    2.1756   -3.5585 H   0  0  0  0  0  0  0  0  0  0  0  0
    8.3380    4.6133   -3.5422 H   0  0  0  0  0  0  0  0  0  0  0  0
    7.2394    4.2839   -4.9060 H   0  0  0  0  0  0  0  0  0  0  0  0
   11.1735    4.5139   -5.6820 H   0  0  0  0  0  0  0  0  0  0  0  0
   10.8322    3.4497   -4.2905 H   0  0  0  0  0  0  0  0  0  0  0  0
   10.5312    5.2081   -4.1616 H   0  0  0  0  0  0  0  0  0  0  0  0
    6.0234    2.7026   -0.0569 H   0  0  0  0  0  0  0  0  0  0  0  0
    1.3647    1.0576   -0.8475 H   0  0  0  0  0  0  0  0  0  0  0  0
   -1.1964   -1.1633   -3.9925 H   0  0  0  0  0  0  0  0  0  0  0  0
   -3.4887   -1.7662   -3.1779 H   0  0  0  0  0  0  0  0  0  0  0  0
   -4.3642   -0.8145   -1.0537 H   0  0  0  0  0  0  0  0  0  0  0  0
   -6.2793    1.1109    5.3676 H   0  0  0  0  0  0  0  0  0  0  0  0
   -6.5056    1.9466    3.8034 H   0  0  0  0  0  0  0  0  0  0  0  0
   -5.1408    2.3899    4.8583 H   0  0  0  0  0  0  0  0  0  0  0  0
   -3.1820   -4.1860    4.8296 H   0  0  0  0  0  0  0  0  0  0  0  0
   -6.2977   -5.2477    5.9899 H   0  0  0  0  0  0  0  0  0  0  0  0
   -5.3381   -4.2240    7.0823 H   0  0  0  0  0  0  0  0  0  0  0  0
   -4.5205   -5.4860    6.1190 H   0  0  0  0  0  0  0  0  0  0  0  0
   -3.3039   -2.0477    1.1321 H   0  0  0  0  0  0  0  0  0  0  0  0
   -2.2318   -3.8162   -0.4771 H   0  0  0  0  0  0  0  0  0  0  0  0
   -0.9303   -3.8658    0.7447 H   0  0  0  0  0  0  0  0  0  0  0  0
   -1.2359   -2.3682   -0.2028 H   0  0  0  0  0  0  0  0  0  0  0  0
   -3.5964    2.0004    2.7788 H   0  0  0  0  0  0  0  0  0  0  0  0
   -5.5325   -0.3169    3.4395 H   0  0  0  0  0  0  0  0  0  0  0  0
  2  1  2  0  0  0  0
  2  3  1  0  0  0  0
  3 38  1  6  0  0  0
  3  4  1  0  0  0  0
  3 34  1  0  0  0  0
  4 41  1  0  0  0  0
  4  5  1  0  0  0  0
  6 72  1  6  0  0  0
  6 33  1  0  0  0  0
  6  5  1  0  0  0  0
  7 71  1  0  0  0  0
  7  6  1  0  0  0  0
  8  7  1  0  0  0  0
  9 43  1  0  0  0  0
  9  8  1  0  0  0  0
 10  9  1  0  0  0  0
 11 10  1  0  0  0  0
 11 44  1  0  0  0  0
 12 11  2  0  0  0  0
 13 12  1  0  0  0  0
 13 28  2  0  0  0  0
 14 13  1  0  0  0  0
 15 14  2  0  0  0  0
 15 16  1  0  0  0  0
 16 17  2  0  0  0  0
 17 28  1  0  0  0  0
 17 18  1  0  0  0  0
 18 46  1  0  0  0  0
 19 18  1  0  0  0  0
 19 27  1  0  0  0  0
 20 21  1  0  0  0  0
 20 19  2  0  0  0  0
 21 26  1  0  0  0  0
 22 49  1  0  0  0  0
 22 21  1  0  0  0  0
 23 22  1  0  0  0  0
 23 50  1  0  0  0  0
 24 25  1  0  0  0  0
 24 23  1  0  0  0  0
 25 53  1  0  0  0  0
 25 54  1  0  0  0  0
 26 27  2  0  0  0  0
 27 55  1  0  0  0  0
 28 56  1  0  0  0  0
 29 30  2  0  0  0  0
 29 12  1  0  0  0  0
 30 31  1  0  0  0  0
 31 59  1  0  0  0  0
 31 10  2  0  0  0  0
 32  8  2  0  0  0  0
 33 62  1  0  0  0  0
 33 60  1  0  0  0  0
 34 63  1  0  0  0  0
 34 35  1  0  0  0  0
 35 36  1  0  0  0  0
 36 66  1  0  0  0  0
 36 65  1  0  0  0  0
 37 35  2  0  0  0  0
 39  2  1  0  0  0  0
 40 69  1  0  0  0  0
 40 39  1  0  0  0  0
 42  4  1  0  0  0  0
 45 15  1  0  0  0  0
 47 20  1  0  0  0  0
 48 22  1  0  0  0  0
 51 23  1  0  0  0  0
 52 25  1  0  0  0  0
 57 29  1  0  0  0  0
 58 30  1  0  0  0  0
 61 33  1  0  0  0  0
 64 36  1  0  0  0  0
 67 39  1  0  0  0  0
 68 40  1  0  0  0  0
 70 40  1  0  0  0  0
M  END
