72
-1 1
O         0.667340    0.291222    1.352956
C        -0.420079   -0.281880    1.415816
C        -1.593501    0.247234    2.240401
C        -2.048123    1.627263    1.739760
S        -3.584165    2.202746    2.549246
C        -4.247902   -2.575602    2.759215
C        -4.604771   -1.426774    2.177813
C        -4.331294   -1.200283    0.727736
N        -4.664891    0.049762    0.291936
C        -4.282271    0.550058   -0.979158
C        -2.971279    0.405214   -1.430138
C        -2.529370    1.026938   -2.597590
C        -1.076036    1.006342   -2.901325
N        -0.656901    1.044779   -4.184729
C         0.651885    0.996648   -4.362211
N         1.607765    0.882070   -3.438883
C         1.196737    0.860199   -2.163996
N         2.083718    0.719617   -1.145910
C         3.455474    0.538768   -1.249673
C         4.288375    0.527834   -2.355594
N         5.543464    0.288509   -1.878044
C         6.773851    0.285499   -2.628667
C         7.501369    1.628145   -2.519451
O         8.715169    1.633420   -3.218715
C         9.794758    1.091697   -2.518527
N         5.577856    0.160221   -0.553799
C         4.322283    0.302019   -0.153000
C        -0.173575    0.971190   -1.854364
C        -3.446615    1.730187   -3.387195
C        -4.766284    1.850762   -2.959652
C        -5.183848    1.280579   -1.754105
O        -3.818472   -2.056586    0.014703
C        -4.318501   -2.864758    4.220664
N        -1.291368    0.339514    3.650621
C        -1.191288   -0.772300    4.414098
C        -1.259928   -0.537151    5.911002
O        -1.080287   -1.895580    3.943562
H        -2.423445   -0.460401    2.118666
N        -0.717644   -1.376776    0.683604
C         0.220613   -2.037863   -0.187310
H        -1.218123    2.333930    1.907213
H        -2.190825    1.568985    0.651029
H        -4.732509    0.779446    1.033085
H        -2.277719   -0.183217   -0.834740
H         1.002651    1.046045   -5.401203
H         1.675611    0.626923   -0.206009
H         4.062478    0.656628   -3.407964
H         6.544484    0.069660   -3.681574
H         7.403097   -0.529150   -2.241917
H         7.646208    1.866473   -1.448614
H         6.867788    2.416602   -2.953858
H        10.684266    1.177290   -3.157908
H         9.654203    0.023141   -2.267365
H         9.986619    1.637194   -1.574146
H         4.054047    0.227712    0.900196
H        -0.490553    1.029589   -0.816034
H        -3.102947    2.198073   -4.311644
H        -5.481226    2.416990   -3.561410
H        -6.209877    1.402548   -1.401707
H        -3.288405   -2.957590    4.605278
H        -4.834560   -3.817760    4.421117
H        -4.827412   -2.060769    4.772156
H        -1.669660    1.185209    4.076807
H        -0.687250   -1.320809    6.422224
H        -2.312074   -0.612849    6.227301
H        -0.884334    0.454015    6.200352
H        -1.641386   -1.789319    0.785028
H         0.123573   -3.127442   -0.082062
H         1.240596   -1.744313    0.092035
H         0.057963   -1.771476   -1.245046
H        -5.002856   -0.587746    2.757081
H        -3.806948   -3.343689    2.112871
