-1 1
 OpenBabel05232414493D

 72 73  0  0  1  0  0  0  0  0999 V2000
    1.2909   -3.1852   -0.8738 O   0  0  0  0  0  0  0  0  0  0  0  0
    0.2475   -2.6485   -1.2021 C   0  0  0  0  0  0  0  0  0  0  0  0
   -0.7726   -2.1282   -0.1840 C   0  0  2  0  0  0  0  0  0  0  0  0
   -0.2807   -0.7805    0.3746 C   0  0  0  0  0  0  0  0  0  0  0  0
   -1.3209   -0.0994    1.6882 S   0  0  0  0  0  1  0  0  0  0  0  0
   -2.9487    1.0239   -0.0680 C   0  0  0  0  0  3  0  0  0  0  0  0
   -2.1964    1.4328   -1.1364 C   0  0  0  0  0  3  0  0  0  0  0  0
   -1.9520    0.5772   -2.2758 C   0  0  0  0  0  0  0  0  0  0  0  0
   -0.9960    1.0871   -3.1676 N   0  0  0  0  0  0  0  0  0  0  0  0
   -0.5486    0.5122   -4.3503 C   0  0  0  0  0  0  0  0  0  0  0  0
    0.7440    0.8178   -4.7995 C   0  0  0  0  0  0  0  0  0  0  0  0
    1.2391    0.3069   -6.0023 C   0  0  0  0  0  0  0  0  0  0  0  0
    2.6288    0.5930   -6.4408 C   0  0  0  0  0  0  0  0  0  0  0  0
    2.8862    0.5403   -7.7649 N   0  0  0  0  0  0  0  0  0  0  0  0
    4.1253    0.7923   -8.1372 C   0  0  0  0  0  0  0  0  0  0  0  0
    5.1646    1.0958   -7.3611 N   0  0  0  0  0  0  0  0  0  0  0  0
    4.9274    1.1300   -6.0476 C   0  0  0  0  0  0  0  0  0  0  0  0
    5.9583    1.4125   -5.1978 N   0  0  0  0  0  0  0  0  0  0  0  0
    7.2858    1.6749   -5.5280 C   0  0  0  0  0  0  0  0  0  0  0  0
    7.9165    1.7176   -6.7598 C   0  0  0  0  0  0  0  0  0  0  0  0
    9.2230    2.0029   -6.5016 N   0  0  0  0  0  0  0  0  0  0  0  0
   10.2671    2.2448   -7.4685 C   0  0  0  0  0  0  0  0  0  0  0  0
   10.4866    3.7433   -7.6944 C   0  0  0  0  0  0  0  0  0  0  0  0
   11.5077    3.9935   -8.6169 O   0  0  0  0  0  0  0  0  0  0  0  0
   12.7986    3.9761   -8.0825 C   0  0  0  0  0  0  0  0  0  0  0  0
    9.4734    2.1597   -5.2061 N   0  0  0  0  0  0  0  0  0  0  0  0
    8.3138    1.9599   -4.5961 C   0  0  0  0  0  0  0  0  0  0  0  0
    3.6406    0.8737   -5.5325 C   0  0  0  0  0  0  0  0  0  0  0  0
    0.4258   -0.5186   -6.7858 C   0  0  0  0  0  0  0  0  0  0  0  0
   -0.8517   -0.8389   -6.3345 C   0  0  0  0  0  0  0  0  0  0  0  0
   -1.3473   -0.3388   -5.1345 C   0  0  0  0  0  0  0  0  0  0  0  0
   -2.5007   -0.5013   -2.5012 O   0  0  0  0  0  0  0  0  0  0  0  0
   -3.5007    1.9843    0.9419 C   0  0  0  0  0  0  0  0  0  0  0  0
   -0.9410   -3.0566    0.9050 N   0  0  0  0  0  0  0  0  0  0  0  0
   -1.3700   -4.3224    0.7194 C   0  0  0  0  0  0  0  0  0  0  0  0
   -1.5703   -5.1247    1.9962 C   0  0  0  0  0  0  0  0  0  0  0  0
   -1.5471   -4.8209   -0.3803 O   0  0  0  0  0  0  0  0  0  0  0  0
   -1.7369   -1.9659   -0.6952 H   0  0  0  0  0  0  0  0  0  0  0  0
   -0.0849   -2.3680   -2.4898 N   0  0  0  0  0  0  0  0  0  0  0  0
    0.7395   -2.7701   -3.5965 C   0  0  0  0  0  0  0  0  0  0  0  0
    0.7526   -0.9130    0.7338 H   0  0  0  0  0  0  0  0  0  0  0  0
   -0.2389   -0.0636   -0.4661 H   0  0  0  0  0  0  0  0  0  0  0  0
   -0.4290    1.8404   -2.8028 H   0  0  0  0  0  0  0  0  0  0  0  0
    1.3652    1.4773   -4.1881 H   0  0  0  0  0  0  0  0  0  0  0  0
    4.3314    0.7498   -9.2139 H   0  0  0  0  0  0  0  0  0  0  0  0
    5.7394    1.4110   -4.2116 H   0  0  0  0  0  0  0  0  0  0  0  0
    7.5252    1.5570   -7.7574 H   0  0  0  0  0  0  0  0  0  0  0  0
    9.9882    1.7613   -8.4148 H   0  0  0  0  0  0  0  0  0  0  0  0
   11.1853    1.7676   -7.0979 H   0  0  0  0  0  0  0  0  0  0  0  0
   10.6896    4.2241   -6.7184 H   0  0  0  0  0  0  0  0  0  0  0  0
    9.5622    4.1846   -8.0979 H   0  0  0  0  0  0  0  0  0  0  0  0
   13.4987    4.2119   -8.8955 H   0  0  0  0  0  0  0  0  0  0  0  0
   13.0784    2.9911   -7.6632 H   0  0  0  0  0  0  0  0  0  0  0  0
   12.9207    4.7316   -7.2825 H   0  0  0  0  0  0  0  0  0  0  0  0
    8.2426    2.0165   -3.5102 H   0  0  0  0  0  0  0  0  0  0  0  0
    3.4590    0.8643   -4.4570 H   0  0  0  0  0  0  0  0  0  0  0  0
    0.8137   -0.9058   -7.7282 H   0  0  0  0  0  0  0  0  0  0  0  0
   -1.4851   -1.4990   -6.9318 H   0  0  0  0  0  0  0  0  0  0  0  0
   -2.3422   -0.6024   -4.7822 H   0  0  0  0  0  0  0  0  0  0  0  0
   -3.7499    1.4783    1.8832 H   0  0  0  0  0  0  0  0  0  0  0  0
   -4.4212    2.4463    0.5394 H   0  0  0  0  0  0  0  0  0  0  0  0
   -2.7836    2.7882    1.1616 H   0  0  0  0  0  0  0  0  0  0  0  0
   -1.0334   -2.6061    1.8139 H   0  0  0  0  0  0  0  0  0  0  0  0
   -0.6736   -5.7392    2.1687 H   0  0  0  0  0  0  0  0  0  0  0  0
   -2.4232   -5.8015    1.8566 H   0  0  0  0  0  0  0  0  0  0  0  0
   -1.7357   -4.4932    2.8808 H   0  0  0  0  0  0  0  0  0  0  0  0
   -0.9917   -1.9390   -2.6667 H   0  0  0  0  0  0  0  0  0  0  0  0
    0.2183   -3.4907   -4.2487 H   0  0  0  0  0  0  0  0  0  0  0  0
    1.6345   -3.2541   -3.1841 H   0  0  0  0  0  0  0  0  0  0  0  0
    1.0471   -1.9106   -4.2140 H   0  0  0  0  0  0  0  0  0  0  0  0
   -1.7041    2.4110   -1.1065 H   0  0  0  0  0  0  0  0  0  0  0  0
   -3.4501    0.0578   -0.1614 H   0  0  0  0  0  0  0  0  0  0  0  0
  2  1  2  0  0  0  0
  2  3  1  0  0  0  0
  3 38  1  6  0  0  0
  3  4  1  0  0  0  0
  3 34  1  0  0  0  0
  4 41  1  0  0  0  0
  4  5  1  0  0  0  0
  6 33  1  0  0  0  0
  7 71  1  0  0  0  0
  7  6  1  0  0  0  0
  8  7  1  0  0  0  0
  9 43  1  0  0  0  0
  9  8  1  0  0  0  0
 10  9  1  0  0  0  0
 11 10  1  0  0  0  0
 11 44  1  0  0  0  0
 12 11  2  0  0  0  0
 13 12  1  0  0  0  0
 13 28  2  0  0  0  0
 14 13  1  0  0  0  0
 15 14  2  0  0  0  0
 15 16  1  0  0  0  0
 16 17  2  0  0  0  0
 17 28  1  0  0  0  0
 17 18  1  0  0  0  0
 18 46  1  0  0  0  0
 19 18  1  0  0  0  0
 19 27  1  0  0  0  0
 20 21  1  0  0  0  0
 20 19  2  0  0  0  0
 21 26  1  0  0  0  0
 22 49  1  0  0  0  0
 22 21  1  0  0  0  0
 23 22  1  0  0  0  0
 23 50  1  0  0  0  0
 24 25  1  0  0  0  0
 24 23  1  0  0  0  0
 25 53  1  0  0  0  0
 25 54  1  0  0  0  0
 26 27  2  0  0  0  0
 27 55  1  0  0  0  0
 28 56  1  0  0  0  0
 29 30  2  0  0  0  0
 29 12  1  0  0  0  0
 30 31  1  0  0  0  0
 31 59  1  0  0  0  0
 31 10  2  0  0  0  0
 32  8  2  0  0  0  0
 33 62  1  0  0  0  0
 33 60  1  0  0  0  0
 34 63  1  0  0  0  0
 35 34  1  0  0  0  0
 35 36  1  0  0  0  0
 36 64  1  0  0  0  0
 36 66  1  0  0  0  0
 37 35  2  0  0  0  0
 39  2  1  0  0  0  0
 40 69  1  0  0  0  0
 40 39  1  0  0  0  0
 42  4  1  0  0  0  0
 45 15  1  0  0  0  0
 47 20  1  0  0  0  0
 48 22  1  0  0  0  0
 51 23  1  0  0  0  0
 52 25  1  0  0  0  0
 57 29  1  0  0  0  0
 58 30  1  0  0  0  0
 61 33  1  0  0  0  0
 65 36  1  0  0  0  0
 67 39  1  0  0  0  0
 68 40  1  0  0  0  0
 70 40  1  0  0  0  0
 72  6  1  0  0  0  0
M  END
