78
-1 1
O        -4.125327   -3.914658    3.664354
C        -2.939850   -3.726396    3.418845
C        -2.414779   -3.759424    1.973430
C        -1.834030   -2.419441    1.472391
S        -0.305016   -1.840765    2.285914
C        -0.773327   -0.088834    2.945870
C         0.443852    0.603531    3.366621
C         1.178037    1.346299    2.433561
N         2.371267    1.940304    2.970768
C         3.381299    2.608294    2.323218
C         3.315298    2.911561    0.952329
C         4.350709    3.577334    0.298729
C         4.190450    3.840559   -1.153629
N         4.864599    4.857923   -1.721006
C         4.599916    5.087436   -2.999074
N         3.696492    4.487502   -3.765981
C         3.020132    3.473824   -3.201466
N         2.055073    2.895096   -3.978900
C         1.066563    1.956868   -3.622843
C         0.512701    1.859918   -2.335838
C        -0.454984    0.910567   -2.042921
C        -0.969161    0.054483   -3.033357
N        -1.972808   -0.882566   -2.720008
C        -2.361365   -1.813618   -3.757958
C        -3.255939   -2.904930   -3.193347
O        -4.390707   -2.358014   -2.558756
C        -4.002699   -1.518595   -1.497406
C        -3.117433   -0.378420   -1.974106
C        -0.436602    0.178952   -4.326323
C         0.577859    1.093151   -4.604692
C         3.314081    3.056539   -1.898042
C         5.483918    3.998877    1.006519
C         5.557645    3.709105    2.367269
C         4.534955    3.023718    3.021638
O         0.879012    1.536816    1.237392
C        -1.838640   -0.206492    4.026740
N        -3.531443   -4.180195    1.159921
C        -3.395547   -4.774918   -0.048039
C        -4.695024   -5.158896   -0.726122
O        -2.310872   -4.938076   -0.586222
H        -1.615419   -4.516666    1.904583
N        -2.013050   -3.508109    4.370250
C        -2.401411   -3.337542    5.747671
H        -1.622263   -2.547996    0.401576
H        -2.598227   -1.631285    1.571164
H         2.534651    1.739708    3.947303
H         2.401653    2.610753    0.447225
H         5.180314    5.885309   -3.480576
H         2.048121    3.240766   -4.930511
H         0.832438    2.511873   -1.524295
H        -0.776719    0.837880   -1.002228
H        -1.460991   -2.286997   -4.177260
H        -2.894609   -1.301507   -4.590652
H        -2.685253   -3.531803   -2.483119
H        -3.621772   -3.545879   -4.008634
H        -3.469124   -2.103268   -0.727488
H        -4.921345   -1.114948   -1.048001
H        -2.775947    0.184812   -1.095826
H        -3.718547    0.313413   -2.603804
H        -0.799609   -0.445966   -5.141719
H         0.991122    1.142137   -5.615992
H         2.853278    2.174816   -1.464063
H         6.277160    4.537878    0.486990
H         6.435592    4.020260    2.940416
H         4.623091    2.809028    4.091191
H        -2.708839   -0.811417    3.723539
H        -2.197082    0.802339    4.285749
H        -1.414535   -0.653857    4.940007
H        -4.419340   -4.177182    1.656097
H        -4.526261   -6.060943   -1.327614
H        -4.979815   -4.338947   -1.404992
H        -5.515007   -5.331495   -0.014714
H        -1.126171   -3.108190    4.042402
H        -3.062870   -4.159123    6.056302
H        -2.942779   -2.390187    5.913057
H        -1.502625   -3.343337    6.378228
H         0.808366    0.456151    4.388571
H        -1.174702    0.390689    2.040129
