-1 1
 OpenBabel05232413493D

 78 80  0  0  1  0  0  0  0  0999 V2000
   -4.4637   -3.4655    3.6546 O   0  0  0  0  0  0  0  0  0  0  0  0
   -3.4639   -4.1425    3.4118 C   0  0  0  0  0  0  0  0  0  0  0  0
   -3.1695   -4.6569    1.9923 C   0  0  2  0  0  0  0  0  0  0  0  0
   -1.8178   -4.1588    1.4291 C   0  0  0  0  0  0  0  0  0  0  0  0
   -0.3136   -4.7600    2.2755 S   0  0  0  0  0  1  0  0  0  0  0  0
   -0.4571   -0.4189    2.6930 C   0  0  0  0  0  0  0  0  0  0  0  0
    0.3757    0.5563    3.0831 C   0  0  0  0  0  0  0  0  0  0  0  0
    1.0170    1.4602    2.0973 C   0  0  0  0  0  0  0  0  0  0  0  0
    2.0514    2.2044    2.6388 N   0  0  0  0  0  0  0  0  0  0  0  0
    2.9701    3.0436    1.9962 C   0  0  0  0  0  0  0  0  0  0  0  0
    2.9672    3.2483    0.6128 C   0  0  0  0  0  0  0  0  0  0  0  0
    3.9354    4.0592    0.0093 C   0  0  0  0  0  0  0  0  0  0  0  0
    3.9497    4.2329   -1.4717 C   0  0  0  0  0  0  0  0  0  0  0  0
    4.7692    5.1693   -1.9896 N   0  0  0  0  0  0  0  0  0  0  0  0
    4.7570    5.2942   -3.3072 C   0  0  0  0  0  0  0  0  0  0  0  0
    4.0102    4.6314   -4.1846 N   0  0  0  0  0  0  0  0  0  0  0  0
    3.1855    3.7069   -3.6744 C   0  0  0  0  0  0  0  0  0  0  0  0
    2.3860    3.0248   -4.5408 N   0  0  0  0  0  0  0  0  0  0  0  0
    1.3587    2.1470   -4.0985 C   0  0  0  0  0  0  0  0  0  0  0  0
    0.2849    2.6460   -3.3606 C   0  0  0  0  0  0  0  0  0  0  0  0
   -0.6400    1.7952   -2.7721 C   0  0  0  0  0  0  0  0  0  0  0  0
   -0.5352    0.3951   -2.9083 C   0  0  0  0  0  0  0  0  0  0  0  0
   -1.4039   -0.4647   -2.2493 N   0  0  0  0  0  0  0  0  0  0  0  0
   -1.8727   -1.6655   -2.9304 C   0  0  0  0  0  0  0  0  0  0  0  0
   -2.4916   -2.6440   -1.9460 C   0  0  0  0  0  0  0  0  0  0  0  0
   -3.5029   -2.0146   -1.1989 O   0  0  0  0  0  0  0  0  0  0  0  0
   -2.9648   -0.9760   -0.4310 C   0  0  0  0  0  0  0  0  0  0  0  0
   -2.3529    0.1057   -1.3094 C   0  0  0  0  0  0  0  0  0  0  0  0
    0.5127   -0.0930   -3.7184 C   0  0  0  0  0  0  0  0  0  0  0  0
    1.4491    0.7652   -4.2806 C   0  0  0  0  0  0  0  0  0  0  0  0
    3.1515    3.4505   -2.2896 C   0  0  0  0  0  0  0  0  0  0  0  0
    4.8982    4.6995    0.7956 C   0  0  0  0  0  0  0  0  0  0  0  0
    4.8934    4.5074    2.1747 C   0  0  0  0  0  0  0  0  0  0  0  0
    3.9449    3.6860    2.7756 C   0  0  0  0  0  0  0  0  0  0  0  0
    0.6823    1.5343    0.9285 O   0  0  0  0  0  0  0  0  0  0  0  0
   -1.0875   -1.4320    3.5738 C   0  0  0  0  0  0  0  0  0  0  0  0
   -4.3024   -4.2309    1.1982 N   0  0  0  0  0  0  0  0  0  0  0  0
   -4.5860   -4.6262   -0.0595 C   0  0  0  0  0  0  0  0  0  0  0  0
   -5.8655   -4.0389   -0.6330 C   0  0  0  0  0  0  0  0  0  0  0  0
   -3.8782   -5.3712   -0.7221 O   0  0  0  0  0  0  0  0  0  0  0  0
   -3.1201   -5.7597    2.0209 H   0  0  0  0  0  0  0  0  0  0  0  0
   -2.5597   -4.4802    4.3429 N   0  0  0  0  0  0  0  0  0  0  0  0
   -2.6546   -3.9517    5.6766 C   0  0  0  0  0  0  0  0  0  0  0  0
   -1.8028   -4.4898    0.3821 H   0  0  0  0  0  0  0  0  0  0  0  0
   -1.8558   -3.0543    1.4227 H   0  0  0  0  0  0  0  0  0  0  0  0
    2.2319    2.0448    3.6207 H   0  0  0  0  0  0  0  0  0  0  0  0
    2.1876    2.7585    0.0366 H   0  0  0  0  0  0  0  0  0  0  0  0
    5.4399    6.0419   -3.7304 H   0  0  0  0  0  0  0  0  0  0  0  0
    2.4978    3.2552   -5.5204 H   0  0  0  0  0  0  0  0  0  0  0  0
    0.1950    3.7251   -3.2147 H   0  0  0  0  0  0  0  0  0  0  0  0
   -1.4465    2.2351   -2.1888 H   0  0  0  0  0  0  0  0  0  0  0  0
   -1.0381   -2.1677   -3.4348 H   0  0  0  0  0  0  0  0  0  0  0  0
   -2.6217   -1.3991   -3.7056 H   0  0  0  0  0  0  0  0  0  0  0  0
   -1.7147   -3.0396   -1.2667 H   0  0  0  0  0  0  0  0  0  0  0  0
   -2.9492   -3.4981   -2.4620 H   0  0  0  0  0  0  0  0  0  0  0  0
   -2.1968   -1.3769    0.2562 H   0  0  0  0  0  0  0  0  0  0  0  0
   -3.7771   -0.5521    0.1761 H   0  0  0  0  0  0  0  0  0  0  0  0
   -1.8239    0.8174   -0.6581 H   0  0  0  0  0  0  0  0  0  0  0  0
   -3.1654    0.6510   -1.8365 H   0  0  0  0  0  0  0  0  0  0  0  0
    0.6445   -1.1665   -3.8532 H   0  0  0  0  0  0  0  0  0  0  0  0
    2.2920    0.3544   -4.8411 H   0  0  0  0  0  0  0  0  0  0  0  0
    2.5151    2.6631   -1.8950 H   0  0  0  0  0  0  0  0  0  0  0  0
    5.6367    5.3354    0.3067 H   0  0  0  0  0  0  0  0  0  0  0  0
    5.6445    5.0004    2.7963 H   0  0  0  0  0  0  0  0  0  0  0  0
    3.9585    3.5373    3.8592 H   0  0  0  0  0  0  0  0  0  0  0  0
   -0.6782   -2.4380    3.3269 H   0  0  0  0  0  0  0  0  0  0  0  0
   -2.1747   -1.4901    3.4004 H   0  0  0  0  0  0  0  0  0  0  0  0
   -0.9048   -1.2252    4.6385 H   0  0  0  0  0  0  0  0  0  0  0  0
   -4.9490   -3.6446    1.7205 H   0  0  0  0  0  0  0  0  0  0  0  0
   -6.2887   -4.7522   -1.3517 H   0  0  0  0  0  0  0  0  0  0  0  0
   -5.5955   -3.1137   -1.1625 H   0  0  0  0  0  0  0  0  0  0  0  0
   -6.6115   -3.8012    0.1395 H   0  0  0  0  0  0  0  0  0  0  0  0
   -1.6375   -4.7890    3.9599 H   0  0  0  0  0  0  0  0  0  0  0  0
   -3.6109   -4.2346    6.1434 H   0  0  0  0  0  0  0  0  0  0  0  0
   -2.5973   -2.8489    5.6972 H   0  0  0  0  0  0  0  0  0  0  0  0
   -1.8314   -4.3572    6.2804 H   0  0  0  0  0  0  0  0  0  0  0  0
    0.6370    0.6634    4.1423 H   0  0  0  0  0  0  0  0  0  0  0  0
   -0.6508   -0.4957    1.6161 H   0  0  0  0  0  0  0  0  0  0  0  0
  2  1  2  0  0  0  0
  2 42  1  0  0  0  0
  3 41  1  1  0  0  0
  3  2  1  0  0  0  0
  4  3  1  0  0  0  0
  4  5  1  0  0  0  0
  6  7  2  0  0  0  0
  6 36  1  0  0  0  0
  7 77  1  0  0  0  0
  8  9  1  0  0  0  0
  8  7  1  0  0  0  0
  9 46  1  0  0  0  0
 10  9  1  0  0  0  0
 10 34  1  0  0  0  0
 11 10  2  0  0  0  0
 12 11  1  0  0  0  0
 12 32  2  0  0  0  0
 13 12  1  0  0  0  0
 14 13  1  0  0  0  0
 15 14  2  0  0  0  0
 16 17  2  0  0  0  0
 16 15  1  0  0  0  0
 17 31  1  0  0  0  0
 18 19  1  0  0  0  0
 18 17  1  0  0  0  0
 19 20  1  0  0  0  0
 20 50  1  0  0  0  0
 20 21  2  0  0  0  0
 21 51  1  0  0  0  0
 22 21  1  0  0  0  0
 22 23  1  0  0  0  0
 23 28  1  0  0  0  0
 24 23  1  0  0  0  0
 24 25  1  0  0  0  0
 25 54  1  0  0  0  0
 25 26  1  0  0  0  0
 26 27  1  0  0  0  0
 27 57  1  0  0  0  0
 27 56  1  0  0  0  0
 28 58  1  0  0  0  0
 28 27  1  0  0  0  0
 29 22  2  0  0  0  0
 30 19  2  0  0  0  0
 30 29  1  0  0  0  0
 31 62  1  0  0  0  0
 31 13  2  0  0  0  0
 32 33  1  0  0  0  0
 33 34  2  0  0  0  0
 33 64  1  0  0  0  0
 34 65  1  0  0  0  0
 35  8  2  0  0  0  0
 36 68  1  0  0  0  0
 37 69  1  0  0  0  0
 37  3  1  0  0  0  0
 38 37  1  0  0  0  0
 39 38  1  0  0  0  0
 39 72  1  0  0  0  0
 40 38  2  0  0  0  0
 42 43  1  0  0  0  0
 43 75  1  0  0  0  0
 43 74  1  0  0  0  0
 43 76  1  0  0  0  0
 44  4  1  0  0  0  0
 45  4  1  0  0  0  0
 47 11  1  0  0  0  0
 48 15  1  0  0  0  0
 49 18  1  0  0  0  0
 52 24  1  0  0  0  0
 53 24  1  0  0  0  0
 55 25  1  0  0  0  0
 59 28  1  0  0  0  0
 60 29  1  0  0  0  0
 61 30  1  0  0  0  0
 63 32  1  0  0  0  0
 66 36  1  0  0  0  0
 67 36  1  0  0  0  0
 70 39  1  0  0  0  0
 71 39  1  0  0  0  0
 73 42  1  0  0  0  0
 78  6  1  0  0  0  0
M  END
