72
-1 1
O        -1.275731    1.731658   -4.308251
C        -0.851275    2.471713   -3.434606
C        -1.764797    3.111712   -2.371334
C        -3.230868    2.695567   -2.531358
S        -4.334938    3.589732   -1.378289
C        -1.023738    3.216847    1.394233
C        -1.113575    2.331033    2.396078
C        -0.313864    1.084365    2.415033
N        -0.329652    0.450939    3.639635
C         0.257494   -0.760837    4.031151
C         0.805151   -1.669974    3.120488
C         1.338777   -2.885860    3.566068
C         1.886147   -3.881592    2.597907
N         2.243166   -5.086671    3.084098
C         2.691689   -5.966524    2.203565
N         2.813393   -5.815419    0.889578
C         2.460028   -4.619872    0.399339
N         2.552896   -4.445346   -0.948271
C         2.190543   -3.244114   -1.584963
C         0.907119   -2.736818   -1.731418
N         1.049992   -1.486801   -2.214017
C         0.026724   -0.477054   -2.432926
C        -1.276239   -0.792625   -1.703669
N        -1.614370    0.106300   -0.757919
C        -2.863311    0.064149   -0.034028
O        -1.946446   -1.766541   -2.007867
N         2.326887   -1.155910   -2.421394
C         3.034916   -2.206894   -2.038618
C         2.004946   -3.591425    1.248915
C         1.333034   -3.190402    4.931189
C         0.795798   -2.281469    5.837718
C         0.260425   -1.075872    5.398245
O         0.293051    0.653088    1.446727
C        -1.833813    4.452371    1.264551
N        -1.700351    4.567581   -2.367835
C        -0.740427    5.275931   -1.747607
C        -1.073122    6.739109   -1.534855
O         0.335799    4.803634   -1.375479
H        -1.401403    2.748666   -1.393026
N         0.468273    2.742366   -3.270245
C         1.480786    2.229392   -4.158521
H        -3.526007    2.872212   -3.577610
H        -3.281550    1.607781   -2.382977
H        -0.814138    0.947505    4.375091
H         0.790742   -1.400664    2.068018
H         2.993758   -6.943140    2.602736
H         2.891645   -5.242129   -1.472734
H        -0.073967   -3.150780   -1.513127
H        -0.215903   -0.387913   -3.502138
H         0.454715    0.478761   -2.109227
H        -0.894252    0.729225   -0.404965
H        -3.321137    1.067216   -0.010129
H        -2.715477   -0.298475    0.997374
H        -3.537328   -0.627060   -0.554429
H         4.122898   -2.191500   -2.085604
H         1.747304   -2.618646    0.839249
H         1.746883   -4.145965    5.253357
H         0.789342   -2.514038    6.905063
H        -0.163861   -0.370287    6.118376
H        -2.552189    4.317497    0.423415
H        -1.187284    5.309702    1.025036
H        -2.415411    4.667597    2.172629
H        -2.658831    4.944741   -2.297353
H        -1.238822    7.238601   -2.500614
H        -0.243359    7.223465   -1.007156
H        -1.999815    6.833290   -0.947909
H         0.715542    3.389407   -2.516570
H         2.039811    1.388089   -3.712124
H         2.196084    3.022615   -4.425114
H         0.991216    1.866471   -5.072172
H        -1.798635    2.519519    3.230562
H        -0.311240    3.012673    0.585015
