-1 1
 OpenBabel05192410563D

 76 78  0  0  1  0  0  0  0  0999 V2000
    0.7551   -0.0642   -0.3778 O   0  0  0  0  0  0  0  0  0  0  0  0
    1.3002    0.7246   -1.1372 C   0  0  0  0  0  0  0  0  0  0  0  0
    1.6218    2.1814   -0.7728 C   0  0  2  0  0  0  0  0  0  0  0  0
    3.0766    2.2428   -0.2817 C   0  0  0  0  0  0  0  0  0  0  0  0
    3.7175    3.9153    0.0300 S   0  0  0  0  0  0  0  0  0  0  0  0
    3.7323    3.8846    1.9240 C   0  0  0  0  0  0  0  0  0  0  0  0
    2.4491    3.6428    2.6051 C   0  0  0  0  0  3  0  0  0  0  0  0
    2.0819    2.3580    3.0282 C   0  0  0  0  0  0  0  0  0  0  0  0
    0.8616    2.2832    3.7482 N   0  0  0  0  0  0  0  0  0  0  0  0
    0.4068    1.0559    4.3221 C   0  0  0  0  0  0  0  0  0  0  0  0
   -1.0106    0.7044    3.8816 C   0  0  0  0  0  0  0  0  0  0  0  0
   -1.1756    0.6807    2.5218 N   0  0  0  0  0  0  0  0  0  0  0  0
   -2.3737    0.4655    1.8235 C   0  0  0  0  0  0  0  0  0  0  0  0
   -2.2872   -0.0090    0.5117 C   0  0  0  0  0  0  0  0  0  0  0  0
   -3.4371   -0.2392   -0.2469 C   0  0  0  0  0  0  0  0  0  0  0  0
   -3.3553   -0.9028   -1.5755 C   0  0  0  0  0  0  0  0  0  0  0  0
   -4.4645   -0.9266   -2.3364 N   0  0  0  0  0  0  0  0  0  0  0  0
   -4.3925   -1.6101   -3.4669 C   0  0  0  0  0  0  0  0  0  0  0  0
   -3.3816   -2.3524   -3.9008 N   0  0  0  0  0  0  0  0  0  0  0  0
   -2.2853   -2.3619   -3.1296 C   0  0  0  0  0  0  0  0  0  0  0  0
   -1.2851   -3.2034   -3.5438 N   0  0  0  0  0  0  0  0  0  0  0  0
   -0.2066   -3.6733   -2.7929 C   0  0  0  0  0  0  0  0  0  0  0  0
   -0.0122   -3.6825   -1.4214 C   0  0  0  0  0  0  0  0  0  0  0  0
    1.2207   -4.2098   -1.2135 N   0  0  0  0  0  0  0  0  0  0  0  0
    1.8771   -4.3607    0.0704 C   0  0  0  0  0  0  0  0  0  0  0  0
    2.1624   -3.0462    0.7759 C   0  0  0  0  0  0  0  0  0  0  0  0
    3.1355   -2.3425    0.0771 O   0  0  0  0  0  0  0  0  0  0  0  0
    3.5730   -1.1946    0.7666 C   0  0  0  0  0  0  0  0  0  0  0  0
    1.8241   -4.5659   -2.3404 N   0  0  0  0  0  0  0  0  0  0  0  0
    0.9791   -4.2448   -3.3114 C   0  0  0  0  0  0  0  0  0  0  0  0
   -2.1992   -1.5699   -1.9759 C   0  0  0  0  0  0  0  0  0  0  0  0
   -4.6920    0.0558    0.2983 C   0  0  0  0  0  0  0  0  0  0  0  0
   -4.7764    0.5328    1.6025 C   0  0  0  0  0  0  0  0  0  0  0  0
   -3.6351    0.7279    2.3778 C   0  0  0  0  0  0  0  0  0  0  0  0
   -1.9030    0.4842    4.6803 O   0  0  0  0  0  0  0  0  0  0  0  0
    2.6669    1.2789    2.7740 O   0  0  0  0  0  0  0  0  0  0  0  0
    0.7175    2.6929    0.2101 N   0  0  0  0  0  0  0  0  0  0  0  0
   -0.5719    2.9392   -0.1256 C   0  0  0  0  0  0  0  0  0  0  0  0
   -1.3956    3.6189    0.9485 C   0  0  0  0  0  0  0  0  0  0  0  0
   -1.0267    2.6437   -1.2208 O   0  0  0  0  0  0  0  0  0  0  0  0
    1.5200    2.7738   -1.7017 H   0  0  0  0  0  0  0  0  0  0  0  0
    1.7685    0.3653   -2.3528 N   0  0  0  0  0  0  0  0  0  0  0  0
    1.6913   -0.9835   -2.8555 C   0  0  0  0  0  0  0  0  0  0  0  0
    3.1604    1.6800    0.6621 H   0  0  0  0  0  0  0  0  0  0  0  0
    3.7204    1.7626   -1.0319 H   0  0  0  0  0  0  0  0  0  0  0  0
    0.5301    3.1419    4.1647 H   0  0  0  0  0  0  0  0  0  0  0  0
    0.3948    1.0556    5.4254 H   0  0  0  0  0  0  0  0  0  0  0  0
    1.1143    0.2823    3.9776 H   0  0  0  0  0  0  0  0  0  0  0  0
   -0.3412    0.8210    1.9517 H   0  0  0  0  0  0  0  0  0  0  0  0
   -1.2911   -0.1781    0.0993 H   0  0  0  0  0  0  0  0  0  0  0  0
   -5.2794   -1.5818   -4.1126 H   0  0  0  0  0  0  0  0  0  0  0  0
   -1.4991   -3.6832   -4.4092 H   0  0  0  0  0  0  0  0  0  0  0  0
   -0.6262   -3.3389   -0.5951 H   0  0  0  0  0  0  0  0  0  0  0  0
    2.8191   -4.8862   -0.1310 H   0  0  0  0  0  0  0  0  0  0  0  0
    1.2514   -4.9940    0.7194 H   0  0  0  0  0  0  0  0  0  0  0  0
    2.5063   -3.2891    1.8038 H   0  0  0  0  0  0  0  0  0  0  0  0
    1.2385   -2.4424    0.8790 H   0  0  0  0  0  0  0  0  0  0  0  0
    4.2148   -0.6225    0.0842 H   0  0  0  0  0  0  0  0  0  0  0  0
    4.1626   -1.4685    1.6623 H   0  0  0  0  0  0  0  0  0  0  0  0
    2.7381   -0.5547    1.0949 H   0  0  0  0  0  0  0  0  0  0  0  0
    1.2378   -4.4263   -4.3538 H   0  0  0  0  0  0  0  0  0  0  0  0
   -1.2768   -1.4980   -1.4049 H   0  0  0  0  0  0  0  0  0  0  0  0
   -5.5822   -0.1177   -0.3071 H   0  0  0  0  0  0  0  0  0  0  0  0
   -5.7555    0.7500    2.0369 H   0  0  0  0  0  0  0  0  0  0  0  0
   -3.7071    1.0694    3.4079 H   0  0  0  0  0  0  0  0  0  0  0  0
    1.1338    3.0678    1.0784 H   0  0  0  0  0  0  0  0  0  0  0  0
   -0.9751    3.4495    1.9493 H   0  0  0  0  0  0  0  0  0  0  0  0
   -2.4227    3.2344    0.9025 H   0  0  0  0  0  0  0  0  0  0  0  0
   -1.4194    4.7006    0.7456 H   0  0  0  0  0  0  0  0  0  0  0  0
    2.0906    1.1014   -2.9653 H   0  0  0  0  0  0  0  0  0  0  0  0
    1.9189   -1.6871   -2.0431 H   0  0  0  0  0  0  0  0  0  0  0  0
    2.4379   -1.1219   -3.6491 H   0  0  0  0  0  0  0  0  0  0  0  0
    0.6955   -1.2154   -3.2650 H   0  0  0  0  0  0  0  0  0  0  0  0
    4.4715    3.1102    2.1759 H   0  0  0  0  0  0  0  0  0  0  0  0
    4.1690    4.8689    2.1553 H   0  0  0  0  0  0  0  0  0  0  0  0
    1.8285    4.5014    2.8813 H   0  0  0  0  0  0  0  0  0  0  0  0
  2  3  1  0  0  0  0
  2  1  2  0  0  0  0
  3 41  1  6  0  0  0
  3  4  1  0  0  0  0
  3 37  1  0  0  0  0
  4  5  1  0  0  0  0
  4 44  1  0  0  0  0
  5  6  1  0  0  0  0
  6 75  1  0  0  0  0
  6 74  1  0  0  0  0
  6  7  1  0  0  0  0
  7 76  1  0  0  0  0
  7  8  1  0  0  0  0
  8  9  1  0  0  0  0
  9 46  1  0  0  0  0
  9 10  1  0  0  0  0
 10 47  1  0  0  0  0
 11 10  1  0  0  0  0
 11 35  2  0  0  0  0
 12 11  1  0  0  0  0
 13 34  1  0  0  0  0
 13 12  1  0  0  0  0
 14 13  2  0  0  0  0
 15 32  2  0  0  0  0
 15 14  1  0  0  0  0
 16 15  1  0  0  0  0
 17 16  1  0  0  0  0
 18 17  2  0  0  0  0
 19 18  1  0  0  0  0
 19 20  2  0  0  0  0
 20 31  1  0  0  0  0
 21 20  1  0  0  0  0
 21 22  1  0  0  0  0
 22 23  2  0  0  0  0
 23 24  1  0  0  0  0
 23 53  1  0  0  0  0
 24 25  1  0  0  0  0
 25 55  1  0  0  0  0
 25 26  1  0  0  0  0
 26 57  1  0  0  0  0
 26 56  1  0  0  0  0
 27 28  1  0  0  0  0
 27 26  1  0  0  0  0
 28 60  1  0  0  0  0
 28 59  1  0  0  0  0
 29 24  1  0  0  0  0
 30 22  1  0  0  0  0
 30 29  2  0  0  0  0
 31 16  2  0  0  0  0
 31 62  1  0  0  0  0
 32 33  1  0  0  0  0
 33 64  1  0  0  0  0
 33 34  2  0  0  0  0
 34 65  1  0  0  0  0
 36  8  2  0  0  0  0
 37 66  1  0  0  0  0
 38 37  1  0  0  0  0
 38 39  1  0  0  0  0
 39 67  1  0  0  0  0
 40 38  2  0  0  0  0
 42  2  1  0  0  0  0
 43 42  1  0  0  0  0
 43 71  1  0  0  0  0
 45  4  1  0  0  0  0
 48 10  1  0  0  0  0
 49 12  1  0  0  0  0
 50 14  1  0  0  0  0
 51 18  1  0  0  0  0
 52 21  1  0  0  0  0
 54 25  1  0  0  0  0
 58 28  1  0  0  0  0
 61 30  1  0  0  0  0
 63 32  1  0  0  0  0
 68 39  1  0  0  0  0
 69 39  1  0  0  0  0
 70 42  1  0  0  0  0
 72 43  1  0  0  0  0
 73 43  1  0  0  0  0
M  END
