76
-1 1
O        -0.884033    1.858406   -3.560049
C        -0.437076    2.602611   -4.430592
C        -0.048868    4.063838   -4.195287
C         1.459277    4.143233   -3.888348
S         2.084329    5.827092   -3.612778
C         2.217657    5.561172   -1.168968
C         1.035800    5.235760   -0.536888
C         0.617339    3.859179   -0.362047
N        -0.605445    3.707914    0.277791
C        -1.202483    2.425690    0.510836
C        -2.650164    2.381289    0.025905
N        -2.800490    2.328124   -1.330143
C        -4.020265    2.163084   -2.011047
C        -3.980330    1.516469   -3.248538
C        -5.144549    1.270034   -3.975918
C        -5.094021    0.456425   -5.218013
N        -6.178840    0.429047   -6.013021
C        -6.102938   -0.343572   -7.085657
N        -5.097149   -1.127243   -7.456610
C        -4.022828   -1.126472   -6.654631
N        -3.006843   -1.966917   -7.021935
C        -1.830498   -2.238102   -6.320219
C        -1.609805   -2.290639   -4.952776
N        -0.293398   -2.573838   -4.786872
C         0.412510   -2.642648   -3.521565
C         0.668701   -1.292701   -2.870775
O         1.599830   -0.585351   -3.620950
C         2.070990    0.570966   -2.965335
N         0.345101   -2.733630   -5.939804
C        -0.564355   -2.527794   -6.882106
C        -3.971963   -0.311338   -5.516138
C        -6.372018    1.729145   -3.483024
C        -6.411013    2.389339   -2.259691
C        -5.253108    2.600884   -1.510251
O        -3.575101    2.408779    0.819107
O         1.234311    2.862940   -0.742536
N        -0.820952    4.634286   -3.132668
C        -2.153772    4.819124   -3.272299
C        -2.830483    5.553084   -2.133276
O        -2.765487    4.426301   -4.253988
H        -0.254740    4.615773   -5.130662
N        -0.156311    2.166273   -5.674370
C        -0.339753    0.800701   -6.099733
H         1.653713    3.531525   -2.994212
H         1.994502    3.676528   -4.729857
H        -1.031848    4.520018    0.701018
H        -1.231550    2.160356    1.580759
H        -0.574468    1.694213   -0.019321
H        -1.959811    2.274304   -1.918729
H        -3.000038    1.227581   -3.627119
H        -6.979028   -0.345798   -7.746460
H        -3.166051   -2.445938   -7.899012
H        -2.270044   -2.141060   -4.103412
H         1.369866   -3.137017   -3.730066
H        -0.169659   -3.275066   -2.833682
H         1.046666   -1.486456   -1.844629
H        -0.274004   -0.717349   -2.766915
H         2.660166    1.146899   -3.690343
H         2.719252    0.304658   -2.108993
H         1.251626    1.201992   -2.586953
H        -0.296672   -2.596496   -7.935637
H        -3.092195   -0.285095   -4.882024
H        -7.275961    1.544360   -4.064610
H        -7.367522    2.741782   -1.865866
H        -5.295840    3.086138   -0.537880
H        -0.301547    5.082669   -2.379292
H        -2.268515    5.452925   -1.195289
H        -3.842661    5.147326   -2.008561
H        -2.911687    6.620265   -2.390121
H         0.129223    2.858378   -6.352897
H         0.080204    0.113067   -5.352487
H         0.196663    0.640908   -7.043858
H        -1.402565    0.561671   -6.260363
H         2.954171    4.772897   -1.331260
H         2.609829    6.575711   -1.101787
H         0.360687    6.030344   -0.200850
