-1 1
 OpenBabel05232414493D

 76 77  0  0  1  0  0  0  0  0999 V2000
   -0.8840    1.8584   -3.5600 O   0  0  0  0  0  0  0  0  0  0  0  0
   -0.4371    2.6026   -4.4306 C   0  0  0  0  0  0  0  0  0  0  0  0
   -0.0489    4.0638   -4.1953 C   0  0  2  0  0  0  0  0  0  0  0  0
    1.4593    4.1432   -3.8883 C   0  0  0  0  0  0  0  0  0  0  0  0
    2.0843    5.8271   -3.6128 S   0  0  0  0  0  1  0  0  0  0  0  0
    2.2177    5.5612   -1.1690 C   0  0  0  0  0  3  0  0  0  0  0  0
    1.0358    5.2358   -0.5369 C   0  0  0  0  0  3  0  0  0  0  0  0
    0.6173    3.8592   -0.3620 C   0  0  0  0  0  0  0  0  0  0  0  0
   -0.6054    3.7079    0.2778 N   0  0  0  0  0  0  0  0  0  0  0  0
   -1.2025    2.4257    0.5108 C   0  0  0  0  0  0  0  0  0  0  0  0
   -2.6502    2.3813    0.0259 C   0  0  0  0  0  0  0  0  0  0  0  0
   -2.8005    2.3281   -1.3301 N   0  0  0  0  0  0  0  0  0  0  0  0
   -4.0203    2.1631   -2.0110 C   0  0  0  0  0  0  0  0  0  0  0  0
   -3.9803    1.5165   -3.2485 C   0  0  0  0  0  0  0  0  0  0  0  0
   -5.1445    1.2700   -3.9759 C   0  0  0  0  0  0  0  0  0  0  0  0
   -5.0940    0.4564   -5.2180 C   0  0  0  0  0  0  0  0  0  0  0  0
   -6.1788    0.4290   -6.0130 N   0  0  0  0  0  0  0  0  0  0  0  0
   -6.1029   -0.3436   -7.0857 C   0  0  0  0  0  0  0  0  0  0  0  0
   -5.0971   -1.1272   -7.4566 N   0  0  0  0  0  0  0  0  0  0  0  0
   -4.0228   -1.1265   -6.6546 C   0  0  0  0  0  0  0  0  0  0  0  0
   -3.0068   -1.9669   -7.0219 N   0  0  0  0  0  0  0  0  0  0  0  0
   -1.8305   -2.2381   -6.3202 C   0  0  0  0  0  0  0  0  0  0  0  0
   -1.6098   -2.2906   -4.9528 C   0  0  0  0  0  0  0  0  0  0  0  0
   -0.2934   -2.5738   -4.7869 N   0  0  0  0  0  0  0  0  0  0  0  0
    0.4125   -2.6426   -3.5216 C   0  0  0  0  0  0  0  0  0  0  0  0
    0.6687   -1.2927   -2.8708 C   0  0  0  0  0  0  0  0  0  0  0  0
    1.5998   -0.5854   -3.6210 O   0  0  0  0  0  0  0  0  0  0  0  0
    2.0710    0.5710   -2.9653 C   0  0  0  0  0  0  0  0  0  0  0  0
    0.3451   -2.7336   -5.9398 N   0  0  0  0  0  0  0  0  0  0  0  0
   -0.5644   -2.5278   -6.8821 C   0  0  0  0  0  0  0  0  0  0  0  0
   -3.9720   -0.3113   -5.5161 C   0  0  0  0  0  0  0  0  0  0  0  0
   -6.3720    1.7291   -3.4830 C   0  0  0  0  0  0  0  0  0  0  0  0
   -6.4110    2.3893   -2.2597 C   0  0  0  0  0  0  0  0  0  0  0  0
   -5.2531    2.6009   -1.5103 C   0  0  0  0  0  0  0  0  0  0  0  0
   -3.5751    2.4088    0.8191 O   0  0  0  0  0  0  0  0  0  0  0  0
    1.2343    2.8629   -0.7425 O   0  0  0  0  0  0  0  0  0  0  0  0
   -0.8210    4.6343   -3.1327 N   0  0  0  0  0  0  0  0  0  0  0  0
   -2.1538    4.8191   -3.2723 C   0  0  0  0  0  0  0  0  0  0  0  0
   -2.8305    5.5531   -2.1333 C   0  0  0  0  0  0  0  0  0  0  0  0
   -2.7655    4.4263   -4.2540 O   0  0  0  0  0  0  0  0  0  0  0  0
   -0.2547    4.6158   -5.1307 H   0  0  0  0  0  0  0  0  0  0  0  0
   -0.1563    2.1663   -5.6744 N   0  0  0  0  0  0  0  0  0  0  0  0
   -0.3398    0.8007   -6.0997 C   0  0  0  0  0  0  0  0  0  0  0  0
    1.6537    3.5315   -2.9942 H   0  0  0  0  0  0  0  0  0  0  0  0
    1.9945    3.6765   -4.7299 H   0  0  0  0  0  0  0  0  0  0  0  0
   -1.0318    4.5200    0.7010 H   0  0  0  0  0  0  0  0  0  0  0  0
   -1.2315    2.1604    1.5808 H   0  0  0  0  0  0  0  0  0  0  0  0
   -0.5745    1.6942   -0.0193 H   0  0  0  0  0  0  0  0  0  0  0  0
   -1.9598    2.2743   -1.9187 H   0  0  0  0  0  0  0  0  0  0  0  0
   -3.0000    1.2276   -3.6271 H   0  0  0  0  0  0  0  0  0  0  0  0
   -6.9790   -0.3458   -7.7465 H   0  0  0  0  0  0  0  0  0  0  0  0
   -3.1661   -2.4459   -7.8990 H   0  0  0  0  0  0  0  0  0  0  0  0
   -2.2700   -2.1411   -4.1034 H   0  0  0  0  0  0  0  0  0  0  0  0
    1.3699   -3.1370   -3.7301 H   0  0  0  0  0  0  0  0  0  0  0  0
   -0.1697   -3.2751   -2.8337 H   0  0  0  0  0  0  0  0  0  0  0  0
    1.0467   -1.4865   -1.8446 H   0  0  0  0  0  0  0  0  0  0  0  0
   -0.2740   -0.7173   -2.7669 H   0  0  0  0  0  0  0  0  0  0  0  0
    2.6602    1.1469   -3.6903 H   0  0  0  0  0  0  0  0  0  0  0  0
    2.7193    0.3047   -2.1090 H   0  0  0  0  0  0  0  0  0  0  0  0
    1.2516    1.2020   -2.5870 H   0  0  0  0  0  0  0  0  0  0  0  0
   -0.2967   -2.5965   -7.9356 H   0  0  0  0  0  0  0  0  0  0  0  0
   -3.0922   -0.2851   -4.8820 H   0  0  0  0  0  0  0  0  0  0  0  0
   -7.2760    1.5444   -4.0646 H   0  0  0  0  0  0  0  0  0  0  0  0
   -7.3675    2.7418   -1.8659 H   0  0  0  0  0  0  0  0  0  0  0  0
   -5.2958    3.0861   -0.5379 H   0  0  0  0  0  0  0  0  0  0  0  0
   -0.3015    5.0827   -2.3793 H   0  0  0  0  0  0  0  0  0  0  0  0
   -2.2685    5.4529   -1.1953 H   0  0  0  0  0  0  0  0  0  0  0  0
   -3.8427    5.1473   -2.0086 H   0  0  0  0  0  0  0  0  0  0  0  0
   -2.9117    6.6203   -2.3901 H   0  0  0  0  0  0  0  0  0  0  0  0
    0.1292    2.8584   -6.3529 H   0  0  0  0  0  0  0  0  0  0  0  0
    0.0802    0.1131   -5.3525 H   0  0  0  0  0  0  0  0  0  0  0  0
    0.1967    0.6409   -7.0439 H   0  0  0  0  0  0  0  0  0  0  0  0
   -1.4026    0.5617   -6.2604 H   0  0  0  0  0  0  0  0  0  0  0  0
    2.9542    4.7729   -1.3313 H   0  0  0  0  0  0  0  0  0  0  0  0
    2.6098    6.5757   -1.1018 H   0  0  0  0  0  0  0  0  0  0  0  0
    0.3607    6.0303   -0.2009 H   0  0  0  0  0  0  0  0  0  0  0  0
  2  3  1  0  0  0  0
  2  1  2  0  0  0  0
  3 41  1  6  0  0  0
  3  4  1  0  0  0  0
  3 37  1  0  0  0  0
  4  5  1  0  0  0  0
  4 44  1  0  0  0  0
  6 75  1  0  0  0  0
  6  7  1  0  0  0  0
  7  8  1  0  0  0  0
  7 76  1  0  0  0  0
  8  9  1  0  0  0  0
  9 10  1  0  0  0  0
  9 46  1  0  0  0  0
 10 47  1  0  0  0  0
 11 10  1  0  0  0  0
 11 35  2  0  0  0  0
 12 11  1  0  0  0  0
 13 34  1  0  0  0  0
 13 12  1  0  0  0  0
 14 13  2  0  0  0  0
 15 32  2  0  0  0  0
 15 14  1  0  0  0  0
 16 15  1  0  0  0  0
 17 16  1  0  0  0  0
 18 17  2  0  0  0  0
 19 18  1  0  0  0  0
 19 20  2  0  0  0  0
 20 31  1  0  0  0  0
 21 20  1  0  0  0  0
 21 22  1  0  0  0  0
 22 23  2  0  0  0  0
 23 24  1  0  0  0  0
 23 53  1  0  0  0  0
 24 25  1  0  0  0  0
 25 26  1  0  0  0  0
 25 55  1  0  0  0  0
 26 57  1  0  0  0  0
 26 56  1  0  0  0  0
 27 28  1  0  0  0  0
 27 26  1  0  0  0  0
 28 60  1  0  0  0  0
 28 59  1  0  0  0  0
 29 24  1  0  0  0  0
 30 22  1  0  0  0  0
 30 29  2  0  0  0  0
 31 16  2  0  0  0  0
 31 62  1  0  0  0  0
 32 33  1  0  0  0  0
 33 64  1  0  0  0  0
 33 34  2  0  0  0  0
 34 65  1  0  0  0  0
 36  8  2  0  0  0  0
 37 66  1  0  0  0  0
 38 37  1  0  0  0  0
 38 39  1  0  0  0  0
 39 68  1  0  0  0  0
 39 67  1  0  0  0  0
 40 38  2  0  0  0  0
 42  2  1  0  0  0  0
 43 42  1  0  0  0  0
 43 71  1  0  0  0  0
 45  4  1  0  0  0  0
 48 10  1  0  0  0  0
 49 12  1  0  0  0  0
 50 14  1  0  0  0  0
 51 18  1  0  0  0  0
 52 21  1  0  0  0  0
 54 25  1  0  0  0  0
 58 28  1  0  0  0  0
 61 30  1  0  0  0  0
 63 32  1  0  0  0  0
 69 39  1  0  0  0  0
 70 42  1  0  0  0  0
 72 43  1  0  0  0  0
 73 43  1  0  0  0  0
 74  6  1  0  0  0  0
M  END
