-1 1
 OpenBabel05232413493D

 76 77  0  0  1  0  0  0  0  0999 V2000
    0.7649    0.1942    0.1131 O   0  0  0  0  0  0  0  0  0  0  0  0
    1.1661    0.9522   -0.7744 C   0  0  0  0  0  0  0  0  0  0  0  0
    1.5678    2.4102   -0.5847 C   0  0  2  0  0  0  0  0  0  0  0  0
    3.1001    2.5502   -0.4364 C   0  0  0  0  0  0  0  0  0  0  0  0
    3.6301    4.2913   -0.3346 S   0  0  0  0  0  1  0  0  0  0  0  0
    3.9303    4.0078    2.8069 C   0  0  0  0  0  0  0  0  0  0  0  0
    2.8026    3.6452    3.4283 C   0  0  0  0  0  0  0  0  0  0  0  0
    2.3461    2.2343    3.3970 C   0  0  0  0  0  0  0  0  0  0  0  0
    1.0901    2.0362    3.9015 N   0  0  0  0  0  0  0  0  0  0  0  0
    0.4175    0.7727    3.7643 C   0  0  0  0  0  0  0  0  0  0  0  0
   -1.0244    0.9791    3.3121 C   0  0  0  0  0  0  0  0  0  0  0  0
   -1.2600    0.5962    2.0351 N   0  0  0  0  0  0  0  0  0  0  0  0
   -2.4929    0.4645    1.3817 C   0  0  0  0  0  0  0  0  0  0  0  0
   -2.4660   -0.2339    0.1714 C   0  0  0  0  0  0  0  0  0  0  0  0
   -3.6339   -0.5115   -0.5345 C   0  0  0  0  0  0  0  0  0  0  0  0
   -3.5819   -1.3741   -1.7429 C   0  0  0  0  0  0  0  0  0  0  0  0
   -4.6435   -1.4011   -2.5678 N   0  0  0  0  0  0  0  0  0  0  0  0
   -4.5486   -2.2022   -3.6189 C   0  0  0  0  0  0  0  0  0  0  0  0
   -3.5367   -2.9950   -3.9530 N   0  0  0  0  0  0  0  0  0  0  0  0
   -2.4843   -2.9908   -3.1226 C   0  0  0  0  0  0  0  0  0  0  0  0
   -1.4527   -3.8249   -3.4590 N   0  0  0  0  0  0  0  0  0  0  0  0
   -0.2461   -4.0026   -2.7769 C   0  0  0  0  0  0  0  0  0  0  0  0
   -0.0005   -4.0480   -1.4131 C   0  0  0  0  0  0  0  0  0  0  0  0
    1.3362   -4.2306   -1.2683 N   0  0  0  0  0  0  0  0  0  0  0  0
    2.0642   -4.2660   -0.0135 C   0  0  0  0  0  0  0  0  0  0  0  0
    2.3263   -2.9052    0.6135 C   0  0  0  0  0  0  0  0  0  0  0  0
    3.2797   -2.2223   -0.1332 O   0  0  0  0  0  0  0  0  0  0  0  0
    3.7662   -1.0674    0.5136 C   0  0  0  0  0  0  0  0  0  0  0  0
    1.9669   -4.3325   -2.4323 N   0  0  0  0  0  0  0  0  0  0  0  0
    1.0306   -4.1886   -3.3592 C   0  0  0  0  0  0  0  0  0  0  0  0
   -2.4700   -2.1754   -1.9840 C   0  0  0  0  0  0  0  0  0  0  0  0
   -4.8556   -0.0241   -0.0513 C   0  0  0  0  0  0  0  0  0  0  0  0
   -4.8798    0.6918    1.1410 C   0  0  0  0  0  0  0  0  0  0  0  0
   -3.7156    0.9336    1.8742 C   0  0  0  0  0  0  0  0  0  0  0  0
   -1.8529    1.4462    4.0796 O   0  0  0  0  0  0  0  0  0  0  0  0
    3.0111    1.3127    2.9488 O   0  0  0  0  0  0  0  0  0  0  0  0
    0.9285    3.0176    0.5495 N   0  0  0  0  0  0  0  0  0  0  0  0
   -0.4099    3.2340    0.5469 C   0  0  0  0  0  0  0  0  0  0  0  0
   -0.9348    4.0983    1.6757 C   0  0  0  0  0  0  0  0  0  0  0  0
   -1.1534    2.7420   -0.2872 O   0  0  0  0  0  0  0  0  0  0  0  0
    1.2670    2.9465   -1.5040 H   0  0  0  0  0  0  0  0  0  0  0  0
    1.3653    0.5127   -2.0310 N   0  0  0  0  0  0  0  0  0  0  0  0
    1.1601   -0.8563   -2.4364 C   0  0  0  0  0  0  0  0  0  0  0  0
    3.3975    1.9908    0.4669 H   0  0  0  0  0  0  0  0  0  0  0  0
    3.5654    2.0475   -1.2999 H   0  0  0  0  0  0  0  0  0  0  0  0
    0.5542    2.8207    4.2482 H   0  0  0  0  0  0  0  0  0  0  0  0
    0.3688    0.2278    4.7238 H   0  0  0  0  0  0  0  0  0  0  0  0
    1.0015    0.1728    3.0541 H   0  0  0  0  0  0  0  0  0  0  0  0
   -0.4362    0.4158    1.4419 H   0  0  0  0  0  0  0  0  0  0  0  0
   -1.4888   -0.5423   -0.2010 H   0  0  0  0  0  0  0  0  0  0  0  0
   -5.4103   -2.2164   -4.2981 H   0  0  0  0  0  0  0  0  0  0  0  0
   -1.5761   -4.2941   -4.3471 H   0  0  0  0  0  0  0  0  0  0  0  0
   -0.6588   -3.9638   -0.5531 H   0  0  0  0  0  0  0  0  0  0  0  0
    3.0212   -4.7609   -0.2230 H   0  0  0  0  0  0  0  0  0  0  0  0
    1.4933   -4.8875    0.6931 H   0  0  0  0  0  0  0  0  0  0  0  0
    2.6873   -3.0844    1.6484 H   0  0  0  0  0  0  0  0  0  0  0  0
    1.3897   -2.3163    0.6908 H   0  0  0  0  0  0  0  0  0  0  0  0
    4.3806   -0.5150   -0.2086 H   0  0  0  0  0  0  0  0  0  0  0  0
    4.3921   -1.3357    1.3858 H   0  0  0  0  0  0  0  0  0  0  0  0
    2.9525   -0.4136    0.8644 H   0  0  0  0  0  0  0  0  0  0  0  0
    1.2869   -4.2294   -4.4171 H   0  0  0  0  0  0  0  0  0  0  0  0
   -1.6221   -2.1702   -1.3086 H   0  0  0  0  0  0  0  0  0  0  0  0
   -5.7663   -0.2286   -0.6157 H   0  0  0  0  0  0  0  0  0  0  0  0
   -5.8315    1.0682    1.5240 H   0  0  0  0  0  0  0  0  0  0  0  0
   -3.7400    1.4728    2.8189 H   0  0  0  0  0  0  0  0  0  0  0  0
    1.5436    3.6888    1.0169 H   0  0  0  0  0  0  0  0  0  0  0  0
   -0.1326    4.5664    2.2631 H   0  0  0  0  0  0  0  0  0  0  0  0
   -1.5604    3.4826    2.3390 H   0  0  0  0  0  0  0  0  0  0  0  0
   -1.5780    4.8786    1.2466 H   0  0  0  0  0  0  0  0  0  0  0  0
    1.6721    1.1900   -2.7154 H   0  0  0  0  0  0  0  0  0  0  0  0
    1.7591   -1.5415   -1.8187 H   0  0  0  0  0  0  0  0  0  0  0  0
    1.4755   -0.9715   -3.4808 H   0  0  0  0  0  0  0  0  0  0  0  0
    0.0990   -1.1385   -2.3670 H   0  0  0  0  0  0  0  0  0  0  0  0
    4.5579    3.2600    2.3202 H   0  0  0  0  0  0  0  0  0  0  0  0
    4.2625    5.0452    2.7696 H   0  0  0  0  0  0  0  0  0  0  0  0
    2.1529    4.3897    3.9014 H   0  0  0  0  0  0  0  0  0  0  0  0
  2  3  1  0  0  0  0
  2  1  2  0  0  0  0
  3 41  1  6  0  0  0
  3  4  1  0  0  0  0
  3 37  1  0  0  0  0
  4  5  1  0  0  0  0
  4 44  1  0  0  0  0
  6  7  2  0  0  0  0
  7 76  1  0  0  0  0
  8  7  1  0  0  0  0
  8  9  1  0  0  0  0
  9 46  1  0  0  0  0
 10  9  1  0  0  0  0
 10 47  1  0  0  0  0
 11 10  1  0  0  0  0
 11 35  2  0  0  0  0
 12 11  1  0  0  0  0
 13 34  1  0  0  0  0
 13 12  1  0  0  0  0
 14 13  2  0  0  0  0
 15 32  2  0  0  0  0
 15 14  1  0  0  0  0
 16 15  1  0  0  0  0
 17 16  1  0  0  0  0
 18 17  2  0  0  0  0
 19 18  1  0  0  0  0
 19 20  2  0  0  0  0
 20 31  1  0  0  0  0
 21 20  1  0  0  0  0
 21 22  1  0  0  0  0
 22 23  2  0  0  0  0
 23 24  1  0  0  0  0
 23 53  1  0  0  0  0
 24 25  1  0  0  0  0
 25 26  1  0  0  0  0
 25 55  1  0  0  0  0
 26 57  1  0  0  0  0
 26 56  1  0  0  0  0
 27 28  1  0  0  0  0
 27 26  1  0  0  0  0
 28 60  1  0  0  0  0
 28 59  1  0  0  0  0
 29 24  1  0  0  0  0
 30 22  1  0  0  0  0
 30 29  2  0  0  0  0
 31 16  2  0  0  0  0
 31 62  1  0  0  0  0
 32 33  1  0  0  0  0
 33 64  1  0  0  0  0
 33 34  2  0  0  0  0
 34 65  1  0  0  0  0
 36  8  2  0  0  0  0
 37 66  1  0  0  0  0
 38 37  1  0  0  0  0
 38 39  1  0  0  0  0
 39 67  1  0  0  0  0
 39 68  1  0  0  0  0
 40 38  2  0  0  0  0
 42  2  1  0  0  0  0
 43 73  1  0  0  0  0
 43 42  1  0  0  0  0
 43 71  1  0  0  0  0
 45  4  1  0  0  0  0
 48 10  1  0  0  0  0
 49 12  1  0  0  0  0
 50 14  1  0  0  0  0
 51 18  1  0  0  0  0
 52 21  1  0  0  0  0
 54 25  1  0  0  0  0
 58 28  1  0  0  0  0
 61 30  1  0  0  0  0
 63 32  1  0  0  0  0
 69 39  1  0  0  0  0
 70 42  1  0  0  0  0
 72 43  1  0  0  0  0
 74  6  1  0  0  0  0
 75  6  1  0  0  0  0
M  END
