76
-1 1
O         0.764905    0.194171    0.113081
C         1.166063    0.952164   -0.774352
C         1.567805    2.410171   -0.584666
C         3.100144    2.550232   -0.436449
S         3.630128    4.291278   -0.334616
C         3.930275    4.007780    2.806933
C         2.802596    3.645207    3.428325
C         2.346076    2.234254    3.396989
N         1.090071    2.036151    3.901484
C         0.417503    0.772653    3.764277
C        -1.024418    0.979115    3.312149
N        -1.260009    0.596175    2.035086
C        -2.492859    0.464493    1.381736
C        -2.465958   -0.233899    0.171445
C        -3.633876   -0.511528   -0.534492
C        -3.581949   -1.374063   -1.742942
N        -4.643461   -1.401101   -2.567762
C        -4.548594   -2.202219   -3.618876
N        -3.536711   -2.994973   -3.952986
C        -2.484272   -2.990846   -3.122561
N        -1.452746   -3.824851   -3.458977
C        -0.246061   -4.002562   -2.776903
C        -0.000529   -4.047966   -1.413112
N         1.336189   -4.230638   -1.268326
C         2.064193   -4.265979   -0.013486
C         2.326314   -2.905208    0.613548
O         3.279658   -2.222310   -0.133221
C         3.766195   -1.067445    0.513567
N         1.966859   -4.332455   -2.432267
C         1.030571   -4.188625   -3.359247
C        -2.469997   -2.175442   -1.983966
C        -4.855613   -0.024058   -0.051329
C        -4.879771    0.691751    1.140955
C        -3.715620    0.933616    1.874250
O        -1.852884    1.446220    4.079594
O         3.011057    1.312707    2.948813
N         0.928525    3.017562    0.549470
C        -0.409934    3.233957    0.546890
C        -0.934801    4.098346    1.675661
O        -1.153377    2.742033   -0.287241
H         1.267013    2.946550   -1.503969
N         1.365329    0.512668   -2.031003
C         1.160111   -0.856326   -2.436359
H         3.397487    1.990750    0.466920
H         3.565420    2.047547   -1.299940
H         0.554190    2.820660    4.248216
H         0.368804    0.227767    4.723776
H         1.001527    0.172830    3.054104
H        -0.436223    0.415764    1.441913
H        -1.488753   -0.542349   -0.200994
H        -5.410257   -2.216405   -4.298086
H        -1.576127   -4.294089   -4.347087
H        -0.658758   -3.963801   -0.553062
H         3.021244   -4.760891   -0.223024
H         1.493337   -4.887498    0.693069
H         2.687319   -3.084360    1.648422
H         1.389718   -2.316255    0.690812
H         4.380594   -0.515041   -0.208573
H         4.392109   -1.335705    1.385767
H         2.952508   -0.413623    0.864420
H         1.286894   -4.229431   -4.417063
H        -1.622059   -2.170231   -1.308625
H        -5.766324   -0.228628   -0.615714
H        -5.831530    1.068169    1.523962
H        -3.740049    1.472812    2.818885
H         1.543582    3.688798    1.016902
H        -0.132605    4.566417    2.263085
H        -1.560419    3.482564    2.338953
H        -1.577992    4.878599    1.246594
H         1.672060    1.190037   -2.715442
H         1.759051   -1.541539   -1.818704
H         1.475550   -0.971450   -3.480791
H         0.099026   -1.138497   -2.366967
H         4.557950    3.260039    2.320220
H         4.262501    5.045211    2.769569
H         2.152869    4.389674    3.901416
