-1 1
 OpenBabel05232414493D

 78 80  0  0  1  0  0  0  0  0999 V2000
    1.5240   -0.8319    1.5930 O   0  0  0  0  0  0  0  0  0  0  0  0
    0.5642   -0.0825    1.6554 C   0  0  0  0  0  0  0  0  0  0  0  0
    0.2888    0.7572    2.9132 C   0  0  2  0  0  0  0  0  0  0  0  0
   -0.9592    0.2282    3.6579 C   0  0  0  0  0  0  0  0  0  0  0  0
   -1.5968    1.3253    4.9684 S   0  0  0  0  0  1  0  0  0  0  0  0
   -3.3812    2.3676    3.7181 C   0  0  0  0  0  3  0  0  0  0  0  0
   -2.9745    3.0715    2.5869 C   0  0  0  0  0  3  0  0  0  0  0  0
   -2.7717    2.4137    1.3321 C   0  0  0  0  0  0  0  0  0  0  0  0
   -2.2145    3.2105    0.3129 N   0  0  0  0  0  0  0  0  0  0  0  0
   -1.8138    2.6671   -0.9183 C   0  0  0  0  0  0  0  0  0  0  0  0
   -0.4801    2.7479   -1.3259 C   0  0  0  0  0  0  0  0  0  0  0  0
   -0.0623    2.2124   -2.5471 C   0  0  0  0  0  0  0  0  0  0  0  0
    1.3749    2.2278   -2.9206 C   0  0  0  0  0  0  0  0  0  0  0  0
    1.6666    2.1761   -4.2271 N   0  0  0  0  0  0  0  0  0  0  0  0
    2.9484    2.1602   -4.5724 C   0  0  0  0  0  0  0  0  0  0  0  0
    3.3059    2.1107   -5.9016 N   0  0  0  0  0  0  0  0  0  0  0  0
    2.5471    2.0845   -7.0707 C   0  0  0  0  0  0  0  0  0  0  0  0
    3.2247    1.9147   -8.2855 C   0  0  0  0  0  0  0  0  0  0  0  0
    2.5460    1.8791   -9.5008 C   0  0  0  0  0  0  0  0  0  0  0  0
    1.1548    2.0307   -9.5529 C   0  0  0  0  0  0  0  0  0  0  0  0
    0.4261    2.0247  -10.7651 N   0  0  0  0  0  0  0  0  0  0  0  0
   -0.6397    1.0406  -10.8790 C   0  0  0  0  0  0  0  0  0  0  0  0
   -1.5344    1.3777  -12.0614 C   0  0  0  0  0  0  0  0  0  0  0  0
   -0.7969    1.4777  -13.2528 O   0  0  0  0  0  0  0  0  0  0  0  0
    0.2117    2.4472  -13.1469 C   0  0  0  0  0  0  0  0  0  0  0  0
    1.1682    2.1442  -12.0008 C   0  0  0  0  0  0  0  0  0  0  0  0
    0.4841    2.2168   -8.3347 C   0  0  0  0  0  0  0  0  0  0  0  0
    1.1503    2.2361   -7.1167 C   0  0  0  0  0  0  0  0  0  0  0  0
    3.9938    2.1863   -3.7326 N   0  0  0  0  0  0  0  0  0  0  0  0
    3.6926    2.2295   -2.4403 C   0  0  0  0  0  0  0  0  0  0  0  0
    2.3880    2.2546   -1.9554 C   0  0  0  0  0  0  0  0  0  0  0  0
   -1.0002    1.5947   -3.3820 C   0  0  0  0  0  0  0  0  0  0  0  0
   -2.3255    1.4882   -2.9674 C   0  0  0  0  0  0  0  0  0  0  0  0
   -2.7368    2.0149   -1.7458 C   0  0  0  0  0  0  0  0  0  0  0  0
   -3.0190    1.2261    1.0873 O   0  0  0  0  0  0  0  0  0  0  0  0
   -3.9706    3.1075    4.8885 C   0  0  0  0  0  0  0  0  0  0  0  0
    0.0890    2.1640    2.6395 N   0  0  0  0  0  0  0  0  0  0  0  0
    0.8989    2.9509    1.9152 C   0  0  0  0  0  0  0  0  0  0  0  0
    0.5900    4.4384    2.0050 C   0  0  0  0  0  0  0  0  0  0  0  0
    1.8292    2.5456    1.2290 O   0  0  0  0  0  0  0  0  0  0  0  0
    1.1837    0.6212    3.5417 H   0  0  0  0  0  0  0  0  0  0  0  0
   -0.3477    0.0323    0.6632 N   0  0  0  0  0  0  0  0  0  0  0  0
   -0.1926   -0.7037   -0.5628 C   0  0  0  0  0  0  0  0  0  0  0  0
   -1.7696    0.0721    2.9313 H   0  0  0  0  0  0  0  0  0  0  0  0
   -0.7034   -0.7531    4.0827 H   0  0  0  0  0  0  0  0  0  0  0  0
   -1.6916    4.0155    0.6306 H   0  0  0  0  0  0  0  0  0  0  0  0
    0.2538    3.1950   -0.6552 H   0  0  0  0  0  0  0  0  0  0  0  0
    4.3105    2.0700   -6.0149 H   0  0  0  0  0  0  0  0  0  0  0  0
    4.3118    1.7937   -8.2813 H   0  0  0  0  0  0  0  0  0  0  0  0
    3.1237    1.7211  -10.4123 H   0  0  0  0  0  0  0  0  0  0  0  0
   -1.2425    1.0280   -9.9612 H   0  0  0  0  0  0  0  0  0  0  0  0
   -0.2228    0.0189  -11.0162 H   0  0  0  0  0  0  0  0  0  0  0  0
   -2.0610    2.3317  -11.8556 H   0  0  0  0  0  0  0  0  0  0  0  0
   -2.2864    0.5897  -12.2105 H   0  0  0  0  0  0  0  0  0  0  0  0
   -0.2344    3.4498  -12.9862 H   0  0  0  0  0  0  0  0  0  0  0  0
    0.7538    2.4573  -14.1035 H   0  0  0  0  0  0  0  0  0  0  0  0
    1.8954    2.9658  -11.9135 H   0  0  0  0  0  0  0  0  0  0  0  0
    1.7334    1.2162  -12.2425 H   0  0  0  0  0  0  0  0  0  0  0  0
   -0.5970    2.3735   -8.3379 H   0  0  0  0  0  0  0  0  0  0  0  0
    0.6054    2.3827   -6.1871 H   0  0  0  0  0  0  0  0  0  0  0  0
    4.5360    2.2373   -1.7415 H   0  0  0  0  0  0  0  0  0  0  0  0
    2.1887    2.2689   -0.8803 H   0  0  0  0  0  0  0  0  0  0  0  0
   -0.6704    1.1685   -4.3307 H   0  0  0  0  0  0  0  0  0  0  0  0
   -3.0533    0.9802   -3.6047 H   0  0  0  0  0  0  0  0  0  0  0  0
   -3.7700    1.9199   -1.4124 H   0  0  0  0  0  0  0  0  0  0  0  0
   -4.0642    2.4637    5.7731 H   0  0  0  0  0  0  0  0  0  0  0  0
   -4.9731    3.4812    4.6154 H   0  0  0  0  0  0  0  0  0  0  0  0
   -3.3528    3.9780    5.1571 H   0  0  0  0  0  0  0  0  0  0  0  0
   -0.6023    2.5865    3.2650 H   0  0  0  0  0  0  0  0  0  0  0  0
   -0.3721    4.6512    2.4918 H   0  0  0  0  0  0  0  0  0  0  0  0
    0.6130    4.8787    0.9977 H   0  0  0  0  0  0  0  0  0  0  0  0
    1.3898    4.9214    2.5858 H   0  0  0  0  0  0  0  0  0  0  0  0
   -1.2350    0.5159    0.8184 H   0  0  0  0  0  0  0  0  0  0  0  0
    0.7705   -0.4656   -1.0421 H   0  0  0  0  0  0  0  0  0  0  0  0
   -1.0043   -0.4231   -1.2465 H   0  0  0  0  0  0  0  0  0  0  0  0
   -0.2181   -1.7949   -0.3981 H   0  0  0  0  0  0  0  0  0  0  0  0
   -3.7798    1.3678    3.5290 H   0  0  0  0  0  0  0  0  0  0  0  0
   -2.7363    4.1381    2.6677 H   0  0  0  0  0  0  0  0  0  0  0  0
  1  2  2  0  0  0  0
  2  3  1  0  0  0  0
  3 41  1  1  0  0  0
  3  4  1  0  0  0  0
  4 45  1  0  0  0  0
  4  5  1  0  0  0  0
  6 36  1  0  0  0  0
  7 78  1  0  0  0  0
  7  6  1  0  0  0  0
  8  7  1  0  0  0  0
  9 46  1  0  0  0  0
  9  8  1  0  0  0  0
 10  9  1  0  0  0  0
 11 10  1  0  0  0  0
 11 47  1  0  0  0  0
 12 11  2  0  0  0  0
 13 12  1  0  0  0  0
 13 31  2  0  0  0  0
 14 13  1  0  0  0  0
 15 14  2  0  0  0  0
 15 29  1  0  0  0  0
 16 15  1  0  0  0  0
 17 16  1  0  0  0  0
 18 49  1  0  0  0  0
 18 17  2  0  0  0  0
 19 18  1  0  0  0  0
 20 19  2  0  0  0  0
 20 27  1  0  0  0  0
 21 20  1  0  0  0  0
 22 21  1  0  0  0  0
 22 51  1  0  0  0  0
 23 53  1  0  0  0  0
 23 22  1  0  0  0  0
 24 25  1  0  0  0  0
 24 23  1  0  0  0  0
 25 55  1  0  0  0  0
 25 26  1  0  0  0  0
 26 57  1  0  0  0  0
 26 21  1  0  0  0  0
 27 28  2  0  0  0  0
 28 17  1  0  0  0  0
 28 60  1  0  0  0  0
 29 30  2  0  0  0  0
 30 31  1  0  0  0  0
 30 61  1  0  0  0  0
 31 62  1  0  0  0  0
 32 33  2  0  0  0  0
 32 12  1  0  0  0  0
 33 34  1  0  0  0  0
 34 65  1  0  0  0  0
 34 10  2  0  0  0  0
 35  8  2  0  0  0  0
 36 68  1  0  0  0  0
 36 66  1  0  0  0  0
 37  3  1  0  0  0  0
 37 69  1  0  0  0  0
 38 39  1  0  0  0  0
 38 37  1  0  0  0  0
 39 70  1  0  0  0  0
 39 72  1  0  0  0  0
 40 38  2  0  0  0  0
 42 73  1  0  0  0  0
 42  2  1  0  0  0  0
 43 76  1  0  0  0  0
 43 42  1  0  0  0  0
 44  4  1  0  0  0  0
 48 16  1  0  0  0  0
 50 19  1  0  0  0  0
 52 22  1  0  0  0  0
 54 23  1  0  0  0  0
 56 25  1  0  0  0  0
 58 26  1  0  0  0  0
 59 27  1  0  0  0  0
 63 32  1  0  0  0  0
 64 33  1  0  0  0  0
 67 36  1  0  0  0  0
 71 39  1  0  0  0  0
 74 43  1  0  0  0  0
 75 43  1  0  0  0  0
 77  6  1  0  0  0  0
M  END
