-1 1
 OpenBabel05232413493D

 78 80  0  0  1  0  0  0  0  0999 V2000
    1.7368   -2.1928    3.5380 O   0  0  0  0  0  0  0  0  0  0  0  0
    0.7240   -1.6376    3.9329 C   0  0  0  0  0  0  0  0  0  0  0  0
    0.6651   -0.9575    5.3017 C   0  0  2  0  0  0  0  0  0  0  0  0
   -0.0985   -1.8430    6.3216 C   0  0  0  0  0  0  0  0  0  0  0  0
   -0.5058   -0.9806    7.8825 S   0  0  0  0  0  1  0  0  0  0  0  0
   -3.4324    0.5857    6.3081 C   0  0  0  0  0  0  0  0  0  0  0  0
   -3.3002    1.3041    5.1856 C   0  0  0  0  0  0  0  0  0  0  0  0
   -3.0241    0.6331    3.8934 C   0  0  0  0  0  0  0  0  0  0  0  0
   -2.5316    1.4611    2.9079 N   0  0  0  0  0  0  0  0  0  0  0  0
   -2.1128    0.9616    1.6466 C   0  0  0  0  0  0  0  0  0  0  0  0
   -0.7598    0.9553    1.3124 C   0  0  0  0  0  0  0  0  0  0  0  0
   -0.3367    0.4284    0.0887 C   0  0  0  0  0  0  0  0  0  0  0  0
    1.1128    0.3013   -0.2166 C   0  0  0  0  0  0  0  0  0  0  0  0
    1.4545    0.2031   -1.5089 N   0  0  0  0  0  0  0  0  0  0  0  0
    2.7400    0.0355   -1.7924 C   0  0  0  0  0  0  0  0  0  0  0  0
    3.1540   -0.0653   -3.1031 N   0  0  0  0  0  0  0  0  0  0  0  0
    2.4555   -0.0132   -4.3074 C   0  0  0  0  0  0  0  0  0  0  0  0
    3.1607   -0.2939   -5.4856 C   0  0  0  0  0  0  0  0  0  0  0  0
    2.5414   -0.2607   -6.7323 C   0  0  0  0  0  0  0  0  0  0  0  0
    1.1870    0.0736   -6.8548 C   0  0  0  0  0  0  0  0  0  0  0  0
    0.5217    0.1418   -8.1013 N   0  0  0  0  0  0  0  0  0  0  0  0
   -0.6556   -0.6990   -8.2569 C   0  0  0  0  0  0  0  0  0  0  0  0
   -1.4424   -0.2692   -9.4852 C   0  0  0  0  0  0  0  0  0  0  0  0
   -0.6429   -0.2841  -10.6399 O   0  0  0  0  0  0  0  0  0  0  0  0
    0.4773    0.5483  -10.4948 C   0  0  0  0  0  0  0  0  0  0  0  0
    1.3308    0.1427   -9.3002 C   0  0  0  0  0  0  0  0  0  0  0  0
    0.4906    0.3701   -5.6736 C   0  0  0  0  0  0  0  0  0  0  0  0
    1.0955    0.3229   -4.4246 C   0  0  0  0  0  0  0  0  0  0  0  0
    3.7392   -0.0585   -0.9030 N   0  0  0  0  0  0  0  0  0  0  0  0
    3.3876    0.0363    0.3731 C   0  0  0  0  0  0  0  0  0  0  0  0
    2.0738    0.2273    0.7946 C   0  0  0  0  0  0  0  0  0  0  0  0
   -1.2871   -0.0674   -0.8112 C   0  0  0  0  0  0  0  0  0  0  0  0
   -2.6370   -0.0654   -0.4718 C   0  0  0  0  0  0  0  0  0  0  0  0
   -3.0553    0.4437    0.7558 C   0  0  0  0  0  0  0  0  0  0  0  0
   -3.2013   -0.5591    3.7010 O   0  0  0  0  0  0  0  0  0  0  0  0
   -3.6311    1.1345    7.6762 C   0  0  0  0  0  0  0  0  0  0  0  0
    0.0261    0.3424    5.2942 N   0  0  0  0  0  0  0  0  0  0  0  0
    0.4964    1.4059    4.6291 C   0  0  0  0  0  0  0  0  0  0  0  0
   -0.0522    2.7492    5.0789 C   0  0  0  0  0  0  0  0  0  0  0  0
    1.3191    1.3470    3.7178 O   0  0  0  0  0  0  0  0  0  0  0  0
    1.7150   -0.8551    5.6200 H   0  0  0  0  0  0  0  0  0  0  0  0
   -0.4326   -1.6431    3.2258 N   0  0  0  0  0  0  0  0  0  0  0  0
   -0.5524   -2.3658    1.9883 C   0  0  0  0  0  0  0  0  0  0  0  0
   -1.0256   -2.1974    5.8391 H   0  0  0  0  0  0  0  0  0  0  0  0
    0.5248   -2.7307    6.5061 H   0  0  0  0  0  0  0  0  0  0  0  0
   -2.1442    2.3472    3.2069 H   0  0  0  0  0  0  0  0  0  0  0  0
   -0.0272    1.3215    2.0351 H   0  0  0  0  0  0  0  0  0  0  0  0
    4.1500   -0.2318   -3.1653 H   0  0  0  0  0  0  0  0  0  0  0  0
    4.2202   -0.5589   -5.4264 H   0  0  0  0  0  0  0  0  0  0  0  0
    3.1352   -0.5108   -7.6122 H   0  0  0  0  0  0  0  0  0  0  0  0
   -1.2974   -0.6187   -7.3694 H   0  0  0  0  0  0  0  0  0  0  0  0
   -0.3683   -1.7680   -8.3630 H   0  0  0  0  0  0  0  0  0  0  0  0
   -1.8507    0.7479   -9.3150 H   0  0  0  0  0  0  0  0  0  0  0  0
   -2.2820   -0.9564   -9.6630 H   0  0  0  0  0  0  0  0  0  0  0  0
    0.1583    1.6026  -10.3662 H   0  0  0  0  0  0  0  0  0  0  0  0
    1.0604    0.4724  -11.4239 H   0  0  0  0  0  0  0  0  0  0  0  0
    2.1544    0.8638   -9.1857 H   0  0  0  0  0  0  0  0  0  0  0  0
    1.7803   -0.8549   -9.5041 H   0  0  0  0  0  0  0  0  0  0  0  0
   -0.5583    0.6698   -5.7326 H   0  0  0  0  0  0  0  0  0  0  0  0
    0.5321    0.5586   -3.5250 H   0  0  0  0  0  0  0  0  0  0  0  0
    4.1895   -0.0539    1.1129 H   0  0  0  0  0  0  0  0  0  0  0  0
    1.8321    0.2950    1.8576 H   0  0  0  0  0  0  0  0  0  0  0  0
   -0.9471   -0.4870   -1.7593 H   0  0  0  0  0  0  0  0  0  0  0  0
   -3.3737   -0.4757   -1.1662 H   0  0  0  0  0  0  0  0  0  0  0  0
   -4.1086    0.4325    1.0395 H   0  0  0  0  0  0  0  0  0  0  0  0
   -2.7775    0.8043    8.2914 H   0  0  0  0  0  0  0  0  0  0  0  0
   -4.5405    0.7123    8.1338 H   0  0  0  0  0  0  0  0  0  0  0  0
   -3.7011    2.2325    7.6847 H   0  0  0  0  0  0  0  0  0  0  0  0
   -0.4836    0.4768    6.1875 H   0  0  0  0  0  0  0  0  0  0  0  0
   -0.9372    2.6584    5.7221 H   0  0  0  0  0  0  0  0  0  0  0  0
   -0.2743    3.3685    4.1972 H   0  0  0  0  0  0  0  0  0  0  0  0
    0.7387    3.2659    5.6431 H   0  0  0  0  0  0  0  0  0  0  0  0
   -1.2820   -1.2549    3.6265 H   0  0  0  0  0  0  0  0  0  0  0  0
    0.3184   -2.1676    1.3464 H   0  0  0  0  0  0  0  0  0  0  0  0
   -1.4638   -2.0371    1.4714 H   0  0  0  0  0  0  0  0  0  0  0  0
   -0.6052   -3.4579    2.1462 H   0  0  0  0  0  0  0  0  0  0  0  0
   -3.3434   -0.5029    6.2245 H   0  0  0  0  0  0  0  0  0  0  0  0
   -3.3375    2.3992    5.2069 H   0  0  0  0  0  0  0  0  0  0  0  0
  1  2  2  0  0  0  0
  2  3  1  0  0  0  0
  3 41  1  1  0  0  0
  3  4  1  0  0  0  0
  4 45  1  0  0  0  0
  4  5  1  0  0  0  0
  6 36  1  0  0  0  0
  7 78  1  0  0  0  0
  7  6  2  0  0  0  0
  8  7  1  0  0  0  0
  9 46  1  0  0  0  0
  9  8  1  0  0  0  0
 10  9  1  0  0  0  0
 11 10  1  0  0  0  0
 11 47  1  0  0  0  0
 12 11  2  0  0  0  0
 13 12  1  0  0  0  0
 13 31  2  0  0  0  0
 14 13  1  0  0  0  0
 15 14  2  0  0  0  0
 15 29  1  0  0  0  0
 16 15  1  0  0  0  0
 17 16  1  0  0  0  0
 18 49  1  0  0  0  0
 18 17  2  0  0  0  0
 19 18  1  0  0  0  0
 20 19  2  0  0  0  0
 20 27  1  0  0  0  0
 21 20  1  0  0  0  0
 22 21  1  0  0  0  0
 22 51  1  0  0  0  0
 23 53  1  0  0  0  0
 23 22  1  0  0  0  0
 24 25  1  0  0  0  0
 24 23  1  0  0  0  0
 25 55  1  0  0  0  0
 25 26  1  0  0  0  0
 26 57  1  0  0  0  0
 26 21  1  0  0  0  0
 27 28  2  0  0  0  0
 28 17  1  0  0  0  0
 28 60  1  0  0  0  0
 29 30  2  0  0  0  0
 30 31  1  0  0  0  0
 30 61  1  0  0  0  0
 31 62  1  0  0  0  0
 32 33  2  0  0  0  0
 32 12  1  0  0  0  0
 33 34  1  0  0  0  0
 34 65  1  0  0  0  0
 34 10  2  0  0  0  0
 35  8  2  0  0  0  0
 36 68  1  0  0  0  0
 36 67  1  0  0  0  0
 36 66  1  0  0  0  0
 37  3  1  0  0  0  0
 37 69  1  0  0  0  0
 38 39  1  0  0  0  0
 38 37  1  0  0  0  0
 39 72  1  0  0  0  0
 39 70  1  0  0  0  0
 40 38  2  0  0  0  0
 42 73  1  0  0  0  0
 42  2  1  0  0  0  0
 43 76  1  0  0  0  0
 43 42  1  0  0  0  0
 44  4  1  0  0  0  0
 48 16  1  0  0  0  0
 50 19  1  0  0  0  0
 52 22  1  0  0  0  0
 54 23  1  0  0  0  0
 56 25  1  0  0  0  0
 58 26  1  0  0  0  0
 59 27  1  0  0  0  0
 63 32  1  0  0  0  0
 64 33  1  0  0  0  0
 71 39  1  0  0  0  0
 74 43  1  0  0  0  0
 75 43  1  0  0  0  0
 77  6  1  0  0  0  0
M  END
