-1 1
 OpenBabel05192410563D

 78 81  0  0  1  0  0  0  0  0999 V2000
    1.3789   -2.7970    4.3101 O   0  0  0  0  0  0  0  0  0  0  0  0
    0.4745   -1.9799    4.2878 C   0  0  0  0  0  0  0  0  0  0  0  0
    0.2102   -1.0376    5.4809 C   0  0  2  0  0  0  0  0  0  0  0  0
   -1.0667   -1.5038    6.2078 C   0  0  0  0  0  0  0  0  0  0  0  0
   -1.7367   -0.3892    7.4849 S   0  0  0  0  0  0  0  0  0  0  0  0
   -3.1864    0.4086    6.5302 C   0  0  2  0  0  0  0  0  0  0  0  0
   -2.8231    1.1763    5.3135 C   0  0  0  0  0  3  0  0  0  0  0  0
   -2.8103    0.5718    4.0562 C   0  0  0  0  0  0  0  0  0  0  0  0
   -2.4390    1.4115    2.9507 N   0  0  0  0  0  0  0  0  0  0  0  0
   -2.0020    0.8210    1.7576 C   0  0  0  0  0  0  0  0  0  0  0  0
   -0.6702    0.9352    1.3482 C   0  0  0  0  0  0  0  0  0  0  0  0
   -0.2132    0.3430    0.1681 C   0  0  0  0  0  0  0  0  0  0  0  0
    1.2266    0.3945   -0.1868 C   0  0  0  0  0  0  0  0  0  0  0  0
    1.5388    0.3568   -1.4890 N   0  0  0  0  0  0  0  0  0  0  0  0
    2.8254    0.3774   -1.8161 C   0  0  0  0  0  0  0  0  0  0  0  0
    3.2015    0.3416   -3.1406 N   0  0  0  0  0  0  0  0  0  0  0  0
    2.4588    0.2942   -4.3193 C   0  0  0  0  0  0  0  0  0  0  0  0
    3.1582    0.1668   -5.5270 C   0  0  0  0  0  0  0  0  0  0  0  0
    2.4967    0.1121   -6.7511 C   0  0  0  0  0  0  0  0  0  0  0  0
    1.1009    0.2018   -6.8194 C   0  0  0  0  0  0  0  0  0  0  0  0
    0.3882    0.1754   -8.0409 N   0  0  0  0  0  0  0  0  0  0  0  0
   -0.6317   -0.8534   -8.1775 C   0  0  0  0  0  0  0  0  0  0  0  0
   -1.5258   -0.5444   -9.3680 C   0  0  0  0  0  0  0  0  0  0  0  0
   -0.7788   -0.4003  -10.5490 O   0  0  0  0  0  0  0  0  0  0  0  0
    0.1849    0.6113  -10.4213 C   0  0  0  0  0  0  0  0  0  0  0  0
    1.1395    0.3394   -9.2658 C   0  0  0  0  0  0  0  0  0  0  0  0
    0.4077    0.3453   -5.6081 C   0  0  0  0  0  0  0  0  0  0  0  0
    1.0571    0.3825   -4.3814 C   0  0  0  0  0  0  0  0  0  0  0  0
    3.8586    0.4311   -0.9625 N   0  0  0  0  0  0  0  0  0  0  0  0
    3.5388    0.4555    0.3259 C   0  0  0  0  0  0  0  0  0  0  0  0
    2.2271    0.4387    0.7913 C   0  0  0  0  0  0  0  0  0  0  0  0
   -1.1133   -0.3650   -0.6357 C   0  0  0  0  0  0  0  0  0  0  0  0
   -2.4358   -0.5087   -0.2202 C   0  0  0  0  0  0  0  0  0  0  0  0
   -2.8814    0.0688    0.9657 C   0  0  0  0  0  0  0  0  0  0  0  0
   -3.0039   -0.6418    3.8012 O   0  0  0  0  0  0  0  0  0  0  0  0
   -3.9305    1.2400    7.5694 C   0  0  0  0  0  0  0  0  0  0  0  0
    0.0855    0.3481    5.0959 N   0  0  0  0  0  0  0  0  0  0  0  0
    1.0691    1.0531    4.5136 C   0  0  0  0  0  0  0  0  0  0  0  0
    0.7902    2.5424    4.3754 C   0  0  0  0  0  0  0  0  0  0  0  0
    2.1331    0.5737    4.1417 O   0  0  0  0  0  0  0  0  0  0  0  0
    1.0902   -1.1597    6.1314 H   0  0  0  0  0  0  0  0  0  0  0  0
   -0.3911   -1.8490    3.2576 N   0  0  0  0  0  0  0  0  0  0  0  0
   -0.2625   -2.6716    2.0842 C   0  0  0  0  0  0  0  0  0  0  0  0
   -1.8763   -1.6488    5.4778 H   0  0  0  0  0  0  0  0  0  0  0  0
   -0.8554   -2.4738    6.6783 H   0  0  0  0  0  0  0  0  0  0  0  0
   -1.8968    2.2196    3.2283 H   0  0  0  0  0  0  0  0  0  0  0  0
    0.0304    1.4734    1.9865 H   0  0  0  0  0  0  0  0  0  0  0  0
    4.2082    0.3345   -3.2411 H   0  0  0  0  0  0  0  0  0  0  0  0
    4.2496    0.0953   -5.5102 H   0  0  0  0  0  0  0  0  0  0  0  0
    3.0922   -0.0108   -7.6566 H   0  0  0  0  0  0  0  0  0  0  0  0
   -1.2446   -0.9014   -7.2676 H   0  0  0  0  0  0  0  0  0  0  0  0
   -0.1686   -1.8545   -8.3188 H   0  0  0  0  0  0  0  0  0  0  0  0
   -2.0964    0.3836   -9.1600 H   0  0  0  0  0  0  0  0  0  0  0  0
   -2.2405   -1.3630   -9.5339 H   0  0  0  0  0  0  0  0  0  0  0  0
   -0.3068    1.5917  -10.2571 H   0  0  0  0  0  0  0  0  0  0  0  0
    0.7378    0.6545  -11.3707 H   0  0  0  0  0  0  0  0  0  0  0  0
    1.8285    1.1914   -9.1617 H   0  0  0  0  0  0  0  0  0  0  0  0
    1.7482   -0.5603   -9.5087 H   0  0  0  0  0  0  0  0  0  0  0  0
   -0.6793    0.4526   -5.6232 H   0  0  0  0  0  0  0  0  0  0  0  0
    0.4948    0.4947   -3.4572 H   0  0  0  0  0  0  0  0  0  0  0  0
    4.3696    0.4812    1.0391 H   0  0  0  0  0  0  0  0  0  0  0  0
    2.0246    0.4223    1.8648 H   0  0  0  0  0  0  0  0  0  0  0  0
   -0.7561   -0.8321   -1.5550 H   0  0  0  0  0  0  0  0  0  0  0  0
   -3.1334   -1.0894   -0.8290 H   0  0  0  0  0  0  0  0  0  0  0  0
   -3.9097   -0.0560    1.3037 H   0  0  0  0  0  0  0  0  0  0  0  0
   -4.1912    0.6520    8.4632 H   0  0  0  0  0  0  0  0  0  0  0  0
   -4.8566    1.6343    7.1236 H   0  0  0  0  0  0  0  0  0  0  0  0
   -3.3212    2.1005    7.8914 H   0  0  0  0  0  0  0  0  0  0  0  0
   -0.8174    0.8029    5.2947 H   0  0  0  0  0  0  0  0  0  0  0  0
   -0.2507    2.8101    4.6061 H   0  0  0  0  0  0  0  0  0  0  0  0
    1.0573    2.8755    3.3626 H   0  0  0  0  0  0  0  0  0  0  0  0
    1.4478    3.0762    5.0773 H   0  0  0  0  0  0  0  0  0  0  0  0
   -1.2668   -1.3252    3.3805 H   0  0  0  0  0  0  0  0  0  0  0  0
    0.6895   -2.4731    1.5651 H   0  0  0  0  0  0  0  0  0  0  0  0
   -1.0875   -2.4361    1.4000 H   0  0  0  0  0  0  0  0  0  0  0  0
   -0.2862   -3.7471    2.3303 H   0  0  0  0  0  0  0  0  0  0  0  0
   -3.7922   -0.4635    6.2426 H   0  0  0  0  0  0  0  0  0  0  0  0
   -2.6957    2.2616    5.3987 H   0  0  0  0  0  0  0  0  0  0  0  0
  2  1  2  0  0  0  0
  2  3  1  0  0  0  0
  3 41  1  1  0  0  0
  3  4  1  0  0  0  0
  4 45  1  0  0  0  0
  4  5  1  0  0  0  0
  6 77  1  6  0  0  0
  6  5  1  0  0  0  0
  6 36  1  0  0  0  0
  7 78  1  0  0  0  0
  7  6  1  0  0  0  0
  8  7  1  0  0  0  0
  9 46  1  0  0  0  0
  9  8  1  0  0  0  0
 10  9  1  0  0  0  0
 11 10  1  0  0  0  0
 11 47  1  0  0  0  0
 12 11  2  0  0  0  0
 13 12  1  0  0  0  0
 13 31  2  0  0  0  0
 14 13  1  0  0  0  0
 15 14  2  0  0  0  0
 15 29  1  0  0  0  0
 16 15  1  0  0  0  0
 17 16  1  0  0  0  0
 18 49  1  0  0  0  0
 18 17  2  0  0  0  0
 19 18  1  0  0  0  0
 20 19  2  0  0  0  0
 20 27  1  0  0  0  0
 21 20  1  0  0  0  0
 22 21  1  0  0  0  0
 22 51  1  0  0  0  0
 23 53  1  0  0  0  0
 23 22  1  0  0  0  0
 24 25  1  0  0  0  0
 24 23  1  0  0  0  0
 25 55  1  0  0  0  0
 25 26  1  0  0  0  0
 26 57  1  0  0  0  0
 26 21  1  0  0  0  0
 27 28  2  0  0  0  0
 28 17  1  0  0  0  0
 28 60  1  0  0  0  0
 29 30  2  0  0  0  0
 30 31  1  0  0  0  0
 30 61  1  0  0  0  0
 31 62  1  0  0  0  0
 32 33  2  0  0  0  0
 32 12  1  0  0  0  0
 33 34  1  0  0  0  0
 34 65  1  0  0  0  0
 34 10  2  0  0  0  0
 35  8  2  0  0  0  0
 36 68  1  0  0  0  0
 36 66  1  0  0  0  0
 37 69  1  0  0  0  0
 37  3  1  0  0  0  0
 38 37  1  0  0  0  0
 39 38  1  0  0  0  0
 39 70  1  0  0  0  0
 39 72  1  0  0  0  0
 40 38  2  0  0  0  0
 42 73  1  0  0  0  0
 42  2  1  0  0  0  0
 43 76  1  0  0  0  0
 43 42  1  0  0  0  0
 44  4  1  0  0  0  0
 48 16  1  0  0  0  0
 50 19  1  0  0  0  0
 52 22  1  0  0  0  0
 54 23  1  0  0  0  0
 56 25  1  0  0  0  0
 58 26  1  0  0  0  0
 59 27  1  0  0  0  0
 63 32  1  0  0  0  0
 64 33  1  0  0  0  0
 67 36  1  0  0  0  0
 71 39  1  0  0  0  0
 74 43  1  0  0  0  0
 75 43  1  0  0  0  0
M  END
