78
-1 1
O         1.378864   -2.796993    4.310061
C         0.474490   -1.979921    4.287809
C         0.210186   -1.037566    5.480852
C        -1.066682   -1.503778    6.207752
S        -1.736686   -0.389201    7.484930
C        -3.186389    0.408592    6.530192
C        -2.823078    1.176342    5.313488
C        -2.810342    0.571831    4.056199
N        -2.439048    1.411483    2.950745
C        -2.002011    0.820998    1.757551
C        -0.670203    0.935168    1.348217
C        -0.213239    0.343002    0.168054
C         1.226581    0.394510   -0.186782
N         1.538754    0.356834   -1.489040
C         2.825420    0.377376   -1.816098
N         3.201507    0.341636   -3.140576
C         2.458797    0.294187   -4.319326
C         3.158153    0.166764   -5.526961
C         2.496668    0.112085   -6.751110
C         1.100850    0.201818   -6.819371
N         0.388160    0.175383   -8.040902
C        -0.631693   -0.853394   -8.177502
C        -1.525752   -0.544350   -9.367986
O        -0.778837   -0.400318  -10.549006
C         0.184863    0.611292  -10.421261
C         1.139495    0.339429   -9.265755
C         0.407677    0.345273   -5.608059
C         1.057092    0.382536   -4.381433
N         3.858603    0.431063   -0.962473
C         3.538829    0.455462    0.325890
C         2.227139    0.438710    0.791350
C        -1.113276   -0.365025   -0.635722
C        -2.435780   -0.508697   -0.220201
C        -2.881388    0.068780    0.965739
O        -3.003945   -0.641760    3.801206
C        -3.930501    1.239996    7.569378
N         0.085521    0.348132    5.095934
C         1.069118    1.053118    4.513570
C         0.790192    2.542380    4.375392
O         2.133054    0.573691    4.141737
H         1.090237   -1.159710    6.131400
N        -0.391056   -1.849013    3.257642
C        -0.262478   -2.671606    2.084179
H        -1.876312   -1.648776    5.477831
H        -0.855428   -2.473811    6.678290
H        -1.896850    2.219599    3.228309
H         0.030428    1.473379    1.986511
H         4.208206    0.334471   -3.241108
H         4.249568    0.095268   -5.510219
H         3.092162   -0.010806   -7.656583
H        -1.244634   -0.901352   -7.267596
H        -0.168592   -1.854468   -8.318819
H        -2.096361    0.383555   -9.160040
H        -2.240485   -1.363026   -9.533909
H        -0.306756    1.591739  -10.257052
H         0.737814    0.654476  -11.370735
H         1.828547    1.191369   -9.161688
H         1.748226   -0.560303   -9.508682
H        -0.679341    0.452645   -5.623221
H         0.494757    0.494722   -3.457225
H         4.369612    0.481209    1.039097
H         2.024565    0.422300    1.864819
H        -0.756139   -0.832083   -1.555041
H        -3.133369   -1.089410   -0.829015
H        -3.909703   -0.055996    1.303684
H        -4.191180    0.652011    8.463152
H        -4.856622    1.634258    7.123584
H        -3.321225    2.100501    7.891386
H        -0.817448    0.802881    5.294731
H        -0.250654    2.810119    4.606093
H         1.057274    2.875520    3.362593
H         1.447833    3.076229    5.077291
H        -1.266776   -1.325166    3.380486
H         0.689479   -2.473077    1.565147
H        -1.087454   -2.436127    1.400023
H        -0.286206   -3.747120    2.330329
H        -3.792156   -0.463525    6.242619
H        -2.695746    2.261554    5.398721
