55
-1 1
C         1.672419    0.627791    2.804789
C         1.038290   -0.476565    1.983957
H         1.262985   -1.445823    2.473305
O        -0.372889   -0.251767    2.048385
C        -1.247733   -1.156281    1.405943
H        -2.016323   -0.554209    0.902479
C        -1.824712   -2.167097    2.387136
C        -0.908335   -3.371901    2.255393
O        -0.199930   -3.258189    1.125404
C        -0.551608   -2.058809    0.381082
H        -1.251164   -2.359414   -0.411752
C         0.659597   -1.445036   -0.231556
C         1.456283   -0.629328    0.529347
S         1.143561    1.967580   -0.416292
C        -0.430112    1.484554   -1.147237
C        -1.658992    2.142204   -0.510308
H        -1.702060    3.205885   -0.796919
N        -1.601322    2.085030    0.938527
C        -2.217665    2.975939    1.733623
C        -1.845820    2.882803    3.198640
O        -3.010056    3.822177    1.320537
C        -2.968492    1.464324   -0.961100
N        -4.053570    2.275475   -0.856961
C        -5.390984    1.777833   -1.042982
O        -3.023525    0.303278   -1.333354
C         2.788264   -0.192954    0.030135
O         3.695295    0.172085    0.761389
C         0.945525   -1.780312   -1.628948
O         0.226222   -2.519446   -2.286414
C         2.167963   -1.165118   -2.222132
C         3.038023   -0.400453   -1.435447
C         4.200970    0.126089   -2.003662
C         4.471524   -0.073684   -3.351279
C         3.593716   -0.823357   -4.142950
C         2.451520   -1.373582   -3.575739
O        -0.805930   -4.303971    3.002423
H         1.487494    1.599818    2.326915
H         2.754954    0.477273    2.868843
H         1.227434    0.613591    3.811044
H        -2.837851   -2.479839    2.088172
H        -1.864468   -1.803254    3.421073
H        -0.541200    0.384081   -1.065472
H        -0.453912    1.698140   -2.226477
H        -0.909848    1.449243    1.343821
H        -1.423291    1.901895    3.456030
H        -2.732748    3.092875    3.810272
H        -1.091080    3.654082    3.414392
H        -3.908396    3.118780   -0.296797
H        -5.899380    1.585086   -0.081956
H        -5.331756    0.831459   -1.595920
H        -5.999792    2.492928   -1.617774
H         4.870875    0.700541   -1.361934
H         5.373378    0.356253   -3.794661
H         3.809571   -0.979710   -5.202813
H         1.750980   -1.977029   -4.156255
