66
-1 1
O        -1.466086   -1.891519    3.737749
C        -1.005995   -0.894934    3.193897
C         0.224814   -0.188424    3.769793
C         1.488326   -0.832025    3.171433
S         3.032371   -0.004339    3.641101
C         3.177655    1.229677    2.217006
C         1.922600    1.887514    1.808839
C         1.176438    1.363833    0.765211
N        -0.118066    2.014055    0.572674
C        -0.907848    1.886970   -0.560586
C        -1.038513    0.650172   -1.212408
C        -1.821448    0.506514   -2.355219
C        -1.875546   -0.806057   -3.029150
C        -0.797047   -1.735811   -3.249528
C         0.689062   -1.597897   -2.973983
N         1.430208   -0.689203   -3.838565
C         1.198926   -0.888493   -5.244604
C         2.327915   -0.381585   -6.145367
N         2.134555   -0.656792   -7.563506
C         1.441639    0.697768   -3.416569
C        -1.350612   -2.824141   -3.891113
N        -2.689852   -2.605544   -4.065374
H        -3.340523   -3.258762   -4.473284
C        -3.018676   -1.384747   -3.546086
C        -2.545784    1.607509   -2.838981
C        -2.463936    2.826857   -2.170228
C        -1.647575    2.977607   -1.051764
O         1.455755    0.393071    0.022032
N         0.187216   -0.300850    5.206082
C         0.121320    0.764489    6.045458
C         0.091436    0.397395    7.521004
O         0.127876    1.924746    5.680982
H         0.221168    0.879501    3.518429
N        -1.491786   -0.360344    2.055622
C        -2.568033   -0.968025    1.313507
H         1.552289   -1.878581    3.509165
H         1.422618   -0.833744    2.072908
H        -0.171842    2.921418    1.019310
H        -0.483336   -0.190550   -0.808330
H         1.126352   -2.607223   -3.083305
H         0.882050   -1.287946   -1.937008
H         0.238478   -0.430174   -5.588492
H         1.090445   -1.973225   -5.427461
H         3.274859   -0.836582   -5.811423
H         2.453023    0.705977   -6.024634
H         2.008220   -1.659215   -7.700153
H         1.261092   -0.231283   -7.872410
H         1.561823    0.748277   -2.323686
H         0.514116    1.247758   -3.686946
H         2.292948    1.229379   -3.871697
H        -0.873671   -3.737728   -4.241619
H        -4.044011   -1.021510   -3.543375
H        -3.148107    1.509614   -3.745312
H        -3.025830    3.688543   -2.541257
H        -1.566655    3.950178   -0.557860
H        -0.019097   -1.227507    5.559031
H        -0.493072    1.152551    8.061419
H         1.122208    0.422054    7.905793
H        -0.325922   -0.602360    7.709941
H        -1.031836    0.464111    1.664655
H        -2.198044   -1.568486    0.465741
H        -3.233354   -0.192094    0.908890
H        -3.131163   -1.624822    1.989844
H         3.599136    0.663686    1.375146
H         3.940381    1.926710    2.598132
H         1.516170    2.688441    2.433753
