-1 1
 OpenBabel05232413493D

 66 66  0  0  1  0  0  0  0  0999 V2000
   -2.3905    0.6096    3.4476 O   0  0  0  0  0  0  0  0  0  0  0  0
   -1.4816   -0.1988    3.4752 C   0  0  0  0  0  0  0  0  0  0  0  0
   -0.3346   -0.1458    4.4870 C   0  0  2  0  0  0  0  0  0  0  0  0
   -0.6431   -1.1292    5.6543 C   0  0  0  0  0  0  0  0  0  0  0  0
    0.3484   -0.8203    7.1514 S   0  0  0  0  0  1  0  0  0  0  0  0
    3.9478   -0.6877    2.5813 C   0  0  0  0  0  0  0  0  0  0  0  0
    2.8506    0.0245    2.3280 C   0  0  0  0  0  0  0  0  0  0  0  0
    2.0159   -0.2653    1.1166 C   0  0  0  0  0  0  0  0  0  0  0  0
    0.8651    0.4642    1.0833 N   0  0  0  0  0  0  0  0  0  0  0  0
   -0.1599    0.4139    0.1363 C   0  0  0  0  0  0  0  0  0  0  0  0
   -0.1597   -0.4613   -0.9576 C   0  0  0  0  0  0  0  0  0  0  0  0
   -1.2249   -0.4653   -1.8678 C   0  0  0  0  0  0  0  0  0  0  0  0
   -1.2020   -1.3862   -3.0245 C   0  0  0  0  0  0  0  0  0  0  0  0
   -0.1168   -1.6406   -3.9341 C   0  0  0  0  0  0  0  0  0  0  0  0
    1.2287   -0.9538   -4.0111 C   0  0  0  0  0  0  0  0  0  0  0  0
    1.2568    0.3153   -4.7318 N   0  0  0  0  0  0  0  0  0  0  0  0
    0.9020    0.2003   -6.1262 C   0  0  0  0  0  0  0  0  0  0  0  0
    1.4211    1.3459   -6.9999 C   0  0  0  0  0  0  0  0  0  0  0  0
    1.1424    1.1939   -8.4200 N   0  0  0  0  0  0  0  0  0  0  0  0
    0.5673    1.3878   -4.0450 C   0  0  0  0  0  0  0  0  0  0  0  0
   -0.5710   -2.5851   -4.8319 C   0  0  0  0  0  0  0  0  0  0  0  0
   -1.8606   -2.9087   -4.5133 N   0  0  0  0  0  0  0  0  0  0  0  0
   -2.4211   -3.6029   -4.9835 H   0  0  0  0  0  0  0  0  0  0  0  0
   -2.2539   -2.1889   -3.4198 C   0  0  0  0  0  0  0  0  0  0  0  0
   -2.3059    0.4000   -1.6664 C   0  0  0  0  0  0  0  0  0  0  0  0
   -2.3139    1.2560   -0.5644 C   0  0  0  0  0  0  0  0  0  0  0  0
   -1.2535    1.2754    0.3303 C   0  0  0  0  0  0  0  0  0  0  0  0
    2.3552   -1.0847    0.2752 O   0  0  0  0  0  0  0  0  0  0  0  0
   -0.1814    1.1709    5.0388 N   0  0  0  0  0  0  0  0  0  0  0  0
    0.1797    2.2507    4.3520 C   0  0  0  0  0  0  0  0  0  0  0  0
    0.3049    3.5284    5.1527 C   0  0  0  0  0  0  0  0  0  0  0  0
    0.3912    2.2667    3.1318 O   0  0  0  0  0  0  0  0  0  0  0  0
    0.6054   -0.4617    3.9981 H   0  0  0  0  0  0  0  0  0  0  0  0
   -1.4271   -1.2848    2.6536 N   0  0  0  0  0  0  0  0  0  0  0  0
   -2.4624   -1.6054    1.7061 C   0  0  0  0  0  0  0  0  0  0  0  0
   -1.7188   -1.0386    5.8838 H   0  0  0  0  0  0  0  0  0  0  0  0
   -0.4835   -2.1487    5.2692 H   0  0  0  0  0  0  0  0  0  0  0  0
    0.6938    1.1079    1.8753 H   0  0  0  0  0  0  0  0  0  0  0  0
    0.6711   -1.1532   -1.0708 H   0  0  0  0  0  0  0  0  0  0  0  0
    1.9408   -1.6350   -4.5059 H   0  0  0  0  0  0  0  0  0  0  0  0
    1.6249   -0.7732   -3.0019 H   0  0  0  0  0  0  0  0  0  0  0  0
   -0.2005    0.1047   -6.2790 H   0  0  0  0  0  0  0  0  0  0  0  0
    1.3409   -0.7363   -6.5148 H   0  0  0  0  0  0  0  0  0  0  0  0
    2.5093    1.4348   -6.8495 H   0  0  0  0  0  0  0  0  0  0  0  0
    0.9888    2.3040   -6.6705 H   0  0  0  0  0  0  0  0  0  0  0  0
    1.5362    0.3166   -8.7576 H   0  0  0  0  0  0  0  0  0  0  0  0
    0.1368    1.1190   -8.5669 H   0  0  0  0  0  0  0  0  0  0  0  0
    0.8634    1.4060   -2.9866 H   0  0  0  0  0  0  0  0  0  0  0  0
   -0.5392    1.2906   -4.0756 H   0  0  0  0  0  0  0  0  0  0  0  0
    0.8349    2.3623   -4.4808 H   0  0  0  0  0  0  0  0  0  0  0  0
   -0.0628   -3.0443   -5.6777 H   0  0  0  0  0  0  0  0  0  0  0  0
   -3.2376   -2.3158   -2.9737 H   0  0  0  0  0  0  0  0  0  0  0  0
   -3.1305    0.4104   -2.3833 H   0  0  0  0  0  0  0  0  0  0  0  0
   -3.1635    1.9221   -0.3967 H   0  0  0  0  0  0  0  0  0  0  0  0
   -1.2696    1.9251    1.2078 H   0  0  0  0  0  0  0  0  0  0  0  0
   -0.0765    1.1270    6.0679 H   0  0  0  0  0  0  0  0  0  0  0  0
   -0.5598    4.1672    4.9192 H   0  0  0  0  0  0  0  0  0  0  0  0
    1.2113    4.0602    4.8343 H   0  0  0  0  0  0  0  0  0  0  0  0
    0.3329    3.3497    6.2358 H   0  0  0  0  0  0  0  0  0  0  0  0
   -0.6155   -1.8845    2.7131 H   0  0  0  0  0  0  0  0  0  0  0  0
   -2.9850   -2.5398    1.9739 H   0  0  0  0  0  0  0  0  0  0  0  0
   -2.0583   -1.6990    0.6859 H   0  0  0  0  0  0  0  0  0  0  0  0
   -3.1848   -0.7799    1.7189 H   0  0  0  0  0  0  0  0  0  0  0  0
    4.2488   -1.4818    1.8920 H   0  0  0  0  0  0  0  0  0  0  0  0
    4.5530   -0.5047    3.4716 H   0  0  0  0  0  0  0  0  0  0  0  0
    2.5161    0.8207    2.9994 H   0  0  0  0  0  0  0  0  0  0  0  0
  1  2  2  0  0  0  0
  2  3  1  0  0  0  0
  3 33  1  6  0  0  0
  3 29  1  0  0  0  0
  3  4  1  0  0  0  0
  4 36  1  0  0  0  0
  4  5  1  0  0  0  0
  6 65  1  0  0  0  0
  7  6  2  0  0  0  0
  7 66  1  0  0  0  0
  8  7  1  0  0  0  0
  9  8  1  0  0  0  0
  9 38  1  0  0  0  0
 10 27  1  0  0  0  0
 10  9  1  0  0  0  0
 11 10  2  0  0  0  0
 12 25  2  0  0  0  0
 12 11  1  0  0  0  0
 13 12  1  0  0  0  0
 14 13  1  0  0  0  0
 15 14  1  0  0  0  0
 15 41  1  0  0  0  0
 16 20  1  0  0  0  0
 16 15  1  0  0  0  0
 17 16  1  0  0  0  0
 18 44  1  0  0  0  0
 18 45  1  0  0  0  0
 18 17  1  0  0  0  0
 19 18  1  0  0  0  0
 20 48  1  0  0  0  0
 21 22  1  0  0  0  0
 21 14  2  0  0  0  0
 22 24  1  0  0  0  0
 23 22  1  0  0  0  0
 24 13  2  0  0  0  0
 24 52  1  0  0  0  0
 25 26  1  0  0  0  0
 26 54  1  0  0  0  0
 26 27  2  0  0  0  0
 27 55  1  0  0  0  0
 28  8  2  0  0  0  0
 29 56  1  0  0  0  0
 30 29  1  0  0  0  0
 30 31  1  0  0  0  0
 31 59  1  0  0  0  0
 32 30  2  0  0  0  0
 34 60  1  0  0  0  0
 34  2  1  0  0  0  0
 35 63  1  0  0  0  0
 35 61  1  0  0  0  0
 35 34  1  0  0  0  0
 37  4  1  0  0  0  0
 39 11  1  0  0  0  0
 40 15  1  0  0  0  0
 42 17  1  0  0  0  0
 43 17  1  0  0  0  0
 46 19  1  0  0  0  0
 47 19  1  0  0  0  0
 49 20  1  0  0  0  0
 50 20  1  0  0  0  0
 51 21  1  0  0  0  0
 53 25  1  0  0  0  0
 57 31  1  0  0  0  0
 58 31  1  0  0  0  0
 62 35  1  0  0  0  0
 64  6  1  0  0  0  0
M  END
