74
-1 1
O        -5.514007   -6.560811   -5.143921
C        -4.811427   -6.578254   -4.135681
N        -3.516316   -7.191963   -4.163016
C        -2.856741   -7.759709   -5.195883
N        -1.707150   -8.382044   -4.859544
C        -0.997313   -8.910603   -5.837243
S         0.556733   -9.702404   -5.480211
C         0.680074   -9.667049   -3.727990
C        -0.174071  -10.397690   -2.872934
O        -1.209430  -11.013602   -3.416398
C        -2.251916  -11.456866   -2.565490
N         0.011252  -10.479015   -1.565792
C         1.099220   -9.879245   -1.059924
N         1.418838  -10.133108    0.236235
C         0.408016  -10.649352    1.152180
C         1.060017  -11.467757    2.264918
N         2.141892  -10.774161    2.944343
C         3.135691  -10.371795    1.964720
C         2.576664   -9.493169    0.844857
C         1.698650   -9.692478    3.804396
N         1.898467   -9.054829   -1.750064
C         1.665287   -8.933917   -3.047000
O         2.398932   -8.059827   -3.737312
C         3.232431   -7.184688   -3.006695
N        -1.280703   -8.918427   -7.133983
C        -2.427126   -8.307945   -7.462294
C        -3.266877   -7.704936   -6.548804
C        -5.129698   -6.076568   -2.838663
C        -4.175875   -5.954421   -1.804570
S        -3.564824   -7.940737   -1.041372
C        -1.954828   -7.814644   -0.195060
C        -1.030897   -6.674139   -0.618241
H        -1.532843   -5.705395   -0.442588
N        -0.687191   -6.719863   -2.037094
C        -0.289494   -5.619093   -2.720475
C        -0.159302   -5.743205   -4.215761
O        -0.037935   -4.556459   -2.150204
C         0.213110   -6.665973    0.306852
N         1.136833   -5.727042    0.018372
C         2.348425   -5.593368    0.782950
O         0.318973   -7.425643    1.260819
H        -3.168745   -7.494130   -3.244742
H        -2.700770  -10.603206   -2.032267
H        -1.885594  -12.195544   -1.838037
H        -2.998512  -11.911180   -3.226766
H        -0.294337  -11.265662    0.579887
H        -0.153316   -9.795478    1.570572
H         1.469880  -12.398951    1.835222
H         0.292040  -11.756899    2.999990
H         3.570023  -11.286709    1.523893
H         3.952642   -9.833732    2.472595
H         3.333796   -9.333899    0.068015
H         2.283255   -8.505308    1.235726
H         0.996354  -10.088577    4.554858
H         1.198174   -8.853947    3.280047
H         2.565280   -9.281482    4.347018
H         2.653798   -6.630462   -2.251464
H         3.655984   -6.491847   -3.743787
H         4.038256   -7.731360   -2.494463
H        -2.683695   -8.305267   -8.527666
H        -4.206353   -7.221406   -6.804599
H        -6.187519   -5.897408   -2.639480
H        -4.516906   -5.486774   -0.877482
H        -3.158570   -5.652993   -2.074168
H        -1.428541   -8.770358   -0.342361
H        -2.105723   -7.707796    0.886301
H        -0.943474   -7.548282   -2.576176
H        -1.159598   -5.699243   -4.670004
H         0.308477   -6.690987   -4.511244
H         0.434911   -4.895186   -4.574628
H         0.901141   -5.066031   -0.729101
H         2.739576   -4.572507    0.674317
H         3.125837   -6.302176    0.449012
H         2.150926   -5.790989    1.846986
