-1 1
 OpenBabel05232414493D

 74 76  0  0  1  0  0  0  0  0999 V2000
   -5.5140   -6.5608   -5.1439 O   0  0  0  0  0  0  0  0  0  0  0  0
   -4.8114   -6.5783   -4.1357 C   0  0  0  0  0  0  0  0  0  0  0  0
   -3.5163   -7.1920   -4.1630 N   0  0  0  0  0  0  0  0  0  0  0  0
   -2.8567   -7.7597   -5.1959 C   0  0  0  0  0  0  0  0  0  0  0  0
   -1.7071   -8.3820   -4.8595 N   0  0  0  0  0  0  0  0  0  0  0  0
   -0.9973   -8.9106   -5.8372 C   0  0  0  0  0  0  0  0  0  0  0  0
    0.5567   -9.7024   -5.4802 S   0  0  0  0  0  0  0  0  0  0  0  0
    0.6801   -9.6670   -3.7280 C   0  0  1  0  0  3  0  0  0  0  0  0
   -0.1741  -10.3977   -2.8729 C   0  0  0  0  0  0  0  0  0  0  0  0
   -1.2094  -11.0136   -3.4164 O   0  0  0  0  0  0  0  0  0  0  0  0
   -2.2519  -11.4569   -2.5655 C   0  0  0  0  0  0  0  0  0  0  0  0
    0.0113  -10.4790   -1.5658 N   0  0  0  0  0  0  0  0  0  0  0  0
    1.0992   -9.8792   -1.0599 C   0  0  1  0  0  3  0  0  0  0  0  0
    1.4188  -10.1331    0.2362 N   0  0  0  0  0  0  0  0  0  0  0  0
    0.4080  -10.6494    1.1522 C   0  0  0  0  0  0  0  0  0  0  0  0
    1.0600  -11.4678    2.2649 C   0  0  0  0  0  0  0  0  0  0  0  0
    2.1419  -10.7742    2.9443 N   0  0  0  0  0  0  0  0  0  0  0  0
    3.1357  -10.3718    1.9647 C   0  0  0  0  0  0  0  0  0  0  0  0
    2.5767   -9.4932    0.8449 C   0  0  0  0  0  0  0  0  0  0  0  0
    1.6986   -9.6925    3.8044 C   0  0  0  0  0  0  0  0  0  0  0  0
    1.8985   -9.0548   -1.7501 N   0  0  0  0  0  0  0  0  0  0  0  0
    1.6653   -8.9339   -3.0470 C   0  0  0  0  0  0  0  0  0  0  0  0
    2.3989   -8.0598   -3.7373 O   0  0  0  0  0  0  0  0  0  0  0  0
    3.2324   -7.1847   -3.0067 C   0  0  0  0  0  0  0  0  0  0  0  0
   -1.2807   -8.9184   -7.1340 N   0  0  0  0  0  0  0  0  0  0  0  0
   -2.4271   -8.3079   -7.4623 C   0  0  0  0  0  0  0  0  0  0  0  0
   -3.2669   -7.7049   -6.5488 C   0  0  0  0  0  0  0  0  0  0  0  0
   -5.1297   -6.0766   -2.8387 C   0  0  0  0  0  3  0  0  0  0  0  0
   -4.1759   -5.9544   -1.8046 C   0  0  0  0  0  0  0  0  0  0  0  0
   -3.5648   -7.9407   -1.0414 S   0  0  0  0  0  0  0  0  0  0  0  0
   -1.9548   -7.8146   -0.1951 C   0  0  0  0  0  0  0  0  0  0  0  0
   -1.0309   -6.6741   -0.6182 C   0  0  2  0  0  0  0  0  0  0  0  0
   -1.5328   -5.7054   -0.4426 H   0  0  0  0  0  0  0  0  0  0  0  0
   -0.6872   -6.7199   -2.0371 N   0  0  0  0  0  0  0  0  0  0  0  0
   -0.2895   -5.6191   -2.7205 C   0  0  0  0  0  0  0  0  0  0  0  0
   -0.1593   -5.7432   -4.2158 C   0  0  0  0  0  0  0  0  0  0  0  0
   -0.0379   -4.5565   -2.1502 O   0  0  0  0  0  0  0  0  0  0  0  0
    0.2131   -6.6660    0.3069 C   0  0  0  0  0  0  0  0  0  0  0  0
    1.1368   -5.7270    0.0184 N   0  0  0  0  0  0  0  0  0  0  0  0
    2.3484   -5.5934    0.7830 C   0  0  0  0  0  0  0  0  0  0  0  0
    0.3190   -7.4256    1.2608 O   0  0  0  0  0  0  0  0  0  0  0  0
   -3.1687   -7.4941   -3.2447 H   0  0  0  0  0  0  0  0  0  0  0  0
   -2.7008  -10.6032   -2.0323 H   0  0  0  0  0  0  0  0  0  0  0  0
   -1.8856  -12.1955   -1.8380 H   0  0  0  0  0  0  0  0  0  0  0  0
   -2.9985  -11.9112   -3.2268 H   0  0  0  0  0  0  0  0  0  0  0  0
   -0.2943  -11.2657    0.5799 H   0  0  0  0  0  0  0  0  0  0  0  0
   -0.1533   -9.7955    1.5706 H   0  0  0  0  0  0  0  0  0  0  0  0
    1.4699  -12.3990    1.8352 H   0  0  0  0  0  0  0  0  0  0  0  0
    0.2920  -11.7569    3.0000 H   0  0  0  0  0  0  0  0  0  0  0  0
    3.5700  -11.2867    1.5239 H   0  0  0  0  0  0  0  0  0  0  0  0
    3.9526   -9.8337    2.4726 H   0  0  0  0  0  0  0  0  0  0  0  0
    3.3338   -9.3339    0.0680 H   0  0  0  0  0  0  0  0  0  0  0  0
    2.2833   -8.5053    1.2357 H   0  0  0  0  0  0  0  0  0  0  0  0
    0.9964  -10.0886    4.5549 H   0  0  0  0  0  0  0  0  0  0  0  0
    1.1982   -8.8539    3.2800 H   0  0  0  0  0  0  0  0  0  0  0  0
    2.5653   -9.2815    4.3470 H   0  0  0  0  0  0  0  0  0  0  0  0
    2.6538   -6.6305   -2.2515 H   0  0  0  0  0  0  0  0  0  0  0  0
    3.6560   -6.4918   -3.7438 H   0  0  0  0  0  0  0  0  0  0  0  0
    4.0383   -7.7314   -2.4945 H   0  0  0  0  0  0  0  0  0  0  0  0
   -2.6837   -8.3053   -8.5277 H   0  0  0  0  0  0  0  0  0  0  0  0
   -4.2064   -7.2214   -6.8046 H   0  0  0  0  0  0  0  0  0  0  0  0
   -6.1875   -5.8974   -2.6395 H   0  0  0  0  0  0  0  0  0  0  0  0
   -4.5169   -5.4868   -0.8775 H   0  0  0  0  0  0  0  0  0  0  0  0
   -3.1586   -5.6530   -2.0742 H   0  0  0  0  0  0  0  0  0  0  0  0
   -1.4285   -8.7704   -0.3424 H   0  0  0  0  0  0  0  0  0  0  0  0
   -2.1057   -7.7078    0.8863 H   0  0  0  0  0  0  0  0  0  0  0  0
   -0.9435   -7.5483   -2.5762 H   0  0  0  0  0  0  0  0  0  0  0  0
   -1.1596   -5.6992   -4.6700 H   0  0  0  0  0  0  0  0  0  0  0  0
    0.3085   -6.6910   -4.5112 H   0  0  0  0  0  0  0  0  0  0  0  0
    0.4349   -4.8952   -4.5746 H   0  0  0  0  0  0  0  0  0  0  0  0
    0.9011   -5.0660   -0.7291 H   0  0  0  0  0  0  0  0  0  0  0  0
    2.7396   -4.5725    0.6743 H   0  0  0  0  0  0  0  0  0  0  0  0
    3.1258   -6.3022    0.4490 H   0  0  0  0  0  0  0  0  0  0  0  0
    2.1509   -5.7910    1.8470 H   0  0  0  0  0  0  0  0  0  0  0  0
  1  2  2  0  0  0  0
  2 28  1  0  0  0  0
  3  2  1  0  0  0  0
  3 42  1  0  0  0  0
  4  5  1  0  0  0  0
  4  3  1  0  0  0  0
  6  7  1  0  0  0  0
  6  5  2  0  0  0  0
  8  7  1  6  0  0  0
  8 22  1  0  0  0  0
  8  9  1  0  0  0  0
  9 12  2  0  0  0  0
 10  9  1  0  0  0  0
 10 11  1  0  0  0  0
 11 43  1  0  0  0  0
 11 44  1  0  0  0  0
 12 13  1  0  0  0  0
 13 14  1  6  0  0  0
 14 19  1  0  0  0  0
 14 15  1  0  0  0  0
 15 47  1  0  0  0  0
 15 16  1  0  0  0  0
 16 17  1  0  0  0  0
 16 49  1  0  0  0  0
 17 20  1  0  0  0  0
 18 51  1  0  0  0  0
 18 17  1  0  0  0  0
 19 53  1  0  0  0  0
 19 18  1  0  0  0  0
 20 56  1  0  0  0  0
 20 54  1  0  0  0  0
 21 13  1  0  0  0  0
 22 21  2  0  0  0  0
 23 22  1  0  0  0  0
 23 24  1  0  0  0  0
 24 59  1  0  0  0  0
 24 57  1  0  0  0  0
 25  6  1  0  0  0  0
 26 25  2  0  0  0  0
 26 27  1  0  0  0  0
 27  4  2  0  0  0  0
 28 62  1  0  0  0  0
 28 29  1  0  0  0  0
 29 30  1  0  0  0  0
 29 63  1  0  0  0  0
 30 31  1  0  0  0  0
 31 66  1  0  0  0  0
 32 33  1  1  0  0  0
 32 31  1  0  0  0  0
 32 38  1  0  0  0  0
 34 32  1  0  0  0  0
 35 37  2  0  0  0  0
 35 34  1  0  0  0  0
 36 35  1  0  0  0  0
 38 41  2  0  0  0  0
 39 38  1  0  0  0  0
 39 40  1  0  0  0  0
 40 74  1  0  0  0  0
 45 11  1  0  0  0  0
 46 15  1  0  0  0  0
 48 16  1  0  0  0  0
 50 18  1  0  0  0  0
 52 19  1  0  0  0  0
 55 20  1  0  0  0  0
 58 24  1  0  0  0  0
 60 26  1  0  0  0  0
 61 27  1  0  0  0  0
 64 29  1  0  0  0  0
 65 31  1  0  0  0  0
 67 34  1  0  0  0  0
 68 36  1  0  0  0  0
 69 36  1  0  0  0  0
 70 36  1  0  0  0  0
 71 39  1  0  0  0  0
 72 40  1  0  0  0  0
 73 40  1  0  0  0  0
M  END
