76
-1 1
O         2.077265    0.491464    3.858025
C         0.914388    0.710954    4.116643
N        -0.087366    0.425583    3.194029
C        -1.324741   -0.141552    3.371044
N        -1.958182   -0.432303    2.224711
C        -3.144760   -0.994956    2.315705
S        -3.981236   -1.455942    0.815767
C        -2.692846   -1.268743   -0.360173
C        -1.798105   -2.308443   -0.659214
O        -1.976781   -3.486233   -0.057947
C        -1.038910   -4.506134   -0.310479
N        -0.782298   -2.181759   -1.493439
C        -0.610635   -0.978145   -2.066166
N         0.370179   -0.865870   -2.998792
C         1.359670   -1.916033   -3.199893
C         1.651845   -2.076943   -4.693585
N         2.013880   -0.835454   -5.358250
C         0.977371    0.158354   -5.131664
C         0.663093    0.398703   -3.654216
C         3.354297   -0.377599   -5.044627
N        -1.342634    0.107843   -1.791083
C        -2.344798   -0.028965   -0.937386
O        -3.059642    1.030278   -0.607438
C        -2.542628    2.317783   -0.917030
N        -3.823582   -1.277382    3.424598
C        -3.190902   -1.010919    4.570814
N        -3.856733   -1.339971    5.722345
C        -1.902421   -0.458817    4.607408
C         0.561833    1.411931    5.388066
C        -0.385640    2.347896    5.452903
S         0.703849    2.632766    1.053713
C         1.270743    2.611603   -0.683541
C         2.753346    2.215014   -0.883280
H         3.347026    2.790835   -0.152020
N         3.231731    2.473868   -2.226105
C         3.411689    3.690973   -2.785954
C         3.899965    3.644526   -4.228892
O         3.174599    4.748571   -2.230675
C         2.991616    0.713346   -0.655377
N         2.649142    0.260181    0.550229
C         2.642084   -1.141598    0.879439
O         3.459363   -0.001820   -1.549593
H         0.152251    0.683879    2.214082
H        -0.023909   -4.198512   -0.017191
H        -1.019747   -4.781122   -1.376143
H        -1.359716   -5.364224    0.293197
H         0.963335   -2.847738   -2.781821
H         2.275777   -1.648658   -2.644128
H         0.751353   -2.480937   -5.190385
H         2.461555   -2.811606   -4.832299
H         0.058417   -0.184217   -5.640342
H         1.276903    1.109784   -5.600161
H        -0.201276    1.061815   -3.539524
H         1.517075    0.885872   -3.159338
H         4.085187   -1.131509   -5.379489
H         3.541844   -0.188615   -3.968645
H         3.560624    0.550930   -5.600683
H        -3.308246    3.027346   -0.581537
H        -2.372245    2.427042   -1.997610
H        -1.603345    2.490302   -0.364005
H        -4.842418   -1.534834    5.606394
H        -3.580522   -0.886742    6.580775
H        -1.401889   -0.269946    5.553524
H         1.245811    1.224046    6.220478
H        -0.536734    2.942061    6.357831
H        -1.022233    2.564140    4.589708
H         1.173550    3.623966   -1.099357
H         0.636911    1.936818   -1.282022
H         3.572135    1.636068   -2.691257
H         3.027803    3.699180   -4.898801
H         4.460294    2.728717   -4.466388
H         4.527134    4.524874   -4.418293
H         2.131831    0.928704    1.147529
H         2.555114   -1.234063    1.969486
H         3.573246   -1.618029    0.539579
H         1.796634   -1.669449    0.403248
