76
-1 1
O         2.672296    0.213150    2.716352
C         1.545330    0.780923    2.713365
N         0.448965   -0.075746    2.313481
C        -0.778163   -0.278295    2.831874
N        -1.558718   -1.126178    2.125365
C        -2.767349   -1.355414    2.583944
S        -3.846127   -2.376374    1.575952
C        -2.975060   -2.250923    0.051836
C        -2.092395   -3.228291   -0.429369
O        -2.074520   -4.414571    0.178225
C        -1.114120   -5.357556   -0.235170
N        -1.264809   -3.032888   -1.445967
C        -1.265756   -1.816002   -2.007874
N        -0.381491   -1.577891   -3.018513
C         0.619339   -2.564698   -3.384278
C         0.928604   -2.475698   -4.880010
N         1.263379   -1.139653   -5.335966
C         0.188461   -0.225647   -4.982145
C        -0.140220   -0.215816   -3.489896
C         2.576707   -0.673120   -4.929386
N        -2.072851   -0.811800   -1.650422
C        -2.889767   -1.022933   -0.634314
O        -3.646937   -0.020224   -0.211819
C        -3.432435    1.261451   -0.771259
N        -3.314633   -0.905022    3.704702
C        -2.535595   -0.082381    4.429094
N        -3.069927    0.355128    5.615419
C        -1.255400    0.299291    4.021091
C         1.268576    2.120645    2.899448
C         0.090623    2.817862    2.319908
S        -0.039855    2.755987    0.455606
C         1.509390    3.527959   -0.078808
C         2.804783    2.689784   -0.029872
H         3.106644    2.529667    1.013316
N         3.859287    3.404796   -0.727992
C         4.570021    4.418983   -0.179311
C         5.581194    5.074061   -1.107420
O         4.434386    4.789750    0.972138
C         2.656071    1.355048   -0.761167
N         2.748569    0.256317   -0.011530
C         2.507260   -1.048716   -0.567353
O         2.499410    1.348483   -1.984997
H         0.666686   -0.712332    1.555441
H        -0.093458   -4.958562   -0.136852
H        -1.267412   -5.656168   -1.283721
H        -1.242224   -6.225187    0.423833
H         0.241698   -3.559585   -3.121210
H         1.544682   -2.403062   -2.800579
H         0.040616   -2.816031   -5.442297
H         1.754266   -3.164085   -5.123433
H        -0.712354   -0.520877   -5.549802
H         0.459671    0.793687   -5.298715
H        -1.038859    0.378756   -3.295088
H         0.686556    0.242198   -2.916543
H         3.333532   -1.421010   -5.214896
H         2.688035   -0.453000   -3.849094
H         2.812259    0.259756   -5.466155
H        -4.117554    1.933532   -0.241116
H        -3.655553    1.267198   -1.848624
H        -2.393764    1.589189   -0.620480
H        -4.072222    0.244255    5.694034
H        -2.677109    1.190862    6.024002
H        -0.627442    0.981287    4.594905
H         2.126148    2.736759    3.182994
H         0.091653    3.883748    2.592922
H        -0.893215    2.415568    2.616210
H         1.683642    4.449298    0.497503
H         1.334810    3.809838   -1.128251
H         3.928235    3.197042   -1.718169
H         5.345260    6.145159   -1.180744
H         5.607366    4.637735   -2.115618
H         6.577268    4.988235   -0.650854
H         2.876375    0.318029    1.022736
H         2.687611   -1.796344    0.216306
H         3.173033   -1.255285   -1.421376
H         1.466468   -1.150938   -0.919159
