-1 1
 OpenBabel05232413493D

101102  0  0  1  0  0  0  0  0999 V2000
    1.2318    1.2056    0.1907 O   0  0  0  0  0  0  0  0  0  0  0  0
    0.6708    1.7190   -0.7631 C   0  0  0  0  0  0  0  0  0  0  0  0
    1.0007    1.5521   -2.0817 N   0  0  0  0  0  0  0  0  0  0  0  0
    1.9387    0.6981   -2.6510 C   0  0  0  0  0  0  0  0  0  0  0  0
    2.4993   -0.2735   -1.9271 N   0  0  0  0  0  0  0  0  0  0  0  0
    3.3225   -1.0817   -2.5732 C   0  0  0  0  0  0  0  0  0  0  0  0
    4.1135   -2.3944   -1.6549 S   0  0  0  0  0  0  0  0  0  0  0  0
    3.3649   -2.1245   -0.0904 C   0  0  2  0  0  3  0  0  0  0  0  0
    2.0101   -2.4295    0.1428 C   0  0  0  0  0  0  0  0  0  0  0  0
    1.3765   -3.1749   -0.7543 O   0  0  0  0  0  0  0  0  0  0  0  0
    0.0081   -3.4824   -0.5512 C   0  0  0  0  0  0  0  0  0  0  0  0
    1.3392   -1.9770    1.1856 N   0  0  0  0  0  0  0  0  0  0  0  0
    1.9913   -1.1551    2.0125 C   0  0  2  0  0  3  0  0  0  0  0  0
    1.2517   -0.5144    2.9697 N   0  0  0  0  0  0  0  0  0  0  0  0
   -0.1847   -0.4370    2.7126 C   0  0  0  0  0  0  0  0  0  0  0  0
   -0.9403    0.2318    3.8457 C   0  0  0  0  0  0  0  0  0  0  0  0
   -0.3467    1.5033    4.2751 N   0  0  0  0  0  0  0  0  0  0  0  0
    1.0088    1.2029    4.7325 C   0  0  0  0  0  0  0  0  0  0  0  0
    1.8962    0.6079    3.6430 C   0  0  0  0  0  0  0  0  0  0  0  0
   -0.3478    2.5635    3.2624 C   0  0  0  0  0  0  0  0  0  0  0  0
   -1.7067    3.1670    2.9625 C   0  0  0  0  0  0  0  0  0  0  0  0
   -2.5224    2.2388    2.2870 O   0  0  0  0  0  0  0  0  0  0  0  0
   -3.6043    2.7811    1.5712 C   0  0  0  0  0  0  0  0  0  0  0  0
   -4.7389    1.7823    1.5298 C   0  0  0  0  0  0  0  0  0  0  0  0
   -5.4778    1.8673    2.7204 O   0  0  0  0  0  0  0  0  0  0  0  0
   -6.0901    0.6837    3.1617 C   0  0  0  0  0  0  0  0  0  0  0  0
   -5.1850   -0.1577    4.0529 C   0  0  0  0  0  0  0  0  0  0  0  0
   -4.9238    0.4191    5.2977 O   0  0  0  0  0  0  0  0  0  0  0  0
   -4.0248    1.5071    5.3015 C   0  0  0  0  0  0  0  0  0  0  0  0
   -3.0133    1.3457    6.4300 C   0  0  0  0  0  0  0  0  0  0  0  0
   -2.0345    2.3420    6.3927 O   0  0  0  0  0  0  0  0  0  0  0  0
    3.2994   -0.8892    1.9643 N   0  0  0  0  0  0  0  0  0  0  0  0
    3.9582   -1.3428    0.9116 C   0  0  0  0  0  0  0  0  0  0  0  0
    5.2459   -1.0253    0.7854 O   0  0  0  0  0  0  0  0  0  0  0  0
    5.8038   -0.1401    1.7297 C   0  0  0  0  0  0  0  0  0  0  0  0
    3.6212   -1.0721   -3.8639 N   0  0  0  0  0  0  0  0  0  0  0  0
    3.0365   -0.1126   -4.5940 C   0  0  0  0  0  0  0  0  0  0  0  0
    3.2910   -0.1144   -5.9344 N   0  0  0  0  0  0  0  0  0  0  0  0
    2.2085    0.8541   -4.0086 C   0  0  0  0  0  0  0  0  0  0  0  0
   -0.4920    2.6331   -0.5224 C   0  0  0  0  0  0  0  0  0  0  0  0
   -0.8819    3.6404   -1.3051 C   0  0  0  0  0  0  0  0  0  0  0  0
   -1.1371    2.1082   -4.4917 S   0  0  0  0  0  1  0  0  0  0  0  0
   -0.9436    0.4171   -5.1565 C   0  0  0  0  0  0  0  0  0  0  0  0
   -1.5337   -0.7355   -4.2852 C   0  0  2  0  0  0  0  0  0  0  0  0
   -2.5729   -0.9379   -4.5917 H   0  0  0  0  0  0  0  0  0  0  0  0
   -1.4902   -0.3734   -2.8888 N   0  0  0  0  0  0  0  0  0  0  0  0
   -2.1436   -1.0806   -1.9315 C   0  0  0  0  0  0  0  0  0  0  0  0
   -2.1976   -0.3915   -0.5789 C   0  0  0  0  0  0  0  0  0  0  0  0
   -2.6035   -2.1954   -2.1131 O   0  0  0  0  0  0  0  0  0  0  0  0
   -0.7478   -2.0012   -4.6226 C   0  0  0  0  0  0  0  0  0  0  0  0
    0.2921   -2.2920   -3.8028 N   0  0  0  0  0  0  0  0  0  0  0  0
    1.1699   -3.4047   -4.0663 C   0  0  0  0  0  0  0  0  0  0  0  0
   -0.9965   -2.6443   -5.6283 O   0  0  0  0  0  0  0  0  0  0  0  0
    0.3460    1.9450   -2.7994 H   0  0  0  0  0  0  0  0  0  0  0  0
   -0.3697   -3.8604   -1.5073 H   0  0  0  0  0  0  0  0  0  0  0  0
   -0.5608   -2.5919   -0.2637 H   0  0  0  0  0  0  0  0  0  0  0  0
   -0.1032   -4.2408    0.2390 H   0  0  0  0  0  0  0  0  0  0  0  0
   -0.5728   -1.4517    2.5615 H   0  0  0  0  0  0  0  0  0  0  0  0
   -0.3539    0.1097    1.7699 H   0  0  0  0  0  0  0  0  0  0  0  0
   -0.9622   -0.4254    4.7303 H   0  0  0  0  0  0  0  0  0  0  0  0
   -1.9735    0.3954    3.5222 H   0  0  0  0  0  0  0  0  0  0  0  0
    0.9248    0.5009    5.5780 H   0  0  0  0  0  0  0  0  0  0  0  0
    1.4794    2.1204    5.1183 H   0  0  0  0  0  0  0  0  0  0  0  0
    2.8382    0.2588    4.0858 H   0  0  0  0  0  0  0  0  0  0  0  0
    2.1717    1.3788    2.9004 H   0  0  0  0  0  0  0  0  0  0  0  0
    0.1180    2.2430    2.3120 H   0  0  0  0  0  0  0  0  0  0  0  0
    0.2770    3.3804    3.6581 H   0  0  0  0  0  0  0  0  0  0  0  0
   -1.5394    4.0582    2.3278 H   0  0  0  0  0  0  0  0  0  0  0  0
   -2.1970    3.4953    3.8994 H   0  0  0  0  0  0  0  0  0  0  0  0
   -3.2842    3.0292    0.5410 H   0  0  0  0  0  0  0  0  0  0  0  0
   -3.9747    3.7058    2.0491 H   0  0  0  0  0  0  0  0  0  0  0  0
   -4.3058    0.7767    1.3789 H   0  0  0  0  0  0  0  0  0  0  0  0
   -5.3896    1.9958    0.6597 H   0  0  0  0  0  0  0  0  0  0  0  0
   -6.4410    0.0717    2.3074 H   0  0  0  0  0  0  0  0  0  0  0  0
   -6.9760    0.9804    3.7454 H   0  0  0  0  0  0  0  0  0  0  0  0
   -4.2427   -0.3817    3.5116 H   0  0  0  0  0  0  0  0  0  0  0  0
   -5.6850   -1.1204    4.2477 H   0  0  0  0  0  0  0  0  0  0  0  0
   -4.5688    2.4618    5.4162 H   0  0  0  0  0  0  0  0  0  0  0  0
   -3.4916    1.5701    4.3409 H   0  0  0  0  0  0  0  0  0  0  0  0
   -2.5844    0.3260    6.3598 H   0  0  0  0  0  0  0  0  0  0  0  0
   -3.5342    1.3990    7.4009 H   0  0  0  0  0  0  0  0  0  0  0  0
   -1.3992    2.1001    5.6828 H   0  0  0  0  0  0  0  0  0  0  0  0
    5.2569    0.8141    1.7506 H   0  0  0  0  0  0  0  0  0  0  0  0
    6.8399    0.0256    1.4097 H   0  0  0  0  0  0  0  0  0  0  0  0
    5.7873   -0.5700    2.7427 H   0  0  0  0  0  0  0  0  0  0  0  0
    2.6397    0.3722   -6.5350 H   0  0  0  0  0  0  0  0  0  0  0  0
    3.6910   -0.9693   -6.2984 H   0  0  0  0  0  0  0  0  0  0  0  0
    1.7166    1.6406   -4.5843 H   0  0  0  0  0  0  0  0  0  0  0  0
   -1.0051    2.4209    0.4194 H   0  0  0  0  0  0  0  0  0  0  0  0
   -0.3940    3.8726   -2.2551 H   0  0  0  0  0  0  0  0  0  0  0  0
   -1.7307    4.2695   -1.0239 H   0  0  0  0  0  0  0  0  0  0  0  0
    0.1277    0.2055   -5.3003 H   0  0  0  0  0  0  0  0  0  0  0  0
   -1.4119    0.3388   -6.1471 H   0  0  0  0  0  0  0  0  0  0  0  0
   -1.3928    0.6444   -2.7757 H   0  0  0  0  0  0  0  0  0  0  0  0
   -2.5635    0.6422   -0.6699 H   0  0  0  0  0  0  0  0  0  0  0  0
   -1.1872   -0.3488   -0.1437 H   0  0  0  0  0  0  0  0  0  0  0  0
   -2.8510   -0.9658    0.0893 H   0  0  0  0  0  0  0  0  0  0  0  0
    0.4305   -1.7282   -2.9726 H   0  0  0  0  0  0  0  0  0  0  0  0
    1.7703   -3.6071   -3.1706 H   0  0  0  0  0  0  0  0  0  0  0  0
    1.8559   -3.1917   -4.9033 H   0  0  0  0  0  0  0  0  0  0  0  0
    0.5818   -4.2965   -4.3308 H   0  0  0  0  0  0  0  0  0  0  0  0
  2 40  1  0  0  0  0
  2  1  2  0  0  0  0
  3  2  1  0  0  0  0
  4  3  1  0  0  0  0
  4  5  1  0  0  0  0
  6  5  2  0  0  0  0
  6  7  1  0  0  0  0
  8  7  1  6  0  0  0
  8  9  1  0  0  0  0
  8 33  1  0  0  0  0
  9 12  2  0  0  0  0
 10 11  1  0  0  0  0
 10  9  1  0  0  0  0
 11 56  1  0  0  0  0
 11 57  1  0  0  0  0
 12 13  1  0  0  0  0
 13 14  1  6  0  0  0
 14 19  1  0  0  0  0
 15 14  1  0  0  0  0
 15 16  1  0  0  0  0
 16 17  1  0  0  0  0
 16 60  1  0  0  0  0
 17 18  1  0  0  0  0
 18 63  1  0  0  0  0
 18 62  1  0  0  0  0
 19 64  1  0  0  0  0
 19 18  1  0  0  0  0
 20 67  1  0  0  0  0
 20 17  1  0  0  0  0
 21 20  1  0  0  0  0
 21 69  1  0  0  0  0
 22 21  1  0  0  0  0
 23 71  1  0  0  0  0
 23 22  1  0  0  0  0
 24 23  1  0  0  0  0
 24 25  1  0  0  0  0
 25 26  1  0  0  0  0
 26 75  1  0  0  0  0
 26 27  1  0  0  0  0
 27 77  1  0  0  0  0
 27 28  1  0  0  0  0
 28 29  1  0  0  0  0
 29 78  1  0  0  0  0
 29 30  1  0  0  0  0
 30 81  1  0  0  0  0
 31 30  1  0  0  0  0
 32 13  1  0  0  0  0
 33 32  2  0  0  0  0
 34 33  1  0  0  0  0
 34 35  1  0  0  0  0
 35 83  1  0  0  0  0
 35 85  1  0  0  0  0
 36  6  1  0  0  0  0
 37 39  1  0  0  0  0
 37 36  2  0  0  0  0
 38 37  1  0  0  0  0
 39  4  2  0  0  0  0
 40 89  1  0  0  0  0
 41 91  1  0  0  0  0
 41 40  2  0  0  0  0
 43 42  1  0  0  0  0
 43 44  1  0  0  0  0
 44 45  1  6  0  0  0
 44 46  1  0  0  0  0
 46 94  1  0  0  0  0
 46 47  1  0  0  0  0
 47 48  1  0  0  0  0
 48 96  1  0  0  0  0
 48 97  1  0  0  0  0
 49 47  2  0  0  0  0
 50 44  1  0  0  0  0
 50 51  1  0  0  0  0
 51 98  1  0  0  0  0
 52 51  1  0  0  0  0
 52 99  1  0  0  0  0
 53 50  2  0  0  0  0
 54  3  1  0  0  0  0
 55 11  1  0  0  0  0
 58 15  1  0  0  0  0
 59 15  1  0  0  0  0
 61 16  1  0  0  0  0
 65 19  1  0  0  0  0
 66 20  1  0  0  0  0
 68 21  1  0  0  0  0
 70 23  1  0  0  0  0
 72 24  1  0  0  0  0
 73 24  1  0  0  0  0
 74 26  1  0  0  0  0
 76 27  1  0  0  0  0
 79 29  1  0  0  0  0
 80 30  1  0  0  0  0
 82 31  1  0  0  0  0
 84 35  1  0  0  0  0
 86 38  1  0  0  0  0
 87 38  1  0  0  0  0
 88 39  1  0  0  0  0
 90 41  1  0  0  0  0
 92 43  1  0  0  0  0
 93 43  1  0  0  0  0
 95 48  1  0  0  0  0
100 52  1  0  0  0  0
101 52  1  0  0  0  0
M  END
