-1 1
 OpenBabel05192410563D

101103  0  0  1  0  0  0  0  0999 V2000
    1.0308    0.6966    0.0039 O   0  0  0  0  0  0  0  0  0  0  0  0
    0.6442    1.4380   -0.9132 C   0  0  0  0  0  0  0  0  0  0  0  0
    1.4597    1.5626   -2.1048 N   0  0  0  0  0  0  0  0  0  0  0  0
    2.3709    0.7155   -2.6609 C   0  0  0  0  0  0  0  0  0  0  0  0
    2.7497   -0.3992   -2.0206 N   0  0  0  0  0  0  0  0  0  0  0  0
    3.6492   -1.1563   -2.6182 C   0  0  0  0  0  0  0  0  0  0  0  0
    4.2022   -2.6310   -1.7737 S   0  0  0  0  0  0  0  0  0  0  0  0
    3.4334   -2.3774   -0.2161 C   0  0  2  0  0  3  0  0  0  0  0  0
    2.0875   -2.7024    0.0342 C   0  0  0  0  0  0  0  0  0  0  0  0
    1.4513   -3.4739   -0.8454 O   0  0  0  0  0  0  0  0  0  0  0  0
    0.0607   -3.6685   -0.6716 C   0  0  0  0  0  0  0  0  0  0  0  0
    1.4195   -2.2624    1.0814 N   0  0  0  0  0  0  0  0  0  0  0  0
    2.0515   -1.3970    1.8804 C   0  0  2  0  0  3  0  0  0  0  0  0
    1.3023   -0.7389    2.8135 N   0  0  0  0  0  0  0  0  0  0  0  0
   -0.1367   -0.7182    2.5426 C   0  0  0  0  0  0  0  0  0  0  0  0
   -0.9273    0.0758    3.5697 C   0  0  0  0  0  0  0  0  0  0  0  0
   -0.3395    1.3814    3.8851 N   0  0  0  0  0  0  0  0  0  0  0  0
    0.9988    1.1246    4.4107 C   0  0  0  0  0  0  0  0  0  0  0  0
    1.9197    0.4439    3.4051 C   0  0  0  0  0  0  0  0  0  0  0  0
   -0.3095    2.3198    2.7557 C   0  0  0  0  0  0  0  0  0  0  0  0
   -1.6250    3.0157    2.4694 C   0  0  0  0  0  0  0  0  0  0  0  0
   -2.5857    2.1182    1.9616 O   0  0  0  0  0  0  0  0  0  0  0  0
   -3.6190    2.7218    1.2230 C   0  0  0  0  0  0  0  0  0  0  0  0
   -4.8598    1.8620    1.2698 C   0  0  0  0  0  0  0  0  0  0  0  0
   -5.5259    2.0460    2.4938 O   0  0  0  0  0  0  0  0  0  0  0  0
   -6.1865    0.9227    3.0119 C   0  0  0  0  0  0  0  0  0  0  0  0
   -5.2811    0.0202    3.8422 C   0  0  0  0  0  0  0  0  0  0  0  0
   -4.8911    0.5755    5.0623 O   0  0  0  0  0  0  0  0  0  0  0  0
   -3.9320    1.6091    4.9893 C   0  0  0  0  0  0  0  0  0  0  0  0
   -2.9221    1.4604    6.1197 C   0  0  0  0  0  0  0  0  0  0  0  0
   -1.8904    2.3951    6.0130 O   0  0  0  0  0  0  0  0  0  0  0  0
    3.3558   -1.1071    1.8187 N   0  0  0  0  0  0  0  0  0  0  0  0
    4.0166   -1.5695    0.7745 C   0  0  0  0  0  0  0  0  0  0  0  0
    5.2976   -1.2266    0.6345 O   0  0  0  0  0  0  0  0  0  0  0  0
    5.8365   -0.3069    1.5558 C   0  0  0  0  0  0  0  0  0  0  0  0
    4.2071   -0.9822   -3.8092 N   0  0  0  0  0  0  0  0  0  0  0  0
    3.8082    0.1094   -4.4786 C   0  0  0  0  0  0  0  0  0  0  0  0
    4.3768    0.3023   -5.7112 N   0  0  0  0  0  0  0  0  0  0  0  0
    2.8912    1.0125   -3.9378 C   0  0  0  0  0  0  0  0  0  0  0  0
   -0.5454    2.1822   -0.9234 C   0  0  0  0  0  3  0  0  0  0  0  0
   -1.0663    3.0928   -1.9653 C   0  0  0  0  0  0  0  0  0  0  0  0
   -2.4146    2.4422   -3.1177 S   0  0  0  0  0  0  0  0  0  0  0  0
   -1.5677    1.0071   -3.8401 C   0  0  0  0  0  0  0  0  0  0  0  0
   -1.9772   -0.3730   -3.3037 C   0  0  2  0  0  0  0  0  0  0  0  0
   -3.0038   -0.6111   -3.6203 H   0  0  0  0  0  0  0  0  0  0  0  0
   -1.9038   -0.4311   -1.8662 N   0  0  0  0  0  0  0  0  0  0  0  0
   -2.6986   -1.2910   -1.1751 C   0  0  0  0  0  0  0  0  0  0  0  0
   -2.6972   -1.1106    0.3293 C   0  0  0  0  0  0  0  0  0  0  0  0
   -3.3523   -2.1663   -1.7165 O   0  0  0  0  0  0  0  0  0  0  0  0
   -1.0877   -1.3873   -4.0365 C   0  0  0  0  0  0  0  0  0  0  0  0
    0.0318   -1.7704   -3.3838 N   0  0  0  0  0  0  0  0  0  0  0  0
    1.0205   -2.6104   -4.0149 C   0  0  0  0  0  0  0  0  0  0  0  0
   -1.3570   -1.7353   -5.1742 O   0  0  0  0  0  0  0  0  0  0  0  0
    1.2085    2.3367   -2.7034 H   0  0  0  0  0  0  0  0  0  0  0  0
   -0.2883   -4.1960   -1.5665 H   0  0  0  0  0  0  0  0  0  0  0  0
   -0.4561   -2.7042   -0.5854 H   0  0  0  0  0  0  0  0  0  0  0  0
   -0.1480   -4.2614    0.2314 H   0  0  0  0  0  0  0  0  0  0  0  0
   -0.5053   -1.7523    2.5293 H   0  0  0  0  0  0  0  0  0  0  0  0
   -0.2809   -0.3045    1.5320 H   0  0  0  0  0  0  0  0  0  0  0  0
   -0.9998   -0.4812    4.5185 H   0  0  0  0  0  0  0  0  0  0  0  0
   -1.9459    0.2136    3.1865 H   0  0  0  0  0  0  0  0  0  0  0  0
    0.8869    0.4994    5.3118 H   0  0  0  0  0  0  0  0  0  0  0  0
    1.4566    2.0734    4.7311 H   0  0  0  0  0  0  0  0  0  0  0  0
    2.8535    0.1477    3.9018 H   0  0  0  0  0  0  0  0  0  0  0  0
    2.2012    1.1483    2.6016 H   0  0  0  0  0  0  0  0  0  0  0  0
    0.0693    1.8536    1.8274 H   0  0  0  0  0  0  0  0  0  0  0  0
    0.4043    3.1165    3.0203 H   0  0  0  0  0  0  0  0  0  0  0  0
   -1.4164    3.8029    1.7210 H   0  0  0  0  0  0  0  0  0  0  0  0
   -2.0149    3.4978    3.3877 H   0  0  0  0  0  0  0  0  0  0  0  0
   -3.3005    2.8536    0.1709 H   0  0  0  0  0  0  0  0  0  0  0  0
   -3.8702    3.7153    1.6380 H   0  0  0  0  0  0  0  0  0  0  0  0
   -4.5610    0.8110    1.1191 H   0  0  0  0  0  0  0  0  0  0  0  0
   -5.5245    2.1386    0.4288 H   0  0  0  0  0  0  0  0  0  0  0  0
   -6.6572    0.3276    2.2036 H   0  0  0  0  0  0  0  0  0  0  0  0
   -6.9935    1.2975    3.6619 H   0  0  0  0  0  0  0  0  0  0  0  0
   -4.3979   -0.2694    3.2357 H   0  0  0  0  0  0  0  0  0  0  0  0
   -5.8338   -0.9043    4.0775 H   0  0  0  0  0  0  0  0  0  0  0  0
   -4.4164    2.6008    5.0444 H   0  0  0  0  0  0  0  0  0  0  0  0
   -3.4049    1.5763    4.0233 H   0  0  0  0  0  0  0  0  0  0  0  0
   -2.5531    0.4145    6.1102 H   0  0  0  0  0  0  0  0  0  0  0  0
   -3.4281    1.6044    7.0896 H   0  0  0  0  0  0  0  0  0  0  0  0
   -1.3194    2.1072    5.2644 H   0  0  0  0  0  0  0  0  0  0  0  0
    5.2655    0.6334    1.5578 H   0  0  0  0  0  0  0  0  0  0  0  0
    6.8672   -0.1228    1.2279 H   0  0  0  0  0  0  0  0  0  0  0  0
    5.8341   -0.7131    2.5788 H   0  0  0  0  0  0  0  0  0  0  0  0
    3.8842    0.8867   -6.3713 H   0  0  0  0  0  0  0  0  0  0  0  0
    4.8364   -0.5135   -6.0945 H   0  0  0  0  0  0  0  0  0  0  0  0
    2.5848    1.9060   -4.4849 H   0  0  0  0  0  0  0  0  0  0  0  0
   -1.1332    2.0934   -0.0087 H   0  0  0  0  0  0  0  0  0  0  0  0
   -0.2977    3.5070   -2.6390 H   0  0  0  0  0  0  0  0  0  0  0  0
   -1.5752    3.9673   -1.5282 H   0  0  0  0  0  0  0  0  0  0  0  0
   -0.4886    1.1435   -3.6795 H   0  0  0  0  0  0  0  0  0  0  0  0
   -1.7414    1.0083   -4.9241 H   0  0  0  0  0  0  0  0  0  0  0  0
   -1.4667    0.3661   -1.3833 H   0  0  0  0  0  0  0  0  0  0  0  0
   -3.7076   -1.3304    0.6998 H   0  0  0  0  0  0  0  0  0  0  0  0
   -2.3807   -0.1082    0.6498 H   0  0  0  0  0  0  0  0  0  0  0  0
   -2.0142   -1.8473    0.7754 H   0  0  0  0  0  0  0  0  0  0  0  0
    0.2248   -1.3892   -2.4634 H   0  0  0  0  0  0  0  0  0  0  0  0
    1.6158   -3.1168   -3.2451 H   0  0  0  0  0  0  0  0  0  0  0  0
    1.7020   -2.0290   -4.6588 H   0  0  0  0  0  0  0  0  0  0  0  0
    0.5132   -3.3526   -4.6462 H   0  0  0  0  0  0  0  0  0  0  0  0
  2  1  2  0  0  0  0
  3  2  1  0  0  0  0
  4  3  1  0  0  0  0
  4  5  1  0  0  0  0
  6  5  2  0  0  0  0
  6  7  1  0  0  0  0
  8  7  1  6  0  0  0
  8  9  1  0  0  0  0
  8 33  1  0  0  0  0
  9 12  2  0  0  0  0
 10 11  1  0  0  0  0
 10  9  1  0  0  0  0
 11 56  1  0  0  0  0
 11 57  1  0  0  0  0
 12 13  1  0  0  0  0
 13 14  1  6  0  0  0
 14 19  1  0  0  0  0
 15 14  1  0  0  0  0
 15 16  1  0  0  0  0
 16 17  1  0  0  0  0
 16 60  1  0  0  0  0
 17 18  1  0  0  0  0
 18 63  1  0  0  0  0
 18 62  1  0  0  0  0
 19 64  1  0  0  0  0
 19 18  1  0  0  0  0
 20 67  1  0  0  0  0
 20 17  1  0  0  0  0
 21 20  1  0  0  0  0
 21 69  1  0  0  0  0
 22 21  1  0  0  0  0
 23 24  1  0  0  0  0
 23 71  1  0  0  0  0
 23 22  1  0  0  0  0
 24 25  1  0  0  0  0
 25 26  1  0  0  0  0
 26 75  1  0  0  0  0
 26 27  1  0  0  0  0
 27 77  1  0  0  0  0
 27 28  1  0  0  0  0
 29 78  1  0  0  0  0
 29 28  1  0  0  0  0
 29 30  1  0  0  0  0
 30 81  1  0  0  0  0
 31 30  1  0  0  0  0
 32 13  1  0  0  0  0
 33 32  2  0  0  0  0
 34 33  1  0  0  0  0
 34 35  1  0  0  0  0
 35 83  1  0  0  0  0
 35 85  1  0  0  0  0
 36  6  1  0  0  0  0
 37 39  1  0  0  0  0
 37 36  2  0  0  0  0
 38 37  1  0  0  0  0
 39  4  2  0  0  0  0
 40  2  1  0  0  0  0
 40 89  1  0  0  0  0
 41 91  1  0  0  0  0
 41 40  1  0  0  0  0
 42 41  1  0  0  0  0
 43 92  1  0  0  0  0
 43 44  1  0  0  0  0
 43 42  1  0  0  0  0
 44 45  1  6  0  0  0
 44 46  1  0  0  0  0
 46 94  1  0  0  0  0
 46 47  1  0  0  0  0
 47 48  1  0  0  0  0
 48 96  1  0  0  0  0
 48 95  1  0  0  0  0
 48 97  1  0  0  0  0
 49 47  2  0  0  0  0
 50 51  1  0  0  0  0
 50 44  1  0  0  0  0
 51 98  1  0  0  0  0
 52 51  1  0  0  0  0
 52 99  1  0  0  0  0
 53 50  2  0  0  0  0
 54  3  1  0  0  0  0
 55 11  1  0  0  0  0
 58 15  1  0  0  0  0
 59 15  1  0  0  0  0
 61 16  1  0  0  0  0
 65 19  1  0  0  0  0
 66 20  1  0  0  0  0
 68 21  1  0  0  0  0
 70 23  1  0  0  0  0
 72 24  1  0  0  0  0
 73 24  1  0  0  0  0
 74 26  1  0  0  0  0
 76 27  1  0  0  0  0
 79 29  1  0  0  0  0
 80 30  1  0  0  0  0
 82 31  1  0  0  0  0
 84 35  1  0  0  0  0
 86 38  1  0  0  0  0
 87 38  1  0  0  0  0
 88 39  1  0  0  0  0
 90 41  1  0  0  0  0
 93 43  1  0  0  0  0
100 52  1  0  0  0  0
101 52  1  0  0  0  0
M  END
