101
-1 1
O         1.030810    0.696602    0.003934
C         0.644199    1.437988   -0.913193
N         1.459695    1.562593   -2.104773
C         2.370897    0.715525   -2.660868
N         2.749725   -0.399181   -2.020631
C         3.649160   -1.156324   -2.618169
S         4.202210   -2.630961   -1.773723
C         3.433413   -2.377355   -0.216115
C         2.087530   -2.702387    0.034162
O         1.451309   -3.473854   -0.845418
C         0.060663   -3.668527   -0.671631
N         1.419502   -2.262421    1.081430
C         2.051527   -1.397022    1.880449
N         1.302288   -0.738948    2.813506
C        -0.136692   -0.718170    2.542621
C        -0.927293    0.075774    3.569677
N        -0.339548    1.381350    3.885095
C         0.998784    1.124551    4.410661
C         1.919686    0.443943    3.405059
C        -0.309531    2.319791    2.755715
C        -1.625015    3.015682    2.469438
O        -2.585719    2.118207    1.961638
C        -3.618971    2.721847    1.223049
C        -4.859837    1.861973    1.269791
O        -5.525948    2.046023    2.493771
C        -6.186526    0.922656    3.011855
C        -5.281122    0.020243    3.842187
O        -4.891111    0.575513    5.062288
C        -3.932036    1.609078    4.989335
C        -2.922090    1.460449    6.119749
O        -1.890400    2.395112    6.013026
N         3.355807   -1.107081    1.818660
C         4.016612   -1.569508    0.774512
O         5.297577   -1.226582    0.634478
C         5.836528   -0.306861    1.555847
N         4.207148   -0.982234   -3.809160
C         3.808239    0.109418   -4.478626
N         4.376789    0.302340   -5.711196
C         2.891152    1.012512   -3.937817
C        -0.545398    2.182201   -0.923363
C        -1.066332    3.092796   -1.965318
S        -2.414620    2.442166   -3.117657
C        -1.567716    1.007075   -3.840120
C        -1.977207   -0.372963   -3.303728
H        -3.003807   -0.611146   -3.620312
N        -1.903794   -0.431130   -1.866156
C        -2.698564   -1.291020   -1.175114
C        -2.697210   -1.110605    0.329316
O        -3.352337   -2.166306   -1.716453
C        -1.087702   -1.387348   -4.036529
N         0.031781   -1.770414   -3.383812
C         1.020547   -2.610374   -4.014940
O        -1.357014   -1.735284   -5.174201
H         1.208532    2.336729   -2.703383
H        -0.288342   -4.195989   -1.566515
H        -0.456071   -2.704218   -0.585390
H        -0.148010   -4.261427    0.231362
H        -0.505340   -1.752287    2.529316
H        -0.280913   -0.304458    1.531971
H        -0.999757   -0.481187    4.518539
H        -1.945933    0.213646    3.186497
H         0.886930    0.499428    5.311830
H         1.456632    2.073366    4.731071
H         2.853527    0.147739    3.901781
H         2.201245    1.148292    2.601593
H         0.069324    1.853575    1.827390
H         0.404294    3.116477    3.020335
H        -1.416392    3.802899    1.721030
H        -2.014904    3.497839    3.387676
H        -3.300491    2.853598    0.170875
H        -3.870222    3.715288    1.638033
H        -4.560977    0.810986    1.119067
H        -5.524501    2.138648    0.428769
H        -6.657188    0.327600    2.203567
H        -6.993512    1.297455    3.661860
H        -4.397937   -0.269402    3.235671
H        -5.833753   -0.904309    4.077497
H        -4.416404    2.600834    5.044398
H        -3.404908    1.576305    4.023322
H        -2.553145    0.414543    6.110247
H        -3.428080    1.604423    7.089618
H        -1.319395    2.107159    5.264373
H         5.265514    0.633438    1.557817
H         6.867180   -0.122757    1.227900
H         5.834068   -0.713063    2.578843
H         3.884174    0.886679   -6.371279
H         4.836416   -0.513541   -6.094532
H         2.584832    1.906017   -4.484865
H        -1.133249    2.093363   -0.008694
H        -0.297699    3.507004   -2.638993
H        -1.575238    3.967296   -1.528201
H        -0.488557    1.143457   -3.679496
H        -1.741447    1.008330   -4.924058
H        -1.466707    0.366051   -1.383274
H        -3.707600   -1.330382    0.699825
H        -2.380719   -0.108165    0.649802
H        -2.014184   -1.847324    0.775399
H         0.224768   -1.389199   -2.463429
H         1.615784   -3.116845   -3.245142
H         1.701967   -2.028955   -4.658813
H         0.513200   -3.352618   -4.646212
