-1 1
 OpenBabel05232414493D

101102  0  0  1  0  0  0  0  0999 V2000
    1.4954   -8.0682   14.7428 O   0  0  0  0  0  0  0  0  0  0  0  0
    1.1108   -7.3573   13.8247 C   0  0  0  0  0  0  0  0  0  0  0  0
    1.7262   -7.3771   12.5568 N   0  0  0  0  0  0  0  0  0  0  0  0
    2.6809   -8.2135   12.0265 C   0  0  0  0  0  0  0  0  0  0  0  0
    3.2224   -9.1732   12.7783 N   0  0  0  0  0  0  0  0  0  0  0  0
    4.1226   -9.9456   12.1971 C   0  0  0  0  0  0  0  0  0  0  0  0
    4.8341  -11.2741   13.1505 S   0  0  0  0  0  0  0  0  0  0  0  0
    4.0132  -11.0156   14.6810 C   0  0  2  0  0  3  0  0  0  0  0  0
    2.6641  -11.3675   14.8813 C   0  0  0  0  0  0  0  0  0  0  0  0
    2.0670  -12.1253   13.9677 O   0  0  0  0  0  0  0  0  0  0  0  0
    0.6718  -12.3399   14.0936 C   0  0  0  0  0  0  0  0  0  0  0  0
    1.9580  -10.9555   15.9157 N   0  0  0  0  0  0  0  0  0  0  0  0
    2.5503  -10.0985   16.7510 C   0  0  2  0  0  3  0  0  0  0  0  0
    1.7573   -9.4774   17.6753 N   0  0  0  0  0  0  0  0  0  0  0  0
    0.3260   -9.4742   17.3619 C   0  0  0  0  0  0  0  0  0  0  0  0
   -0.5128   -8.7215   18.3829 C   0  0  0  0  0  0  0  0  0  0  0  0
    0.0535   -7.4262   18.7698 N   0  0  0  0  0  0  0  0  0  0  0  0
    1.3695   -7.6935   19.3434 C   0  0  0  0  0  0  0  0  0  0  0  0
    2.3403   -8.3248   18.3524 C   0  0  0  0  0  0  0  0  0  0  0  0
    0.1180   -6.4392   17.6870 C   0  0  0  0  0  0  0  0  0  0  0  0
   -1.1968   -5.7571   17.3595 C   0  0  0  0  0  0  0  0  0  0  0  0
   -2.0974   -6.6483   16.7458 O   0  0  0  0  0  0  0  0  0  0  0  0
   -3.1081   -6.0448   15.9682 C   0  0  0  0  0  0  0  0  0  0  0  0
   -4.3751   -6.8628   16.0348 C   0  0  0  0  0  0  0  0  0  0  0  0
   -5.0341   -6.6229   17.2528 O   0  0  0  0  0  0  0  0  0  0  0  0
   -5.8030   -7.6849   17.7499 C   0  0  0  0  0  0  0  0  0  0  0  0
   -4.9939   -8.6806   18.5736 C   0  0  0  0  0  0  0  0  0  0  0  0
   -4.5706   -8.1875   19.8094 O   0  0  0  0  0  0  0  0  0  0  0  0
   -3.5596   -7.2048   19.7634 C   0  0  0  0  0  0  0  0  0  0  0  0
   -2.6048   -7.3923   20.9340 C   0  0  0  0  0  0  0  0  0  0  0  0
   -1.5503   -6.4784   20.8874 O   0  0  0  0  0  0  0  0  0  0  0  0
    3.8486   -9.7775   16.7309 N   0  0  0  0  0  0  0  0  0  0  0  0
    4.5511  -10.2137   15.7000 C   0  0  0  0  0  0  0  0  0  0  0  0
    5.8311   -9.8522   15.6087 O   0  0  0  0  0  0  0  0  0  0  0  0
    6.3348   -8.9574   16.5738 C   0  0  0  0  0  0  0  0  0  0  0  0
    4.5595   -9.8857   10.9466 N   0  0  0  0  0  0  0  0  0  0  0  0
    4.0022   -8.9395   10.1787 C   0  0  0  0  0  0  0  0  0  0  0  0
    4.4321   -8.8788    8.8824 N   0  0  0  0  0  0  0  0  0  0  0  0
    3.0441   -8.0522   10.6817 C   0  0  0  0  0  0  0  0  0  0  0  0
    0.0063   -6.4263   13.9581 C   0  0  0  0  0  3  0  0  0  0  0  0
   -0.4775   -5.5362   13.0262 C   0  0  0  0  0  3  0  0  0  0  0  0
   -2.2832   -6.3436   11.4925 S   0  0  0  0  0  1  0  0  0  0  0  0
   -1.3856   -7.7164   10.7067 C   0  0  0  0  0  0  0  0  0  0  0  0
   -1.6715   -9.1116   11.2946 C   0  0  2  0  0  0  0  0  0  0  0  0
   -2.6861   -9.4279   11.0036 H   0  0  0  0  0  0  0  0  0  0  0  0
   -1.5603   -9.0744   12.7361 N   0  0  0  0  0  0  0  0  0  0  0  0
   -2.0581  -10.0818   13.5019 C   0  0  0  0  0  0  0  0  0  0  0  0
   -2.1829   -9.7812   14.9823 C   0  0  0  0  0  0  0  0  0  0  0  0
   -2.3705  -11.1675   13.0441 O   0  0  0  0  0  0  0  0  0  0  0  0
   -0.7284  -10.1122   10.6232 C   0  0  0  0  0  0  0  0  0  0  0  0
    0.3936  -10.4340   11.3084 N   0  0  0  0  0  0  0  0  0  0  0  0
    1.3695  -11.3396   10.7575 C   0  0  0  0  0  0  0  0  0  0  0  0
   -0.9551  -10.5215    9.4971 O   0  0  0  0  0  0  0  0  0  0  0  0
    1.3140   -6.7455   11.8835 H   0  0  0  0  0  0  0  0  0  0  0  0
    0.3427  -12.8039   13.1576 H   0  0  0  0  0  0  0  0  0  0  0  0
    0.1469  -11.3886   14.2394 H   0  0  0  0  0  0  0  0  0  0  0  0
    0.4486  -12.9961   14.9479 H   0  0  0  0  0  0  0  0  0  0  0  0
   -0.0238  -10.5135   17.3077 H   0  0  0  0  0  0  0  0  0  0  0  0
    0.1950   -9.0404   16.3582 H   0  0  0  0  0  0  0  0  0  0  0  0
   -0.6217   -9.3120   19.3075 H   0  0  0  0  0  0  0  0  0  0  0  0
   -1.5147   -8.5750   17.9607 H   0  0  0  0  0  0  0  0  0  0  0  0
    1.2236   -8.3564   20.2117 H   0  0  0  0  0  0  0  0  0  0  0  0
    1.8036   -6.7557   19.7235 H   0  0  0  0  0  0  0  0  0  0  0  0
    3.2506   -8.6435   18.8787 H   0  0  0  0  0  0  0  0  0  0  0  0
    2.6640   -7.5778   17.6049 H   0  0  0  0  0  0  0  0  0  0  0  0
    0.5493   -6.8582   16.7593 H   0  0  0  0  0  0  0  0  0  0  0  0
    0.8022   -5.6426   18.0206 H   0  0  0  0  0  0  0  0  0  0  0  0
   -0.9655   -4.9212   16.6726 H   0  0  0  0  0  0  0  0  0  0  0  0
   -1.6476   -5.3356   18.2793 H   0  0  0  0  0  0  0  0  0  0  0  0
   -2.7773   -5.9696   14.9150 H   0  0  0  0  0  0  0  0  0  0  0  0
   -3.3322   -5.0284   16.3379 H   0  0  0  0  0  0  0  0  0  0  0  0
   -4.1084   -7.9268   15.9165 H   0  0  0  0  0  0  0  0  0  0  0  0
   -5.0274   -6.5905   15.1828 H   0  0  0  0  0  0  0  0  0  0  0  0
   -6.3205   -8.2213   16.9292 H   0  0  0  0  0  0  0  0  0  0  0  0
   -6.5770   -7.2448   18.3990 H   0  0  0  0  0  0  0  0  0  0  0  0
   -4.1310   -9.0373   17.9730 H   0  0  0  0  0  0  0  0  0  0  0  0
   -5.6291   -9.5563   18.7852 H   0  0  0  0  0  0  0  0  0  0  0  0
   -3.9917   -6.1880   19.7931 H   0  0  0  0  0  0  0  0  0  0  0  0
   -3.0006   -7.2731   18.8163 H   0  0  0  0  0  0  0  0  0  0  0  0
   -2.2580   -8.4461   20.9287 H   0  0  0  0  0  0  0  0  0  0  0  0
   -3.1523   -7.2483   21.8808 H   0  0  0  0  0  0  0  0  0  0  0  0
   -0.9667   -6.7506   20.1440 H   0  0  0  0  0  0  0  0  0  0  0  0
    5.7610   -8.0188   16.5839 H   0  0  0  0  0  0  0  0  0  0  0  0
    7.3751   -8.7607   16.2866 H   0  0  0  0  0  0  0  0  0  0  0  0
    6.2991   -9.3931   17.5838 H   0  0  0  0  0  0  0  0  0  0  0  0
    3.8407   -8.4206    8.2041 H   0  0  0  0  0  0  0  0  0  0  0  0
    4.9435   -9.6906    8.5619 H   0  0  0  0  0  0  0  0  0  0  0  0
    2.5856   -7.2893   10.0510 H   0  0  0  0  0  0  0  0  0  0  0  0
   -0.5191   -6.5358   14.9070 H   0  0  0  0  0  0  0  0  0  0  0  0
    0.0869   -5.2521   12.1345 H   0  0  0  0  0  0  0  0  0  0  0  0
   -1.1904   -4.7749   13.3432 H   0  0  0  0  0  0  0  0  0  0  0  0
   -0.2985   -7.5411   10.7818 H   0  0  0  0  0  0  0  0  0  0  0  0
   -1.6197   -7.7643    9.6344 H   0  0  0  0  0  0  0  0  0  0  0  0
   -1.5366   -8.1338   13.1311 H   0  0  0  0  0  0  0  0  0  0  0  0
   -3.2344   -9.9308   15.2681 H   0  0  0  0  0  0  0  0  0  0  0  0
   -1.8618   -8.7697   15.2661 H   0  0  0  0  0  0  0  0  0  0  0  0
   -1.5893  -10.5169   15.5412 H   0  0  0  0  0  0  0  0  0  0  0  0
    0.5184  -10.0610   12.2417 H   0  0  0  0  0  0  0  0  0  0  0  0
    2.0535  -11.6656   11.5509 H   0  0  0  0  0  0  0  0  0  0  0  0
    1.9562  -10.8661    9.9526 H   0  0  0  0  0  0  0  0  0  0  0  0
    0.8670  -12.2178   10.3249 H   0  0  0  0  0  0  0  0  0  0  0  0
  2 40  1  0  0  0  0
  2  1  2  0  0  0  0
  3  2  1  0  0  0  0
  4  3  1  0  0  0  0
  4  5  1  0  0  0  0
  6  5  2  0  0  0  0
  6  7  1  0  0  0  0
  8  7  1  6  0  0  0
  8  9  1  0  0  0  0
  8 33  1  0  0  0  0
  9 12  2  0  0  0  0
 10 11  1  0  0  0  0
 10  9  1  0  0  0  0
 11 56  1  0  0  0  0
 11 57  1  0  0  0  0
 12 13  1  0  0  0  0
 13 14  1  6  0  0  0
 14 19  1  0  0  0  0
 15 14  1  0  0  0  0
 15 16  1  0  0  0  0
 16 17  1  0  0  0  0
 16 60  1  0  0  0  0
 17 18  1  0  0  0  0
 18 63  1  0  0  0  0
 18 62  1  0  0  0  0
 19 64  1  0  0  0  0
 19 18  1  0  0  0  0
 20 67  1  0  0  0  0
 20 17  1  0  0  0  0
 21 20  1  0  0  0  0
 21 69  1  0  0  0  0
 22 21  1  0  0  0  0
 23 24  1  0  0  0  0
 23 71  1  0  0  0  0
 23 22  1  0  0  0  0
 24 25  1  0  0  0  0
 25 26  1  0  0  0  0
 26 75  1  0  0  0  0
 26 27  1  0  0  0  0
 27 77  1  0  0  0  0
 27 28  1  0  0  0  0
 29 78  1  0  0  0  0
 29 28  1  0  0  0  0
 29 30  1  0  0  0  0
 30 81  1  0  0  0  0
 31 30  1  0  0  0  0
 32 13  1  0  0  0  0
 33 32  2  0  0  0  0
 34 33  1  0  0  0  0
 34 35  1  0  0  0  0
 35 83  1  0  0  0  0
 35 85  1  0  0  0  0
 36  6  1  0  0  0  0
 37 39  1  0  0  0  0
 37 36  2  0  0  0  0
 38 37  1  0  0  0  0
 39  4  2  0  0  0  0
 40 89  1  0  0  0  0
 41 91  1  0  0  0  0
 41 40  1  0  0  0  0
 43 92  1  0  0  0  0
 43 44  1  0  0  0  0
 43 42  1  0  0  0  0
 44 45  1  6  0  0  0
 44 46  1  0  0  0  0
 46 94  1  0  0  0  0
 46 47  1  0  0  0  0
 47 48  1  0  0  0  0
 48 96  1  0  0  0  0
 48 95  1  0  0  0  0
 48 97  1  0  0  0  0
 49 47  2  0  0  0  0
 50 44  1  0  0  0  0
 50 51  1  0  0  0  0
 51 98  1  0  0  0  0
 52 51  1  0  0  0  0
 52 99  1  0  0  0  0
 53 50  2  0  0  0  0
 54  3  1  0  0  0  0
 55 11  1  0  0  0  0
 58 15  1  0  0  0  0
 59 15  1  0  0  0  0
 61 16  1  0  0  0  0
 65 19  1  0  0  0  0
 66 20  1  0  0  0  0
 68 21  1  0  0  0  0
 70 23  1  0  0  0  0
 72 24  1  0  0  0  0
 73 24  1  0  0  0  0
 74 26  1  0  0  0  0
 76 27  1  0  0  0  0
 79 29  1  0  0  0  0
 80 30  1  0  0  0  0
 82 31  1  0  0  0  0
 84 35  1  0  0  0  0
 86 38  1  0  0  0  0
 87 38  1  0  0  0  0
 88 39  1  0  0  0  0
 90 41  1  0  0  0  0
 93 43  1  0  0  0  0
100 52  1  0  0  0  0
101 52  1  0  0  0  0
M  END
