-1 1
 OpenBabel05232414493D

 74 75  0  0  1  0  0  0  0  0999 V2000
    9.9553    1.7336  -10.1478 O   0  0  0  0  0  0  0  0  0  0  0  0
    8.8149    1.2779  -10.1211 C   0  0  0  0  0  0  0  0  0  0  0  0
    8.5446    0.2306  -11.0438 N   0  0  0  0  0  0  0  0  0  0  0  0
    7.4527   -0.0250  -11.8411 C   0  0  0  0  0  0  0  0  0  0  0  0
    7.5717   -1.1107  -12.6345 N   0  0  0  0  0  0  0  0  0  0  0  0
    6.5169   -1.4137  -13.3624 C   0  0  0  0  0  0  0  0  0  0  0  0
    6.5831   -2.8592  -14.4187 S   0  0  0  0  0  0  0  0  0  0  0  0
    8.1804   -3.4794  -14.0236 C   0  0  2  0  0  3  0  0  0  0  0  0
    8.5292   -3.8753  -12.7191 C   0  0  0  0  0  0  0  0  0  0  0  0
    7.5662   -3.9367  -11.8119 O   0  0  0  0  0  0  0  0  0  0  0  0
    7.9263   -3.9017  -10.4482 C   0  0  0  0  0  0  0  0  0  0  0  0
    9.7677   -4.1745  -12.3568 N   0  0  0  0  0  0  0  0  0  0  0  0
   10.7113   -4.1148  -13.3011 C   0  0  1  0  0  3  0  0  0  0  0  0
   11.9926   -4.4204  -12.9340 N   0  0  0  0  0  0  0  0  0  0  0  0
   12.3504   -4.7216  -11.5615 C   0  0  0  0  0  0  0  0  0  0  0  0
   13.1450   -6.0243  -11.4839 C   0  0  0  0  0  0  0  0  0  0  0  0
   14.3517   -5.9889  -12.4223 C   0  0  0  0  0  0  0  0  0  0  0  0
   13.9175   -5.6316  -13.8442 C   0  0  0  0  0  0  0  0  0  0  0  0
   13.1025   -4.3390  -13.8620 C   0  0  0  0  0  0  0  0  0  0  0  0
   10.4964   -3.7879  -14.5804 N   0  0  0  0  0  0  0  0  0  0  0  0
    9.2581   -3.4564  -14.9190 C   0  0  0  0  0  0  0  0  0  0  0  0
    9.0256   -3.0812  -16.1759 O   0  0  0  0  0  0  0  0  0  0  0  0
   10.1189   -2.9884  -17.0592 C   0  0  0  0  0  0  0  0  0  0  0  0
    5.3445   -0.7966  -13.4084 N   0  0  0  0  0  0  0  0  0  0  0  0
    5.2416    0.3054  -12.6455 C   0  0  0  0  0  0  0  0  0  0  0  0
    4.0696    0.9851  -12.6427 N   0  0  0  0  0  0  0  0  0  0  0  0
    6.3157    0.7638  -11.8651 C   0  0  0  0  0  0  0  0  0  0  0  0
    7.8399    1.6920   -9.1380 C   0  0  0  0  0  3  0  0  0  0  0  0
    6.6500    1.0782   -8.7653 C   0  0  0  0  0  3  0  0  0  0  0  0
    4.5563    2.1463   -9.3855 S   0  0  0  0  0  1  0  0  0  0  0  0
    5.0270    3.8218   -8.8711 C   0  0  0  0  0  0  0  0  0  0  0  0
    5.4594    4.7478  -10.0047 C   0  0  2  0  0  0  0  0  0  0  0  0
    4.6564    4.8116  -10.7588 H   0  0  0  0  0  0  0  0  0  0  0  0
    6.6437    4.2239  -10.6704 N   0  0  0  0  0  0  0  0  0  0  0  0
    6.9756    4.5124  -11.9467 C   0  0  0  0  0  0  0  0  0  0  0  0
    8.1222    3.7172  -12.5266 C   0  0  0  0  0  0  0  0  0  0  0  0
    6.3798    5.3598  -12.6113 O   0  0  0  0  0  0  0  0  0  0  0  0
    5.7106    6.1797   -9.4772 C   0  0  0  0  0  0  0  0  0  0  0  0
    5.8746    7.0964  -10.4642 N   0  0  0  0  0  0  0  0  0  0  0  0
    6.2124    8.4666  -10.1923 C   0  0  0  0  0  0  0  0  0  0  0  0
    5.7387    6.4505   -8.2887 O   0  0  0  0  0  0  0  0  0  0  0  0
    9.4015   -0.1792  -11.4018 H   0  0  0  0  0  0  0  0  0  0  0  0
    8.5253   -4.7794  -10.1637 H   0  0  0  0  0  0  0  0  0  0  0  0
    6.9833   -3.8912   -9.8892 H   0  0  0  0  0  0  0  0  0  0  0  0
    8.4950   -2.9855  -10.2275 H   0  0  0  0  0  0  0  0  0  0  0  0
   11.4296   -4.7742  -10.9715 H   0  0  0  0  0  0  0  0  0  0  0  0
   12.9615   -3.8911  -11.1551 H   0  0  0  0  0  0  0  0  0  0  0  0
   12.4813   -6.8598  -11.7648 H   0  0  0  0  0  0  0  0  0  0  0  0
   13.4641   -6.1983  -10.4440 H   0  0  0  0  0  0  0  0  0  0  0  0
   14.8844   -6.9531  -12.4087 H   0  0  0  0  0  0  0  0  0  0  0  0
   15.0676   -5.2281  -12.0613 H   0  0  0  0  0  0  0  0  0  0  0  0
   13.2971   -6.4452  -14.2572 H   0  0  0  0  0  0  0  0  0  0  0  0
   14.7930   -5.5233  -14.5042 H   0  0  0  0  0  0  0  0  0  0  0  0
   12.7006   -4.1301  -14.8590 H   0  0  0  0  0  0  0  0  0  0  0  0
   13.7538   -3.4884  -13.5774 H   0  0  0  0  0  0  0  0  0  0  0  0
   10.8748   -2.2801  -16.6882 H   0  0  0  0  0  0  0  0  0  0  0  0
    9.7062   -2.6301  -18.0101 H   0  0  0  0  0  0  0  0  0  0  0  0
   10.6028   -3.9664  -17.2045 H   0  0  0  0  0  0  0  0  0  0  0  0
    3.2755    0.5209  -13.0608 H   0  0  0  0  0  0  0  0  0  0  0  0
    3.9106    1.6144  -11.8544 H   0  0  0  0  0  0  0  0  0  0  0  0
    6.1942    1.6490  -11.2488 H   0  0  0  0  0  0  0  0  0  0  0  0
    8.2377    2.4865   -8.4998 H   0  0  0  0  0  0  0  0  0  0  0  0
    6.2990    1.2209   -7.7436 H   0  0  0  0  0  0  0  0  0  0  0  0
    6.3487    0.1334   -9.2233 H   0  0  0  0  0  0  0  0  0  0  0  0
    5.8478    3.7734   -8.1352 H   0  0  0  0  0  0  0  0  0  0  0  0
    4.1877    4.2981   -8.3468 H   0  0  0  0  0  0  0  0  0  0  0  0
    7.1450    3.4764  -10.1868 H   0  0  0  0  0  0  0  0  0  0  0  0
    8.8478    3.3901  -11.7688 H   0  0  0  0  0  0  0  0  0  0  0  0
    8.6200    4.3275  -13.2901 H   0  0  0  0  0  0  0  0  0  0  0  0
    7.7127    2.8190  -13.0148 H   0  0  0  0  0  0  0  0  0  0  0  0
    5.9225    6.7300  -11.4193 H   0  0  0  0  0  0  0  0  0  0  0  0
    7.2342    8.7123  -10.5288 H   0  0  0  0  0  0  0  0  0  0  0  0
    6.1554    8.6226   -9.1070 H   0  0  0  0  0  0  0  0  0  0  0  0
    5.5125    9.1591  -10.6882 H   0  0  0  0  0  0  0  0  0  0  0  0
  1  2  2  0  0  0  0
  2 28  1  0  0  0  0
  3  2  1  0  0  0  0
  4  3  1  0  0  0  0
  5  4  1  0  0  0  0
  6  5  2  0  0  0  0
  7  6  1  0  0  0  0
  8  7  1  1  0  0  0
  8  9  1  0  0  0  0
  9 12  2  0  0  0  0
  9 10  1  0  0  0  0
 10 11  1  0  0  0  0
 11 45  1  0  0  0  0
 11 43  1  0  0  0  0
 11 44  1  0  0  0  0
 13 14  1  6  0  0  0
 13 12  1  0  0  0  0
 14 15  1  0  0  0  0
 15 16  1  0  0  0  0
 15 47  1  0  0  0  0
 15 46  1  0  0  0  0
 16 49  1  0  0  0  0
 17 50  1  0  0  0  0
 17 51  1  0  0  0  0
 17 16  1  0  0  0  0
 18 17  1  0  0  0  0
 19 18  1  0  0  0  0
 19 55  1  0  0  0  0
 19 14  1  0  0  0  0
 20 13  1  0  0  0  0
 21 20  2  0  0  0  0
 21  8  1  0  0  0  0
 22 21  1  0  0  0  0
 23 56  1  0  0  0  0
 23 22  1  0  0  0  0
 24  6  1  0  0  0  0
 24 25  2  0  0  0  0
 25 26  1  0  0  0  0
 25 27  1  0  0  0  0
 26 60  1  0  0  0  0
 27  4  2  0  0  0  0
 27 61  1  0  0  0  0
 28 29  1  0  0  0  0
 28 62  1  0  0  0  0
 29 63  1  0  0  0  0
 30 31  1  0  0  0  0
 31 66  1  0  0  0  0
 31 65  1  0  0  0  0
 32 33  1  6  0  0  0
 32 38  1  0  0  0  0
 32 31  1  0  0  0  0
 34 67  1  0  0  0  0
 34 32  1  0  0  0  0
 35 34  1  0  0  0  0
 36 35  1  0  0  0  0
 36 68  1  0  0  0  0
 37 35  2  0  0  0  0
 38 41  2  0  0  0  0
 39 40  1  0  0  0  0
 39 38  1  0  0  0  0
 40 73  1  0  0  0  0
 42  3  1  0  0  0  0
 48 16  1  0  0  0  0
 52 18  1  0  0  0  0
 53 18  1  0  0  0  0
 54 19  1  0  0  0  0
 57 23  1  0  0  0  0
 58 23  1  0  0  0  0
 59 26  1  0  0  0  0
 64 29  1  0  0  0  0
 69 36  1  0  0  0  0
 70 36  1  0  0  0  0
 71 39  1  0  0  0  0
 72 40  1  0  0  0  0
 74 40  1  0  0  0  0
M  END
