74
-1 1
O         1.937030    2.127375    1.354578
C         0.836753    1.613539    1.600578
N         0.524551    0.440506    0.785598
C        -0.531110    0.213086   -0.039656
N        -0.433981   -0.883047   -0.828287
C        -1.487801   -1.180447   -1.555024
S        -1.454106   -2.667627   -2.556754
C         0.114363   -3.324553   -2.107521
C         0.438435   -3.645157   -0.776156
O        -0.536044   -3.630119    0.121382
C        -0.193079   -3.440328    1.477953
N         1.665775   -3.948940   -0.380674
C         2.619915   -3.974417   -1.314932
N         3.890539   -4.283772   -0.913095
C         4.230009   -4.475479    0.483499
C         5.026811   -5.764899    0.673331
C         6.246805   -5.798363   -0.247808
C         5.831167   -5.555175   -1.699037
C         5.012768   -4.271258   -1.829534
N         2.425939   -3.732208   -2.616363
C         1.200558   -3.391330   -2.990054
O         0.990482   -3.095170   -4.272440
C         2.096172   -3.082718   -5.144643
N        -2.642341   -0.533123   -1.638026
C        -2.720303    0.587937   -0.900697
N        -3.877472    1.307765   -0.976002
C        -1.667498    1.021296   -0.091243
C        -0.073378    2.020033    2.587386
C        -1.267743    1.300201    3.078816
S        -2.976820    2.107554    2.828879
C        -2.658876    3.824044    3.328848
C        -2.477401    4.808409    2.172976
H        -3.383240    4.809003    1.539424
N        -1.350239    4.425991    1.341847
C        -1.217645    4.793437    0.051257
C        -0.104295    4.116185   -0.712238
O        -1.960108    5.619511   -0.485908
C        -2.325238    6.242671    2.733827
N        -2.326676    7.200176    1.776992
C        -2.113412    8.589436    2.078279
O        -2.239171    6.470168    3.929537
H         1.373196   -0.019251    0.471252
H         0.428074   -4.264054    1.859228
H        -1.142629   -3.399711    2.024530
H         0.341759   -2.485967    1.602515
H         3.301270   -4.485849    1.063093
H         4.832318   -3.613387    0.833560
H         4.369760   -6.622505    0.449123
H         5.331528   -5.855841    1.728017
H         6.782133   -6.756437   -0.151487
H         6.955088   -5.008544    0.062227
H         5.218887   -6.401260   -2.055151
H         6.715338   -5.495245   -2.353738
H         4.623741   -4.143133   -2.845140
H         5.658194   -3.398033   -1.605484
H         2.863856   -2.369654   -4.808458
H         1.703778   -2.775995   -6.121861
H         2.559206   -4.078526   -5.221702
H        -4.669930    0.829224   -1.381675
H        -4.061473    1.959016   -0.222886
H        -1.759298    1.917636    0.512877
H         0.340174    2.799916    3.234692
H        -1.235800    1.131206    4.165960
H        -1.406988    0.323304    2.592634
H        -1.775181    3.856135    3.981732
H        -3.503527    4.161112    3.942724
H        -0.756126    3.654857    1.700681
H         0.671649    3.679991   -0.065598
H         0.336275    4.844189   -1.405805
H        -0.545352    3.303304   -1.310201
H        -2.334923    6.870483    0.805224
H        -1.157209    8.954311    1.666625
H        -2.090886    8.704086    3.169863
H        -2.923454    9.216934    1.671687
