74
-1 1
O         9.955324    1.733586  -10.147790
C         8.814905    1.277873  -10.121073
N         8.544637    0.230648  -11.043828
C         7.452748   -0.025014  -11.841100
N         7.571682   -1.110679  -12.634491
C         6.516878   -1.413721  -13.362390
S         6.583141   -2.859229  -14.418688
C         8.180441   -3.479376  -14.023564
C         8.529213   -3.875340  -12.719127
O         7.566179   -3.936744  -11.811923
C         7.926346   -3.901722  -10.448151
N         9.767737   -4.174518  -12.356846
C        10.711311   -4.114777  -13.301111
N        11.992606   -4.420433  -12.934004
C        12.350400   -4.721582  -11.561455
C        13.144951   -6.024275  -11.483879
C        14.351702   -5.988893  -12.422258
C        13.917538   -5.631626  -13.844166
C        13.102548   -4.339045  -13.862033
N        10.496441   -3.787894  -14.580418
C         9.258054   -3.456394  -14.918955
O         9.025606   -3.081248  -16.175917
C        10.118869   -2.988361  -17.059247
N         5.344500   -0.796595  -13.408367
C         5.241618    0.305445  -12.645510
N         4.069607    0.985115  -12.642660
C         6.315669    0.763766  -11.865134
C         7.839895    1.691959   -9.138003
C         6.650032    1.078175   -8.765323
S         4.556319    2.146267   -9.385454
C         5.026994    3.821822   -8.871068
C         5.459369    4.747754  -10.004682
H         4.656440    4.811636  -10.758824
N         6.643676    4.223925  -10.670386
C         6.975591    4.512413  -11.946657
C         8.122167    3.717196  -12.526613
O         6.379807    5.359773  -12.611343
C         5.710568    6.179688   -9.477181
N         5.874566    7.096411  -10.464240
C         6.212388    8.466611  -10.192288
O         5.738716    6.450473   -8.288659
H         9.401478   -0.179161  -11.401840
H         8.525330   -4.779443  -10.163713
H         6.983335   -3.891162   -9.889186
H         8.494961   -2.985509  -10.227483
H        11.429582   -4.774241  -10.971537
H        12.961510   -3.891108  -11.155109
H        12.481344   -6.859797  -11.764781
H        13.464108   -6.198259  -10.443999
H        14.884357   -6.953100  -12.408720
H        15.067622   -5.228107  -12.061308
H        13.297052   -6.445188  -14.257208
H        14.793023   -5.523258  -14.504222
H        12.700629   -4.130080  -14.858957
H        13.753841   -3.488406  -13.577358
H        10.874785   -2.280092  -16.688159
H         9.706199   -2.630121  -18.010134
H        10.602783   -3.966399  -17.204462
H         3.275502    0.520888  -13.060788
H         3.910597    1.614351  -11.854411
H         6.194195    1.649025  -11.248827
H         8.237675    2.486464   -8.499817
H         6.298994    1.220883   -7.743627
H         6.348726    0.133413   -9.223300
H         5.847848    3.773403   -8.135211
H         4.187723    4.298071   -8.346845
H         7.144994    3.476404  -10.186757
H         8.847806    3.390108  -11.768775
H         8.620036    4.327534  -13.290069
H         7.712685    2.819010  -13.014787
H         5.922498    6.730043  -11.419301
H         7.234202    8.712269  -10.528839
H         6.155365    8.622590   -9.107023
H         5.512473    9.159093  -10.688222
