-1 1
 OpenBabel05232413493D

 58 58  0  0  1  0  0  0  0  0999 V2000
    3.7694   -0.9982   -0.6101 O   0  0  0  0  0  0  0  0  0  0  0  0
    2.7755   -0.6014   -0.0224 C   0  0  0  0  0  0  0  0  0  0  0  0
    1.4299   -0.3334   -0.7381 C   0  0  2  0  0  0  0  0  0  0  0  0
    1.4250   -0.9593   -2.1338 C   0  0  0  0  0  0  0  0  0  0  0  0
   -0.0788   -0.6419   -3.1210 S   0  0  0  0  0  1  0  0  0  0  0  0
   -2.1766    0.0685    0.5134 C   0  0  0  0  0  0  0  0  0  0  0  0
   -2.0600   -0.2605    1.8086 C   0  0  0  0  0  0  0  0  0  0  0  0
   -1.6378   -1.5991    2.2599 C   0  0  0  0  0  0  0  0  0  0  0  0
   -1.4817   -2.4603    1.2405 O   0  0  0  0  0  0  0  0  0  0  0  0
   -0.9905   -3.7614    1.5386 C   0  0  0  0  0  0  0  0  0  0  0  0
    0.5164   -3.7977    1.5581 C   0  0  0  0  0  0  0  0  0  0  0  0
    1.2183   -3.7969    2.7662 C   0  0  0  0  0  0  0  0  0  0  0  0
    2.6125   -3.8156    2.7684 C   0  0  0  0  0  0  0  0  0  0  0  0
    3.3135   -3.8154    1.5642 C   0  0  0  0  0  0  0  0  0  0  0  0
    2.6205   -3.7963    0.3543 C   0  0  0  0  0  0  0  0  0  0  0  0
    1.2286   -3.7896    0.3536 C   0  0  0  0  0  0  0  0  0  0  0  0
   -1.4586   -1.9041    3.4164 O   0  0  0  0  0  0  0  0  0  0  0  0
   -2.5327    1.3876   -0.0236 C   0  0  0  0  0  0  0  0  0  0  0  0
   -2.1845    1.6508   -1.3546 C   0  0  0  0  0  0  0  0  0  0  0  0
   -2.4178    2.9028   -1.9232 C   0  0  0  0  0  0  0  0  0  0  0  0
   -1.9636    3.2681   -3.3172 C   0  0  0  0  0  0  0  0  0  0  0  0
   -1.0692    2.4370   -3.8956 N   0  0  0  0  0  0  0  0  0  0  0  0
   -2.3604    4.2938   -3.8528 O   0  0  0  0  0  0  0  0  0  0  0  0
   -3.0627    3.8876   -1.1711 C   0  0  0  0  0  0  0  0  0  0  0  0
   -3.4321    3.6303    0.1487 C   0  0  0  0  0  0  0  0  0  0  0  0
   -3.1606    2.3923    0.7264 C   0  0  0  0  0  0  0  0  0  0  0  0
    1.1889    1.1003   -0.8579 N   0  0  0  0  0  0  0  0  0  0  0  0
    0.8030    1.9130    0.1466 C   0  0  0  0  0  0  0  0  0  0  0  0
    0.4903    3.3404   -0.2484 C   0  0  0  0  0  0  0  0  0  0  0  0
    0.7390    1.5626    1.3229 O   0  0  0  0  0  0  0  0  0  0  0  0
    0.6258   -0.7784   -0.1247 H   0  0  0  0  0  0  0  0  0  0  0  0
    2.7344   -0.3782    1.3137 N   0  0  0  0  0  0  0  0  0  0  0  0
    3.9050   -0.4640    2.1416 C   0  0  0  0  0  0  0  0  0  0  0  0
    2.3247   -0.6058   -2.6609 H   0  0  0  0  0  0  0  0  0  0  0  0
    1.5654   -2.0417   -2.0025 H   0  0  0  0  0  0  0  0  0  0  0  0
   -1.3793   -4.3984    0.7330 H   0  0  0  0  0  0  0  0  0  0  0  0
   -1.4017   -4.0974    2.5009 H   0  0  0  0  0  0  0  0  0  0  0  0
    0.6614   -3.7620    3.7054 H   0  0  0  0  0  0  0  0  0  0  0  0
    3.1542   -3.8134    3.7177 H   0  0  0  0  0  0  0  0  0  0  0  0
    4.4056   -3.8051    1.5632 H   0  0  0  0  0  0  0  0  0  0  0  0
    3.1676   -3.7453   -0.5881 H   0  0  0  0  0  0  0  0  0  0  0  0
    0.6833   -3.7589   -0.5941 H   0  0  0  0  0  0  0  0  0  0  0  0
   -1.6746    0.8546   -1.9146 H   0  0  0  0  0  0  0  0  0  0  0  0
   -0.7350    1.5268   -3.5312 H   0  0  0  0  0  0  0  0  0  0  0  0
   -0.7941    2.6728   -4.8404 H   0  0  0  0  0  0  0  0  0  0  0  0
   -3.2530    4.8531   -1.6438 H   0  0  0  0  0  0  0  0  0  0  0  0
   -3.9319    4.4049    0.7355 H   0  0  0  0  0  0  0  0  0  0  0  0
   -3.4476    2.2007    1.7629 H   0  0  0  0  0  0  0  0  0  0  0  0
    1.0011    1.3946   -1.8141 H   0  0  0  0  0  0  0  0  0  0  0  0
    1.2703    3.9935    0.1706 H   0  0  0  0  0  0  0  0  0  0  0  0
   -0.4682    3.6265    0.2050 H   0  0  0  0  0  0  0  0  0  0  0  0
    0.4368    3.4899   -1.3349 H   0  0  0  0  0  0  0  0  0  0  0  0
    1.9127    0.1263    1.6545 H   0  0  0  0  0  0  0  0  0  0  0  0
    4.2918    0.5336    2.4160 H   0  0  0  0  0  0  0  0  0  0  0  0
    4.6843   -0.9948    1.5796 H   0  0  0  0  0  0  0  0  0  0  0  0
    3.6895   -1.0204    3.0670 H   0  0  0  0  0  0  0  0  0  0  0  0
   -1.9327   -0.6888   -0.2397 H   0  0  0  0  0  0  0  0  0  0  0  0
   -2.2088    0.4578    2.6170 H   0  0  0  0  0  0  0  0  0  0  0  0
  1  2  2  0  0  0  0
  2 32  1  0  0  0  0
  3 31  1  1  0  0  0
  3  2  1  0  0  0  0
  4 35  1  0  0  0  0
  4  3  1  0  0  0  0
  5  4  1  0  0  0  0
  6  7  2  0  0  0  0
  7  8  1  0  0  0  0
  7 58  1  0  0  0  0
  8 17  2  0  0  0  0
  9 10  1  0  0  0  0
  9  8  1  0  0  0  0
 10 11  1  0  0  0  0
 10 37  1  0  0  0  0
 11 12  1  0  0  0  0
 12 13  2  0  0  0  0
 12 38  1  0  0  0  0
 13 39  1  0  0  0  0
 14 13  1  0  0  0  0
 15 14  2  0  0  0  0
 16 15  1  0  0  0  0
 16 11  2  0  0  0  0
 18  6  1  0  0  0  0
 18 26  1  0  0  0  0
 19 18  2  0  0  0  0
 20 19  1  0  0  0  0
 20 24  2  0  0  0  0
 21 20  1  0  0  0  0
 22 44  1  0  0  0  0
 22 21  1  0  0  0  0
 23 21  2  0  0  0  0
 24 25  1  0  0  0  0
 25 26  2  0  0  0  0
 25 47  1  0  0  0  0
 26 48  1  0  0  0  0
 27  3  1  0  0  0  0
 27 28  1  0  0  0  0
 28 30  2  0  0  0  0
 29 28  1  0  0  0  0
 29 50  1  0  0  0  0
 29 51  1  0  0  0  0
 32 53  1  0  0  0  0
 32 33  1  0  0  0  0
 33 54  1  0  0  0  0
 33 56  1  0  0  0  0
 34  4  1  0  0  0  0
 36 10  1  0  0  0  0
 40 14  1  0  0  0  0
 41 15  1  0  0  0  0
 42 16  1  0  0  0  0
 43 19  1  0  0  0  0
 45 22  1  0  0  0  0
 46 24  1  0  0  0  0
 49 27  1  0  0  0  0
 52 29  1  0  0  0  0
 55 33  1  0  0  0  0
 57  6  1  0  0  0  0
M  END
