-1 1
 OpenBabel05232414493D

 58 58  0  0  1  0  0  0  0  0999 V2000
    5.8079    0.0353   -1.8281 O   0  0  0  0  0  0  0  0  0  0  0  0
    4.6423    0.1559   -1.4910 C   0  0  0  0  0  0  0  0  0  0  0  0
    3.5968    0.8363   -2.3860 C   0  0  2  0  0  0  0  0  0  0  0  0
    3.1334   -0.1486   -3.4707 C   0  0  0  0  0  0  0  0  0  0  0  0
    1.9029    0.5338   -4.6073 S   0  0  0  0  0  1  0  0  0  0  0  0
    0.0619    0.0439   -3.2861 C   0  0  0  0  0  3  0  0  0  0  0  0
    0.3958   -0.0620   -1.9293 C   0  0  0  0  0  3  0  0  0  0  0  0
    0.8342   -1.2635   -1.3127 C   0  0  0  0  0  0  0  0  0  0  0  0
    0.6202   -2.3887   -2.0757 O   0  0  0  0  0  0  0  0  0  0  0  0
    1.0773   -3.6311   -1.5830 C   0  0  0  0  0  0  0  0  0  0  0  0
    2.3942   -4.0284   -2.2092 C   0  0  0  0  0  0  0  0  0  0  0  0
    3.5458   -3.2928   -1.9104 C   0  0  0  0  0  0  0  0  0  0  0  0
    4.7633   -3.5866   -2.5170 C   0  0  0  0  0  0  0  0  0  0  0  0
    4.8499   -4.6494   -3.4182 C   0  0  0  0  0  0  0  0  0  0  0  0
    3.7138   -5.4028   -3.7101 C   0  0  0  0  0  0  0  0  0  0  0  0
    2.4911   -5.0872   -3.1144 C   0  0  0  0  0  0  0  0  0  0  0  0
    1.3588   -1.3619   -0.2005 O   0  0  0  0  0  0  0  0  0  0  0  0
   -0.8037    1.1377   -3.8124 C   0  0  0  0  0  0  0  0  0  0  0  0
   -1.1821    1.1182   -5.1612 C   0  0  0  0  0  0  0  0  0  0  0  0
   -1.9791    2.1197   -5.7145 C   0  0  0  0  0  0  0  0  0  0  0  0
   -2.3418    2.1461   -7.1719 C   0  0  0  0  0  0  0  0  0  0  0  0
   -1.5129    1.4393   -7.9956 N   0  0  0  0  0  0  0  0  0  0  0  0
   -3.3020    2.7606   -7.5995 O   0  0  0  0  0  0  0  0  0  0  0  0
   -2.4545    3.1514   -4.8973 C   0  0  0  0  0  0  0  0  0  0  0  0
   -2.0984    3.1777   -3.5537 C   0  0  0  0  0  0  0  0  0  0  0  0
   -1.2794    2.1837   -3.0154 C   0  0  0  0  0  0  0  0  0  0  0  0
    4.1434    2.0153   -3.0107 N   0  0  0  0  0  0  0  0  0  0  0  0
    4.5944    3.0672   -2.2890 C   0  0  0  0  0  0  0  0  0  0  0  0
    5.0577    4.2586   -3.1110 C   0  0  0  0  0  0  0  0  0  0  0  0
    4.6729    3.0568   -1.0731 O   0  0  0  0  0  0  0  0  0  0  0  0
    2.7295    1.1110   -1.7658 H   0  0  0  0  0  0  0  0  0  0  0  0
    4.1362   -0.3450   -0.3351 N   0  0  0  0  0  0  0  0  0  0  0  0
    4.9552   -1.0579    0.6076 C   0  0  0  0  0  0  0  0  0  0  0  0
    4.0100   -0.4982   -4.0380 H   0  0  0  0  0  0  0  0  0  0  0  0
    2.6994   -1.0313   -2.9820 H   0  0  0  0  0  0  0  0  0  0  0  0
    0.3022   -4.3724   -1.8302 H   0  0  0  0  0  0  0  0  0  0  0  0
    1.1814   -3.5671   -0.4896 H   0  0  0  0  0  0  0  0  0  0  0  0
    3.4684   -2.4592   -1.2122 H   0  0  0  0  0  0  0  0  0  0  0  0
    5.6350   -2.9665   -2.2933 H   0  0  0  0  0  0  0  0  0  0  0  0
    5.8022   -4.8843   -3.8999 H   0  0  0  0  0  0  0  0  0  0  0  0
    3.7745   -6.2325   -4.4191 H   0  0  0  0  0  0  0  0  0  0  0  0
    1.5976   -5.6664   -3.3653 H   0  0  0  0  0  0  0  0  0  0  0  0
   -0.8258    0.2871   -5.7754 H   0  0  0  0  0  0  0  0  0  0  0  0
   -0.6014    1.1310   -7.6860 H   0  0  0  0  0  0  0  0  0  0  0  0
   -1.6844    1.5142   -8.9889 H   0  0  0  0  0  0  0  0  0  0  0  0
   -3.0941    3.9181   -5.3384 H   0  0  0  0  0  0  0  0  0  0  0  0
   -2.4619    3.9828   -2.9103 H   0  0  0  0  0  0  0  0  0  0  0  0
   -1.0162    2.2130   -1.9571 H   0  0  0  0  0  0  0  0  0  0  0  0
    3.8806    2.1468   -3.9820 H   0  0  0  0  0  0  0  0  0  0  0  0
    6.1447    4.1791   -3.2639 H   0  0  0  0  0  0  0  0  0  0  0  0
    4.8593    5.1764   -2.5431 H   0  0  0  0  0  0  0  0  0  0  0  0
    4.5712    4.3178   -4.0952 H   0  0  0  0  0  0  0  0  0  0  0  0
    3.1257   -0.3498   -0.1854 H   0  0  0  0  0  0  0  0  0  0  0  0
    4.8119   -0.6649    1.6261 H   0  0  0  0  0  0  0  0  0  0  0  0
    6.0046   -0.9237    0.3156 H   0  0  0  0  0  0  0  0  0  0  0  0
    4.7291   -2.1388    0.6205 H   0  0  0  0  0  0  0  0  0  0  0  0
   -0.0908   -0.9098   -3.7954 H   0  0  0  0  0  0  0  0  0  0  0  0
    0.5024    0.8268   -1.3048 H   0  0  0  0  0  0  0  0  0  0  0  0
  1  2  2  0  0  0  0
  2 32  1  0  0  0  0
  3 31  1  1  0  0  0
  3  2  1  0  0  0  0
  4 35  1  0  0  0  0
  4  3  1  0  0  0  0
  5  4  1  0  0  0  0
  6  7  1  0  0  0  0
  7  8  1  0  0  0  0
  7 58  1  0  0  0  0
  8 17  2  0  0  0  0
  9 10  1  0  0  0  0
  9  8  1  0  0  0  0
 10 37  1  0  0  0  0
 11 12  1  0  0  0  0
 11 10  1  0  0  0  0
 12 38  1  0  0  0  0
 13 39  1  0  0  0  0
 13 12  2  0  0  0  0
 14 13  1  0  0  0  0
 15 14  2  0  0  0  0
 15 16  1  0  0  0  0
 16 11  2  0  0  0  0
 18  6  1  0  0  0  0
 18 26  1  0  0  0  0
 19 18  2  0  0  0  0
 20 19  1  0  0  0  0
 20 24  2  0  0  0  0
 21 20  1  0  0  0  0
 22 44  1  0  0  0  0
 22 21  1  0  0  0  0
 23 21  2  0  0  0  0
 24 25  1  0  0  0  0
 25 26  2  0  0  0  0
 25 47  1  0  0  0  0
 26 48  1  0  0  0  0
 27  3  1  0  0  0  0
 27 28  1  0  0  0  0
 28 30  2  0  0  0  0
 29 51  1  0  0  0  0
 29 28  1  0  0  0  0
 32 53  1  0  0  0  0
 32 33  1  0  0  0  0
 33 56  1  0  0  0  0
 33 54  1  0  0  0  0
 34  4  1  0  0  0  0
 36 10  1  0  0  0  0
 40 14  1  0  0  0  0
 41 15  1  0  0  0  0
 42 16  1  0  0  0  0
 43 19  1  0  0  0  0
 45 22  1  0  0  0  0
 46 24  1  0  0  0  0
 49 27  1  0  0  0  0
 50 29  1  0  0  0  0
 52 29  1  0  0  0  0
 55 33  1  0  0  0  0
 57  6  1  0  0  0  0
M  END
