58
-1 1
O         3.769385   -0.998164   -0.610127
C         2.775523   -0.601372   -0.022424
C         1.429933   -0.333447   -0.738103
C         1.424968   -0.959278   -2.133796
S        -0.078829   -0.641914   -3.120990
C        -2.176618    0.068523    0.513428
C        -2.060032   -0.260505    1.808649
C        -1.637757   -1.599067    2.259937
O        -1.481712   -2.460331    1.240536
C        -0.990516   -3.761362    1.538556
C         0.516376   -3.797704    1.558082
C         1.218268   -3.796866    2.766157
C         2.612499   -3.815563    2.768395
C         3.313500   -3.815415    1.564231
C         2.620530   -3.796266    0.354339
C         1.228575   -3.789598    0.353635
O        -1.458564   -1.904103    3.416371
C        -2.532709    1.387602   -0.023601
C        -2.184492    1.650802   -1.354643
C        -2.417842    2.902787   -1.923173
C        -1.963639    3.268119   -3.317207
N        -1.069206    2.437035   -3.895596
O        -2.360389    4.293803   -3.852805
C        -3.062742    3.887585   -1.171113
C        -3.432106    3.630299    0.148687
C        -3.160554    2.392339    0.726410
N         1.188934    1.100304   -0.857880
C         0.802999    1.913001    0.146624
C         0.490265    3.340388   -0.248431
O         0.739028    1.562562    1.322926
H         0.625753   -0.778410   -0.124662
N         2.734404   -0.378240    1.313744
C         3.905022   -0.464001    2.141603
H         2.324673   -0.605843   -2.660856
H         1.565440   -2.041726   -2.002498
H        -1.379347   -4.398405    0.733012
H        -1.401741   -4.097409    2.500944
H         0.661448   -3.762020    3.705437
H         3.154244   -3.813421    3.717656
H         4.405626   -3.805110    1.563206
H         3.167626   -3.745336   -0.588057
H         0.683296   -3.758896   -0.594070
H        -1.674593    0.854622   -1.914624
H        -0.735011    1.526807   -3.531171
H        -0.794134    2.672758   -4.840385
H        -3.252980    4.853146   -1.643818
H        -3.931873    4.404862    0.735509
H        -3.447639    2.200684    1.762933
H         1.001100    1.394601   -1.814074
H         1.270295    3.993537    0.170598
H        -0.468175    3.626516    0.205044
H         0.436842    3.489855   -1.334871
H         1.912658    0.126261    1.654481
H         4.291762    0.533641    2.416019
H         4.684330   -0.994832    1.579606
H         3.689515   -1.020357    3.066977
H        -1.932692   -0.688829   -0.239654
H        -2.208826    0.457838    2.617043
