-1 1
 OpenBabel05232413493D

 62 61  0  0  1  0  0  0  0  0999 V2000
   -2.8142    0.5146    1.8143 O   0  0  0  0  0  0  0  0  0  0  0  0
   -2.8746    0.5619    0.5978 C   0  0  0  0  0  0  0  0  0  0  0  0
   -2.9595   -0.6223   -0.1248 N   0  0  0  0  0  0  0  0  0  0  0  0
   -3.2855   -0.6510   -1.4489 N   0  0  0  0  0  0  0  0  0  0  0  0
   -2.4197   -0.8879   -2.4939 C   0  0  0  0  0  0  0  0  0  0  0  0
   -1.1693   -0.9585   -2.0763 O   0  0  0  0  0  0  0  0  0  0  0  0
   -0.0542   -1.1892   -2.9888 C   0  0  0  0  0  0  0  0  0  0  0  0
   -0.2313   -2.5475   -3.6654 C   0  0  0  0  0  0  0  0  0  0  0  0
    0.0424   -0.0355   -3.9829 C   0  0  0  0  0  0  0  0  0  0  0  0
    1.1553   -1.1878   -2.0650 C   0  0  0  0  0  0  0  0  0  0  0  0
   -2.8336   -1.0021   -3.6265 O   0  0  0  0  0  0  0  0  0  0  0  0
   -2.9501   -1.8926    0.5960 C   0  0  0  0  0  0  0  0  0  0  0  0
   -1.5890   -2.5449    0.6936 C   0  0  0  0  0  0  0  0  0  0  0  0
   -0.6160   -2.0097    1.5468 C   0  0  0  0  0  0  0  0  0  0  0  0
    0.6364   -2.6105    1.6539 C   0  0  0  0  0  0  0  0  0  0  0  0
    0.9341   -3.7501    0.9043 C   0  0  0  0  0  0  0  0  0  0  0  0
   -0.0269   -4.2857    0.0487 C   0  0  0  0  0  0  0  0  0  0  0  0
   -1.2813   -3.6841   -0.0533 C   0  0  0  0  0  0  0  0  0  0  0  0
   -2.8880    1.8682   -0.1107 C   0  0  0  0  0  0  0  0  0  0  0  0
   -2.2263    2.1820   -1.2295 C   0  0  0  0  0  0  0  0  0  0  0  0
    1.0370    2.3977   -0.9323 S   0  0  0  0  0  1  0  0  0  0  0  0
    0.5329    1.5445    0.5994 C   0  0  0  0  0  0  0  0  0  0  0  0
    1.5970    1.6094    1.7065 C   0  0  2  0  0  0  0  0  0  0  0  0
    1.2194    1.1271    2.6255 H   0  0  0  0  0  0  0  0  0  0  0  0
    1.8667    2.9824    2.0264 N   0  0  0  0  0  0  0  0  0  0  0  0
    2.2449    3.4021    3.2537 C   0  0  0  0  0  0  0  0  0  0  0  0
    2.7548    4.8335    3.2942 C   0  0  0  0  0  0  0  0  0  0  0  0
    2.1973    2.7103    4.2576 O   0  0  0  0  0  0  0  0  0  0  0  0
    2.9210    0.8971    1.3610 C   0  0  0  0  0  0  0  0  0  0  0  0
    2.7702   -0.3347    0.7900 N   0  0  0  0  0  0  0  0  0  0  0  0
    3.8979   -1.0528    0.2607 C   0  0  0  0  0  0  0  0  0  0  0  0
    4.0093    1.3564    1.6448 O   0  0  0  0  0  0  0  0  0  0  0  0
   -4.2620   -0.5735   -1.7113 H   0  0  0  0  0  0  0  0  0  0  0  0
   -1.1195   -2.5582   -4.3099 H   0  0  0  0  0  0  0  0  0  0  0  0
   -0.3243   -3.3371   -2.9041 H   0  0  0  0  0  0  0  0  0  0  0  0
    0.6559   -2.7649   -4.2786 H   0  0  0  0  0  0  0  0  0  0  0  0
   -0.8424    0.0087   -4.6309 H   0  0  0  0  0  0  0  0  0  0  0  0
    0.9362   -0.1756   -4.6096 H   0  0  0  0  0  0  0  0  0  0  0  0
    0.1626    0.9099   -3.4296 H   0  0  0  0  0  0  0  0  0  0  0  0
    1.0210   -1.9322   -1.2653 H   0  0  0  0  0  0  0  0  0  0  0  0
    1.2928   -0.1761   -1.6439 H   0  0  0  0  0  0  0  0  0  0  0  0
    2.0597   -1.4456   -2.6361 H   0  0  0  0  0  0  0  0  0  0  0  0
   -3.6534   -2.5624    0.0797 H   0  0  0  0  0  0  0  0  0  0  0  0
   -3.3318   -1.6908    1.6061 H   0  0  0  0  0  0  0  0  0  0  0  0
   -0.8522   -1.1122    2.1241 H   0  0  0  0  0  0  0  0  0  0  0  0
    1.3913   -2.1728    2.3097 H   0  0  0  0  0  0  0  0  0  0  0  0
    1.9183   -4.2172    0.9870 H   0  0  0  0  0  0  0  0  0  0  0  0
    0.2014   -5.1732   -0.5467 H   0  0  0  0  0  0  0  0  0  0  0  0
   -2.0318   -4.1033   -0.7299 H   0  0  0  0  0  0  0  0  0  0  0  0
   -3.3538    2.6513    0.4948 H   0  0  0  0  0  0  0  0  0  0  0  0
   -2.1871    3.2147   -1.5799 H   0  0  0  0  0  0  0  0  0  0  0  0
   -1.6360    1.4633   -1.7965 H   0  0  0  0  0  0  0  0  0  0  0  0
    0.2613    0.4901    0.3996 H   0  0  0  0  0  0  0  0  0  0  0  0
   -0.3813    1.9967    1.0157 H   0  0  0  0  0  0  0  0  0  0  0  0
    1.9859    3.5678    1.2008 H   0  0  0  0  0  0  0  0  0  0  0  0
    2.2544    5.4779    2.5569 H   0  0  0  0  0  0  0  0  0  0  0  0
    3.8320    4.8231    3.0673 H   0  0  0  0  0  0  0  0  0  0  0  0
    2.6124    5.2360    4.3049 H   0  0  0  0  0  0  0  0  0  0  0  0
    1.8699   -0.5265    0.3714 H   0  0  0  0  0  0  0  0  0  0  0  0
    3.6843   -2.1328    0.2489 H   0  0  0  0  0  0  0  0  0  0  0  0
    4.7693   -0.8605    0.9003 H   0  0  0  0  0  0  0  0  0  0  0  0
    4.1524   -0.7330   -0.7655 H   0  0  0  0  0  0  0  0  0  0  0  0
  2  1  2  0  0  0  0
  3 12  1  0  0  0  0
  3  2  1  0  0  0  0
  4  3  1  0  0  0  0
  5  6  1  0  0  0  0
  5  4  1  0  0  0  0
  7  6  1  0  0  0  0
  7 10  1  0  0  0  0
  8  7  1  0  0  0  0
  8 35  1  0  0  0  0
  9 39  1  0  0  0  0
  9  7  1  0  0  0  0
 10 41  1  0  0  0  0
 10 40  1  0  0  0  0
 11  5  2  0  0  0  0
 12 13  1  0  0  0  0
 12 44  1  0  0  0  0
 13 14  1  0  0  0  0
 14 15  2  0  0  0  0
 14 45  1  0  0  0  0
 15 46  1  0  0  0  0
 16 47  1  0  0  0  0
 16 15  1  0  0  0  0
 17 16  2  0  0  0  0
 18 17  1  0  0  0  0
 18 13  2  0  0  0  0
 19 50  1  0  0  0  0
 19  2  1  0  0  0  0
 20 19  2  0  0  0  0
 21 22  1  0  0  0  0
 22 54  1  0  0  0  0
 22 23  1  0  0  0  0
 23 25  1  0  0  0  0
 23 24  1  1  0  0  0
 25 26  1  0  0  0  0
 26 27  1  0  0  0  0
 26 28  2  0  0  0  0
 27 58  1  0  0  0  0
 29 32  2  0  0  0  0
 29 23  1  0  0  0  0
 30 29  1  0  0  0  0
 31 30  1  0  0  0  0
 31 61  1  0  0  0  0
 33  4  1  0  0  0  0
 34  8  1  0  0  0  0
 36  8  1  0  0  0  0
 37  9  1  0  0  0  0
 38  9  1  0  0  0  0
 42 10  1  0  0  0  0
 43 12  1  0  0  0  0
 48 17  1  0  0  0  0
 49 18  1  0  0  0  0
 51 20  1  0  0  0  0
 52 20  1  0  0  0  0
 53 22  1  0  0  0  0
 55 25  1  0  0  0  0
 56 27  1  0  0  0  0
 57 27  1  0  0  0  0
 59 30  1  0  0  0  0
 60 31  1  0  0  0  0
 62 31  1  0  0  0  0
M  END
