62
-1 1
O        -2.814241    0.514578    1.814259
C        -2.874580    0.561947    0.597818
N        -2.959541   -0.622280   -0.124813
N        -3.285504   -0.650973   -1.448916
C        -2.419727   -0.887865   -2.493889
O        -1.169327   -0.958470   -2.076288
C        -0.054229   -1.189216   -2.988835
C        -0.231338   -2.547487   -3.665362
C         0.042380   -0.035478   -3.982918
C         1.155300   -1.187764   -2.064976
O        -2.833577   -1.002120   -3.626502
C        -2.950125   -1.892615    0.596033
C        -1.588968   -2.544916    0.693639
C        -0.615987   -2.009733    1.546761
C         0.636449   -2.610475    1.653930
C         0.934066   -3.750069    0.904334
C        -0.026897   -4.285691    0.048661
C        -1.281320   -3.684101   -0.053313
C        -2.887964    1.868200   -0.110665
C        -2.226295    2.182043   -1.229451
S         1.037014    2.397719   -0.932288
C         0.532935    1.544484    0.599359
C         1.596987    1.609442    1.706512
H         1.219381    1.127117    2.625455
N         1.866680    2.982381    2.026429
C         2.244852    3.402102    3.253663
C         2.754793    4.833530    3.294200
O         2.197344    2.710294    4.257559
C         2.920961    0.897065    1.360970
N         2.770239   -0.334658    0.790035
C         3.897903   -1.052818    0.260699
O         4.009323    1.356367    1.644781
H        -4.262041   -0.573503   -1.711311
H        -1.119505   -2.558246   -4.309913
H        -0.324333   -3.337144   -2.904060
H         0.655867   -2.764904   -4.278635
H        -0.842381    0.008716   -4.630882
H         0.936184   -0.175613   -4.609572
H         0.162637    0.909921   -3.429597
H         1.021042   -1.932187   -1.265344
H         1.292828   -0.176068   -1.643918
H         2.059676   -1.445556   -2.636140
H        -3.653417   -2.562377    0.079655
H        -3.331756   -1.690765    1.606084
H        -0.852180   -1.112187    2.124119
H         1.391272   -2.172843    2.309674
H         1.918302   -4.217168    0.987045
H         0.201367   -5.173186   -0.546713
H        -2.031815   -4.103312   -0.729934
H        -3.353813    2.651252    0.494833
H        -2.187064    3.214747   -1.579918
H        -1.635986    1.463301   -1.796467
H         0.261305    0.490150    0.399554
H        -0.381317    1.996667    1.015696
H         1.985863    3.567769    1.200840
H         2.254372    5.477884    2.556930
H         3.831961    4.823148    3.067254
H         2.612439    5.235951    4.304924
H         1.869859   -0.526521    0.371417
H         3.684277   -2.132802    0.248900
H         4.769261   -0.860519    0.900306
H         4.152368   -0.732993   -0.765520
