-1 1
 OpenBabel05232414493D

 62 61  0  0  1  0  0  0  0  0999 V2000
    4.3836    8.4622   -6.8193 O   0  0  0  0  0  0  0  0  0  0  0  0
    4.6878    8.6479   -8.0002 C   0  0  0  0  0  0  0  0  0  0  0  0
    4.8451    7.4837   -8.8053 N   0  0  0  0  0  0  0  0  0  0  0  0
    4.4424    7.5109  -10.1112 N   0  0  0  0  0  0  0  0  0  0  0  0
    5.2308    7.2829  -11.2050 C   0  0  0  0  0  0  0  0  0  0  0  0
    6.4791    6.9776  -10.8665 O   0  0  0  0  0  0  0  0  0  0  0  0
    7.5164    6.8253  -11.8709 C   0  0  0  0  0  0  0  0  0  0  0  0
    7.2307    5.5726  -12.6991 C   0  0  0  0  0  0  0  0  0  0  0  0
    7.6224    8.0837  -12.7307 C   0  0  0  0  0  0  0  0  0  0  0  0
    8.7866    6.6589  -11.0458 C   0  0  0  0  0  0  0  0  0  0  0  0
    4.7776    7.3373  -12.3304 O   0  0  0  0  0  0  0  0  0  0  0  0
    4.7791    6.1901   -8.1296 C   0  0  0  0  0  0  0  0  0  0  0  0
    6.1136    5.7693   -7.5501 C   0  0  0  0  0  0  0  0  0  0  0  0
    6.5591    6.2980   -6.3313 C   0  0  0  0  0  0  0  0  0  0  0  0
    7.8012    5.9364   -5.8131 C   0  0  0  0  0  0  0  0  0  0  0  0
    8.6167    5.0367   -6.5019 C   0  0  0  0  0  0  0  0  0  0  0  0
    8.1839    4.5086   -7.7185 C   0  0  0  0  0  0  0  0  0  0  0  0
    6.9420    4.8774   -8.2372 C   0  0  0  0  0  0  0  0  0  0  0  0
    4.9122    9.9523   -8.5650 C   0  0  0  0  0  3  0  0  0  0  0  0
    5.5933   10.2966   -9.7274 C   0  0  0  0  0  3  0  0  0  0  0  0
    7.9606   10.1999   -9.5123 S   0  0  0  0  0  1  0  0  0  0  0  0
    7.9056    9.0078   -8.1555 C   0  0  0  0  0  0  0  0  0  0  0  0
    9.0745    9.1157   -7.1676 C   0  0  2  0  0  0  0  0  0  0  0  0
    8.8686    8.4545   -6.3097 H   0  0  0  0  0  0  0  0  0  0  0  0
    9.1843   10.4553   -6.6712 N   0  0  0  0  0  0  0  0  0  0  0  0
    9.7622   10.7419   -5.4826 C   0  0  0  0  0  0  0  0  0  0  0  0
   10.0201   12.2194   -5.2455 C   0  0  0  0  0  0  0  0  0  0  0  0
   10.0675    9.8938   -4.6603 O   0  0  0  0  0  0  0  0  0  0  0  0
   10.4160    8.6468   -7.7596 C   0  0  0  0  0  0  0  0  0  0  0  0
   10.4178    7.3348   -8.1293 N   0  0  0  0  0  0  0  0  0  0  0  0
   11.5571    6.6954   -8.7245 C   0  0  0  0  0  0  0  0  0  0  0  0
   11.3909    9.3656   -7.8596 O   0  0  0  0  0  0  0  0  0  0  0  0
    3.4851    7.7719  -10.3272 H   0  0  0  0  0  0  0  0  0  0  0  0
    6.2941    5.6838  -13.2602 H   0  0  0  0  0  0  0  0  0  0  0  0
    7.1544    4.6909  -12.0435 H   0  0  0  0  0  0  0  0  0  0  0  0
    8.0543    5.4020  -13.4091 H   0  0  0  0  0  0  0  0  0  0  0  0
    6.7336    8.2147  -13.3593 H   0  0  0  0  0  0  0  0  0  0  0  0
    8.5111    8.0052  -13.3755 H   0  0  0  0  0  0  0  0  0  0  0  0
    7.7481    8.9567  -12.0709 H   0  0  0  0  0  0  0  0  0  0  0  0
    8.6864    5.8170  -10.3446 H   0  0  0  0  0  0  0  0  0  0  0  0
    8.9879    7.5774  -10.4752 H   0  0  0  0  0  0  0  0  0  0  0  0
    9.6401    6.4639  -11.7127 H   0  0  0  0  0  0  0  0  0  0  0  0
    4.4580    5.4575   -8.8821 H   0  0  0  0  0  0  0  0  0  0  0  0
    4.0253    6.2342   -7.3282 H   0  0  0  0  0  0  0  0  0  0  0  0
    5.9236    7.0234   -5.8186 H   0  0  0  0  0  0  0  0  0  0  0  0
    8.1430    6.3709   -4.8707 H   0  0  0  0  0  0  0  0  0  0  0  0
    9.5937    4.7618   -6.0975 H   0  0  0  0  0  0  0  0  0  0  0  0
    8.8193    3.8110   -8.2707 H   0  0  0  0  0  0  0  0  0  0  0  0
    6.6147    4.4785   -9.2010 H   0  0  0  0  0  0  0  0  0  0  0  0
    4.7235   10.7369   -7.8273 H   0  0  0  0  0  0  0  0  0  0  0  0
    5.6190   11.3542   -9.9954 H   0  0  0  0  0  0  0  0  0  0  0  0
    5.6381    9.6288  -10.5842 H   0  0  0  0  0  0  0  0  0  0  0  0
    7.8252    7.9788   -8.5401 H   0  0  0  0  0  0  0  0  0  0  0  0
    6.9781    9.1953   -7.5871 H   0  0  0  0  0  0  0  0  0  0  0  0
    9.0264   11.1752   -7.3730 H   0  0  0  0  0  0  0  0  0  0  0  0
    9.2650   12.8586   -5.7251 H   0  0  0  0  0  0  0  0  0  0  0  0
   11.0049   12.4722   -5.6676 H   0  0  0  0  0  0  0  0  0  0  0  0
   10.0425   12.4094   -4.1654 H   0  0  0  0  0  0  0  0  0  0  0  0
    9.5579    6.8081   -8.0373 H   0  0  0  0  0  0  0  0  0  0  0  0
   11.8256    5.7713   -8.1860 H   0  0  0  0  0  0  0  0  0  0  0  0
   12.3982    7.3987   -8.6671 H   0  0  0  0  0  0  0  0  0  0  0  0
   11.3832    6.4435   -9.7844 H   0  0  0  0  0  0  0  0  0  0  0  0
  2  1  2  0  0  0  0
  3 12  1  0  0  0  0
  3  2  1  0  0  0  0
  4  3  1  0  0  0  0
  5  6  1  0  0  0  0
  5  4  1  0  0  0  0
  7 10  1  0  0  0  0
  7  6  1  0  0  0  0
  8 35  1  0  0  0  0
  8  7  1  0  0  0  0
  9 39  1  0  0  0  0
  9  7  1  0  0  0  0
 10 41  1  0  0  0  0
 10 40  1  0  0  0  0
 11  5  2  0  0  0  0
 12 13  1  0  0  0  0
 12 44  1  0  0  0  0
 13 14  1  0  0  0  0
 14 45  1  0  0  0  0
 14 15  2  0  0  0  0
 15 46  1  0  0  0  0
 16 47  1  0  0  0  0
 16 15  1  0  0  0  0
 17 16  2  0  0  0  0
 18 17  1  0  0  0  0
 18 13  2  0  0  0  0
 19  2  1  0  0  0  0
 19 50  1  0  0  0  0
 20 19  1  0  0  0  0
 21 22  1  0  0  0  0
 22 54  1  0  0  0  0
 22 23  1  0  0  0  0
 23 25  1  0  0  0  0
 23 24  1  1  0  0  0
 25 26  1  0  0  0  0
 26 27  1  0  0  0  0
 26 28  2  0  0  0  0
 27 58  1  0  0  0  0
 29 23  1  0  0  0  0
 30 59  1  0  0  0  0
 30 29  1  0  0  0  0
 31 61  1  0  0  0  0
 31 60  1  0  0  0  0
 31 30  1  0  0  0  0
 32 29  2  0  0  0  0
 33  4  1  0  0  0  0
 34  8  1  0  0  0  0
 36  8  1  0  0  0  0
 37  9  1  0  0  0  0
 38  9  1  0  0  0  0
 42 10  1  0  0  0  0
 43 12  1  0  0  0  0
 48 17  1  0  0  0  0
 49 18  1  0  0  0  0
 51 20  1  0  0  0  0
 52 20  1  0  0  0  0
 53 22  1  0  0  0  0
 55 25  1  0  0  0  0
 56 27  1  0  0  0  0
 57 27  1  0  0  0  0
 62 31  1  0  0  0  0
M  END
