69
-1 1
C         2.073754    0.745238    1.296484
C         1.456341    0.814227    2.692047
C         1.387952    2.263768    3.161775
O         0.067091    0.413494    2.662501
C        -0.322912   -0.791889    2.253035
N        -1.691321   -0.861283    2.325566
N        -2.323023   -2.014413    1.908421
C        -3.220347   -2.033564    0.867037
C        -3.357015   -0.841992   -0.079924
N        -2.231393   -0.007893   -0.350805
C        -1.383519   -0.175287   -1.395930
C        -0.443219    1.036489   -1.372750
S        -0.488362    1.761580   -3.096708
C         0.438515    3.284481   -2.762102
C         1.933562    3.100071   -2.421228
H         2.010815    2.323556   -1.641280
N         2.511009    4.320743   -1.913336
C         2.390205    4.705700   -0.620095
C         3.166467    5.951930   -0.236305
O         1.700391    4.112853    0.190296
C         2.800555    2.682432   -3.622176
N         2.473794    1.505608   -4.189487
C         3.151028    0.994923   -5.354565
O         3.727654    3.388188   -4.000538
C        -0.943167    1.886476   -0.271407
C        -2.007212    1.263382    0.350245
O        -2.718677    1.499139    1.347506
O        -1.388169   -1.083219   -2.205194
O        -3.987172   -2.970960    0.747812
C        -2.408013   -3.106454    2.873504
C        -2.022089   -4.463349    2.323870
C        -2.844090   -5.570551    2.543969
C        -2.474989   -6.835188    2.088204
C        -1.278644   -7.002932    1.392641
C        -0.459308   -5.898121    1.158620
C        -0.824402   -4.635761    1.622255
O         0.406376   -1.707478    1.933583
C         2.215266   -0.052642    3.698379
H         1.513058    1.405651    0.621910
H         2.062474   -0.282151    0.911093
H         3.114356    1.100969    1.341971
H         0.829685    2.870782    2.436737
H         2.402798    2.679801    3.247988
H         0.891424    2.325177    4.141592
H        -2.215069    0.035632    2.263895
H        -4.137395   -0.199351    0.360738
H        -3.736593   -1.275283   -1.015406
H         0.587094    0.656334   -1.251186
H        -0.044355    3.786085   -1.910953
H         0.329322    3.929470   -3.647231
H         3.220546    4.720718   -2.521770
H         2.453194    6.710286    0.116097
H         3.763940    6.370333   -1.057752
H         3.825441    5.705338    0.607808
H         1.582097    1.089368   -3.905898
H         3.320369   -0.086843   -5.252458
H         4.117419    1.505563   -5.449663
H         2.572412    1.171179   -6.276700
H        -0.439106    2.767493    0.117284
H        -3.430289   -3.161601    3.285897
H        -1.726646   -2.834860    3.691226
H        -3.797026   -5.435005    3.062478
H        -3.132787   -7.690254    2.264246
H        -0.989787   -7.991105    1.025297
H         0.475951   -6.018224    0.606107
H        -0.191392   -3.762745    1.445654
H         3.243269    0.324264    3.811402
H         2.252012   -1.096898    3.363008
H         1.722503   -0.011627    4.682130
