-1 1
 OpenBabel05232414493D

 69 69  0  0  1  0  0  0  0  0999 V2000
    1.7448   -1.9583   -8.6756 C   0  0  0  0  0  0  0  0  0  0  0  0
    0.8823   -1.3494   -7.5717 C   0  0  0  0  0  0  0  0  0  0  0  0
    1.1286    0.1527   -7.4729 C   0  0  0  0  0  0  0  0  0  0  0  0
   -0.5222   -1.4235   -7.9190 O   0  0  0  0  0  0  0  0  0  0  0  0
   -1.1327   -2.5750   -8.1867 C   0  0  0  0  0  0  0  0  0  0  0  0
   -2.4459   -2.3128   -8.4954 N   0  0  0  0  0  0  0  0  0  0  0  0
   -3.2344   -3.3224   -8.9951 N   0  0  0  0  0  0  0  0  0  0  0  0
   -3.6990   -3.3145  -10.2890 C   0  0  0  0  0  0  0  0  0  0  0  0
   -3.1873   -2.3137  -11.3281 C   0  0  0  0  0  0  0  0  0  0  0  0
   -1.8859   -1.7221  -11.2507 N   0  0  0  0  0  0  0  0  0  0  0  0
   -0.8071   -2.1384  -12.0256 C   0  0  0  0  0  0  0  0  0  0  0  0
    0.1618   -0.9847  -12.0012 C   0  0  0  0  0  3  0  0  0  0  0  0
   -0.3814   -0.3591  -14.2351 S   0  0  0  0  0  1  0  0  0  0  0  0
   -0.5675    1.3834  -13.8052 C   0  0  0  0  0  0  0  0  0  0  0  0
    0.7264    2.2273  -13.8663 C   0  0  2  0  0  0  0  0  0  0  0  0
    1.5088    1.6711  -13.3245 H   0  0  0  0  0  0  0  0  0  0  0  0
    0.5650    3.5177  -13.2381 N   0  0  0  0  0  0  0  0  0  0  0  0
    0.8582    3.7569  -11.9385 C   0  0  0  0  0  0  0  0  0  0  0  0
    0.6898    5.2003  -11.4967 C   0  0  0  0  0  0  0  0  0  0  0  0
    1.2040    2.8928  -11.1507 O   0  0  0  0  0  0  0  0  0  0  0  0
    1.1920    2.5004  -15.3053 C   0  0  0  0  0  0  0  0  0  0  0  0
    1.5445    1.4042  -16.0057 N   0  0  0  0  0  0  0  0  0  0  0  0
    1.8640    1.4603  -17.4083 C   0  0  0  0  0  0  0  0  0  0  0  0
    1.2260    3.6408  -15.7536 O   0  0  0  0  0  0  0  0  0  0  0  0
   -0.3114   -0.0514  -11.0900 C   0  0  0  0  0  3  0  0  0  0  0  0
   -1.6355   -0.4388  -10.6904 C   0  0  0  0  0  0  0  0  0  0  0  0
   -2.4709    0.1036   -9.9717 O   0  0  0  0  0  0  0  0  0  0  0  0
   -0.7201   -3.2090  -12.5756 O   0  0  0  0  0  0  0  0  0  0  0  0
   -4.6140   -4.0499  -10.6044 O   0  0  0  0  0  0  0  0  0  0  0  0
   -3.9397   -4.1655   -8.0336 C   0  0  0  0  0  0  0  0  0  0  0  0
   -3.8047   -5.6535   -8.2795 C   0  0  0  0  0  0  0  0  0  0  0  0
   -4.9378   -6.4697   -8.2811 C   0  0  0  0  0  0  0  0  0  0  0  0
   -4.8235   -7.8479   -8.4556 C   0  0  0  0  0  0  0  0  0  0  0  0
   -3.5684   -8.4244   -8.6437 C   0  0  0  0  0  0  0  0  0  0  0  0
   -2.4340   -7.6124   -8.6556 C   0  0  0  0  0  0  0  0  0  0  0  0
   -2.5478   -6.2358   -8.4721 C   0  0  0  0  0  0  0  0  0  0  0  0
   -0.6433   -3.6800   -8.1200 O   0  0  0  0  0  0  0  0  0  0  0  0
    1.1078   -2.0350   -6.2243 C   0  0  0  0  0  0  0  0  0  0  0  0
    1.4958   -1.4883   -9.6371 H   0  0  0  0  0  0  0  0  0  0  0  0
    1.5856   -3.0404   -8.7544 H   0  0  0  0  0  0  0  0  0  0  0  0
    2.8058   -1.7663   -8.4550 H   0  0  0  0  0  0  0  0  0  0  0  0
    0.9227    0.6357   -8.4383 H   0  0  0  0  0  0  0  0  0  0  0  0
    2.1748    0.3475   -7.1944 H   0  0  0  0  0  0  0  0  0  0  0  0
    0.4705    0.6001   -6.7135 H   0  0  0  0  0  0  0  0  0  0  0  0
   -2.6856   -1.3463   -8.7537 H   0  0  0  0  0  0  0  0  0  0  0  0
   -3.9322   -1.5004  -11.3324 H   0  0  0  0  0  0  0  0  0  0  0  0
   -3.2715   -2.8527  -12.2816 H   0  0  0  0  0  0  0  0  0  0  0  0
    1.2057   -1.1628  -12.2512 H   0  0  0  0  0  0  0  0  0  0  0  0
   -0.9185    1.4205  -12.7556 H   0  0  0  0  0  0  0  0  0  0  0  0
   -1.3487    1.8511  -14.4251 H   0  0  0  0  0  0  0  0  0  0  0  0
    0.4878    4.2864  -13.8977 H   0  0  0  0  0  0  0  0  0  0  0  0
   -0.2177    5.2692  -10.8787 H   0  0  0  0  0  0  0  0  0  0  0  0
    0.6037    5.9081  -12.3329 H   0  0  0  0  0  0  0  0  0  0  0  0
    1.5436    5.4754  -10.8635 H   0  0  0  0  0  0  0  0  0  0  0  0
    1.2700    0.5066  -15.5877 H   0  0  0  0  0  0  0  0  0  0  0  0
    2.7270    0.8157  -17.6343 H   0  0  0  0  0  0  0  0  0  0  0  0
    2.1115    2.4972  -17.6691 H   0  0  0  0  0  0  0  0  0  0  0  0
    1.0160    1.1367  -18.0355 H   0  0  0  0  0  0  0  0  0  0  0  0
    0.1752    0.8694  -10.7751 H   0  0  0  0  0  0  0  0  0  0  0  0
   -5.0102   -3.8982   -8.0198 H   0  0  0  0  0  0  0  0  0  0  0  0
   -3.5138   -3.9132   -7.0528 H   0  0  0  0  0  0  0  0  0  0  0  0
   -5.9254   -6.0157   -8.1640 H   0  0  0  0  0  0  0  0  0  0  0  0
   -5.7209   -8.4718   -8.4600 H   0  0  0  0  0  0  0  0  0  0  0  0
   -3.4753   -9.5034   -8.7906 H   0  0  0  0  0  0  0  0  0  0  0  0
   -1.4468   -8.0543   -8.8122 H   0  0  0  0  0  0  0  0  0  0  0  0
   -1.6657   -5.5911   -8.4824 H   0  0  0  0  0  0  0  0  0  0  0  0
    2.1525   -1.8953   -5.9076 H   0  0  0  0  0  0  0  0  0  0  0  0
    0.9001   -3.1105   -6.2962 H   0  0  0  0  0  0  0  0  0  0  0  0
    0.4524   -1.5944   -5.4575 H   0  0  0  0  0  0  0  0  0  0  0  0
  1 41  1  0  0  0  0
  1  2  1  0  0  0  0
  2  3  1  0  0  0  0
  2 38  1  0  0  0  0
  3 43  1  0  0  0  0
  3 44  1  0  0  0  0
  4  2  1  0  0  0  0
  5 37  2  0  0  0  0
  5  4  1  0  0  0  0
  6  5  1  0  0  0  0
  7  6  1  0  0  0  0
  7 30  1  0  0  0  0
  8  7  1  0  0  0  0
  9 10  1  0  0  0  0
  9  8  1  0  0  0  0
 10 26  1  0  0  0  0
 11 12  1  0  0  0  0
 11 10  1  0  0  0  0
 12 25  1  0  0  0  0
 13 14  1  0  0  0  0
 14 49  1  0  0  0  0
 15 14  1  0  0  0  0
 15 16  1  1  0  0  0
 15 17  1  0  0  0  0
 17 18  1  0  0  0  0
 18 19  1  0  0  0  0
 18 20  2  0  0  0  0
 19 52  1  0  0  0  0
 19 54  1  0  0  0  0
 21 15  1  0  0  0  0
 22 55  1  0  0  0  0
 22 21  1  0  0  0  0
 23 22  1  0  0  0  0
 24 21  2  0  0  0  0
 25 59  1  0  0  0  0
 25 26  1  0  0  0  0
 26 27  2  0  0  0  0
 28 11  2  0  0  0  0
 29  8  2  0  0  0  0
 30 60  1  0  0  0  0
 30 61  1  0  0  0  0
 31 30  1  0  0  0  0
 32 31  1  0  0  0  0
 32 62  1  0  0  0  0
 33 32  2  0  0  0  0
 34 33  1  0  0  0  0
 35 34  2  0  0  0  0
 35 36  1  0  0  0  0
 36 31  2  0  0  0  0
 38 67  1  0  0  0  0
 38 69  1  0  0  0  0
 39  1  1  0  0  0  0
 40  1  1  0  0  0  0
 42  3  1  0  0  0  0
 45  6  1  0  0  0  0
 46  9  1  0  0  0  0
 47  9  1  0  0  0  0
 48 12  1  0  0  0  0
 50 14  1  0  0  0  0
 51 17  1  0  0  0  0
 53 19  1  0  0  0  0
 56 23  1  0  0  0  0
 57 23  1  0  0  0  0
 58 23  1  0  0  0  0
 63 33  1  0  0  0  0
 64 34  1  0  0  0  0
 65 35  1  0  0  0  0
 66 36  1  0  0  0  0
 68 38  1  0  0  0  0
M  END
