-1 1
 OpenBabel05232414493D

 86 89  0  0  1  0  0  0  0  0999 V2000
    9.4895   -8.9461   10.6655 O   0  0  0  0  0  0  0  0  0  0  0  0
    8.6593   -8.4272   11.4090 C   0  0  0  0  0  0  0  0  0  0  0  0
    7.3072   -8.2902   11.0187 N   0  0  0  0  0  0  0  0  0  0  0  0
    6.7108   -8.6221    9.8187 C   0  0  0  0  0  0  0  0  0  0  0  0
    5.3104   -8.5349    9.7387 C   0  0  0  0  0  0  0  0  0  0  0  0
    4.6204   -8.8287    8.5577 C   0  0  0  0  0  0  0  0  0  0  0  0
    3.2178   -8.7021    8.6188 N   0  0  0  0  0  0  0  0  0  0  0  0
    2.2412   -8.8386    7.6872 C   0  0  0  0  0  0  0  0  0  0  0  0
    0.9931   -8.6065    8.1427 N   0  0  0  0  0  0  0  0  0  0  0  0
   -0.0126   -8.7091    7.2950 C   0  0  0  0  0  0  0  0  0  0  0  0
    0.1904   -9.0488    5.9455 C   0  0  0  0  0  0  0  0  0  0  0  0
   -0.8157   -9.1617    4.9670 N   0  0  0  0  0  0  0  0  0  0  0  0
   -2.1659   -9.0149    5.1234 C   0  0  0  0  0  0  0  0  0  0  0  0
   -2.9428   -9.1315    3.8354 C   0  0  0  0  0  0  0  0  0  0  0  0
   -4.1330   -9.8820    3.7818 C   0  0  0  0  0  0  0  0  0  0  0  0
   -4.6718  -10.6232    4.9765 C   0  0  0  0  0  0  0  0  0  0  0  0
   -4.8075   -9.9183    2.5591 C   0  0  0  0  0  0  0  0  0  0  0  0
   -4.3665   -9.2377    1.4262 C   0  0  0  0  0  0  0  0  0  0  0  0
   -3.1943   -8.4804    1.4985 C   0  0  0  0  0  0  0  0  0  0  0  0
   -2.6756   -7.7321    0.4252 N   0  0  0  0  0  0  0  0  0  0  0  0
   -3.1516   -7.6307   -0.8538 C   0  0  0  0  0  0  0  0  0  0  0  0
   -2.3732   -6.6932   -1.7442 C   0  0  0  0  0  0  0  0  0  0  0  0
   -2.4452   -6.9257   -3.1198 C   0  0  0  0  0  0  0  0  0  0  0  0
   -1.7624   -6.0975   -4.0051 C   0  0  0  0  0  0  0  0  0  0  0  0
   -1.7870   -6.3959   -5.4842 C   0  0  0  0  0  0  0  0  0  0  0  0
   -2.9117   -7.0142   -5.8490 F   0  0  0  0  0  0  0  0  0  0  0  0
   -1.6837   -5.2799   -6.2139 F   0  0  0  0  0  0  0  0  0  0  0  0
   -0.7678   -7.1889   -5.8359 F   0  0  0  0  0  0  0  0  0  0  0  0
   -1.0200   -5.0146   -3.5287 C   0  0  0  0  0  0  0  0  0  0  0  0
   -0.9674   -4.7649   -2.1612 C   0  0  0  0  0  0  0  0  0  0  0  0
   -1.6405   -5.6000   -1.2714 C   0  0  0  0  0  0  0  0  0  0  0  0
   -4.1093   -8.2427   -1.2799 O   0  0  0  0  0  0  0  0  0  0  0  0
   -2.4912   -8.4447    2.7080 C   0  0  0  0  0  0  0  0  0  0  0  0
   -2.7055   -8.7960    6.1901 O   0  0  0  0  0  0  0  0  0  0  0  0
    1.5179   -9.2752    5.5837 C   0  0  0  0  0  0  0  0  0  0  0  0
    2.5323   -9.1770    6.4239 N   0  0  0  0  0  0  0  0  0  0  0  0
    5.3289   -9.2230    7.4169 C   0  0  0  0  0  0  0  0  0  0  0  0
    6.7193   -9.3116    7.5069 C   0  0  0  0  0  0  0  0  0  0  0  0
    7.4219   -9.0250    8.6698 C   0  0  0  0  0  0  0  0  0  0  0  0
    8.9122   -7.9379   12.7377 C   0  0  0  0  0  3  0  0  0  0  0  0
    8.0405   -7.0737   13.4424 C   0  0  0  0  0  0  0  0  0  0  0  0
    6.1983   -7.9861   14.2204 S   0  0  0  0  0  0  0  0  0  0  0  0
    6.6729   -9.7247   14.1539 C   0  0  0  0  0  0  0  0  0  0  0  0
    6.9335  -10.3640   15.5202 C   0  0  2  0  0  0  0  0  0  0  0  0
    7.2122  -11.4215   15.3776 H   0  0  0  0  0  0  0  0  0  0  0  0
    5.7426  -10.3685   16.3283 N   0  0  0  0  0  0  0  0  0  0  0  0
    5.4406  -11.3945   17.1689 C   0  0  0  0  0  0  0  0  0  0  0  0
    4.3857  -11.0594   18.2074 C   0  0  0  0  0  0  0  0  0  0  0  0
    5.9628  -12.4917   17.1073 O   0  0  0  0  0  0  0  0  0  0  0  0
    8.0849   -9.7235   16.3265 C   0  0  0  0  0  0  0  0  0  0  0  0
    9.1789   -9.3887   15.5994 N   0  0  0  0  0  0  0  0  0  0  0  0
   10.3096   -8.7224   16.1904 C   0  0  0  0  0  0  0  0  0  0  0  0
    8.0149   -9.5978   17.5364 O   0  0  0  0  0  0  0  0  0  0  0  0
    6.6627   -8.0633   11.7752 H   0  0  0  0  0  0  0  0  0  0  0  0
    4.7531   -8.2286   10.6300 H   0  0  0  0  0  0  0  0  0  0  0  0
    2.8439   -8.4421    9.5234 H   0  0  0  0  0  0  0  0  0  0  0  0
   -1.0199   -8.5238    7.6717 H   0  0  0  0  0  0  0  0  0  0  0  0
   -0.4992   -9.4546    4.0512 H   0  0  0  0  0  0  0  0  0  0  0  0
   -4.9839   -9.9202    5.7608 H   0  0  0  0  0  0  0  0  0  0  0  0
   -3.9079  -11.2727    5.4291 H   0  0  0  0  0  0  0  0  0  0  0  0
   -5.5299  -11.2468    4.6906 H   0  0  0  0  0  0  0  0  0  0  0  0
   -5.7257  -10.5064    2.4837 H   0  0  0  0  0  0  0  0  0  0  0  0
   -4.9197   -9.2880    0.4916 H   0  0  0  0  0  0  0  0  0  0  0  0
   -1.8031   -7.2593    0.6185 H   0  0  0  0  0  0  0  0  0  0  0  0
   -3.0510   -7.7595   -3.4778 H   0  0  0  0  0  0  0  0  0  0  0  0
   -0.4963   -4.3619   -4.2290 H   0  0  0  0  0  0  0  0  0  0  0  0
   -0.4069   -3.9074   -1.7847 H   0  0  0  0  0  0  0  0  0  0  0  0
   -1.6132   -5.3648   -0.2044 H   0  0  0  0  0  0  0  0  0  0  0  0
   -1.5828   -7.8382    2.7814 H   0  0  0  0  0  0  0  0  0  0  0  0
    1.7670   -9.5520    4.5491 H   0  0  0  0  0  0  0  0  0  0  0  0
    4.8024   -9.4526    6.4955 H   0  0  0  0  0  0  0  0  0  0  0  0
    7.2799   -9.6244    6.6214 H   0  0  0  0  0  0  0  0  0  0  0  0
    8.5036   -9.1147    8.7352 H   0  0  0  0  0  0  0  0  0  0  0  0
    9.8979   -8.1838   13.1399 H   0  0  0  0  0  0  0  0  0  0  0  0
    7.4703   -6.3341   12.8693 H   0  0  0  0  0  0  0  0  0  0  0  0
    8.4388   -6.6513   14.3696 H   0  0  0  0  0  0  0  0  0  0  0  0
    7.5761   -9.7838   13.5098 H   0  0  0  0  0  0  0  0  0  0  0  0
    5.8907  -10.3028   13.6417 H   0  0  0  0  0  0  0  0  0  0  0  0
    5.3696   -9.4478   16.5335 H   0  0  0  0  0  0  0  0  0  0  0  0
    3.5966  -10.4093   17.8021 H   0  0  0  0  0  0  0  0  0  0  0  0
    4.8755  -10.5295   19.0389 H   0  0  0  0  0  0  0  0  0  0  0  0
    3.9473  -11.9898   18.5872 H   0  0  0  0  0  0  0  0  0  0  0  0
    9.0856   -9.3278   14.5871 H   0  0  0  0  0  0  0  0  0  0  0  0
   10.2384   -8.8277   17.2804 H   0  0  0  0  0  0  0  0  0  0  0  0
   10.3252   -7.6468   15.9436 H   0  0  0  0  0  0  0  0  0  0  0  0
   11.2541   -9.1696   15.8435 H   0  0  0  0  0  0  0  0  0  0  0  0
  1  2  2  0  0  0  0
  2 40  1  0  0  0  0
  3  2  1  0  0  0  0
  3 54  1  0  0  0  0
  4  3  1  0  0  0  0
  5  4  1  0  0  0  0
  5 55  1  0  0  0  0
  6  7  1  0  0  0  0
  6  5  2  0  0  0  0
  7 56  1  0  0  0  0
  8  9  2  0  0  0  0
  8  7  1  0  0  0  0
 10 57  1  0  0  0  0
 10  9  1  0  0  0  0
 11 10  2  0  0  0  0
 12 13  1  0  0  0  0
 12 11  1  0  0  0  0
 13 34  2  0  0  0  0
 14 13  1  0  0  0  0
 15 14  1  0  0  0  0
 15 16  1  0  0  0  0
 16 60  1  0  0  0  0
 16 59  1  0  0  0  0
 17 15  2  0  0  0  0
 18 19  2  0  0  0  0
 18 17  1  0  0  0  0
 19 33  1  0  0  0  0
 20 64  1  0  0  0  0
 20 19  1  0  0  0  0
 21 20  1  0  0  0  0
 22 31  1  0  0  0  0
 22 21  1  0  0  0  0
 23 22  2  0  0  0  0
 24 29  2  0  0  0  0
 24 23  1  0  0  0  0
 25 24  1  0  0  0  0
 26 25  1  0  0  0  0
 27 25  1  0  0  0  0
 28 25  1  0  0  0  0
 29 30  1  0  0  0  0
 30 67  1  0  0  0  0
 30 31  2  0  0  0  0
 31 68  1  0  0  0  0
 32 21  2  0  0  0  0
 33 69  1  0  0  0  0
 33 14  2  0  0  0  0
 35 11  1  0  0  0  0
 35 36  2  0  0  0  0
 36  8  1  0  0  0  0
 37 38  2  0  0  0  0
 37  6  1  0  0  0  0
 38 39  1  0  0  0  0
 39 73  1  0  0  0  0
 39  4  2  0  0  0  0
 40 74  1  0  0  0  0
 40 41  1  0  0  0  0
 41 42  1  0  0  0  0
 41 76  1  0  0  0  0
 43 42  1  0  0  0  0
 43 44  1  0  0  0  0
 44 45  1  6  0  0  0
 44 50  1  0  0  0  0
 44 46  1  0  0  0  0
 46 79  1  0  0  0  0
 46 47  1  0  0  0  0
 47 48  1  0  0  0  0
 48 82  1  0  0  0  0
 48 81  1  0  0  0  0
 49 47  2  0  0  0  0
 50 53  2  0  0  0  0
 51 52  1  0  0  0  0
 51 50  1  0  0  0  0
 52 84  1  0  0  0  0
 58 12  1  0  0  0  0
 61 16  1  0  0  0  0
 62 17  1  0  0  0  0
 63 18  1  0  0  0  0
 65 23  1  0  0  0  0
 66 29  1  0  0  0  0
 70 35  1  0  0  0  0
 71 37  1  0  0  0  0
 72 38  1  0  0  0  0
 75 41  1  0  0  0  0
 77 43  1  0  0  0  0
 78 43  1  0  0  0  0
 80 48  1  0  0  0  0
 83 51  1  0  0  0  0
 85 52  1  0  0  0  0
 86 52  1  0  0  0  0
M  END
