48
-1 1
O         2.973178    2.331957    1.541603
C         2.090359    2.202555    0.699689
C         2.396314    1.626702   -0.693078
C         1.502820    0.424734   -1.071703
S        -0.207168    0.833802   -1.486406
C        -1.264105   -0.489456    0.240646
C        -0.360437   -0.864572    1.217157
N         0.361738   -2.064142    1.088656
O         0.185552   -2.785823    0.106374
O         1.146453   -2.356873    1.992018
C        -2.375484    0.458624    0.489620
C        -2.476018    1.221116    1.660904
C        -3.525181    2.107607    1.872780
O        -3.570672    2.799161    3.049730
C        -3.477453    4.200030    2.957818
C        -4.540164    2.237099    0.903917
O        -5.559049    3.091148    1.193873
C        -6.583051    3.249489    0.258388
C        -4.453137    1.478867   -0.265138
C        -3.385213    0.606005   -0.464857
N         3.795263    1.267008   -0.665894
C         4.558072    1.131470   -1.772724
C         6.013287    0.777211   -1.505507
O         4.131552    1.245962   -2.909164
H         2.241720    2.417754   -1.447034
N         0.812722    2.558068    0.922448
C         0.407429    3.034877    2.217960
H         1.977660   -0.078661   -1.924123
H         1.495593   -0.280576   -0.219579
H        -1.733465    1.132842    2.454037
H        -3.389870    4.582302    3.984097
H        -4.366272    4.641383    2.480921
H        -2.580073    4.506370    2.390747
H        -7.289430    3.975904    0.681061
H        -7.119669    2.302235    0.069379
H        -6.208072    3.637396   -0.706034
H        -5.221576    1.558223   -1.034668
H        -3.325113    0.034811   -1.393875
H         4.210982    1.319025    0.260140
H         6.156476   -0.293391   -1.715409
H         6.329168    0.976528   -0.471845
H         6.645745    1.341732   -2.203305
H         0.119845    2.256031    0.221073
H         0.463093    2.245821    2.988680
H        -0.628068    3.392147    2.162640
H         1.059898    3.857508    2.547491
H        -1.466291   -1.264639   -0.498409
H        -0.086790   -0.295857    2.102084
