-1 1
 OpenBabel05232414493D

 48 47  0  0  1  0  0  0  0  0999 V2000
    2.9732    2.3320    1.5416 O   0  0  0  0  0  0  0  0  0  0  0  0
    2.0904    2.2026    0.6997 C   0  0  0  0  0  0  0  0  0  0  0  0
    2.3963    1.6267   -0.6931 C   0  0  2  0  0  0  0  0  0  0  0  0
    1.5028    0.4247   -1.0717 C   0  0  0  0  0  0  0  0  0  0  0  0
   -0.2072    0.8338   -1.4864 S   0  0  0  0  0  1  0  0  0  0  0  0
   -1.2641   -0.4895    0.2406 C   0  0  0  0  0  3  0  0  0  0  0  0
   -0.3604   -0.8646    1.2172 C   0  0  0  0  0  3  0  0  0  0  0  0
    0.3617   -2.0641    1.0887 N   0  0  0  0  0  0  0  0  0  0  0  0
    0.1856   -2.7858    0.1064 O   0  0  0  0  0  0  0  0  0  0  0  0
    1.1465   -2.3569    1.9920 O   0  0  0  0  0  0  0  0  0  0  0  0
   -2.3755    0.4586    0.4896 C   0  0  0  0  0  0  0  0  0  0  0  0
   -2.4760    1.2211    1.6609 C   0  0  0  0  0  0  0  0  0  0  0  0
   -3.5252    2.1076    1.8728 C   0  0  0  0  0  0  0  0  0  0  0  0
   -3.5707    2.7992    3.0497 O   0  0  0  0  0  0  0  0  0  0  0  0
   -3.4775    4.2000    2.9578 C   0  0  0  0  0  0  0  0  0  0  0  0
   -4.5402    2.2371    0.9039 C   0  0  0  0  0  0  0  0  0  0  0  0
   -5.5590    3.0911    1.1939 O   0  0  0  0  0  0  0  0  0  0  0  0
   -6.5831    3.2495    0.2584 C   0  0  0  0  0  0  0  0  0  0  0  0
   -4.4531    1.4789   -0.2651 C   0  0  0  0  0  0  0  0  0  0  0  0
   -3.3852    0.6060   -0.4649 C   0  0  0  0  0  0  0  0  0  0  0  0
    3.7953    1.2670   -0.6659 N   0  0  0  0  0  0  0  0  0  0  0  0
    4.5581    1.1315   -1.7727 C   0  0  0  0  0  0  0  0  0  0  0  0
    6.0133    0.7772   -1.5055 C   0  0  0  0  0  0  0  0  0  0  0  0
    4.1316    1.2460   -2.9092 O   0  0  0  0  0  0  0  0  0  0  0  0
    2.2417    2.4178   -1.4470 H   0  0  0  0  0  0  0  0  0  0  0  0
    0.8127    2.5581    0.9224 N   0  0  0  0  0  0  0  0  0  0  0  0
    0.4074    3.0349    2.2180 C   0  0  0  0  0  0  0  0  0  0  0  0
    1.9777   -0.0787   -1.9241 H   0  0  0  0  0  0  0  0  0  0  0  0
    1.4956   -0.2806   -0.2196 H   0  0  0  0  0  0  0  0  0  0  0  0
   -1.7335    1.1328    2.4540 H   0  0  0  0  0  0  0  0  0  0  0  0
   -3.3899    4.5823    3.9841 H   0  0  0  0  0  0  0  0  0  0  0  0
   -4.3663    4.6414    2.4809 H   0  0  0  0  0  0  0  0  0  0  0  0
   -2.5801    4.5064    2.3907 H   0  0  0  0  0  0  0  0  0  0  0  0
   -7.2894    3.9759    0.6811 H   0  0  0  0  0  0  0  0  0  0  0  0
   -7.1197    2.3022    0.0694 H   0  0  0  0  0  0  0  0  0  0  0  0
   -6.2081    3.6374   -0.7060 H   0  0  0  0  0  0  0  0  0  0  0  0
   -5.2216    1.5582   -1.0347 H   0  0  0  0  0  0  0  0  0  0  0  0
   -3.3251    0.0348   -1.3939 H   0  0  0  0  0  0  0  0  0  0  0  0
    4.2110    1.3190    0.2601 H   0  0  0  0  0  0  0  0  0  0  0  0
    6.1565   -0.2934   -1.7154 H   0  0  0  0  0  0  0  0  0  0  0  0
    6.3292    0.9765   -0.4718 H   0  0  0  0  0  0  0  0  0  0  0  0
    6.6457    1.3417   -2.2033 H   0  0  0  0  0  0  0  0  0  0  0  0
    0.1198    2.2560    0.2211 H   0  0  0  0  0  0  0  0  0  0  0  0
    0.4631    2.2458    2.9887 H   0  0  0  0  0  0  0  0  0  0  0  0
   -0.6281    3.3921    2.1626 H   0  0  0  0  0  0  0  0  0  0  0  0
    1.0599    3.8575    2.5475 H   0  0  0  0  0  0  0  0  0  0  0  0
   -1.4663   -1.2646   -0.4984 H   0  0  0  0  0  0  0  0  0  0  0  0
   -0.0868   -0.2959    2.1021 H   0  0  0  0  0  0  0  0  0  0  0  0
  2 26  1  0  0  0  0
  2  1  2  0  0  0  0
  3 25  1  6  0  0  0
  3 21  1  0  0  0  0
  3  2  1  0  0  0  0
  4  3  1  0  0  0  0
  4 29  1  0  0  0  0
  5  4  1  0  0  0  0
  6 11  1  0  0  0  0
  6  7  1  0  0  0  0
  7 48  1  0  0  0  0
  8  7  1  0  0  0  0
  8 10  2  0  0  0  0
  9  8  2  0  0  0  0
 11 12  1  0  0  0  0
 12 13  2  0  0  0  0
 12 30  1  0  0  0  0
 13 14  1  0  0  0  0
 15 14  1  0  0  0  0
 15 31  1  0  0  0  0
 16 17  1  0  0  0  0
 16 13  1  0  0  0  0
 18 34  1  0  0  0  0
 18 17  1  0  0  0  0
 19 16  2  0  0  0  0
 20 19  1  0  0  0  0
 20 11  2  0  0  0  0
 21 39  1  0  0  0  0
 22 23  1  0  0  0  0
 22 21  1  0  0  0  0
 23 41  1  0  0  0  0
 24 22  2  0  0  0  0
 26 27  1  0  0  0  0
 27 46  1  0  0  0  0
 27 44  1  0  0  0  0
 28  4  1  0  0  0  0
 32 15  1  0  0  0  0
 33 15  1  0  0  0  0
 35 18  1  0  0  0  0
 36 18  1  0  0  0  0
 37 19  1  0  0  0  0
 38 20  1  0  0  0  0
 40 23  1  0  0  0  0
 42 23  1  0  0  0  0
 43 26  1  0  0  0  0
 45 27  1  0  0  0  0
 47  6  1  0  0  0  0
M  END
