-1 1
 OpenBabel05232413493D

 48 47  0  0  1  0  0  0  0  0999 V2000
    2.5183    1.6870    0.5657 O   0  0  0  0  0  0  0  0  0  0  0  0
    1.8869    1.2341   -0.3876 C   0  0  0  0  0  0  0  0  0  0  0  0
    2.5671    0.3664   -1.4596 C   0  0  2  0  0  0  0  0  0  0  0  0
    1.8817   -1.0010   -1.6812 C   0  0  0  0  0  0  0  0  0  0  0  0
    0.2455   -0.9493   -2.4717 S   0  0  0  0  0  1  0  0  0  0  0  0
   -0.9432   -1.9388    0.1667 C   0  0  0  0  0  0  0  0  0  0  0  0
    0.1022   -2.1689    0.9814 C   0  0  0  0  0  0  0  0  0  0  0  0
    0.9155   -3.3462    0.8234 N   0  0  0  0  0  0  0  0  0  0  0  0
    0.6096   -4.1801   -0.0081 O   0  0  0  0  0  0  0  0  0  0  0  0
    1.8765   -3.4474    1.5724 O   0  0  0  0  0  0  0  0  0  0  0  0
   -1.9256   -0.8648    0.3850 C   0  0  0  0  0  0  0  0  0  0  0  0
   -2.1523   -0.3220    1.6596 C   0  0  0  0  0  0  0  0  0  0  0  0
   -3.0998    0.6696    1.8718 C   0  0  0  0  0  0  0  0  0  0  0  0
   -3.3032    1.1521    3.1324 O   0  0  0  0  0  0  0  0  0  0  0  0
   -2.7771    2.4365    3.3678 C   0  0  0  0  0  0  0  0  0  0  0  0
   -3.8641    1.1520    0.7910 C   0  0  0  0  0  0  0  0  0  0  0  0
   -4.7665    2.1220    1.0774 O   0  0  0  0  0  0  0  0  0  0  0  0
   -5.5403    2.6438    0.0365 C   0  0  0  0  0  0  0  0  0  0  0  0
   -3.6530    0.6113   -0.4806 C   0  0  0  0  0  0  0  0  0  0  0  0
   -2.6980   -0.3840   -0.6764 C   0  0  0  0  0  0  0  0  0  0  0  0
    3.9385    0.2208   -1.0231 N   0  0  0  0  0  0  0  0  0  0  0  0
    4.9698   -0.0823   -1.8401 C   0  0  0  0  0  0  0  0  0  0  0  0
    6.3266   -0.1515   -1.1522 C   0  0  0  0  0  0  0  0  0  0  0  0
    4.8531   -0.3198   -3.0303 O   0  0  0  0  0  0  0  0  0  0  0  0
    2.5443    0.9092   -2.4205 H   0  0  0  0  0  0  0  0  0  0  0  0
    0.5775    1.4609   -0.5716 N   0  0  0  0  0  0  0  0  0  0  0  0
   -0.1777    2.2140    0.3910 C   0  0  0  0  0  0  0  0  0  0  0  0
    2.5691   -1.5930   -2.3012 H   0  0  0  0  0  0  0  0  0  0  0  0
    1.8226   -1.4972   -0.6940 H   0  0  0  0  0  0  0  0  0  0  0  0
   -1.5991   -0.6795    2.5300 H   0  0  0  0  0  0  0  0  0  0  0  0
   -2.9917    2.6873    4.4155 H   0  0  0  0  0  0  0  0  0  0  0  0
   -3.2444    3.1932    2.7160 H   0  0  0  0  0  0  0  0  0  0  0  0
   -1.6839    2.4562    3.2125 H   0  0  0  0  0  0  0  0  0  0  0  0
   -6.1898    3.4099    0.4791 H   0  0  0  0  0  0  0  0  0  0  0  0
   -6.1728    1.8702   -0.4340 H   0  0  0  0  0  0  0  0  0  0  0  0
   -4.9176    3.1124   -0.7464 H   0  0  0  0  0  0  0  0  0  0  0  0
   -4.2247    0.9674   -1.3378 H   0  0  0  0  0  0  0  0  0  0  0  0
   -2.5083   -0.7710   -1.6785 H   0  0  0  0  0  0  0  0  0  0  0  0
    4.0997    0.5673   -0.0811 H   0  0  0  0  0  0  0  0  0  0  0  0
    6.5928   -1.2098   -1.0102 H   0  0  0  0  0  0  0  0  0  0  0  0
    6.3476    0.3489   -0.1737 H   0  0  0  0  0  0  0  0  0  0  0  0
    7.0792    0.2960   -1.8149 H   0  0  0  0  0  0  0  0  0  0  0  0
    0.1103    0.8608   -1.2809 H   0  0  0  0  0  0  0  0  0  0  0  0
   -0.0556    1.8109    1.4106 H   0  0  0  0  0  0  0  0  0  0  0  0
   -1.2419    2.1707    0.1235 H   0  0  0  0  0  0  0  0  0  0  0  0
    0.1421    3.2695    0.4175 H   0  0  0  0  0  0  0  0  0  0  0  0
   -1.1223   -2.6503   -0.6397 H   0  0  0  0  0  0  0  0  0  0  0  0
    0.4609   -1.5228    1.7802 H   0  0  0  0  0  0  0  0  0  0  0  0
  2  1  2  0  0  0  0
  3 25  1  6  0  0  0
  3 21  1  0  0  0  0
  3  2  1  0  0  0  0
  4  3  1  0  0  0  0
  4 29  1  0  0  0  0
  5  4  1  0  0  0  0
  6 11  1  0  0  0  0
  6  7  2  0  0  0  0
  7 48  1  0  0  0  0
  8  7  1  0  0  0  0
  8 10  2  0  0  0  0
  9  8  2  0  0  0  0
 11 12  1  0  0  0  0
 12 13  2  0  0  0  0
 12 30  1  0  0  0  0
 13 14  1  0  0  0  0
 14 15  1  0  0  0  0
 15 31  1  0  0  0  0
 16 17  1  0  0  0  0
 16 13  1  0  0  0  0
 18 34  1  0  0  0  0
 18 17  1  0  0  0  0
 19 16  2  0  0  0  0
 20 19  1  0  0  0  0
 20 11  2  0  0  0  0
 21 39  1  0  0  0  0
 22 23  1  0  0  0  0
 22 21  1  0  0  0  0
 23 40  1  0  0  0  0
 23 41  1  0  0  0  0
 24 22  2  0  0  0  0
 26  2  1  0  0  0  0
 26 27  1  0  0  0  0
 27 46  1  0  0  0  0
 27 44  1  0  0  0  0
 28  4  1  0  0  0  0
 32 15  1  0  0  0  0
 33 15  1  0  0  0  0
 35 18  1  0  0  0  0
 36 18  1  0  0  0  0
 37 19  1  0  0  0  0
 38 20  1  0  0  0  0
 42 23  1  0  0  0  0
 43 26  1  0  0  0  0
 45 27  1  0  0  0  0
 47  6  1  0  0  0  0
M  END
