48
-1 1
O         2.518342    1.687047    0.565667
C         1.886894    1.234063   -0.387646
C         2.567140    0.366363   -1.459588
C         1.881714   -1.000992   -1.681164
S         0.245459   -0.949287   -2.471679
C        -0.943200   -1.938801    0.166681
C         0.102202   -2.168879    0.981429
N         0.915463   -3.346242    0.823411
O         0.609554   -4.180109   -0.008140
O         1.876505   -3.447384    1.572386
C        -1.925641   -0.864845    0.385020
C        -2.152267   -0.322028    1.659629
C        -3.099755    0.669641    1.871771
O        -3.303224    1.152095    3.132357
C        -2.777115    2.436492    3.367804
C        -3.864104    1.151978    0.791008
O        -4.766470    2.121966    1.077368
C        -5.540254    2.643812    0.036501
C        -3.652960    0.611314   -0.480610
C        -2.698010   -0.384007   -0.676353
N         3.938504    0.220754   -1.023087
C         4.969808   -0.082255   -1.840143
C         6.326616   -0.151497   -1.152224
O         4.853148   -0.319824   -3.030253
H         2.544330    0.909222   -2.420470
N         0.577482    1.460857   -0.571614
C        -0.177739    2.214023    0.391004
H         2.569052   -1.592980   -2.301198
H         1.822568   -1.497174   -0.693982
H        -1.599053   -0.679461    2.530014
H        -2.991740    2.687315    4.415480
H        -3.244367    3.193216    2.715951
H        -1.683893    2.456165    3.212519
H        -6.189753    3.409880    0.479063
H        -6.172796    1.870233   -0.434037
H        -4.917572    3.112441   -0.746359
H        -4.224658    0.967414   -1.337832
H        -2.508320   -0.770967   -1.678511
H         4.099670    0.567307   -0.081129
H         6.592828   -1.209755   -1.010159
H         6.347585    0.348882   -0.173690
H         7.079233    0.296027   -1.814869
H         0.110255    0.860788   -1.280910
H        -0.055567    1.810900    1.410603
H        -1.241882    2.170664    0.123526
H         0.142073    3.269475    0.417537
H        -1.122285   -2.650331   -0.639700
H         0.460884   -1.522756    1.780177
