-1 1
 OpenBabel05232413493D

 53 52  0  0  1  0  0  0  0  0999 V2000
    3.5234   -3.8345   -1.0173 O   0  0  0  0  0  0  0  0  0  0  0  0
    2.5493   -3.1594   -1.3039 C   0  0  0  0  0  0  0  0  0  0  0  0
    2.2317   -1.8078   -0.6213 C   0  0  2  0  0  0  0  0  0  0  0  0
    3.3760   -1.3835    0.3157 C   0  0  0  0  0  0  0  0  0  0  0  0
    2.9480   -0.0406    1.4823 S   0  0  0  0  0  1  0  0  0  0  0  0
    0.6550    1.2298   -1.6455 C   0  0  0  0  0  0  0  0  0  0  0  0
    0.4804    0.8486   -2.9136 C   0  0  0  0  0  0  0  0  0  0  0  0
    1.6093    0.5637   -3.7757 N   0  0  0  0  0  0  0  0  0  0  0  0
    2.7341    0.5860   -3.3191 O   0  0  0  0  0  0  0  0  0  0  0  0
    1.3424    0.3223   -4.9398 O   0  0  0  0  0  0  0  0  0  0  0  0
   -0.4383    1.5276   -0.7128 C   0  0  0  0  0  0  0  0  0  0  0  0
   -0.1316    1.5311    0.6564 C   0  0  0  0  0  0  0  0  0  0  0  0
   -1.1329    1.7511    1.6021 C   0  0  0  0  0  0  0  0  0  0  0  0
   -0.9526    1.7474    2.9320 O   0  0  0  0  0  0  0  0  0  0  0  0
    0.3548    1.5346    3.4322 C   0  0  0  0  0  0  0  0  0  0  0  0
   -2.4441    1.9836    1.1555 C   0  0  0  0  0  0  0  0  0  0  0  0
   -3.4250    2.2486    2.0903 O   0  0  0  0  0  0  0  0  0  0  0  0
   -3.8392    1.2329    2.8836 C   0  0  0  0  0  0  0  0  0  0  0  0
   -4.6441    1.7702    4.0405 C   0  0  0  0  0  0  0  0  0  0  0  0
   -5.3106    0.6784    4.8600 C   0  0  0  0  0  0  0  0  0  0  0  0
   -3.5953    0.0796    2.6768 O   0  0  0  0  0  0  0  0  0  0  0  0
   -2.7508    1.9955   -0.1965 C   0  0  0  0  0  0  0  0  0  0  0  0
   -1.7511    1.7711   -1.1378 C   0  0  0  0  0  0  0  0  0  0  0  0
    0.9880   -1.8503    0.1389 N   0  0  0  0  0  0  0  0  0  0  0  0
   -0.2535   -1.8020   -0.3761 C   0  0  0  0  0  0  0  0  0  0  0  0
   -1.3715   -1.6148    0.6263 C   0  0  0  0  0  0  0  0  0  0  0  0
   -0.5109   -1.9316   -1.5761 O   0  0  0  0  0  0  0  0  0  0  0  0
    2.1281   -1.0657   -1.4310 H   0  0  0  0  0  0  0  0  0  0  0  0
    1.6678   -3.4980   -2.2793 N   0  0  0  0  0  0  0  0  0  0  0  0
    1.7607   -4.7373   -2.9991 C   0  0  0  0  0  0  0  0  0  0  0  0
    3.7021   -2.2739    0.8721 H   0  0  0  0  0  0  0  0  0  0  0  0
    4.2220   -1.0910   -0.3222 H   0  0  0  0  0  0  0  0  0  0  0  0
    0.8958    1.2754    0.9578 H   0  0  0  0  0  0  0  0  0  0  0  0
    1.0295    2.3528    3.1305 H   0  0  0  0  0  0  0  0  0  0  0  0
    0.7922    0.5878    3.0747 H   0  0  0  0  0  0  0  0  0  0  0  0
    0.2645    1.5194    4.5249 H   0  0  0  0  0  0  0  0  0  0  0  0
   -5.3706    2.4951    3.6409 H   0  0  0  0  0  0  0  0  0  0  0  0
   -3.9402    2.3619    4.6490 H   0  0  0  0  0  0  0  0  0  0  0  0
   -6.0221    0.1037    4.2493 H   0  0  0  0  0  0  0  0  0  0  0  0
   -5.8554    1.1088    5.7126 H   0  0  0  0  0  0  0  0  0  0  0  0
   -4.5640   -0.0305    5.2440 H   0  0  0  0  0  0  0  0  0  0  0  0
   -3.7829    2.1837   -0.4966 H   0  0  0  0  0  0  0  0  0  0  0  0
   -1.9989    1.7887   -2.1999 H   0  0  0  0  0  0  0  0  0  0  0  0
    1.1373   -1.4504    1.0760 H   0  0  0  0  0  0  0  0  0  0  0  0
   -1.0220   -1.3486    1.6321 H   0  0  0  0  0  0  0  0  0  0  0  0
   -1.9506   -2.5483    0.6859 H   0  0  0  0  0  0  0  0  0  0  0  0
   -2.0504   -0.8305    0.2672 H   0  0  0  0  0  0  0  0  0  0  0  0
    0.8220   -2.9235   -2.3470 H   0  0  0  0  0  0  0  0  0  0  0  0
    1.7466   -4.5699   -4.0888 H   0  0  0  0  0  0  0  0  0  0  0  0
    0.9334   -5.4241   -2.7476 H   0  0  0  0  0  0  0  0  0  0  0  0
    2.7088   -5.2193   -2.7263 H   0  0  0  0  0  0  0  0  0  0  0  0
   -0.4666    0.6767   -3.4189 H   0  0  0  0  0  0  0  0  0  0  0  0
    1.6759    1.2786   -1.2482 H   0  0  0  0  0  0  0  0  0  0  0  0
  2  1  2  0  0  0  0
  2  3  1  0  0  0  0
  3 28  1  6  0  0  0
  3 24  1  0  0  0  0
  3  4  1  0  0  0  0
  4 31  1  0  0  0  0
  4  5  1  0  0  0  0
  6 53  1  0  0  0  0
  6 11  1  0  0  0  0
  7  6  2  0  0  0  0
  8  9  2  0  0  0  0
  8  7  1  0  0  0  0
 10  8  2  0  0  0  0
 11 12  1  0  0  0  0
 12 33  1  0  0  0  0
 12 13  2  0  0  0  0
 13 14  1  0  0  0  0
 14 15  1  0  0  0  0
 15 36  1  0  0  0  0
 16 13  1  0  0  0  0
 16 17  1  0  0  0  0
 17 18  1  0  0  0  0
 18 19  1  0  0  0  0
 19 38  1  0  0  0  0
 19 20  1  0  0  0  0
 20 41  1  0  0  0  0
 20 40  1  0  0  0  0
 21 18  2  0  0  0  0
 22 16  2  0  0  0  0
 23 11  2  0  0  0  0
 23 22  1  0  0  0  0
 24 44  1  0  0  0  0
 25 24  1  0  0  0  0
 25 26  1  0  0  0  0
 26 46  1  0  0  0  0
 26 45  1  0  0  0  0
 27 25  2  0  0  0  0
 29  2  1  0  0  0  0
 30 50  1  0  0  0  0
 30 51  1  0  0  0  0
 30 29  1  0  0  0  0
 32  4  1  0  0  0  0
 34 15  1  0  0  0  0
 35 15  1  0  0  0  0
 37 19  1  0  0  0  0
 39 20  1  0  0  0  0
 42 22  1  0  0  0  0
 43 23  1  0  0  0  0
 47 26  1  0  0  0  0
 48 29  1  0  0  0  0
 49 30  1  0  0  0  0
 52  7  1  0  0  0  0
M  END
