-1 1
 OpenBabel05232414493D

 53 52  0  0  1  0  0  0  0  0999 V2000
    1.8510   -3.5994    1.1731 O   0  0  0  0  0  0  0  0  0  0  0  0
    0.6903   -3.4355    0.8456 C   0  0  0  0  0  0  0  0  0  0  0  0
    0.1262   -2.0826    0.3514 C   0  0  2  0  0  0  0  0  0  0  0  0
    1.1780   -0.9568    0.3686 C   0  0  0  0  0  0  0  0  0  0  0  0
    1.2404    0.0207    1.8838 S   0  0  0  0  0  1  0  0  0  0  0  0
   -0.1358    1.9583    0.8433 C   0  0  0  0  0  3  0  0  0  0  0  0
   -0.2209    1.7455   -0.5064 C   0  0  0  0  0  3  0  0  0  0  0  0
    0.8303    2.1367   -1.3705 N   0  0  0  0  0  0  0  0  0  0  0  0
    1.7977    2.7374   -0.9178 O   0  0  0  0  0  0  0  0  0  0  0  0
    0.7100    1.8623   -2.5630 O   0  0  0  0  0  0  0  0  0  0  0  0
   -1.3392    1.9180    1.7123 C   0  0  0  0  0  0  0  0  0  0  0  0
   -1.1995    1.7864    3.1046 C   0  0  0  0  0  0  0  0  0  0  0  0
   -2.3040    1.8057    3.9477 C   0  0  0  0  0  0  0  0  0  0  0  0
   -2.2524    1.6709    5.2911 O   0  0  0  0  0  0  0  0  0  0  0  0
   -1.0369    1.2690    5.8687 C   0  0  0  0  0  0  0  0  0  0  0  0
   -3.5837    1.9642    3.3879 C   0  0  0  0  0  0  0  0  0  0  0  0
   -4.6818    2.0241    4.2277 O   0  0  0  0  0  0  0  0  0  0  0  0
   -5.0548    0.8998    4.8758 C   0  0  0  0  0  0  0  0  0  0  0  0
   -6.0985    1.2213    5.9181 C   0  0  0  0  0  0  0  0  0  0  0  0
   -6.6968   -0.0177    6.5622 C   0  0  0  0  0  0  0  0  0  0  0  0
   -4.6146   -0.1899    4.6456 O   0  0  0  0  0  0  0  0  0  0  0  0
   -3.7396    2.1033    2.0222 C   0  0  0  0  0  0  0  0  0  0  0  0
   -2.6232    2.0846    1.1834 C   0  0  0  0  0  0  0  0  0  0  0  0
   -1.0460   -1.6632    1.0934 N   0  0  0  0  0  0  0  0  0  0  0  0
   -2.2983   -2.1055    0.9057 C   0  0  0  0  0  0  0  0  0  0  0  0
   -3.3663   -1.4176    1.7242 C   0  0  0  0  0  0  0  0  0  0  0  0
   -2.5835   -3.0139    0.1212 O   0  0  0  0  0  0  0  0  0  0  0  0
   -0.1903   -2.2625   -0.6920 H   0  0  0  0  0  0  0  0  0  0  0  0
   -0.2310   -4.4355    0.8228 N   0  0  0  0  0  0  0  0  0  0  0  0
    0.0756   -5.7742    1.2430 C   0  0  0  0  0  0  0  0  0  0  0  0
    2.1600   -1.3993    0.1613 H   0  0  0  0  0  0  0  0  0  0  0  0
    0.9352   -0.2667   -0.4613 H   0  0  0  0  0  0  0  0  0  0  0  0
   -0.1982    1.6312    3.5028 H   0  0  0  0  0  0  0  0  0  0  0  0
   -0.2624    2.0496    5.7761 H   0  0  0  0  0  0  0  0  0  0  0  0
   -0.6579    0.3404    5.4101 H   0  0  0  0  0  0  0  0  0  0  0  0
   -1.2391    1.0935    6.9327 H   0  0  0  0  0  0  0  0  0  0  0  0
   -6.8646    1.8551    5.4445 H   0  0  0  0  0  0  0  0  0  0  0  0
   -5.6014    1.8658    6.6619 H   0  0  0  0  0  0  0  0  0  0  0  0
   -7.2052   -0.6448    5.8156 H   0  0  0  0  0  0  0  0  0  0  0  0
   -7.4269    0.2592    7.3365 H   0  0  0  0  0  0  0  0  0  0  0  0
   -5.9132   -0.6340    7.0246 H   0  0  0  0  0  0  0  0  0  0  0  0
   -4.7466    2.2259    1.6195 H   0  0  0  0  0  0  0  0  0  0  0  0
   -2.7533    2.2230    0.1097 H   0  0  0  0  0  0  0  0  0  0  0  0
   -0.8220   -0.9401    1.7886 H   0  0  0  0  0  0  0  0  0  0  0  0
   -2.9718   -0.7535    2.5032 H   0  0  0  0  0  0  0  0  0  0  0  0
   -4.0047   -2.1799    2.1902 H   0  0  0  0  0  0  0  0  0  0  0  0
   -3.9979   -0.8232    1.0480 H   0  0  0  0  0  0  0  0  0  0  0  0
   -1.1655   -4.2016    0.4774 H   0  0  0  0  0  0  0  0  0  0  0  0
   -0.0424   -6.4994    0.4194 H   0  0  0  0  0  0  0  0  0  0  0  0
   -0.5696   -6.0969    2.0775 H   0  0  0  0  0  0  0  0  0  0  0  0
    1.1212   -5.7936    1.5774 H   0  0  0  0  0  0  0  0  0  0  0  0
   -1.0177    1.2128   -1.0201 H   0  0  0  0  0  0  0  0  0  0  0  0
    0.7090    2.5558    1.1841 H   0  0  0  0  0  0  0  0  0  0  0  0
  2  1  2  0  0  0  0
  3 28  1  6  0  0  0
  3  4  1  0  0  0  0
  3  2  1  0  0  0  0
  3 24  1  0  0  0  0
  4  5  1  0  0  0  0
  6 53  1  0  0  0  0
  6 11  1  0  0  0  0
  7  6  1  0  0  0  0
  8  9  2  0  0  0  0
  8  7  1  0  0  0  0
 10  8  2  0  0  0  0
 11 12  1  0  0  0  0
 12 33  1  0  0  0  0
 12 13  2  0  0  0  0
 13 14  1  0  0  0  0
 14 15  1  0  0  0  0
 15 36  1  0  0  0  0
 16 13  1  0  0  0  0
 16 17  1  0  0  0  0
 17 18  1  0  0  0  0
 18 19  1  0  0  0  0
 19 20  1  0  0  0  0
 19 38  1  0  0  0  0
 20 41  1  0  0  0  0
 20 40  1  0  0  0  0
 21 18  2  0  0  0  0
 22 16  2  0  0  0  0
 23 11  2  0  0  0  0
 23 22  1  0  0  0  0
 24 44  1  0  0  0  0
 25 24  1  0  0  0  0
 25 26  1  0  0  0  0
 26 46  1  0  0  0  0
 26 45  1  0  0  0  0
 27 25  2  0  0  0  0
 29  2  1  0  0  0  0
 29 30  1  0  0  0  0
 30 51  1  0  0  0  0
 30 50  1  0  0  0  0
 31  4  1  0  0  0  0
 32  4  1  0  0  0  0
 34 15  1  0  0  0  0
 35 15  1  0  0  0  0
 37 19  1  0  0  0  0
 39 20  1  0  0  0  0
 42 22  1  0  0  0  0
 43 23  1  0  0  0  0
 47 26  1  0  0  0  0
 48 29  1  0  0  0  0
 49 30  1  0  0  0  0
 52  7  1  0  0  0  0
M  END
