57
-1 1
O         1.671328    1.384887    2.777797
C         1.825188    1.848722    1.645682
C         3.223250    1.976183    1.014285
C         3.350222    1.360051   -0.398345
S         2.403083    2.174760   -1.735129
C         1.824564   -1.600910    0.803640
C         2.314400   -1.535932    2.043509
N         3.717024   -1.790729    2.300074
O         4.448764   -2.109053    1.386702
O         4.076974   -1.662334    3.458226
C         0.418334   -1.327755    0.477348
C        -0.608889   -1.713022    1.346131
C        -1.932029   -1.417462    1.027846
C        -2.218775   -0.729368   -0.137174
O        -3.520357   -0.356869   -0.409908
C        -4.147589   -0.920505   -1.462975
C        -5.438158   -0.230081   -1.765838
C        -6.259872   -0.783650   -2.752526
C        -7.468460   -0.174599   -3.076508
C        -7.858490    0.992463   -2.418008
C        -7.038310    1.549252   -1.436674
C        -5.828928    0.940729   -1.108590
O        -3.734069   -1.875417   -2.058352
C        -1.202266   -0.321746   -1.020019
O        -1.603142    0.375470   -2.088688
C        -0.655821    0.669289   -3.102222
C         0.120255   -0.644678   -0.712385
N         4.131497    1.355790    1.956974
C         5.477539    1.525128    1.948903
C         6.203028    0.797001    3.068955
O         6.071983    2.174669    1.106403
H         3.456897    3.052336    0.917986
N         0.812341    2.276714    0.882936
C        -0.555339    2.139661    1.304193
H         4.419853    1.404032   -0.642011
H         3.089583    0.291571   -0.318519
H        -0.375651   -2.259787    2.260953
H        -2.755042   -1.710839    1.681152
H        -5.927553   -1.693285   -3.256221
H        -8.108629   -0.608878   -3.847561
H        -8.805939    1.472900   -2.673798
H        -7.340519    2.465958   -0.925739
H        -5.176075    1.369809   -0.348042
H        -1.193736    1.253945   -3.857848
H        -0.285021   -0.263498   -3.560071
H         0.201067    1.245077   -2.708307
H         0.931461   -0.277072   -1.348971
H         3.666961    0.977076    2.779530
H         5.752993    1.014861    4.049279
H         7.255038    1.105682    3.064311
H         6.132137   -0.289922    2.913379
H         1.051705    2.472386   -0.113756
H        -0.735030    1.150211    1.754516
H        -1.210934    2.255133    0.429854
H        -0.832968    2.900119    2.054294
H         2.518043   -1.834180   -0.009173
H         1.780006   -1.199357    2.929018
