-1 1
 OpenBabel05232413493D

 42 41  0  0  1  0  0  0  0  0999 V2000
    2.2258    1.2385    1.9318 O   0  0  0  0  0  0  0  0  0  0  0  0
    2.1514    0.0251    1.8019 C   0  0  0  0  0  0  0  0  0  0  0  0
    2.1435   -0.6797    0.4218 C   0  0  2  0  0  0  0  0  0  0  0  0
    2.2285    0.3535   -0.7369 C   0  0  0  0  0  0  0  0  0  0  0  0
    1.3811   -0.1145   -2.2773 S   0  0  0  0  0  1  0  0  0  0  0  0
   -0.6513    1.8886   -1.5564 C   0  0  0  0  0  0  0  0  0  0  0  0
   -1.1043    1.0467   -0.4401 C   0  0  0  0  0  0  0  0  0  0  0  0
   -1.9643   -0.0277   -0.7050 C   0  0  0  0  0  0  0  0  0  0  0  0
   -2.4081   -0.8218    0.3416 C   0  0  0  0  0  0  0  0  0  0  0  0
   -3.2977   -1.9521    0.0443 N   0  0  0  0  0  0  0  0  0  0  0  0
   -3.6173   -2.1397   -1.1102 O   0  0  0  0  0  0  0  0  0  0  0  0
   -3.6662   -2.6429    0.9742 O   0  0  0  0  0  0  0  0  0  0  0  0
   -2.0244   -0.6015    1.6642 C   0  0  0  0  0  0  0  0  0  0  0  0
   -1.1683    0.4595    1.9226 C   0  0  0  0  0  0  0  0  0  0  0  0
   -0.7180    1.2785    0.8878 C   0  0  0  0  0  0  0  0  0  0  0  0
    0.0074    3.0521   -1.3992 C   0  0  0  0  0  0  0  0  0  0  0  0
    0.3331    3.8616   -2.5395 N   0  0  0  0  0  0  0  0  0  0  0  0
   -0.0761    3.5421   -3.6411 O   0  0  0  0  0  0  0  0  0  0  0  0
    1.0043    4.8599   -2.3235 O   0  0  0  0  0  0  0  0  0  0  0  0
    0.9779   -1.5245    0.2273 N   0  0  0  0  0  0  0  0  0  0  0  0
    0.8041   -2.7546    0.7340 C   0  0  0  0  0  0  0  0  0  0  0  0
   -0.3240   -3.5556    0.1192 C   0  0  0  0  0  0  0  0  0  0  0  0
    1.4738   -3.2283    1.6560 O   0  0  0  0  0  0  0  0  0  0  0  0
    3.0389   -1.3288    0.4066 H   0  0  0  0  0  0  0  0  0  0  0  0
    2.0970   -0.8277    2.8513 N   0  0  0  0  0  0  0  0  0  0  0  0
    2.0387   -0.3708    4.2117 C   0  0  0  0  0  0  0  0  0  0  0  0
    1.8230    1.3099   -0.3691 H   0  0  0  0  0  0  0  0  0  0  0  0
    3.2925    0.5476   -0.9325 H   0  0  0  0  0  0  0  0  0  0  0  0
   -2.2657   -0.2607   -1.7256 H   0  0  0  0  0  0  0  0  0  0  0  0
   -2.3860   -1.2628    2.4498 H   0  0  0  0  0  0  0  0  0  0  0  0
   -0.8237    0.6478    2.9408 H   0  0  0  0  0  0  0  0  0  0  0  0
   -0.0147    2.0760    1.1261 H   0  0  0  0  0  0  0  0  0  0  0  0
    0.5607   -1.3126   -0.7002 H   0  0  0  0  0  0  0  0  0  0  0  0
   -1.1346   -3.6558    0.8563 H   0  0  0  0  0  0  0  0  0  0  0  0
    0.0467   -4.5655   -0.1025 H   0  0  0  0  0  0  0  0  0  0  0  0
   -0.7238   -3.1017   -0.7977 H   0  0  0  0  0  0  0  0  0  0  0  0
    1.9980   -1.8268    2.6306 H   0  0  0  0  0  0  0  0  0  0  0  0
    2.1400    0.7225    4.2119 H   0  0  0  0  0  0  0  0  0  0  0  0
    2.8528   -0.8013    4.8182 H   0  0  0  0  0  0  0  0  0  0  0  0
    1.0810   -0.6388    4.6912 H   0  0  0  0  0  0  0  0  0  0  0  0
   -0.9877    1.6300   -2.5594 H   0  0  0  0  0  0  0  0  0  0  0  0
    0.4096    3.4609   -0.4756 H   0  0  0  0  0  0  0  0  0  0  0  0
  2  1  2  0  0  0  0
  2 25  1  0  0  0  0
  3 24  1  6  0  0  0
  3  2  1  0  0  0  0
  4 27  1  0  0  0  0
  4  3  1  0  0  0  0
  5  4  1  0  0  0  0
  6 16  2  0  0  0  0
  6  7  1  0  0  0  0
  7 15  1  0  0  0  0
  8  7  2  0  0  0  0
  8  9  1  0  0  0  0
  9 13  2  0  0  0  0
 10  9  1  0  0  0  0
 10 12  2  0  0  0  0
 11 10  2  0  0  0  0
 13 14  1  0  0  0  0
 13 30  1  0  0  0  0
 14 31  1  0  0  0  0
 15 32  1  0  0  0  0
 15 14  2  0  0  0  0
 16 42  1  0  0  0  0
 17 19  2  0  0  0  0
 17 16  1  0  0  0  0
 18 17  2  0  0  0  0
 20  3  1  0  0  0  0
 20 21  1  0  0  0  0
 21 23  2  0  0  0  0
 22 21  1  0  0  0  0
 22 34  1  0  0  0  0
 25 26  1  0  0  0  0
 26 38  1  0  0  0  0
 26 40  1  0  0  0  0
 26 39  1  0  0  0  0
 28  4  1  0  0  0  0
 29  8  1  0  0  0  0
 33 20  1  0  0  0  0
 35 22  1  0  0  0  0
 36 22  1  0  0  0  0
 37 25  1  0  0  0  0
 41  6  1  0  0  0  0
M  END
