42
-1 1
O         3.316991    0.903385    1.332343
C         3.214342   -0.305634    1.200207
C         3.211988   -1.003096   -0.187198
C         3.299621    0.048218   -1.334010
S         2.213777   -0.184685   -2.763802
C         0.647868    1.336176   -2.162980
C         0.032364    0.607014   -1.020653
C        -0.864213   -0.440343   -1.271030
C        -1.371965   -1.180612   -0.212282
N        -2.267710   -2.308048   -0.502201
O        -2.566668   -2.519573   -1.658483
O        -2.655655   -2.979988    0.434047
C        -1.036074   -0.918437    1.115080
C        -0.168033    0.136161    1.362431
C         0.352009    0.894286    0.313008
C         1.191458    2.607501   -1.958427
N         1.467301    3.422862   -3.055134
O         1.151667    3.050225   -4.189735
O         2.010036    4.511823   -2.846858
N         2.068707   -1.874941   -0.382521
C         1.913588   -3.109398    0.123607
C         0.747107   -3.897919   -0.431748
O         2.632808   -3.586009    1.003397
H         4.118597   -1.635395   -0.197504
N         3.130055   -1.163020    2.242361
C         3.073668   -0.713058    3.606264
H         3.089849    1.046767   -0.915746
H         4.336467    0.089565   -1.691974
H        -1.133751   -0.707424   -2.292764
H        -1.447563   -1.536286    1.911444
H         0.128806    0.368166    2.387091
H         1.059264    1.690018    0.542830
H         1.548033   -1.620467   -1.232168
H        -0.044275   -3.944547    0.331462
H         1.080635   -4.925756   -0.626352
H         0.327805   -3.463800   -1.349521
H         3.059580   -2.162537    2.020766
H         3.146980    0.382175    3.610615
H         3.904705   -1.123964    4.203149
H         2.127221   -1.009066    4.089665
H         0.130062    1.220011   -3.117358
H         1.572230    3.000430   -1.020120
