-1 1
 OpenBabel05192410563D

 40 40  0  0  1  0  0  0  0  0999 V2000
    0.9046   -1.8642   -1.5884 O   0  0  0  0  0  0  0  0  0  0  0  0
    1.4028   -1.6835   -0.4801 C   0  0  0  0  0  0  0  0  0  0  0  0
    2.3543   -0.4980   -0.2388 C   0  0  2  0  0  0  0  0  0  0  0  0
    1.7898    0.6324    0.6484 C   0  0  0  0  0  0  0  0  0  0  0  0
    1.4054    0.2064    2.3730 S   0  0  0  0  0  0  0  0  0  0  0  0
   -0.5486   -0.0183    2.4870 C   0  0  1  0  0  0  0  0  0  0  0  0
   -1.1907    0.8474    1.4438 C   0  0  0  0  0  0  0  0  0  0  0  0
   -1.4593    0.3601    0.1582 C   0  0  0  0  0  0  0  0  0  0  0  0
   -1.9969    1.1903   -0.8220 C   0  0  0  0  0  0  0  0  0  0  0  0
   -2.3155    0.5309   -2.5625 Br  0  0  0  0  0  0  0  0  0  0  0  0
   -2.2820    2.5206   -0.5244 C   0  0  0  0  0  0  0  0  0  0  0  0
   -2.7975    3.3255   -1.4554 F   0  0  0  0  0  0  0  0  0  0  0  0
   -2.0238    3.0234    0.7438 C   0  0  0  0  0  0  0  0  0  0  0  0
   -1.4775    2.1900    1.7151 C   0  0  0  0  0  0  0  0  0  0  0  0
   -1.0144   -1.3995    2.5057 C   0  0  0  0  0  3  0  0  0  0  0  0
   -0.6254   -2.1997    3.5228 N   0  0  0  0  0  0  0  0  0  0  0  0
    0.0616   -1.7166    4.4537 O   0  0  0  0  0  0  0  0  0  0  0  0
   -0.9407   -3.4153    3.5188 O   0  0  0  0  0  0  0  0  0  0  0  0
    2.6802    0.0115   -1.5501 N   0  0  0  0  0  0  0  0  0  0  0  0
    3.7618    0.7765   -1.8146 C   0  0  0  0  0  0  0  0  0  0  0  0
    3.9224    1.1850   -3.2694 C   0  0  0  0  0  0  0  0  0  0  0  0
    4.5558    1.1373   -0.9616 O   0  0  0  0  0  0  0  0  0  0  0  0
    3.2711   -0.8765    0.2430 H   0  0  0  0  0  0  0  0  0  0  0  0
    1.1965   -2.4926    0.5675 N   0  0  0  0  0  0  0  0  0  0  0  0
    0.2918   -3.6206    0.5067 C   0  0  0  0  0  0  0  0  0  0  0  0
    2.5703    1.4047    0.6929 H   0  0  0  0  0  0  0  0  0  0  0  0
    0.9187    1.0805    0.1498 H   0  0  0  0  0  0  0  0  0  0  0  0
   -1.2191   -0.6722   -0.1012 H   0  0  0  0  0  0  0  0  0  0  0  0
   -2.2532    4.0704    0.9492 H   0  0  0  0  0  0  0  0  0  0  0  0
   -1.2562    2.5890    2.7073 H   0  0  0  0  0  0  0  0  0  0  0  0
    2.0701   -0.3447   -2.2827 H   0  0  0  0  0  0  0  0  0  0  0  0
    3.2081    0.6959   -3.9457 H   0  0  0  0  0  0  0  0  0  0  0  0
    4.9484    0.9535   -3.5866 H   0  0  0  0  0  0  0  0  0  0  0  0
    3.7936    2.2748   -3.3411 H   0  0  0  0  0  0  0  0  0  0  0  0
    1.4890   -2.1526    1.4825 H   0  0  0  0  0  0  0  0  0  0  0  0
    0.8032   -4.5141    0.1110 H   0  0  0  0  0  0  0  0  0  0  0  0
   -0.5467   -3.3913   -0.1669 H   0  0  0  0  0  0  0  0  0  0  0  0
   -0.0977   -3.8276    1.5151 H   0  0  0  0  0  0  0  0  0  0  0  0
   -0.6510    0.4393    3.4807 H   0  0  0  0  0  0  0  0  0  0  0  0
   -1.5634   -1.8823    1.7035 H   0  0  0  0  0  0  0  0  0  0  0  0
  1  2  2  0  0  0  0
  2  3  1  0  0  0  0
  2 24  1  0  0  0  0
  3 23  1  1  0  0  0
  3  4  1  0  0  0  0
  4 26  1  0  0  0  0
  4  5  1  0  0  0  0
  5  6  1  0  0  0  0
  6 15  1  0  0  0  0
  6 39  1  1  0  0  0
  7 14  1  0  0  0  0
  7  6  1  0  0  0  0
  8  7  2  0  0  0  0
  9 11  2  0  0  0  0
  9  8  1  0  0  0  0
 10  9  1  0  0  0  0
 11 13  1  0  0  0  0
 12 11  1  0  0  0  0
 13 29  1  0  0  0  0
 13 14  2  0  0  0  0
 14 30  1  0  0  0  0
 15 16  1  0  0  0  0
 16 17  2  0  0  0  0
 18 16  2  0  0  0  0
 19  3  1  0  0  0  0
 20 19  1  0  0  0  0
 20 22  2  0  0  0  0
 21 20  1  0  0  0  0
 24 35  1  0  0  0  0
 25 24  1  0  0  0  0
 25 38  1  0  0  0  0
 27  4  1  0  0  0  0
 28  8  1  0  0  0  0
 31 19  1  0  0  0  0
 32 21  1  0  0  0  0
 33 21  1  0  0  0  0
 34 21  1  0  0  0  0
 36 25  1  0  0  0  0
 37 25  1  0  0  0  0
 40 15  1  0  0  0  0
M  END
