-1 1
 OpenBabel05232413493D

 40 39  0  0  1  0  0  0  0  0999 V2000
    0.9920   -1.9409   -1.4704 O   0  0  0  0  0  0  0  0  0  0  0  0
    1.4609   -1.6105   -0.3807 C   0  0  0  0  0  0  0  0  0  0  0  0
    2.3807   -0.3803   -0.2556 C   0  0  2  0  0  0  0  0  0  0  0  0
    2.0200    0.6660    0.8246 C   0  0  0  0  0  0  0  0  0  0  0  0
    1.8440    0.0997    2.5491 S   0  0  0  0  0  1  0  0  0  0  0  0
   -1.1345   -0.2779    2.5657 C   0  0  0  0  0  0  0  0  0  0  0  0
   -1.2068    0.6069    1.3990 C   0  0  0  0  0  0  0  0  0  0  0  0
   -1.3058    0.1183    0.0883 C   0  0  0  0  0  0  0  0  0  0  0  0
   -1.3470    0.9943   -0.9933 C   0  0  0  0  0  0  0  0  0  0  0  0
   -1.4345    0.3417   -2.7598 Br  0  0  0  0  0  0  0  0  0  0  0  0
   -1.2924    2.3684   -0.7729 C   0  0  0  0  0  0  0  0  0  0  0  0
   -1.3224    3.2150   -1.8008 F   0  0  0  0  0  0  0  0  0  0  0  0
   -1.1869    2.8712    0.5181 C   0  0  0  0  0  0  0  0  0  0  0  0
   -1.1396    1.9939    1.5931 C   0  0  0  0  0  0  0  0  0  0  0  0
   -1.5093   -1.5721    2.5630 C   0  0  0  0  0  0  0  0  0  0  0  0
   -1.4324   -2.3549    3.7575 N   0  0  0  0  0  0  0  0  0  0  0  0
   -1.1702   -1.8177    4.8188 O   0  0  0  0  0  0  0  0  0  0  0  0
   -1.6464   -3.5564    3.6384 O   0  0  0  0  0  0  0  0  0  0  0  0
    2.3847    0.2207   -1.5733 N   0  0  0  0  0  0  0  0  0  0  0  0
    3.3198    1.0830   -2.0280 C   0  0  0  0  0  0  0  0  0  0  0  0
    3.0922    1.5650   -3.4536 C   0  0  0  0  0  0  0  0  0  0  0  0
    4.2582    1.4897   -1.3637 O   0  0  0  0  0  0  0  0  0  0  0  0
    3.3904   -0.7630   -0.0198 H   0  0  0  0  0  0  0  0  0  0  0  0
    1.2536   -2.3089    0.7439 N   0  0  0  0  0  0  0  0  0  0  0  0
    0.4746   -3.5194    0.7376 C   0  0  0  0  0  0  0  0  0  0  0  0
    2.8185    1.4189    0.7727 H   0  0  0  0  0  0  0  0  0  0  0  0
    1.0991    1.1671    0.4899 H   0  0  0  0  0  0  0  0  0  0  0  0
   -1.3067   -0.9538   -0.1110 H   0  0  0  0  0  0  0  0  0  0  0  0
   -1.1215    3.9512    0.6569 H   0  0  0  0  0  0  0  0  0  0  0  0
   -1.0119    2.3828    2.6044 H   0  0  0  0  0  0  0  0  0  0  0  0
    1.7289   -0.2216   -2.2141 H   0  0  0  0  0  0  0  0  0  0  0  0
    2.4230    0.9128   -4.0323 H   0  0  0  0  0  0  0  0  0  0  0  0
    4.0637    1.6482   -3.9581 H   0  0  0  0  0  0  0  0  0  0  0  0
    2.6460    2.5702   -3.4141 H   0  0  0  0  0  0  0  0  0  0  0  0
    1.5100   -1.8282    1.6282 H   0  0  0  0  0  0  0  0  0  0  0  0
    1.0482   -4.3687    0.3285 H   0  0  0  0  0  0  0  0  0  0  0  0
   -0.4243   -3.4093    0.1088 H   0  0  0  0  0  0  0  0  0  0  0  0
    0.1618   -3.7648    1.7605 H   0  0  0  0  0  0  0  0  0  0  0  0
   -0.8810    0.1760    3.5230 H   0  0  0  0  0  0  0  0  0  0  0  0
   -1.8075   -2.1613    1.7003 H   0  0  0  0  0  0  0  0  0  0  0  0
  1  2  2  0  0  0  0
  2  3  1  0  0  0  0
  2 24  1  0  0  0  0
  3 23  1  1  0  0  0
  3  4  1  0  0  0  0
  4  5  1  0  0  0  0
  6 39  1  0  0  0  0
  7 14  1  0  0  0  0
  7  6  1  0  0  0  0
  8  7  2  0  0  0  0
  9 11  2  0  0  0  0
  9  8  1  0  0  0  0
 10  9  1  0  0  0  0
 11 13  1  0  0  0  0
 12 11  1  0  0  0  0
 13 29  1  0  0  0  0
 13 14  2  0  0  0  0
 14 30  1  0  0  0  0
 15  6  2  0  0  0  0
 15 16  1  0  0  0  0
 16 17  2  0  0  0  0
 18 16  2  0  0  0  0
 19  3  1  0  0  0  0
 20 19  1  0  0  0  0
 20 22  2  0  0  0  0
 21 34  1  0  0  0  0
 21 20  1  0  0  0  0
 24 35  1  0  0  0  0
 25 24  1  0  0  0  0
 25 38  1  0  0  0  0
 26  4  1  0  0  0  0
 27  4  1  0  0  0  0
 28  8  1  0  0  0  0
 31 19  1  0  0  0  0
 32 21  1  0  0  0  0
 33 21  1  0  0  0  0
 36 25  1  0  0  0  0
 37 25  1  0  0  0  0
 40 15  1  0  0  0  0
M  END
