65
-1 1
O        -9.526827    5.672730   -3.142919
C        -8.427522    5.468737   -3.647209
C        -7.156054    6.110715   -3.057707
C        -6.186028    5.072212   -2.447827
S        -5.426582    3.914390   -3.615376
C        -3.273123    4.856291   -3.653258
C        -2.859339    5.380882   -2.436926
C        -2.191022    4.538962   -1.476238
N        -1.869164    5.273199   -0.274151
C        -1.243770    4.906252    0.867450
C        -1.294915    5.766521    2.010102
C        -1.874478    7.014607    2.400625
C        -2.805955    7.852981    1.618827
C        -3.910135    7.260987    0.989275
C        -4.719505    8.000677    0.132215
C        -4.452606    9.352050   -0.088604
C        -3.391990    9.962304    0.581935
C        -2.570477    9.219534    1.428548
N        -1.449241    7.355729    3.600161
N        -0.622547    6.382378    4.033529
C         0.005117    6.434347    5.368500
C        -0.402639    7.734823    6.059971
C        -0.481941    5.228299    6.183226
C         1.529043    6.387443    5.192709
C        -0.505371    5.390934    3.104394
N         0.215427    4.261123    3.192414
C         0.115933    3.520873    2.096789
N        -0.541889    3.776466    0.965253
O        -1.906544    3.365170   -1.590794
N        -7.619099    7.071511   -2.076561
C        -7.252829    8.378365   -2.071545
C        -8.030748    9.245752   -1.096320
O        -6.332923    8.830310   -2.731944
H        -6.620397    6.658848   -3.848104
N        -8.227537    4.694718   -4.731335
C        -9.281010    3.889027   -5.291766
H        -5.361897    5.626429   -1.957231
H        -6.715539    4.520784   -1.653575
H        -2.263480    6.205304   -0.256376
H        -4.118253    6.200114    1.147679
H        -5.547364    7.505746   -0.378857
H        -5.058725    9.904490   -0.809734
H        -3.182249   11.022160    0.418128
H        -1.716790    9.683415    1.927187
H        -1.491659    7.798196    6.184279
H        -0.082164    8.612167    5.482300
H         0.073399    7.767682    7.051617
H        -1.576124    5.261212    6.295526
H        -0.027831    5.242649    7.185892
H        -0.206468    4.290122    5.682309
H         1.871322    7.248677    4.599194
H         1.828764    5.463655    4.679490
H         2.021938    6.424215    6.176309
H         0.663268    2.570118    2.112884
H        -8.539404    6.835462   -1.713390
H        -7.494809    9.265799   -0.134607
H        -9.051198    8.878948   -0.916012
H        -8.066919   10.270093   -1.487694
H        -7.249552    4.403495   -4.873642
H        -9.207922    3.870586   -6.389738
H       -10.247279    4.321612   -5.002308
H        -9.242245    2.849327   -4.923818
H        -3.067810    6.426610   -2.190350
H        -2.846686    3.898474   -3.957690
H        -3.534539    5.539222   -4.461628
