-1 1
 OpenBabel05232414493D

 65 66  0  0  1  0  0  0  0  0999 V2000
   -9.5268    5.6727   -3.1429 O   0  0  0  0  0  0  0  0  0  0  0  0
   -8.4275    5.4687   -3.6472 C   0  0  0  0  0  0  0  0  0  0  0  0
   -7.1561    6.1107   -3.0577 C   0  0  2  0  0  0  0  0  0  0  0  0
   -6.1860    5.0722   -2.4478 C   0  0  0  0  0  0  0  0  0  0  0  0
   -5.4266    3.9144   -3.6154 S   0  0  0  0  0  1  0  0  0  0  0  0
   -3.2731    4.8563   -3.6533 C   0  0  0  0  0  3  0  0  0  0  0  0
   -2.8593    5.3809   -2.4369 C   0  0  0  0  0  3  0  0  0  0  0  0
   -2.1910    4.5390   -1.4762 C   0  0  0  0  0  0  0  0  0  0  0  0
   -1.8692    5.2732   -0.2742 N   0  0  0  0  0  0  0  0  0  0  0  0
   -1.2438    4.9063    0.8675 C   0  0  0  0  0  0  0  0  0  0  0  0
   -1.2949    5.7665    2.0101 C   0  0  0  0  0  0  0  0  0  0  0  0
   -1.8745    7.0146    2.4006 C   0  0  0  0  0  0  0  0  0  0  0  0
   -2.8060    7.8530    1.6188 C   0  0  0  0  0  0  0  0  0  0  0  0
   -3.9101    7.2610    0.9893 C   0  0  0  0  0  0  0  0  0  0  0  0
   -4.7195    8.0007    0.1322 C   0  0  0  0  0  0  0  0  0  0  0  0
   -4.4526    9.3521   -0.0886 C   0  0  0  0  0  0  0  0  0  0  0  0
   -3.3920    9.9623    0.5819 C   0  0  0  0  0  0  0  0  0  0  0  0
   -2.5705    9.2195    1.4285 C   0  0  0  0  0  0  0  0  0  0  0  0
   -1.4492    7.3557    3.6002 N   0  0  0  0  0  0  0  0  0  0  0  0
   -0.6225    6.3824    4.0335 N   0  0  0  0  0  0  0  0  0  0  0  0
    0.0051    6.4343    5.3685 C   0  0  0  0  0  0  0  0  0  0  0  0
   -0.4026    7.7348    6.0600 C   0  0  0  0  0  0  0  0  0  0  0  0
   -0.4819    5.2283    6.1832 C   0  0  0  0  0  0  0  0  0  0  0  0
    1.5290    6.3874    5.1927 C   0  0  0  0  0  0  0  0  0  0  0  0
   -0.5054    5.3909    3.1044 C   0  0  0  0  0  0  0  0  0  0  0  0
    0.2154    4.2611    3.1924 N   0  0  0  0  0  0  0  0  0  0  0  0
    0.1159    3.5209    2.0968 C   0  0  0  0  0  0  0  0  0  0  0  0
   -0.5419    3.7765    0.9653 N   0  0  0  0  0  0  0  0  0  0  0  0
   -1.9065    3.3652   -1.5908 O   0  0  0  0  0  0  0  0  0  0  0  0
   -7.6191    7.0715   -2.0766 N   0  0  0  0  0  0  0  0  0  0  0  0
   -7.2528    8.3784   -2.0715 C   0  0  0  0  0  0  0  0  0  0  0  0
   -8.0307    9.2458   -1.0963 C   0  0  0  0  0  0  0  0  0  0  0  0
   -6.3329    8.8303   -2.7319 O   0  0  0  0  0  0  0  0  0  0  0  0
   -6.6204    6.6588   -3.8481 H   0  0  0  0  0  0  0  0  0  0  0  0
   -8.2275    4.6947   -4.7313 N   0  0  0  0  0  0  0  0  0  0  0  0
   -9.2810    3.8890   -5.2918 C   0  0  0  0  0  0  0  0  0  0  0  0
   -5.3619    5.6264   -1.9572 H   0  0  0  0  0  0  0  0  0  0  0  0
   -6.7155    4.5208   -1.6536 H   0  0  0  0  0  0  0  0  0  0  0  0
   -2.2635    6.2053   -0.2564 H   0  0  0  0  0  0  0  0  0  0  0  0
   -4.1183    6.2001    1.1477 H   0  0  0  0  0  0  0  0  0  0  0  0
   -5.5474    7.5057   -0.3789 H   0  0  0  0  0  0  0  0  0  0  0  0
   -5.0587    9.9045   -0.8097 H   0  0  0  0  0  0  0  0  0  0  0  0
   -3.1822   11.0222    0.4181 H   0  0  0  0  0  0  0  0  0  0  0  0
   -1.7168    9.6834    1.9272 H   0  0  0  0  0  0  0  0  0  0  0  0
   -1.4917    7.7982    6.1843 H   0  0  0  0  0  0  0  0  0  0  0  0
   -0.0822    8.6122    5.4823 H   0  0  0  0  0  0  0  0  0  0  0  0
    0.0734    7.7677    7.0516 H   0  0  0  0  0  0  0  0  0  0  0  0
   -1.5761    5.2612    6.2955 H   0  0  0  0  0  0  0  0  0  0  0  0
   -0.0278    5.2426    7.1859 H   0  0  0  0  0  0  0  0  0  0  0  0
   -0.2065    4.2901    5.6823 H   0  0  0  0  0  0  0  0  0  0  0  0
    1.8713    7.2487    4.5992 H   0  0  0  0  0  0  0  0  0  0  0  0
    1.8288    5.4637    4.6795 H   0  0  0  0  0  0  0  0  0  0  0  0
    2.0219    6.4242    6.1763 H   0  0  0  0  0  0  0  0  0  0  0  0
    0.6633    2.5701    2.1129 H   0  0  0  0  0  0  0  0  0  0  0  0
   -8.5394    6.8355   -1.7134 H   0  0  0  0  0  0  0  0  0  0  0  0
   -7.4948    9.2658   -0.1346 H   0  0  0  0  0  0  0  0  0  0  0  0
   -9.0512    8.8789   -0.9160 H   0  0  0  0  0  0  0  0  0  0  0  0
   -8.0669   10.2701   -1.4877 H   0  0  0  0  0  0  0  0  0  0  0  0
   -7.2496    4.4035   -4.8736 H   0  0  0  0  0  0  0  0  0  0  0  0
   -9.2079    3.8706   -6.3897 H   0  0  0  0  0  0  0  0  0  0  0  0
  -10.2473    4.3216   -5.0023 H   0  0  0  0  0  0  0  0  0  0  0  0
   -9.2422    2.8493   -4.9238 H   0  0  0  0  0  0  0  0  0  0  0  0
   -3.0678    6.4266   -2.1904 H   0  0  0  0  0  0  0  0  0  0  0  0
   -2.8467    3.8985   -3.9577 H   0  0  0  0  0  0  0  0  0  0  0  0
   -3.5345    5.5392   -4.4616 H   0  0  0  0  0  0  0  0  0  0  0  0
  2  1  2  0  0  0  0
  2  3  1  0  0  0  0
  3 34  1  6  0  0  0
  3  4  1  0  0  0  0
  3 30  1  0  0  0  0
  4 37  1  0  0  0  0
  4 38  1  0  0  0  0
  5  4  1  0  0  0  0
  6  7  1  0  0  0  0
  7 63  1  0  0  0  0
  7  8  1  0  0  0  0
  8  9  1  0  0  0  0
  9 39  1  0  0  0  0
  9 10  1  0  0  0  0
 10 28  2  0  0  0  0
 10 11  1  0  0  0  0
 11 12  1  0  0  0  0
 11 25  2  0  0  0  0
 12 19  2  0  0  0  0
 13 12  1  0  0  0  0
 14 40  1  0  0  0  0
 14 13  2  0  0  0  0
 15 14  1  0  0  0  0
 16 15  2  0  0  0  0
 16 17  1  0  0  0  0
 17 18  2  0  0  0  0
 18 13  1  0  0  0  0
 18 44  1  0  0  0  0
 19 20  1  0  0  0  0
 20 21  1  0  0  0  0
 21 22  1  0  0  0  0
 21 23  1  0  0  0  0
 22 45  1  0  0  0  0
 22 47  1  0  0  0  0
 23 48  1  0  0  0  0
 23 49  1  0  0  0  0
 24 21  1  0  0  0  0
 24 53  1  0  0  0  0
 25 26  1  0  0  0  0
 25 20  1  0  0  0  0
 27 54  1  0  0  0  0
 27 26  2  0  0  0  0
 28 27  1  0  0  0  0
 29  8  2  0  0  0  0
 30 31  1  0  0  0  0
 30 55  1  0  0  0  0
 31 32  1  0  0  0  0
 32 57  1  0  0  0  0
 32 56  1  0  0  0  0
 33 31  2  0  0  0  0
 35  2  1  0  0  0  0
 36 61  1  0  0  0  0
 36 62  1  0  0  0  0
 36 35  1  0  0  0  0
 41 15  1  0  0  0  0
 42 16  1  0  0  0  0
 43 17  1  0  0  0  0
 46 22  1  0  0  0  0
 50 23  1  0  0  0  0
 51 24  1  0  0  0  0
 52 24  1  0  0  0  0
 58 32  1  0  0  0  0
 59 35  1  0  0  0  0
 60 36  1  0  0  0  0
 64  6  1  0  0  0  0
 65  6  1  0  0  0  0
M  END
