65
-1 1
O        -5.386156   -0.939845   -2.810294
C        -4.542221   -0.523627   -3.604638
C        -3.761539    0.772179   -3.315639
C        -2.228323    0.601742   -3.391037
S        -1.550939    0.362299   -5.074031
C         0.253896   -2.253360   -3.364190
C         0.736544   -1.560292   -2.330429
C         1.485964   -2.226375   -1.229111
N         1.790054   -1.321138   -0.193436
C         2.437261   -1.526463    0.998287
C         2.378825   -0.530012    2.011293
C         1.795227    0.757212    2.251290
C         0.856740    1.523543    1.406350
C        -0.249187    0.893761    0.816185
C        -1.108692    1.605744   -0.018107
C        -0.888818    2.963057   -0.258379
C         0.191359    3.601047    0.352708
C         1.060913    2.889661    1.176307
N         2.227563    1.230094    3.402172
N         3.057594    0.320500    3.947421
C         3.692710    0.539286    5.264634
C         3.273986    1.910076    5.794577
C         3.220293   -0.563389    6.221361
C         5.215692    0.486939    5.085242
C         3.174732   -0.770722    3.143372
N         3.900564   -1.878407    3.360347
C         3.812751   -2.745769    2.367418
N         3.145749   -2.625230    1.213341
O         1.777870   -3.394610   -1.202510
N        -4.213068    1.195465   -2.003299
C        -4.119250    2.453621   -1.527943
C        -4.728625    2.668361   -0.151616
O        -3.542955    3.362682   -2.108419
H        -4.041289    1.532669   -4.065413
N        -4.228115   -1.127603   -4.758926
C        -4.784447   -2.398019   -5.135871
H        -1.802996    1.519843   -2.959736
H        -1.948909   -0.236547   -2.724557
H         1.396651   -0.393691   -0.310606
H        -0.443079   -0.163157    1.017122
H        -1.952455    1.099760   -0.492518
H        -1.567476    3.504411   -0.923195
H         0.366887    4.663779    0.170398
H         1.916726    3.381981    1.642720
H         2.185032    1.978182    5.916360
H         3.584520    2.714540    5.114679
H         3.753079    2.066390    6.772570
H         2.126164   -0.529232    6.332917
H         3.675533   -0.419371    7.212859
H         3.506660   -1.554008    5.842564
H         5.545486    1.269570    4.385547
H         5.527556   -0.491009    4.694305
H         5.711853    0.654825    6.053083
H         4.368591   -3.682387    2.491664
H        -4.846699    0.521141   -1.576316
H        -3.912892    2.693083    0.587712
H        -5.441872    1.884205    0.138632
H        -5.223885    3.647974   -0.134366
H        -3.367494   -0.767900   -5.228500
H        -5.058037   -2.398904   -6.202689
H        -5.682626   -2.587910   -4.533554
H        -4.072208   -3.223958   -4.965342
H         0.570250   -0.477520   -2.286014
H         0.413797   -3.335326   -3.409329
H        -0.303029   -1.729308   -4.157065
