-1 1
 OpenBabel05232414493D

 41 41  0  0  1  0  0  0  0  0999 V2000
    3.7232   -2.3551    0.4066 O   0  0  0  0  0  0  0  0  0  0  0  0
    3.5809   -1.1531    0.2710 C   0  0  0  0  0  0  0  0  0  0  0  0
    2.2526   -0.5581   -0.2156 C   0  0  2  0  0  0  0  0  0  0  0  0
    2.2436   -0.4327   -1.7492 C   0  0  0  0  0  0  0  0  0  0  0  0
    3.2851    0.9052   -2.4261 S   0  0  0  0  0  1  0  0  0  0  0  0
    1.8000    3.1201   -2.5085 C   0  0  0  0  0  3  0  0  0  0  0  0
    1.4563    2.5002   -3.8139 C   0  0  0  0  0  0  0  0  0  0  0  0
    1.9988    2.8249   -4.8536 O   0  0  0  0  0  0  0  0  0  0  0  0
    0.8807    3.2361   -1.5016 C   0  0  0  0  0  3  0  0  0  0  0  0
   -0.3444    2.4786   -1.5147 C   0  0  0  0  0  0  0  0  0  0  0  0
   -0.6025    1.6019   -2.6830 C   0  0  0  0  0  0  0  0  0  0  0  0
    0.2732    1.5810   -3.7872 C   0  0  0  0  0  0  0  0  0  0  0  0
    0.0272    0.7527   -4.8764 C   0  0  0  0  0  0  0  0  0  0  0  0
   -1.0880   -0.0859   -4.8579 C   0  0  0  0  0  0  0  0  0  0  0  0
   -1.9690   -0.0820   -3.7830 C   0  0  0  0  0  0  0  0  0  0  0  0
   -1.7468    0.7662   -2.6876 C   0  0  0  0  0  0  0  0  0  0  0  0
   -2.6134    0.7626   -1.6793 O   0  0  0  0  0  0  0  0  0  0  0  0
   -1.1597    2.5221   -0.5713 O   0  0  0  0  0  0  0  0  0  0  0  0
    1.9264    0.7208    0.3645 N   0  0  0  0  0  0  0  0  0  0  0  0
    1.4229    0.8569    1.6191 C   0  0  0  0  0  0  0  0  0  0  0  0
    1.0598    2.2795    2.0011 C   0  0  0  0  0  0  0  0  0  0  0  0
    1.2519   -0.0893    2.3664 O   0  0  0  0  0  0  0  0  0  0  0  0
    1.4957   -1.2953    0.0914 H   0  0  0  0  0  0  0  0  0  0  0  0
    4.5706   -0.2455    0.4865 N   0  0  0  0  0  0  0  0  0  0  0  0
    5.9254   -0.6529    0.7427 C   0  0  0  0  0  0  0  0  0  0  0  0
    2.5658   -1.3928   -2.1787 H   0  0  0  0  0  0  0  0  0  0  0  0
    1.2010   -0.2723   -2.0663 H   0  0  0  0  0  0  0  0  0  0  0  0
    0.7254    0.7725   -5.7139 H   0  0  0  0  0  0  0  0  0  0  0  0
   -1.2768   -0.7565   -5.7004 H   0  0  0  0  0  0  0  0  0  0  0  0
   -2.8474   -0.7295   -3.7600 H   0  0  0  0  0  0  0  0  0  0  0  0
   -2.2647    1.4253   -1.0230 H   0  0  0  0  0  0  0  0  0  0  0  0
    2.0637    1.5328   -0.2332 H   0  0  0  0  0  0  0  0  0  0  0  0
    0.1608    2.5855    1.4418 H   0  0  0  0  0  0  0  0  0  0  0  0
    1.8712    2.9804    1.7527 H   0  0  0  0  0  0  0  0  0  0  0  0
    0.8568    2.3145    3.0779 H   0  0  0  0  0  0  0  0  0  0  0  0
    4.4074    0.6752    0.0894 H   0  0  0  0  0  0  0  0  0  0  0  0
    6.3907   -0.0150    1.5107 H   0  0  0  0  0  0  0  0  0  0  0  0
    6.5481   -0.6171   -0.1682 H   0  0  0  0  0  0  0  0  0  0  0  0
    5.9038   -1.6896    1.1027 H   0  0  0  0  0  0  0  0  0  0  0  0
    2.7126    3.7183   -2.5099 H   0  0  0  0  0  0  0  0  0  0  0  0
    1.0803    3.8374   -0.6126 H   0  0  0  0  0  0  0  0  0  0  0  0
  2  1  2  0  0  0  0
  2 24  1  0  0  0  0
  3 23  1  1  0  0  0
  3  2  1  0  0  0  0
  3 19  1  0  0  0  0
  4  3  1  0  0  0  0
  5  4  1  0  0  0  0
  6  9  1  0  0  0  0
  7 12  1  0  0  0  0
  7  6  1  0  0  0  0
  8  7  2  0  0  0  0
  9 41  1  0  0  0  0
 10  9  1  0  0  0  0
 10 18  2  0  0  0  0
 11 10  1  0  0  0  0
 12 11  2  0  0  0  0
 13 14  2  0  0  0  0
 13 12  1  0  0  0  0
 14 15  1  0  0  0  0
 15 30  1  0  0  0  0
 15 16  2  0  0  0  0
 16 11  1  0  0  0  0
 16 17  1  0  0  0  0
 17 31  1  0  0  0  0
 19 20  1  0  0  0  0
 20 21  1  0  0  0  0
 20 22  2  0  0  0  0
 21 35  1  0  0  0  0
 24 25  1  0  0  0  0
 25 39  1  0  0  0  0
 25 37  1  0  0  0  0
 26  4  1  0  0  0  0
 27  4  1  0  0  0  0
 28 13  1  0  0  0  0
 29 14  1  0  0  0  0
 32 19  1  0  0  0  0
 33 21  1  0  0  0  0
 34 21  1  0  0  0  0
 36 24  1  0  0  0  0
 38 25  1  0  0  0  0
 40  6  1  0  0  0  0
M  END
