-1 1
 OpenBabel05232413493D

 43 43  0  0  1  0  0  0  0  0999 V2000
    2.4551   -1.1178   -1.8280 O   0  0  0  0  0  0  0  0  0  0  0  0
    1.3021   -1.4591   -2.0302 C   0  0  0  0  0  0  0  0  0  0  0  0
    0.2051   -0.4028   -2.2566 C   0  0  2  0  0  0  0  0  0  0  0  0
    0.5462    0.8414   -1.3911 C   0  0  0  0  0  0  0  0  0  0  0  0
   -0.8145    1.9958   -1.1051 S   0  0  0  0  0  1  0  0  0  0  0  0
   -1.6106    0.2427    1.2820 C   0  0  0  0  0  0  0  0  0  0  0  0
   -1.2893    1.6113    1.7504 C   0  0  0  0  0  0  0  0  0  0  0  0
   -2.1598    2.4171    2.0294 O   0  0  0  0  0  0  0  0  0  0  0  0
   -0.7570   -0.8039    1.3561 C   0  0  0  0  0  0  0  0  0  0  0  0
   -1.1288   -2.2078    0.9857 C   0  0  0  0  0  0  0  0  0  0  0  0
    0.6380   -0.5962    1.8117 C   0  0  0  0  0  0  0  0  0  0  0  0
    1.4053   -1.5346    1.9564 O   0  0  0  0  0  0  0  0  0  0  0  0
    1.0683    0.8094    2.0907 C   0  0  0  0  0  0  0  0  0  0  0  0
    0.1543    1.8717    2.0459 C   0  0  0  0  0  0  0  0  0  0  0  0
    0.5795    3.1678    2.3499 C   0  0  0  0  0  0  0  0  0  0  0  0
    1.9110    3.4087    2.6584 C   0  0  0  0  0  0  0  0  0  0  0  0
    2.8303    2.3516    2.6860 C   0  0  0  0  0  0  0  0  0  0  0  0
    2.4084    1.0584    2.4108 C   0  0  0  0  0  0  0  0  0  0  0  0
   -1.1609   -0.7871   -1.9496 N   0  0  0  0  0  0  0  0  0  0  0  0
   -1.9422   -1.7008   -2.5381 C   0  0  0  0  0  0  0  0  0  0  0  0
   -3.4091   -1.6242   -2.1592 C   0  0  0  0  0  0  0  0  0  0  0  0
   -1.5465   -2.5835   -3.3031 O   0  0  0  0  0  0  0  0  0  0  0  0
    0.2649   -0.1237   -3.3262 H   0  0  0  0  0  0  0  0  0  0  0  0
    0.9238   -2.7601   -2.0759 N   0  0  0  0  0  0  0  0  0  0  0  0
    1.9047   -3.7967   -1.8903 C   0  0  0  0  0  0  0  0  0  0  0  0
    0.9069    0.4709   -0.4149 H   0  0  0  0  0  0  0  0  0  0  0  0
    1.4122    1.3395   -1.8437 H   0  0  0  0  0  0  0  0  0  0  0  0
   -0.5167   -2.5558    0.1389 H   0  0  0  0  0  0  0  0  0  0  0  0
   -2.1887   -2.2727    0.7015 H   0  0  0  0  0  0  0  0  0  0  0  0
   -0.9361   -2.8930    1.8256 H   0  0  0  0  0  0  0  0  0  0  0  0
   -0.1611    3.9688    2.3201 H   0  0  0  0  0  0  0  0  0  0  0  0
    2.2449    4.4265    2.8763 H   0  0  0  0  0  0  0  0  0  0  0  0
    3.8792    2.5455    2.9241 H   0  0  0  0  0  0  0  0  0  0  0  0
    3.0960    0.2107    2.4288 H   0  0  0  0  0  0  0  0  0  0  0  0
   -1.6197    0.0031   -1.4635 H   0  0  0  0  0  0  0  0  0  0  0  0
   -3.6526   -0.7493   -1.5417 H   0  0  0  0  0  0  0  0  0  0  0  0
   -3.6771   -2.5424   -1.6160 H   0  0  0  0  0  0  0  0  0  0  0  0
   -4.0062   -1.6007   -3.0814 H   0  0  0  0  0  0  0  0  0  0  0  0
    0.0357   -2.9656   -2.5452 H   0  0  0  0  0  0  0  0  0  0  0  0
    2.6083   -3.8742   -2.7389 H   0  0  0  0  0  0  0  0  0  0  0  0
    1.3928   -4.7611   -1.7670 H   0  0  0  0  0  0  0  0  0  0  0  0
    2.4979   -3.5892   -0.9881 H   0  0  0  0  0  0  0  0  0  0  0  0
   -2.6509    0.1009    0.9772 H   0  0  0  0  0  0  0  0  0  0  0  0
  2  1  2  0  0  0  0
  3 23  1  6  0  0  0
  3  2  1  0  0  0  0
  3 19  1  0  0  0  0
  3  4  1  0  0  0  0
  4  5  1  0  0  0  0
  4 26  1  0  0  0  0
  6  9  2  0  0  0  0
  6  7  1  0  0  0  0
  7  8  2  0  0  0  0
  7 14  1  0  0  0  0
  9 11  1  0  0  0  0
 10  9  1  0  0  0  0
 10 30  1  0  0  0  0
 11 12  2  0  0  0  0
 11 13  1  0  0  0  0
 13 18  1  0  0  0  0
 14 13  2  0  0  0  0
 14 15  1  0  0  0  0
 15 16  2  0  0  0  0
 16 17  1  0  0  0  0
 16 32  1  0  0  0  0
 17 33  1  0  0  0  0
 18 34  1  0  0  0  0
 18 17  2  0  0  0  0
 19 35  1  0  0  0  0
 20 21  1  0  0  0  0
 20 19  1  0  0  0  0
 21 37  1  0  0  0  0
 21 36  1  0  0  0  0
 22 20  2  0  0  0  0
 24  2  1  0  0  0  0
 24 25  1  0  0  0  0
 25 41  1  0  0  0  0
 25 42  1  0  0  0  0
 27  4  1  0  0  0  0
 28 10  1  0  0  0  0
 29 10  1  0  0  0  0
 31 15  1  0  0  0  0
 38 21  1  0  0  0  0
 39 24  1  0  0  0  0
 40 25  1  0  0  0  0
 43  6  1  0  0  0  0
M  END
