43
-1 1
O         0.580104   -0.601229    2.594970
C        -0.435778   -0.902594    1.996210
C        -1.769526   -0.142936    2.170924
C        -1.617714    1.045551    3.116809
S        -3.080990    2.089477    3.228196
C        -3.675985    1.638161    5.435637
C        -3.022399    2.904804    5.865585
O        -3.614252    3.964679    5.943723
C        -3.228915    0.405545    5.932599
C        -4.090099   -0.827440    5.878568
C        -1.928044    0.263716    6.519520
O        -1.490367   -0.798374    6.974918
C        -1.071915    1.506857    6.584063
C        -1.586521    2.771614    6.264568
C        -0.783443    3.908830    6.376983
C         0.543204    3.787188    6.775578
C         1.062621    2.526210    7.088322
C         0.256935    1.396001    7.002214
N        -2.826840   -1.014844    2.662241
C        -3.592912   -1.787983    1.868559
C        -4.849434   -2.337675    2.508504
O        -3.314605   -2.027445    0.695596
H        -2.070343    0.208602    1.168479
N        -0.507073   -1.910364    1.087911
C         0.604866   -2.777401    0.812059
H        -1.388775    0.646433    4.124378
H        -0.739968    1.632973    2.820064
H        -3.513579   -1.705740    5.537913
H        -4.958560   -0.682994    5.215753
H        -4.473987   -1.103447    6.876732
H        -1.227181    4.877631    6.138128
H         1.178620    4.673983    6.844653
H         2.105309    2.429560    7.402793
H         0.624320    0.398782    7.252214
H        -3.159715   -0.798278    3.597065
H        -4.706509   -2.566607    3.572971
H        -5.161642   -3.237166    1.964736
H        -5.645242   -1.581293    2.428266
H        -1.420750   -2.084287    0.663064
H         0.880188   -2.757768   -0.255861
H         0.388047   -3.822406    1.091615
H         1.461792   -2.427359    1.402519
H        -4.741341    1.760464    5.225665
