-1 1
 OpenBabel05232414493D

 43 43  0  0  1  0  0  0  0  0999 V2000
    0.5801   -0.6012    2.5950 O   0  0  0  0  0  0  0  0  0  0  0  0
   -0.4358   -0.9026    1.9962 C   0  0  0  0  0  0  0  0  0  0  0  0
   -1.7695   -0.1429    2.1709 C   0  0  2  0  0  0  0  0  0  0  0  0
   -1.6177    1.0456    3.1168 C   0  0  0  0  0  0  0  0  0  0  0  0
   -3.0810    2.0895    3.2282 S   0  0  0  0  0  1  0  0  0  0  0  0
   -3.6760    1.6382    5.4356 C   0  0  0  0  0  3  0  0  0  0  0  0
   -3.0224    2.9048    5.8656 C   0  0  0  0  0  0  0  0  0  0  0  0
   -3.6143    3.9647    5.9437 O   0  0  0  0  0  0  0  0  0  0  0  0
   -3.2289    0.4055    5.9326 C   0  0  2  0  0  3  0  0  0  0  0  0
   -4.0901   -0.8274    5.8786 C   0  0  0  0  0  0  0  0  0  0  0  0
   -1.9280    0.2637    6.5195 C   0  0  0  0  0  0  0  0  0  0  0  0
   -1.4904   -0.7984    6.9749 O   0  0  0  0  0  0  0  0  0  0  0  0
   -1.0719    1.5069    6.5841 C   0  0  0  0  0  0  0  0  0  0  0  0
   -1.5865    2.7716    6.2646 C   0  0  0  0  0  0  0  0  0  0  0  0
   -0.7834    3.9088    6.3770 C   0  0  0  0  0  0  0  0  0  0  0  0
    0.5432    3.7872    6.7756 C   0  0  0  0  0  0  0  0  0  0  0  0
    1.0626    2.5262    7.0883 C   0  0  0  0  0  0  0  0  0  0  0  0
    0.2569    1.3960    7.0022 C   0  0  0  0  0  0  0  0  0  0  0  0
   -2.8268   -1.0148    2.6622 N   0  0  0  0  0  0  0  0  0  0  0  0
   -3.5929   -1.7880    1.8686 C   0  0  0  0  0  0  0  0  0  0  0  0
   -4.8494   -2.3377    2.5085 C   0  0  0  0  0  0  0  0  0  0  0  0
   -3.3146   -2.0274    0.6956 O   0  0  0  0  0  0  0  0  0  0  0  0
   -2.0703    0.2086    1.1685 H   0  0  0  0  0  0  0  0  0  0  0  0
   -0.5071   -1.9104    1.0879 N   0  0  0  0  0  0  0  0  0  0  0  0
    0.6049   -2.7774    0.8121 C   0  0  0  0  0  0  0  0  0  0  0  0
   -1.3888    0.6464    4.1244 H   0  0  0  0  0  0  0  0  0  0  0  0
   -0.7400    1.6330    2.8201 H   0  0  0  0  0  0  0  0  0  0  0  0
   -3.5136   -1.7057    5.5379 H   0  0  0  0  0  0  0  0  0  0  0  0
   -4.9586   -0.6830    5.2158 H   0  0  0  0  0  0  0  0  0  0  0  0
   -4.4740   -1.1034    6.8767 H   0  0  0  0  0  0  0  0  0  0  0  0
   -1.2272    4.8776    6.1381 H   0  0  0  0  0  0  0  0  0  0  0  0
    1.1786    4.6740    6.8447 H   0  0  0  0  0  0  0  0  0  0  0  0
    2.1053    2.4296    7.4028 H   0  0  0  0  0  0  0  0  0  0  0  0
    0.6243    0.3988    7.2522 H   0  0  0  0  0  0  0  0  0  0  0  0
   -3.1597   -0.7983    3.5971 H   0  0  0  0  0  0  0  0  0  0  0  0
   -4.7065   -2.5666    3.5730 H   0  0  0  0  0  0  0  0  0  0  0  0
   -5.1616   -3.2372    1.9647 H   0  0  0  0  0  0  0  0  0  0  0  0
   -5.6452   -1.5813    2.4283 H   0  0  0  0  0  0  0  0  0  0  0  0
   -1.4207   -2.0843    0.6631 H   0  0  0  0  0  0  0  0  0  0  0  0
    0.8802   -2.7578   -0.2559 H   0  0  0  0  0  0  0  0  0  0  0  0
    0.3880   -3.8224    1.0916 H   0  0  0  0  0  0  0  0  0  0  0  0
    1.4618   -2.4274    1.4025 H   0  0  0  0  0  0  0  0  0  0  0  0
   -4.7413    1.7605    5.2257 H   0  0  0  0  0  0  0  0  0  0  0  0
  2  3  1  0  0  0  0
  2  1  2  0  0  0  0
  3 23  1  6  0  0  0
  3 19  1  0  0  0  0
  3  4  1  0  0  0  0
  4  5  1  0  0  0  0
  4 26  1  0  0  0  0
  6  7  1  0  0  0  0
  6  9  1  0  0  0  0
  7  8  2  0  0  0  0
  7 14  1  0  0  0  0
  9 10  1  1  0  0  0
  9 11  1  0  0  0  0
 10 30  1  0  0  0  0
 11 13  1  0  0  0  0
 11 12  2  0  0  0  0
 13 18  1  0  0  0  0
 14 15  1  0  0  0  0
 14 13  2  0  0  0  0
 15 16  2  0  0  0  0
 16 32  1  0  0  0  0
 16 17  1  0  0  0  0
 17 33  1  0  0  0  0
 18 17  2  0  0  0  0
 18 34  1  0  0  0  0
 19 35  1  0  0  0  0
 20 21  1  0  0  0  0
 20 19  1  0  0  0  0
 21 36  1  0  0  0  0
 22 20  2  0  0  0  0
 24  2  1  0  0  0  0
 25 24  1  0  0  0  0
 25 41  1  0  0  0  0
 25 42  1  0  0  0  0
 27  4  1  0  0  0  0
 28 10  1  0  0  0  0
 29 10  1  0  0  0  0
 31 15  1  0  0  0  0
 37 21  1  0  0  0  0
 38 21  1  0  0  0  0
 39 24  1  0  0  0  0
 40 25  1  0  0  0  0
 43  6  1  0  0  0  0
M  END
