-1 1
 OpenBabel05232414493D

 42 42  0  0  1  0  0  0  0  0999 V2000
    3.1310   -2.4405   -0.1647 O   0  0  0  0  0  0  0  0  0  0  0  0
    2.6637   -1.3141   -0.0451 C   0  0  0  0  0  0  0  0  0  0  0  0
    3.4876   -0.0838   -0.4739 C   0  0  2  0  0  0  0  0  0  0  0  0
    3.3814    1.1732    0.3979 C   0  0  0  0  0  0  0  0  0  0  0  0
    1.8095    2.0685    0.3502 S   0  0  0  0  0  1  0  0  0  0  0  0
    1.5819    2.3240    2.6307 C   0  0  0  0  0  3  0  0  0  0  0  0
    0.6902    1.1685    2.9708 C   0  0  0  0  0  0  0  0  0  0  0  0
   -0.6250    0.8910    2.6369 C   0  0  0  0  0  0  0  0  0  0  0  0
   -1.2000   -0.3088    3.0929 C   0  0  0  0  0  0  0  0  0  0  0  0
   -2.6089   -0.6052    2.6769 C   0  0  0  0  0  0  0  0  0  0  0  0
   -2.9351   -1.9369    2.6108 N   0  0  0  0  0  0  0  0  0  0  0  0
   -3.4184    0.2598    2.4038 O   0  0  0  0  0  0  0  0  0  0  0  0
   -0.4606   -1.1885    3.8951 C   0  0  0  0  0  0  0  0  0  0  0  0
    0.8634   -0.8964    4.2379 C   0  0  0  0  0  0  0  0  0  0  0  0
    1.4212    0.2774    3.7637 C   0  0  0  0  0  0  0  0  0  0  0  0
    2.7937    0.8693    4.0250 C   0  0  0  0  0  0  0  0  0  0  0  0
    3.6407    0.3398    4.7354 O   0  0  0  0  0  0  0  0  0  0  0  0
    2.7854    2.1308    3.3319 C   0  0  0  0  0  3  0  0  0  0  0  0
    3.2057    0.2404   -1.8632 N   0  0  0  0  0  0  0  0  0  0  0  0
    3.7113   -0.3433   -2.9865 C   0  0  0  0  0  0  0  0  0  0  0  0
    4.8198   -1.3591   -2.7853 C   0  0  0  0  0  0  0  0  0  0  0  0
    3.3035   -0.0431   -4.0953 O   0  0  0  0  0  0  0  0  0  0  0  0
    4.5277   -0.4322   -0.4023 H   0  0  0  0  0  0  0  0  0  0  0  0
    1.4050   -1.0877    0.3754 N   0  0  0  0  0  0  0  0  0  0  0  0
    0.5263   -2.1794    0.7000 C   0  0  0  0  0  0  0  0  0  0  0  0
    3.5759    0.9135    1.4579 H   0  0  0  0  0  0  0  0  0  0  0  0
    4.1914    1.8504    0.0871 H   0  0  0  0  0  0  0  0  0  0  0  0
   -1.2203    1.5637    2.0160 H   0  0  0  0  0  0  0  0  0  0  0  0
   -2.2117   -2.6398    2.5594 H   0  0  0  0  0  0  0  0  0  0  0  0
   -3.8403   -2.1571    2.2170 H   0  0  0  0  0  0  0  0  0  0  0  0
   -0.9287   -2.0993    4.2783 H   0  0  0  0  0  0  0  0  0  0  0  0
    1.4548   -1.5572    4.8760 H   0  0  0  0  0  0  0  0  0  0  0  0
    2.4401    0.8921   -2.0206 H   0  0  0  0  0  0  0  0  0  0  0  0
    5.7131   -0.8718   -2.3631 H   0  0  0  0  0  0  0  0  0  0  0  0
    5.0710   -1.7823   -3.7646 H   0  0  0  0  0  0  0  0  0  0  0  0
    4.5087   -2.1479   -2.0851 H   0  0  0  0  0  0  0  0  0  0  0  0
    1.1022   -0.1149    0.4867 H   0  0  0  0  0  0  0  0  0  0  0  0
    0.6387   -2.9834   -0.0425 H   0  0  0  0  0  0  0  0  0  0  0  0
   -0.5116   -1.8203    0.7000 H   0  0  0  0  0  0  0  0  0  0  0  0
    0.7465   -2.6025    1.6946 H   0  0  0  0  0  0  0  0  0  0  0  0
    1.1463    3.3096    2.4630 H   0  0  0  0  0  0  0  0  0  0  0  0
    3.6100    2.8413    3.3725 H   0  0  0  0  0  0  0  0  0  0  0  0
  1  2  2  0  0  0  0
  2 24  1  0  0  0  0
  3 23  1  1  0  0  0
  3  2  1  0  0  0  0
  3  4  1  0  0  0  0
  4 26  1  0  0  0  0
  5  4  1  0  0  0  0
  6  7  1  0  0  0  0
  6 18  1  0  0  0  0
  7 15  1  0  0  0  0
  8  7  2  0  0  0  0
  8  9  1  0  0  0  0
  9 13  2  0  0  0  0
 10  9  1  0  0  0  0
 11 10  1  0  0  0  0
 12 10  2  0  0  0  0
 13 14  1  0  0  0  0
 13 31  1  0  0  0  0
 14 32  1  0  0  0  0
 15 16  1  0  0  0  0
 15 14  2  0  0  0  0
 16 17  2  0  0  0  0
 18 42  1  0  0  0  0
 18 16  1  0  0  0  0
 19  3  1  0  0  0  0
 20 21  1  0  0  0  0
 20 19  1  0  0  0  0
 21 34  1  0  0  0  0
 21 36  1  0  0  0  0
 22 20  2  0  0  0  0
 24 37  1  0  0  0  0
 24 25  1  0  0  0  0
 25 40  1  0  0  0  0
 27  4  1  0  0  0  0
 28  8  1  0  0  0  0
 29 11  1  0  0  0  0
 30 11  1  0  0  0  0
 33 19  1  0  0  0  0
 35 21  1  0  0  0  0
 38 25  1  0  0  0  0
 39 25  1  0  0  0  0
 41  6  1  0  0  0  0
M  END
