42
-1 1
O         1.758282   -2.457676   -1.570931
C         1.299834   -1.349641   -1.324015
C         2.077189   -0.090496   -1.755863
C         2.082282    1.098594   -0.790540
S         0.561423    2.089379   -0.720637
C         0.235237    2.194560    1.208724
C        -0.726454    1.106167    1.635603
C        -2.012398    0.818324    1.210261
C        -2.688772   -0.276495    1.780297
C        -4.056238   -0.593646    1.262510
N        -4.459311   -1.898201    1.414646
O        -4.776237    0.230014    0.730181
C        -2.073366   -1.030755    2.790317
C        -0.778470   -0.728914    3.218990
C        -0.111895    0.332688    2.623698
C         1.267731    0.883857    2.932698
O         1.998045    0.397811    3.805276
C         1.406017    1.994860    2.070005
N         1.670453    0.319554   -3.089973
C         2.081282   -0.192642   -4.288380
C         3.232364   -1.178230   -4.249307
O         1.554321    0.148342   -5.331755
H         3.115900   -0.444267   -1.808769
N         0.101717   -1.151949   -0.741995
C        -0.725147   -2.242261   -0.291791
H         2.278445    0.772701    0.248170
H         2.907537    1.762716   -1.084892
H        -2.513980    1.403955    0.435717
H        -3.779366   -2.626896    1.576686
H        -5.326776   -2.151849    0.960789
H        -2.620920   -1.849498    3.266208
H        -0.281158   -1.289818    4.014154
H         0.856400    0.926198   -3.149861
H         4.143449   -0.692874   -3.865036
H         3.413826   -1.524981   -5.272891
H         2.998373   -2.023874   -3.586201
H        -0.187917   -0.195275   -0.544539
H        -0.393430   -3.158835   -0.796172
H        -1.779767   -2.045648   -0.535509
H        -0.643877   -2.381587    0.798059
H        -0.232786    3.192004    1.224107
H         2.261535    2.670876    2.084963
