-1 1
 OpenBabel05232413493D

 34 33  0  0  1  0  0  0  0  0999 V2000
    1.5444    0.5508   -3.0213 O   0  0  0  0  0  0  0  0  0  0  0  0
    1.5700   -0.5102   -2.4222 C   0  0  0  0  0  0  0  0  0  0  0  0
    0.3275   -1.0792   -1.7013 C   0  0  2  0  0  0  0  0  0  0  0  0
   -0.8425   -0.0919   -1.7823 C   0  0  0  0  0  0  0  0  0  0  0  0
   -2.3062   -0.5709   -0.8395 S   0  0  0  0  0  1  0  0  0  0  0  0
   -1.2380    0.5451    2.0123 C   0  0  0  0  0  0  0  0  0  0  0  0
   -0.1168    1.2451    1.7785 C   0  0  0  0  0  0  0  0  0  0  0  0
    1.3822    0.8479    2.5801 Cl  0  0  0  0  0  0  0  0  0  0  0  0
   -0.0604    2.4077    0.8301 C   0  0  0  0  0  0  0  0  0  0  0  0
    0.9475    3.0796    0.7034 O   0  0  0  0  0  0  0  0  0  0  0  0
   -1.3026    2.6541    0.0961 C   0  0  0  0  0  0  0  0  0  0  0  0
   -2.4411    1.9493    0.3186 C   0  0  0  0  0  0  0  0  0  0  0  0
   -2.5417    0.9592    1.4150 C   0  0  0  0  0  0  0  0  0  0  0  0
   -3.5940    0.6229    1.9310 O   0  0  0  0  0  0  0  0  0  0  0  0
    0.5744   -1.4010   -0.3029 N   0  0  0  0  0  0  0  0  0  0  0  0
    1.1338   -2.5478    0.1358 C   0  0  0  0  0  0  0  0  0  0  0  0
    0.8808   -2.8539    1.5968 C   0  0  0  0  0  0  0  0  0  0  0  0
    1.7964   -3.2976   -0.5779 O   0  0  0  0  0  0  0  0  0  0  0  0
    0.0595   -2.0153   -2.2258 H   0  0  0  0  0  0  0  0  0  0  0  0
    2.6584   -1.3169   -2.3671 N   0  0  0  0  0  0  0  0  0  0  0  0
    3.9183   -0.9466   -2.9497 C   0  0  0  0  0  0  0  0  0  0  0  0
   -0.4883    0.8939   -1.4162 H   0  0  0  0  0  0  0  0  0  0  0  0
   -1.0873    0.0628   -2.8417 H   0  0  0  0  0  0  0  0  0  0  0  0
   -1.2523    3.4436   -0.6561 H   0  0  0  0  0  0  0  0  0  0  0  0
   -3.3748    2.1865   -0.1922 H   0  0  0  0  0  0  0  0  0  0  0  0
   -0.1238   -0.9802    0.3108 H   0  0  0  0  0  0  0  0  0  0  0  0
    1.1126   -1.9810    2.2246 H   0  0  0  0  0  0  0  0  0  0  0  0
    1.4995   -3.7076    1.8964 H   0  0  0  0  0  0  0  0  0  0  0  0
   -0.1820   -3.1028    1.7402 H   0  0  0  0  0  0  0  0  0  0  0  0
    2.5617   -2.1910   -1.8432 H   0  0  0  0  0  0  0  0  0  0  0  0
    4.7148   -0.8868   -2.1892 H   0  0  0  0  0  0  0  0  0  0  0  0
    3.8000    0.0413   -3.4140 H   0  0  0  0  0  0  0  0  0  0  0  0
    4.2365   -1.6646   -3.7248 H   0  0  0  0  0  0  0  0  0  0  0  0
   -1.2740   -0.2768    2.7301 H   0  0  0  0  0  0  0  0  0  0  0  0
  1  2  2  0  0  0  0
  2 20  1  0  0  0  0
  2  3  1  0  0  0  0
  3 19  1  6  0  0  0
  3 15  1  0  0  0  0
  4  3  1  0  0  0  0
  4 22  1  0  0  0  0
  4  5  1  0  0  0  0
  6 34  1  0  0  0  0
  7  6  2  0  0  0  0
  7  8  1  0  0  0  0
  9  7  1  0  0  0  0
 10  9  2  0  0  0  0
 11 12  2  0  0  0  0
 11  9  1  0  0  0  0
 12 13  1  0  0  0  0
 13 14  2  0  0  0  0
 13  6  1  0  0  0  0
 15 16  1  0  0  0  0
 15 26  1  0  0  0  0
 16 17  1  0  0  0  0
 17 29  1  0  0  0  0
 17 28  1  0  0  0  0
 17 27  1  0  0  0  0
 18 16  2  0  0  0  0
 20 30  1  0  0  0  0
 21 20  1  0  0  0  0
 21 31  1  0  0  0  0
 23  4  1  0  0  0  0
 24 11  1  0  0  0  0
 25 12  1  0  0  0  0
 32 21  1  0  0  0  0
 33 21  1  0  0  0  0
M  END
