34
-1 1
O         1.544396    0.550761   -3.021265
C         1.570020   -0.510168   -2.422175
C         0.327517   -1.079174   -1.701287
C        -0.842547   -0.091917   -1.782262
S        -2.306194   -0.570948   -0.839487
C        -1.238019    0.545065    2.012300
C        -0.116763    1.245054    1.778455
Cl         1.382244    0.847917    2.580081
C        -0.060444    2.407664    0.830062
O         0.947523    3.079630    0.703442
C        -1.302644    2.654133    0.096053
C        -2.441136    1.949267    0.318568
C        -2.541700    0.959157    1.414956
O        -3.594046    0.622897    1.930979
N         0.574437   -1.401019   -0.302878
C         1.133751   -2.547750    0.135790
C         0.880849   -2.853936    1.596783
O         1.796369   -3.297574   -0.577886
H         0.059476   -2.015297   -2.225779
N         2.658374   -1.316886   -2.367115
C         3.918279   -0.946562   -2.949655
H        -0.488279    0.893906   -1.416172
H        -1.087295    0.062779   -2.841666
H        -1.252325    3.443635   -0.656140
H        -3.374778    2.186525   -0.192232
H        -0.123837   -0.980167    0.310809
H         1.112636   -1.981029    2.224607
H         1.499499   -3.707623    1.896428
H        -0.182025   -3.102818    1.740227
H         2.561735   -2.191003   -1.843197
H         4.714756   -0.886755   -2.189156
H         3.800027    0.041297   -3.413971
H         4.236464   -1.664603   -3.724787
H        -1.274024   -0.276774    2.730104
