-1 1
 OpenBabel05232414493D

 38 38  0  0  1  0  0  0  0  0999 V2000
    3.4359    4.8398    1.4269 O   0  0  0  0  0  0  0  0  0  0  0  0
    2.2492    4.5352    1.4292 C   0  0  0  0  0  0  0  0  0  0  0  0
    1.6946    3.5302    0.4010 C   0  0  2  0  0  0  0  0  0  0  0  0
    1.0830    2.2282    0.9649 C   0  0  0  0  0  0  0  0  0  0  0  0
   -0.3483    2.3918    2.0488 S   0  0  0  0  0  0  0  0  0  0  0  0
    0.4232    1.4771    3.8336 C   0  0  1  0  0  0  0  0  0  0  0  0
    1.2162    0.3247    3.5766 C   0  0  1  0  0  3  0  0  0  0  0  0
    0.5324   -0.8449    3.3166 O   0  0  0  0  0  0  0  0  0  0  0  0
    0.7490   -1.3839    2.0367 C   0  0  0  0  0  0  0  0  0  0  0  0
    2.6289    0.3808    3.4946 C   0  0  0  0  0  0  0  0  0  0  0  0
    3.4008   -0.5600    3.2295 O   0  0  0  0  0  0  0  0  0  0  0  0
    3.2259    1.7253    3.8037 C   0  0  0  0  0  0  0  0  0  0  0  0
    2.5347    2.7926    4.2374 C   0  0  0  0  0  0  0  0  0  0  0  0
    1.0792    2.6802    4.4567 C   0  0  0  0  0  0  0  0  0  0  0  0
    0.4538    3.5065    5.1009 O   0  0  0  0  0  0  0  0  0  0  0  0
    2.7943    3.2227   -0.4825 N   0  0  0  0  0  0  0  0  0  0  0  0
    2.6364    2.7783   -1.7487 C   0  0  0  0  0  0  0  0  0  0  0  0
    3.9305    2.5232   -2.5034 C   0  0  0  0  0  0  0  0  0  0  0  0
    1.5481    2.5600   -2.2548 O   0  0  0  0  0  0  0  0  0  0  0  0
    0.9092    4.0438   -0.1794 H   0  0  0  0  0  0  0  0  0  0  0  0
    1.3337    5.0748    2.2564 N   0  0  0  0  0  0  0  0  0  0  0  0
    1.6847    5.9854    3.3195 C   0  0  0  0  0  0  0  0  0  0  0  0
    0.7994    1.6248    0.0916 H   0  0  0  0  0  0  0  0  0  0  0  0
    1.8515    1.6543    1.5158 H   0  0  0  0  0  0  0  0  0  0  0  0
    0.1295   -2.2906    1.9555 H   0  0  0  0  0  0  0  0  0  0  0  0
    1.8090   -1.6487    1.8930 H   0  0  0  0  0  0  0  0  0  0  0  0
    0.4382   -0.6799    1.2423 H   0  0  0  0  0  0  0  0  0  0  0  0
    4.3127    1.7670    3.6802 H   0  0  0  0  0  0  0  0  0  0  0  0
    3.0179    3.7342    4.5065 H   0  0  0  0  0  0  0  0  0  0  0  0
    3.6988    3.5164   -0.1235 H   0  0  0  0  0  0  0  0  0  0  0  0
    4.1385    1.4428   -2.4860 H   0  0  0  0  0  0  0  0  0  0  0  0
    4.7939    3.0516   -2.0757 H   0  0  0  0  0  0  0  0  0  0  0  0
    3.7915    2.8216   -3.5506 H   0  0  0  0  0  0  0  0  0  0  0  0
    0.4376    4.5830    2.3086 H   0  0  0  0  0  0  0  0  0  0  0  0
    1.2215    6.9744    3.1660 H   0  0  0  0  0  0  0  0  0  0  0  0
    2.7755    6.1086    3.3259 H   0  0  0  0  0  0  0  0  0  0  0  0
    1.3510    5.5783    4.2858 H   0  0  0  0  0  0  0  0  0  0  0  0
   -0.5697    1.2845    4.2515 H   0  0  0  0  0  0  0  0  0  0  0  0
  1  2  2  0  0  0  0
  2 21  1  0  0  0  0
  3 20  1  6  0  0  0
  3  4  1  0  0  0  0
  3  2  1  0  0  0  0
  4 24  1  0  0  0  0
  4  5  1  0  0  0  0
  5  6  1  0  0  0  0
  6 38  1  1  0  0  0
  6 14  1  0  0  0  0
  7  8  1  6  0  0  0
  7  6  1  0  0  0  0
  9  8  1  0  0  0  0
 10  7  1  0  0  0  0
 10 12  1  0  0  0  0
 11 10  2  0  0  0  0
 12 13  2  0  0  0  0
 13 14  1  0  0  0  0
 13 29  1  0  0  0  0
 14 15  2  0  0  0  0
 16 30  1  0  0  0  0
 16  3  1  0  0  0  0
 17 16  1  0  0  0  0
 18 31  1  0  0  0  0
 18 32  1  0  0  0  0
 18 17  1  0  0  0  0
 19 17  2  0  0  0  0
 21 34  1  0  0  0  0
 21 22  1  0  0  0  0
 22 36  1  0  0  0  0
 22 37  1  0  0  0  0
 23  4  1  0  0  0  0
 25  9  1  0  0  0  0
 26  9  1  0  0  0  0
 27  9  1  0  0  0  0
 28 12  1  0  0  0  0
 33 18  1  0  0  0  0
 35 22  1  0  0  0  0
M  END
