-1 1
 OpenBabel05192410563D

 38 38  0  0  1  0  0  0  0  0999 V2000
    1.7479    2.5302   -0.6422 O   0  0  0  0  0  0  0  0  0  0  0  0
    0.5754    2.1808   -0.5851 C   0  0  0  0  0  0  0  0  0  0  0  0
    0.0150    1.1544   -1.5879 C   0  0  2  0  0  0  0  0  0  0  0  0
   -0.4876   -0.1738   -0.9840 C   0  0  0  0  0  0  0  0  0  0  0  0
   -1.9717   -0.0703    0.0467 S   0  0  0  0  0  0  0  0  0  0  0  0
   -1.3427   -0.8236    1.7601 C   0  0  1  0  0  0  0  0  0  0  0  0
   -0.5611   -2.0431    1.6062 C   0  0  1  0  0  3  0  0  0  0  0  0
   -1.3016   -3.1566    1.2624 O   0  0  0  0  0  0  0  0  0  0  0  0
   -0.8885   -3.8036    0.0858 C   0  0  0  0  0  0  0  0  0  0  0  0
    0.8358   -2.0700    1.7041 C   0  0  0  0  0  0  0  0  0  0  0  0
    1.6018   -3.0528    1.5501 O   0  0  0  0  0  0  0  0  0  0  0  0
    1.4497   -0.7508    2.0698 C   0  0  0  0  0  0  0  0  0  0  0  0
    0.7834    0.3709    2.4135 C   0  0  0  0  0  0  0  0  0  0  0  0
   -0.6816    0.3519    2.4584 C   0  0  0  0  0  0  0  0  0  0  0  0
   -1.3415    1.2265    2.9992 O   0  0  0  0  0  0  0  0  0  0  0  0
    1.0792    0.9019   -2.5293 N   0  0  0  0  0  0  0  0  0  0  0  0
    0.8715    0.4450   -3.7845 C   0  0  0  0  0  0  0  0  0  0  0  0
    2.1297    0.2566   -4.6147 C   0  0  0  0  0  0  0  0  0  0  0  0
   -0.2322    0.1673   -4.2231 O   0  0  0  0  0  0  0  0  0  0  0  0
   -0.8267    1.6236   -2.1255 H   0  0  0  0  0  0  0  0  0  0  0  0
   -0.3147    2.6789    0.2927 N   0  0  0  0  0  0  0  0  0  0  0  0
    0.0591    3.5980    1.3414 C   0  0  0  0  0  0  0  0  0  0  0  0
   -0.7086   -0.8351   -1.8325 H   0  0  0  0  0  0  0  0  0  0  0  0
    0.3013   -0.6593   -0.3851 H   0  0  0  0  0  0  0  0  0  0  0  0
   -1.5514   -4.6706   -0.0608 H   0  0  0  0  0  0  0  0  0  0  0  0
    0.1584   -4.1373    0.1694 H   0  0  0  0  0  0  0  0  0  0  0  0
   -0.9864   -3.1405   -0.7953 H   0  0  0  0  0  0  0  0  0  0  0  0
    2.5448   -0.7740    2.0840 H   0  0  0  0  0  0  0  0  0  0  0  0
    1.2922    1.2816    2.7384 H   0  0  0  0  0  0  0  0  0  0  0  0
    1.9856    1.2435   -2.2203 H   0  0  0  0  0  0  0  0  0  0  0  0
    2.3936   -0.8117   -4.6130 H   0  0  0  0  0  0  0  0  0  0  0  0
    2.9885    0.8292   -4.2374 H   0  0  0  0  0  0  0  0  0  0  0  0
    1.9138    0.5470   -5.6510 H   0  0  0  0  0  0  0  0  0  0  0  0
   -1.2064    2.1871    0.3672 H   0  0  0  0  0  0  0  0  0  0  0  0
   -0.3365    4.6097    1.1492 H   0  0  0  0  0  0  0  0  0  0  0  0
    1.1545    3.6567    1.3826 H   0  0  0  0  0  0  0  0  0  0  0  0
   -0.3315    3.2314    2.3015 H   0  0  0  0  0  0  0  0  0  0  0  0
   -2.3321   -0.9978    2.2055 H   0  0  0  0  0  0  0  0  0  0  0  0
  1  2  2  0  0  0  0
  2 21  1  0  0  0  0
  3 20  1  6  0  0  0
  3  4  1  0  0  0  0
  3  2  1  0  0  0  0
  4 24  1  0  0  0  0
  4  5  1  0  0  0  0
  5  6  1  0  0  0  0
  6 38  1  1  0  0  0
  6 14  1  0  0  0  0
  7  8  1  6  0  0  0
  7 10  1  0  0  0  0
  7  6  1  0  0  0  0
  9 26  1  0  0  0  0
  9  8  1  0  0  0  0
 10 12  1  0  0  0  0
 11 10  2  0  0  0  0
 12 28  1  0  0  0  0
 12 13  2  0  0  0  0
 13 14  1  0  0  0  0
 13 29  1  0  0  0  0
 14 15  2  0  0  0  0
 16 30  1  0  0  0  0
 16  3  1  0  0  0  0
 17 16  1  0  0  0  0
 18 31  1  0  0  0  0
 18 32  1  0  0  0  0
 18 17  1  0  0  0  0
 19 17  2  0  0  0  0
 21 34  1  0  0  0  0
 21 22  1  0  0  0  0
 22 36  1  0  0  0  0
 22 37  1  0  0  0  0
 23  4  1  0  0  0  0
 25  9  1  0  0  0  0
 27  9  1  0  0  0  0
 33 18  1  0  0  0  0
 35 22  1  0  0  0  0
M  END
