-1 1
 OpenBabel05232413493D

 38 37  0  0  1  0  0  0  0  0999 V2000
    1.7058    2.4225   -0.4534 O   0  0  0  0  0  0  0  0  0  0  0  0
    0.5016    2.1850   -0.5295 C   0  0  0  0  0  0  0  0  0  0  0  0
   -0.0451    1.2025   -1.5839 C   0  0  2  0  0  0  0  0  0  0  0  0
   -0.8255   -0.0188   -1.0374 C   0  0  0  0  0  0  0  0  0  0  0  0
   -2.2796    0.3122   -0.0146 S   0  0  0  0  0  1  0  0  0  0  0  0
   -1.0699   -1.2082    2.2649 C   0  0  0  0  0  0  0  0  0  0  0  0
   -0.3085   -2.1515    1.6663 C   0  0  0  0  0  0  0  0  0  0  0  0
   -0.8103   -3.3856    1.3996 O   0  0  0  0  0  0  0  0  0  0  0  0
   -1.0885   -3.6121    0.0310 C   0  0  0  0  0  0  0  0  0  0  0  0
    1.0847   -1.8687    1.2461 C   0  0  0  0  0  0  0  0  0  0  0  0
    1.8045   -2.7115    0.7341 O   0  0  0  0  0  0  0  0  0  0  0  0
    1.5706   -0.4836    1.4894 C   0  0  0  0  0  0  0  0  0  0  0  0
    0.8287    0.4358    2.1208 C   0  0  0  0  0  0  0  0  0  0  0  0
   -0.5227    0.1124    2.6528 C   0  0  0  0  0  0  0  0  0  0  0  0
   -1.0880    0.8653    3.4272 O   0  0  0  0  0  0  0  0  0  0  0  0
    1.1034    0.7846   -2.3563 N   0  0  0  0  0  0  0  0  0  0  0  0
    1.0408    0.2829   -3.6080 C   0  0  0  0  0  0  0  0  0  0  0  0
    2.3882   -0.0792   -4.2157 C   0  0  0  0  0  0  0  0  0  0  0  0
    0.0000    0.0916   -4.2149 O   0  0  0  0  0  0  0  0  0  0  0  0
   -0.7372    1.7623   -2.2363 H   0  0  0  0  0  0  0  0  0  0  0  0
   -0.4351    2.7623    0.2414 N   0  0  0  0  0  0  0  0  0  0  0  0
   -0.1133    3.6267    1.3478 C   0  0  0  0  0  0  0  0  0  0  0  0
   -1.1130   -0.5999   -1.9257 H   0  0  0  0  0  0  0  0  0  0  0  0
   -0.1102   -0.6522   -0.4759 H   0  0  0  0  0  0  0  0  0  0  0  0
   -1.5490   -4.6071   -0.0408 H   0  0  0  0  0  0  0  0  0  0  0  0
   -0.1654   -3.5998   -0.5707 H   0  0  0  0  0  0  0  0  0  0  0  0
   -1.7914   -2.8545   -0.3557 H   0  0  0  0  0  0  0  0  0  0  0  0
    2.5724   -0.2596    1.1157 H   0  0  0  0  0  0  0  0  0  0  0  0
    1.2069    1.4415    2.3095 H   0  0  0  0  0  0  0  0  0  0  0  0
    1.9882    1.0593   -1.9373 H   0  0  0  0  0  0  0  0  0  0  0  0
    2.5331   -1.1663   -4.1239 H   0  0  0  0  0  0  0  0  0  0  0  0
    3.2348    0.4269   -3.7306 H   0  0  0  0  0  0  0  0  0  0  0  0
    2.3694    0.1682   -5.2851 H   0  0  0  0  0  0  0  0  0  0  0  0
   -1.3458    2.2685    0.2464 H   0  0  0  0  0  0  0  0  0  0  0  0
   -0.6231    4.5996    1.2519 H   0  0  0  0  0  0  0  0  0  0  0  0
    0.9713    3.8005    1.3577 H   0  0  0  0  0  0  0  0  0  0  0  0
   -0.4199    3.1647    2.3006 H   0  0  0  0  0  0  0  0  0  0  0  0
   -2.0879   -1.4377    2.5768 H   0  0  0  0  0  0  0  0  0  0  0  0
  2  1  2  0  0  0  0
  2 21  1  0  0  0  0
  3 20  1  6  0  0  0
  3  4  1  0  0  0  0
  3  2  1  0  0  0  0
  4 24  1  0  0  0  0
  4  5  1  0  0  0  0
  6 38  1  0  0  0  0
  6 14  1  0  0  0  0
  7  6  2  0  0  0  0
  8  7  1  0  0  0  0
  9  8  1  0  0  0  0
 10 12  1  0  0  0  0
 10  7  1  0  0  0  0
 11 10  2  0  0  0  0
 12 13  2  0  0  0  0
 13 29  1  0  0  0  0
 13 14  1  0  0  0  0
 14 15  2  0  0  0  0
 16 30  1  0  0  0  0
 16  3  1  0  0  0  0
 17 16  1  0  0  0  0
 18 31  1  0  0  0  0
 18 32  1  0  0  0  0
 18 17  1  0  0  0  0
 19 17  2  0  0  0  0
 21 34  1  0  0  0  0
 21 22  1  0  0  0  0
 22 36  1  0  0  0  0
 22 37  1  0  0  0  0
 23  4  1  0  0  0  0
 25  9  1  0  0  0  0
 26  9  1  0  0  0  0
 27  9  1  0  0  0  0
 28 12  1  0  0  0  0
 33 18  1  0  0  0  0
 35 22  1  0  0  0  0
M  END
