-1 1
 OpenBabel05232414493D

 51 50  0  0  1  0  0  0  0  0999 V2000
    5.8483   -1.6495    0.5714 O   0  0  0  0  0  0  0  0  0  0  0  0
    4.8573   -1.3698    1.2180 C   0  0  0  0  0  0  0  0  0  0  0  0
    3.5349   -0.8865    0.5948 C   0  0  2  0  0  0  0  0  0  0  0  0
    2.2597   -1.6351    1.0301 C   0  0  0  0  0  0  0  0  0  0  0  0
    0.7525   -0.7713    0.5072 S   0  0  0  0  0  1  0  0  0  0  0  0
    0.2443    0.2541    2.8673 C   0  0  0  0  0  3  0  0  0  0  0  0
   -1.1244    0.6101    2.4363 C   0  0  0  0  0  0  0  0  0  0  0  0
   -2.0647   -0.3838    2.1415 C   0  0  0  0  0  0  0  0  0  0  0  0
   -3.3496   -0.0596    1.7138 C   0  0  0  0  0  0  0  0  0  0  0  0
   -4.3244   -1.1132    1.2721 C   0  0  0  0  0  0  0  0  0  0  0  0
   -3.7545   -2.2699    0.8268 N   0  0  0  0  0  0  0  0  0  0  0  0
   -5.5309   -0.9464    1.2908 O   0  0  0  0  0  0  0  0  0  0  0  0
   -3.7374    1.2840    1.6357 C   0  0  0  0  0  0  0  0  0  0  0  0
   -2.8157    2.2808    1.9335 C   0  0  0  0  0  0  0  0  0  0  0  0
   -1.5135    1.9473    2.3144 C   0  0  0  0  0  0  0  0  0  0  0  0
    0.4911   -0.6928    3.8292 C   0  0  0  0  0  3  0  0  0  0  0  0
    1.7984   -0.8388    4.4070 C   0  0  0  0  0  0  0  0  0  0  0  0
    2.7917   -0.1532    4.1815 O   0  0  0  0  0  0  0  0  0  0  0  0
    1.8549   -1.8668    5.2919 O   0  0  0  0  0  0  0  0  0  0  0  0
    3.1261   -2.1820    5.8221 C   0  0  0  0  0  0  0  0  0  0  0  0
    2.9425   -3.2519    6.8765 C   0  0  0  0  0  0  0  0  0  0  0  0
    3.6536   -0.8019   -0.8460 N   0  0  0  0  0  0  0  0  0  0  0  0
    3.6911   -1.8965   -1.6571 C   0  0  0  0  0  0  0  0  0  0  0  0
    3.5013   -1.5754   -3.1326 C   0  0  0  0  0  0  0  0  0  0  0  0
    3.8388   -3.0366   -1.2658 O   0  0  0  0  0  0  0  0  0  0  0  0
    3.4188    0.1510    0.9518 H   0  0  0  0  0  0  0  0  0  0  0  0
    4.8542   -1.3925    2.5802 N   0  0  0  0  0  0  0  0  0  0  0  0
    6.0808   -1.6543    3.2855 C   0  0  0  0  0  0  0  0  0  0  0  0
    2.2922   -2.6511    0.6135 H   0  0  0  0  0  0  0  0  0  0  0  0
    2.2373   -1.7448    2.1279 H   0  0  0  0  0  0  0  0  0  0  0  0
   -1.7421   -1.4234    2.2127 H   0  0  0  0  0  0  0  0  0  0  0  0
   -2.7698   -2.3137    0.5937 H   0  0  0  0  0  0  0  0  0  0  0  0
   -4.3746   -2.9656    0.4355 H   0  0  0  0  0  0  0  0  0  0  0  0
   -4.7547    1.5189    1.3168 H   0  0  0  0  0  0  0  0  0  0  0  0
   -3.1043    3.3319    1.8544 H   0  0  0  0  0  0  0  0  0  0  0  0
   -0.7861    2.7360    2.5232 H   0  0  0  0  0  0  0  0  0  0  0  0
    3.5962   -1.2771    6.2408 H   0  0  0  0  0  0  0  0  0  0  0  0
    3.7819   -2.5383    5.0091 H   0  0  0  0  0  0  0  0  0  0  0  0
    2.2951   -2.8900    7.6891 H   0  0  0  0  0  0  0  0  0  0  0  0
    3.9153   -3.5362    7.3048 H   0  0  0  0  0  0  0  0  0  0  0  0
    2.4778   -4.1492    6.4424 H   0  0  0  0  0  0  0  0  0  0  0  0
    3.2657    0.0381   -1.2525 H   0  0  0  0  0  0  0  0  0  0  0  0
    2.4243   -1.4721   -3.3382 H   0  0  0  0  0  0  0  0  0  0  0  0
    3.8956   -2.4083   -3.7270 H   0  0  0  0  0  0  0  0  0  0  0  0
    4.0019   -0.6403   -3.4236 H   0  0  0  0  0  0  0  0  0  0  0  0
    4.1001   -0.9301    3.0932 H   0  0  0  0  0  0  0  0  0  0  0  0
    6.8506   -0.8854    3.0924 H   0  0  0  0  0  0  0  0  0  0  0  0
    6.5078   -2.6210    2.9783 H   0  0  0  0  0  0  0  0  0  0  0  0
    5.8763   -1.6805    4.3648 H   0  0  0  0  0  0  0  0  0  0  0  0
    1.0187    1.0031    2.6912 H   0  0  0  0  0  0  0  0  0  0  0  0
   -0.2748   -1.4051    4.1407 H   0  0  0  0  0  0  0  0  0  0  0  0
  1  2  2  0  0  0  0
  2 27  1  0  0  0  0
  3 26  1  1  0  0  0
  3  4  1  0  0  0  0
  3  2  1  0  0  0  0
  4 30  1  0  0  0  0
  5  4  1  0  0  0  0
  6 16  1  0  0  0  0
  7  6  1  0  0  0  0
  8 31  1  0  0  0  0
  8  7  2  0  0  0  0
  9  8  1  0  0  0  0
 10 12  2  0  0  0  0
 10  9  1  0  0  0  0
 11 10  1  0  0  0  0
 13  9  2  0  0  0  0
 13 14  1  0  0  0  0
 14 15  2  0  0  0  0
 15  7  1  0  0  0  0
 15 36  1  0  0  0  0
 16 51  1  0  0  0  0
 16 17  1  0  0  0  0
 17 19  1  0  0  0  0
 18 17  2  0  0  0  0
 19 20  1  0  0  0  0
 20 37  1  0  0  0  0
 20 21  1  0  0  0  0
 21 40  1  0  0  0  0
 21 39  1  0  0  0  0
 22  3  1  0  0  0  0
 23 25  2  0  0  0  0
 23 22  1  0  0  0  0
 24 23  1  0  0  0  0
 27 46  1  0  0  0  0
 27 28  1  0  0  0  0
 28 49  1  0  0  0  0
 29  4  1  0  0  0  0
 32 11  1  0  0  0  0
 33 11  1  0  0  0  0
 34 13  1  0  0  0  0
 35 14  1  0  0  0  0
 38 20  1  0  0  0  0
 41 21  1  0  0  0  0
 42 22  1  0  0  0  0
 43 24  1  0  0  0  0
 44 24  1  0  0  0  0
 45 24  1  0  0  0  0
 47 28  1  0  0  0  0
 48 28  1  0  0  0  0
 50  6  1  0  0  0  0
M  END
