-1 1
 OpenBabel05232413493D

 51 50  0  0  1  0  0  0  0  0999 V2000
    4.1099    0.9763   -1.5431 O   0  0  0  0  0  0  0  0  0  0  0  0
    3.0459    0.7392   -1.0021 C   0  0  0  0  0  0  0  0  0  0  0  0
    1.8887    0.0644   -1.7642 C   0  0  2  0  0  0  0  0  0  0  0  0
    0.5719   -0.1157   -1.0007 C   0  0  0  0  0  0  0  0  0  0  0  0
   -0.7303   -0.9559   -1.9687 S   0  0  0  0  0  1  0  0  0  0  0  0
   -1.1675    1.0937    2.2112 C   0  0  0  0  0  0  0  0  0  0  0  0
   -2.3596    1.6559    1.5619 C   0  0  0  0  0  0  0  0  0  0  0  0
   -2.7954    1.1949    0.3084 C   0  0  0  0  0  0  0  0  0  0  0  0
   -3.9092    1.7672   -0.3078 C   0  0  0  0  0  0  0  0  0  0  0  0
   -4.4167    1.3509   -1.6734 C   0  0  0  0  0  0  0  0  0  0  0  0
   -3.6112    0.5606   -2.4047 N   0  0  0  0  0  0  0  0  0  0  0  0
   -5.5056    1.7475   -2.0695 O   0  0  0  0  0  0  0  0  0  0  0  0
   -4.6105    2.7880    0.3425 C   0  0  0  0  0  0  0  0  0  0  0  0
   -4.1822    3.2581    1.5802 C   0  0  0  0  0  0  0  0  0  0  0  0
   -3.0537    2.7053    2.1803 C   0  0  0  0  0  0  0  0  0  0  0  0
   -0.6566   -0.1271    1.9979 C   0  0  0  0  0  0  0  0  0  0  0  0
    0.6536   -0.4935    2.5823 C   0  0  0  0  0  0  0  0  0  0  0  0
    1.3698    0.2548    3.2145 O   0  0  0  0  0  0  0  0  0  0  0  0
    0.9927   -1.7422    2.2714 O   0  0  0  0  0  0  0  0  0  0  0  0
    2.3372   -2.1436    2.5462 C   0  0  0  0  0  0  0  0  0  0  0  0
    2.4623   -3.6072    2.1992 C   0  0  0  0  0  0  0  0  0  0  0  0
    2.3358   -1.2022   -2.3204 N   0  0  0  0  0  0  0  0  0  0  0  0
    2.8883   -2.1667   -1.5447 C   0  0  0  0  0  0  0  0  0  0  0  0
    2.8644   -3.5582   -2.1476 C   0  0  0  0  0  0  0  0  0  0  0  0
    3.3617   -1.9592   -0.4373 O   0  0  0  0  0  0  0  0  0  0  0  0
    1.7033    0.7265   -2.6256 H   0  0  0  0  0  0  0  0  0  0  0  0
    2.7843    1.1140    0.2758 N   0  0  0  0  0  0  0  0  0  0  0  0
    3.8194    1.6428    1.1248 C   0  0  0  0  0  0  0  0  0  0  0  0
    0.7915   -0.7202   -0.1065 H   0  0  0  0  0  0  0  0  0  0  0  0
    0.2212    0.8746   -0.6634 H   0  0  0  0  0  0  0  0  0  0  0  0
   -2.2316    0.4009   -0.1978 H   0  0  0  0  0  0  0  0  0  0  0  0
   -2.6633    0.2280   -2.1513 H   0  0  0  0  0  0  0  0  0  0  0  0
   -3.9554    0.3040   -3.3205 H   0  0  0  0  0  0  0  0  0  0  0  0
   -5.4862    3.2028   -0.1602 H   0  0  0  0  0  0  0  0  0  0  0  0
   -4.7241    4.0667    2.0768 H   0  0  0  0  0  0  0  0  0  0  0  0
   -2.7048    3.0827    3.1456 H   0  0  0  0  0  0  0  0  0  0  0  0
    2.5631   -1.9411    3.6049 H   0  0  0  0  0  0  0  0  0  0  0  0
    3.0092   -1.5415    1.9163 H   0  0  0  0  0  0  0  0  0  0  0  0
    1.7652   -4.2189    2.7917 H   0  0  0  0  0  0  0  0  0  0  0  0
    3.4894   -3.9458    2.3990 H   0  0  0  0  0  0  0  0  0  0  0  0
    2.2614   -3.7532    1.1299 H   0  0  0  0  0  0  0  0  0  0  0  0
    1.7090   -1.5310   -3.0504 H   0  0  0  0  0  0  0  0  0  0  0  0
    1.8883   -4.0145   -1.9196 H   0  0  0  0  0  0  0  0  0  0  0  0
    3.6571   -4.1611   -1.6883 H   0  0  0  0  0  0  0  0  0  0  0  0
    2.9881   -3.5424   -3.2396 H   0  0  0  0  0  0  0  0  0  0  0  0
    1.9202    0.8219    0.7081 H   0  0  0  0  0  0  0  0  0  0  0  0
    4.0870    2.6766    0.8492 H   0  0  0  0  0  0  0  0  0  0  0  0
    4.7327    1.0318    1.0462 H   0  0  0  0  0  0  0  0  0  0  0  0
    3.4601    1.6261    2.1619 H   0  0  0  0  0  0  0  0  0  0  0  0
   -0.6328    1.7427    2.9149 H   0  0  0  0  0  0  0  0  0  0  0  0
   -1.1217   -0.8527    1.3248 H   0  0  0  0  0  0  0  0  0  0  0  0
  1  2  2  0  0  0  0
  2 27  1  0  0  0  0
  3 26  1  6  0  0  0
  3  2  1  0  0  0  0
  3  4  1  0  0  0  0
  4 30  1  0  0  0  0
  4 29  1  0  0  0  0
  5  4  1  0  0  0  0
  6 50  1  0  0  0  0
  7 15  1  0  0  0  0
  7  6  1  0  0  0  0
  8  7  2  0  0  0  0
  9  8  1  0  0  0  0
  9 13  2  0  0  0  0
 10  9  1  0  0  0  0
 11 32  1  0  0  0  0
 11 10  1  0  0  0  0
 12 10  2  0  0  0  0
 13 14  1  0  0  0  0
 14 35  1  0  0  0  0
 14 15  2  0  0  0  0
 15 36  1  0  0  0  0
 16  6  2  0  0  0  0
 16 17  1  0  0  0  0
 17 18  2  0  0  0  0
 19 20  1  0  0  0  0
 19 17  1  0  0  0  0
 20 37  1  0  0  0  0
 21 40  1  0  0  0  0
 21 20  1  0  0  0  0
 21 39  1  0  0  0  0
 22  3  1  0  0  0  0
 22 23  1  0  0  0  0
 23 25  2  0  0  0  0
 24 43  1  0  0  0  0
 24 44  1  0  0  0  0
 24 23  1  0  0  0  0
 27 46  1  0  0  0  0
 27 28  1  0  0  0  0
 28 49  1  0  0  0  0
 31  8  1  0  0  0  0
 33 11  1  0  0  0  0
 34 13  1  0  0  0  0
 38 20  1  0  0  0  0
 41 21  1  0  0  0  0
 42 22  1  0  0  0  0
 45 24  1  0  0  0  0
 47 28  1  0  0  0  0
 48 28  1  0  0  0  0
 51 16  1  0  0  0  0
M  END
