51
-1 1
O         4.553413   -0.942558   -1.487698
C         3.656341   -0.629477   -0.719959
C         2.300273   -0.079134   -1.221242
C         1.152120   -1.073047   -0.983401
S        -0.492041   -0.400910   -1.307918
C        -0.773558    0.572434    0.321323
C        -2.176506    1.116753    0.197829
C        -3.266011    0.247598    0.073481
C        -4.573836    0.726188   -0.033145
C        -5.757261   -0.182396   -0.213509
N        -5.473491   -1.445767   -0.642374
O        -6.900736    0.180756   -0.002673
C        -4.810048    2.103978    0.019262
C        -3.737505    2.979885    0.145913
C        -2.432534    2.490500    0.225285
C        -0.535503   -0.179965    1.566523
C         0.666412   -0.060418    2.239100
O         1.684099    0.600088    1.899984
O         0.719724   -0.767395    3.430891
C         1.951697   -0.784353    4.097000
C         1.744952   -1.444392    5.446381
N         2.422278    0.366244   -2.590603
C         2.518536   -0.441096   -3.684130
C         3.010914    0.278013   -4.932145
O         2.246059   -1.624782   -3.703215
H         2.079997    0.804214   -0.601414
N         3.733532   -0.705009    0.625807
C         4.912324   -1.182040    1.294009
H         1.278296   -1.948689   -1.629636
H         1.161122   -1.395772    0.068438
H        -3.055779   -0.824607    0.077537
H        -4.560510   -1.698678   -0.991861
H        -6.255868   -2.056238   -0.831764
H        -5.839463    2.460490   -0.048126
H        -3.915281    4.057839    0.177990
H        -1.592848    3.183962    0.319838
H         2.349260    0.238198    4.211446
H         2.707089   -1.344864    3.511913
H         1.013652   -0.878512    6.043074
H         2.692196   -1.492248    6.005966
H         1.359976   -2.467952    5.323033
H         2.762125    1.309546   -2.706895
H         2.613937    1.300945   -5.013417
H         2.715603   -0.303844   -5.813164
H         4.110066    0.330673   -4.894384
H         2.977383   -0.259832    1.184098
H         5.377783   -0.391810    1.907802
H         5.635556   -1.509757    0.535127
H         4.683787   -2.033521    1.957298
H        -0.058189    1.404600    0.265123
H        -1.318227   -0.815767    1.983232
