51
-1 1
O         5.848268   -1.649472    0.571377
C         4.857327   -1.369835    1.218047
C         3.534889   -0.886452    0.594796
C         2.259734   -1.635060    1.030104
S         0.752546   -0.771335    0.507187
C         0.244268    0.254119    2.867313
C        -1.124374    0.610091    2.436335
C        -2.064699   -0.383772    2.141486
C        -3.349575   -0.059554    1.713752
C        -4.324386   -1.113245    1.272082
N        -3.754494   -2.269913    0.826845
O        -5.530935   -0.946448    1.290797
C        -3.737444    1.283970    1.635698
C        -2.815745    2.280791    1.933479
C        -1.513451    1.947270    2.314365
C         0.491065   -0.692850    3.829214
C         1.798430   -0.838825    4.407026
O         2.791659   -0.153192    4.181528
O         1.854897   -1.866806    5.291885
C         3.126102   -2.181953    5.822115
C         2.942450   -3.251899    6.876520
N         3.653637   -0.801873   -0.846004
C         3.691142   -1.896463   -1.657063
C         3.501267   -1.575431   -3.132585
O         3.838751   -3.036624   -1.265773
H         3.418817    0.151001    0.951763
N         4.854243   -1.392508    2.580187
C         6.080816   -1.654342    3.285457
H         2.292204   -2.651118    0.613520
H         2.237326   -1.744796    2.127869
H        -1.742092   -1.423412    2.212747
H        -2.769785   -2.313724    0.593718
H        -4.374635   -2.965634    0.435544
H        -4.754746    1.518883    1.316767
H        -3.104320    3.331904    1.854380
H        -0.786068    2.735990    2.523161
H         3.596194   -1.277106    6.240820
H         3.781893   -2.538313    5.009140
H         2.295080   -2.889965    7.689062
H         3.915251   -3.536235    7.304813
H         2.477812   -4.149179    6.442360
H         3.265718    0.038102   -1.252460
H         2.424274   -1.472128   -3.338247
H         3.895568   -2.408264   -3.727009
H         4.001917   -0.640263   -3.423645
H         4.100054   -0.930061    3.093233
H         6.850604   -0.885362    3.092393
H         6.507809   -2.621004    2.978279
H         5.876304   -1.680452    4.364818
H         1.018707    1.003102    2.691226
H        -0.274813   -1.405057    4.140708
