-1 1
 OpenBabel05232414493D

 53 54  0  0  1  0  0  0  0  0999 V2000
    1.9948    2.8557   -1.7571 O   0  0  0  0  0  0  0  0  0  0  0  0
    1.4156    1.8578   -2.1517 C   0  0  0  0  0  0  0  0  0  0  0  0
   -0.0436    1.9294   -2.6550 C   0  0  2  0  0  0  0  0  0  0  0  0
   -0.3646    1.0495   -3.8666 C   0  0  0  0  0  0  0  0  0  0  0  0
    0.5333    1.4890   -5.3778 S   0  0  0  0  0  1  0  0  0  0  0  0
    2.6159    0.3126   -5.3535 C   0  0  0  0  0  3  0  0  0  0  0  0
    1.7667   -0.8878   -5.2539 C   0  0  0  0  0  0  0  0  0  0  0  0
    1.4351   -1.3758   -4.1715 O   0  0  0  0  0  0  0  0  0  0  0  0
    3.3739    0.6381   -6.4797 C   0  0  2  0  0  3  0  0  0  0  0  0
    4.3272    1.7649   -6.3829 C   0  0  0  0  0  0  0  0  0  0  0  0
    4.1812    2.7420   -5.3785 C   0  0  0  0  0  0  0  0  0  0  0  0
    5.0939    3.7838   -5.2363 C   0  0  0  0  0  0  0  0  0  0  0  0
    6.1907    3.9144   -6.0925 C   0  0  0  0  0  0  0  0  0  0  0  0
    7.1972    5.0237   -5.9196 C   0  0  0  0  0  0  0  0  0  0  0  0
    6.3266    2.9602   -7.1071 C   0  0  0  0  0  0  0  0  0  0  0  0
    5.4223    1.9133   -7.2560 C   0  0  0  0  0  0  0  0  0  0  0  0
    3.1360   -0.0670   -7.7225 C   0  0  0  0  0  0  0  0  0  0  0  0
    3.7314    0.1337   -8.7817 O   0  0  0  0  0  0  0  0  0  0  0  0
    2.0736   -1.1453   -7.7079 C   0  0  0  0  0  0  0  0  0  0  0  0
    1.4079   -1.5382   -6.5391 C   0  0  0  0  0  0  0  0  0  0  0  0
    0.4646   -2.5687   -6.5689 C   0  0  0  0  0  0  0  0  0  0  0  0
    0.1564   -3.1929   -7.7713 C   0  0  0  0  0  0  0  0  0  0  0  0
    0.8095   -2.7996   -8.9446 C   0  0  0  0  0  0  0  0  0  0  0  0
    1.7651   -1.7904   -8.9099 C   0  0  0  0  0  0  0  0  0  0  0  0
   -0.3775    3.3039   -2.9183 N   0  0  0  0  0  0  0  0  0  0  0  0
   -0.8793    4.1247   -1.9571 C   0  0  0  0  0  0  0  0  0  0  0  0
   -0.7950    5.6018   -2.2930 C   0  0  0  0  0  0  0  0  0  0  0  0
   -1.3570    3.7235   -0.9118 O   0  0  0  0  0  0  0  0  0  0  0  0
   -0.6715    1.6160   -1.8043 H   0  0  0  0  0  0  0  0  0  0  0  0
    1.9811    0.6268   -2.1074 N   0  0  0  0  0  0  0  0  0  0  0  0
    3.3585    0.4960   -1.6944 C   0  0  0  0  0  0  0  0  0  0  0  0
   -0.1706   -0.0150   -3.6417 H   0  0  0  0  0  0  0  0  0  0  0  0
   -1.4435    1.1276   -4.0695 H   0  0  0  0  0  0  0  0  0  0  0  0
    3.3212    2.7114   -4.7057 H   0  0  0  0  0  0  0  0  0  0  0  0
    4.9352    4.5189   -4.4412 H   0  0  0  0  0  0  0  0  0  0  0  0
    7.5831    5.3733   -6.8897 H   0  0  0  0  0  0  0  0  0  0  0  0
    8.0648    4.6902   -5.3248 H   0  0  0  0  0  0  0  0  0  0  0  0
    6.7574    5.8876   -5.3987 H   0  0  0  0  0  0  0  0  0  0  0  0
    7.1659    3.0374   -7.8063 H   0  0  0  0  0  0  0  0  0  0  0  0
    5.5433    1.1979   -8.0673 H   0  0  0  0  0  0  0  0  0  0  0  0
   -0.0157   -2.8567   -5.6318 H   0  0  0  0  0  0  0  0  0  0  0  0
   -0.5916   -3.9892   -7.8003 H   0  0  0  0  0  0  0  0  0  0  0  0
    0.5708   -3.2911   -9.8915 H   0  0  0  0  0  0  0  0  0  0  0  0
    2.3026   -1.4709   -9.8045 H   0  0  0  0  0  0  0  0  0  0  0  0
    0.1251    3.7150   -3.6983 H   0  0  0  0  0  0  0  0  0  0  0  0
   -0.9892    5.7966   -3.3577 H   0  0  0  0  0  0  0  0  0  0  0  0
    0.2230    5.9504   -2.0604 H   0  0  0  0  0  0  0  0  0  0  0  0
   -1.5113    6.1535   -1.6727 H   0  0  0  0  0  0  0  0  0  0  0  0
    1.6058   -0.1307   -2.6822 H   0  0  0  0  0  0  0  0  0  0  0  0
    4.0399    1.0825   -2.3353 H   0  0  0  0  0  0  0  0  0  0  0  0
    3.6444   -0.5625   -1.7495 H   0  0  0  0  0  0  0  0  0  0  0  0
    3.4922    0.8541   -0.6626 H   0  0  0  0  0  0  0  0  0  0  0  0
    2.9296    0.7046   -4.3888 H   0  0  0  0  0  0  0  0  0  0  0  0
  2 30  1  0  0  0  0
  2  1  2  0  0  0  0
  3  2  1  0  0  0  0
  3 29  1  1  0  0  0
  4 32  1  0  0  0  0
  4  3  1  0  0  0  0
  5  4  1  0  0  0  0
  6  7  1  0  0  0  0
  6 53  1  0  0  0  0
  7  8  2  0  0  0  0
  9 10  1  6  0  0  0
  9  6  1  0  0  0  0
 10 11  1  0  0  0  0
 11 12  2  0  0  0  0
 11 34  1  0  0  0  0
 12 35  1  0  0  0  0
 13 14  1  0  0  0  0
 13 12  1  0  0  0  0
 14 38  1  0  0  0  0
 14 37  1  0  0  0  0
 15 13  2  0  0  0  0
 16 15  1  0  0  0  0
 16 10  2  0  0  0  0
 17 19  1  0  0  0  0
 17  9  1  0  0  0  0
 18 17  2  0  0  0  0
 19 20  1  0  0  0  0
 20  7  1  0  0  0  0
 21 20  2  0  0  0  0
 21 41  1  0  0  0  0
 22 21  1  0  0  0  0
 23 24  1  0  0  0  0
 23 22  2  0  0  0  0
 24 19  2  0  0  0  0
 25  3  1  0  0  0  0
 25 26  1  0  0  0  0
 26 28  2  0  0  0  0
 27 47  1  0  0  0  0
 27 26  1  0  0  0  0
 27 48  1  0  0  0  0
 30 31  1  0  0  0  0
 31 52  1  0  0  0  0
 33  4  1  0  0  0  0
 36 14  1  0  0  0  0
 39 15  1  0  0  0  0
 40 16  1  0  0  0  0
 42 22  1  0  0  0  0
 43 23  1  0  0  0  0
 44 24  1  0  0  0  0
 45 25  1  0  0  0  0
 46 27  1  0  0  0  0
 49 30  1  0  0  0  0
 50 31  1  0  0  0  0
 51 31  1  0  0  0  0
M  END
