53
-1 1
O        -0.339240    1.712987    3.382139
C        -0.814256    0.665710    2.975257
C        -2.283311    0.585202    2.503088
C        -2.544330   -0.331492    1.303856
S        -1.721947    0.177207   -0.221488
C         0.766915   -0.935072   -0.236736
C        -0.264353   -1.980827   -0.127572
O        -0.553641   -2.508985    0.956748
C         1.435423   -0.606764   -1.379311
C         2.436772    0.486580   -1.347249
C         2.245930    1.578588   -0.484994
C         3.189163    2.599246   -0.395343
C         4.353798    2.579863   -1.168248
C         5.390865    3.667883   -1.050796
C         4.533119    1.502427   -2.043651
C         3.597273    0.476780   -2.137540
C         1.081673   -1.270935   -2.645426
O         1.656133   -1.053775   -3.703892
C        -0.050226   -2.258298   -2.605303
C        -0.708986   -2.589752   -1.413092
C        -1.728147   -3.545738   -1.419365
C        -2.118959   -4.139509   -2.612316
C        -1.477501   -3.798599   -3.808966
C        -0.444834   -2.869686   -3.801040
N        -2.760733    1.917221    2.240356
C        -3.316440    2.698166    3.202056
C        -3.397194    4.170252    2.839718
O        -3.719639    2.272838    4.269593
H        -2.854943    0.217782    3.371916
N        -0.119193   -0.497774    2.990869
C         1.263315   -0.487577    3.401490
H        -2.219012   -1.365760    1.531062
H        -3.632266   -0.378879    1.142155
H         1.329538    1.641331    0.108317
H         3.004165    3.435423    0.285338
H         5.858979    3.885169   -2.023043
H         6.197621    3.375551   -0.357532
H         4.952452    4.601379   -0.668057
H         5.429134    1.464648   -2.671284
H         3.754886   -0.341353   -2.839048
H        -2.201975   -3.797812   -0.469061
H        -2.927228   -4.875346   -2.616471
H        -1.785277   -4.266632   -4.747422
H         0.085632   -2.590650   -4.713421
H        -2.341137    2.357644    1.427932
H        -3.626396    4.324364    1.775156
H        -2.420043    4.631109    3.051214
H        -4.160264    4.652603    3.462307
H        -0.417218   -1.283357    2.405240
H         1.870920    0.208582    2.796621
H         1.671504   -1.501122    3.291480
H         1.360927   -0.171595    4.451667
H         1.062021   -0.489104    0.711804
