-1 1
 OpenBabel05192410563D

 53 55  0  0  1  0  0  0  0  0999 V2000
    0.1777    1.1132    3.5584 O   0  0  0  0  0  0  0  0  0  0  0  0
   -0.6124    0.3705    3.0028 C   0  0  0  0  0  0  0  0  0  0  0  0
   -1.8354    0.9604    2.2607 C   0  0  2  0  0  0  0  0  0  0  0  0
   -2.4537    0.1306    1.1273 C   0  0  0  0  0  0  0  0  0  0  0  0
   -1.5808    0.1984   -0.4667 S   0  0  0  0  0  0  0  0  0  0  0  0
   -0.0558   -0.9051   -0.2503 C   0  0  1  0  0  0  0  0  0  0  0  0
   -0.6575   -2.2817   -0.2024 C   0  0  0  0  0  0  0  0  0  0  0  0
   -1.1118   -2.7412    0.8416 O   0  0  0  0  0  0  0  0  0  0  0  0
    0.9148   -0.5698   -1.3267 C   0  0  2  0  0  3  0  0  0  0  0  0
    1.7088    0.6457   -1.1317 C   0  0  0  0  0  0  0  0  0  0  0  0
    1.6766    1.3794    0.0784 C   0  0  0  0  0  0  0  0  0  0  0  0
    2.4113    2.5491    0.2629 C   0  0  0  0  0  0  0  0  0  0  0  0
    3.2267    3.0672   -0.7442 C   0  0  0  0  0  0  0  0  0  0  0  0
    4.0114    4.3416   -0.5616 C   0  0  0  0  0  0  0  0  0  0  0  0
    3.2793    2.3434   -1.9436 C   0  0  0  0  0  0  0  0  0  0  0  0
    2.5538    1.1756   -2.1401 C   0  0  0  0  0  0  0  0  0  0  0  0
    0.9392   -1.3345   -2.5156 C   0  0  0  0  0  0  0  0  0  0  0  0
    1.6351   -1.1406   -3.5329 O   0  0  0  0  0  0  0  0  0  0  0  0
    0.0342   -2.5585   -2.5642 C   0  0  0  0  0  0  0  0  0  0  0  0
   -0.7201   -3.0223   -1.4760 C   0  0  0  0  0  0  0  0  0  0  0  0
   -1.4925   -4.1870   -1.5734 C   0  0  0  0  0  0  0  0  0  0  0  0
   -1.5373   -4.8913   -2.7682 C   0  0  0  0  0  0  0  0  0  0  0  0
   -0.7910   -4.4342   -3.8622 C   0  0  0  0  0  0  0  0  0  0  0  0
   -0.0115   -3.2889   -3.7584 C   0  0  0  0  0  0  0  0  0  0  0  0
   -1.5216    2.2923    1.8218 N   0  0  0  0  0  0  0  0  0  0  0  0
   -1.7899    3.3875    2.5855 C   0  0  0  0  0  0  0  0  0  0  0  0
   -1.0674    4.6443    2.1446 C   0  0  0  0  0  0  0  0  0  0  0  0
   -2.5372    3.3660    3.5457 O   0  0  0  0  0  0  0  0  0  0  0  0
   -2.5973    1.0771    3.0503 H   0  0  0  0  0  0  0  0  0  0  0  0
   -0.5142   -0.9798    3.0716 N   0  0  0  0  0  0  0  0  0  0  0  0
    0.6451   -1.5666    3.7031 C   0  0  0  0  0  0  0  0  0  0  0  0
   -2.6178   -0.9164    1.4229 H   0  0  0  0  0  0  0  0  0  0  0  0
   -3.4453    0.5507    0.9038 H   0  0  0  0  0  0  0  0  0  0  0  0
    1.0862    1.0374    0.9288 H   0  0  0  0  0  0  0  0  0  0  0  0
    2.3444    3.0598    1.2295 H   0  0  0  0  0  0  0  0  0  0  0  0
    3.6543    5.1397   -1.2346 H   0  0  0  0  0  0  0  0  0  0  0  0
    5.0824    4.1941   -0.7786 H   0  0  0  0  0  0  0  0  0  0  0  0
    3.9291    4.7177    0.4695 H   0  0  0  0  0  0  0  0  0  0  0  0
    3.9134    2.7089   -2.7594 H   0  0  0  0  0  0  0  0  0  0  0  0
    2.6126    0.6317   -3.0815 H   0  0  0  0  0  0  0  0  0  0  0  0
   -2.0504   -4.5128   -0.6931 H   0  0  0  0  0  0  0  0  0  0  0  0
   -2.1465   -5.7944   -2.8545 H   0  0  0  0  0  0  0  0  0  0  0  0
   -0.8189   -4.9875   -4.8053 H   0  0  0  0  0  0  0  0  0  0  0  0
    0.5972   -2.9141   -4.5833 H   0  0  0  0  0  0  0  0  0  0  0  0
   -0.8256    2.3642    1.0853 H   0  0  0  0  0  0  0  0  0  0  0  0
   -0.9309    4.6901    1.0548 H   0  0  0  0  0  0  0  0  0  0  0  0
   -0.0706    4.6463    2.6116 H   0  0  0  0  0  0  0  0  0  0  0  0
   -1.6234    5.5221    2.4950 H   0  0  0  0  0  0  0  0  0  0  0  0
   -0.9720   -1.5653    2.3692 H   0  0  0  0  0  0  0  0  0  0  0  0
    1.5743   -1.3334    3.1549 H   0  0  0  0  0  0  0  0  0  0  0  0
    0.5177   -2.6564    3.7369 H   0  0  0  0  0  0  0  0  0  0  0  0
    0.7598   -1.1804    4.7257 H   0  0  0  0  0  0  0  0  0  0  0  0
    0.3341   -0.6842    0.7483 H   0  0  0  0  0  0  0  0  0  0  0  0
  2 30  1  0  0  0  0
  2  1  2  0  0  0  0
  3  2  1  0  0  0  0
  3 29  1  1  0  0  0
  4 32  1  0  0  0  0
  4  3  1  0  0  0  0
  5  6  1  0  0  0  0
  5  4  1  0  0  0  0
  6  7  1  0  0  0  0
  6 53  1  1  0  0  0
  7  8  2  0  0  0  0
  9 10  1  6  0  0  0
  9  6  1  0  0  0  0
 10 11  1  0  0  0  0
 11 12  2  0  0  0  0
 11 34  1  0  0  0  0
 12 35  1  0  0  0  0
 13 14  1  0  0  0  0
 13 12  1  0  0  0  0
 14 38  1  0  0  0  0
 15 13  2  0  0  0  0
 16 15  1  0  0  0  0
 16 10  2  0  0  0  0
 17  9  1  0  0  0  0
 18 17  2  0  0  0  0
 19 17  1  0  0  0  0
 19 20  1  0  0  0  0
 20  7  1  0  0  0  0
 21 20  2  0  0  0  0
 21 41  1  0  0  0  0
 22 21  1  0  0  0  0
 23 24  1  0  0  0  0
 23 22  2  0  0  0  0
 24 19  2  0  0  0  0
 25  3  1  0  0  0  0
 25 26  1  0  0  0  0
 26 28  2  0  0  0  0
 27 48  1  0  0  0  0
 27 26  1  0  0  0  0
 27 47  1  0  0  0  0
 30 31  1  0  0  0  0
 31 51  1  0  0  0  0
 31 52  1  0  0  0  0
 33  4  1  0  0  0  0
 36 14  1  0  0  0  0
 37 14  1  0  0  0  0
 39 15  1  0  0  0  0
 40 16  1  0  0  0  0
 42 22  1  0  0  0  0
 43 23  1  0  0  0  0
 44 24  1  0  0  0  0
 45 25  1  0  0  0  0
 46 27  1  0  0  0  0
 49 30  1  0  0  0  0
 50 31  1  0  0  0  0
M  END
