-1 1
 OpenBabel05192410563D

 43 43  0  0  1  0  0  0  0  0999 V2000
    2.4278   -0.0449    1.5703 O   0  0  0  0  0  0  0  0  0  0  0  0
    1.2200   -0.2654    1.6392 C   0  0  0  0  0  0  0  0  0  0  0  0
    0.2489    0.9066    1.8894 C   0  0  2  0  0  0  0  0  0  0  0  0
   -0.9555    1.0287    0.9516 C   0  0  0  0  0  0  0  0  0  0  0  0
   -0.5639    1.4565   -0.7687 S   0  0  0  0  0  0  0  0  0  0  0  0
   -1.4112    0.0243   -1.7535 C   0  0  1  0  0  0  0  0  0  0  0  0
   -1.0451   -1.3032   -1.2274 C   0  0  1  0  0  3  0  0  0  0  0  0
    0.2121   -1.9792   -1.7073 C   0  0  0  0  0  0  0  0  0  0  0  0
    1.4780   -1.1072   -1.8182 C   0  0  0  0  0  0  0  0  0  0  0  0
    2.6213   -1.8458   -2.4503 C   0  0  0  0  0  0  0  0  0  0  0  0
    3.0278   -2.9054   -1.7205 O   0  0  0  0  0  0  0  0  0  0  0  0
    3.1569   -1.5809   -3.4984 O   0  0  0  0  0  0  0  0  0  0  0  0
   -1.8306   -1.8913   -0.2384 C   0  0  0  0  0  0  0  0  0  0  0  0
   -1.5058   -2.8537    0.5291 O   0  0  0  0  0  0  0  0  0  0  0  0
   -3.2027   -1.3173   -0.0540 C   0  0  0  0  0  0  0  0  0  0  0  0
   -3.7042   -0.2649   -0.7278 C   0  0  0  0  0  0  0  0  0  0  0  0
   -2.8863    0.3950   -1.7599 C   0  0  0  0  0  0  0  0  0  0  0  0
   -3.3531    1.1821   -2.5606 O   0  0  0  0  0  0  0  0  0  0  0  0
    1.0543    2.1019    1.9149 N   0  0  0  0  0  0  0  0  0  0  0  0
    0.6595    3.2491    2.5103 C   0  0  0  0  0  0  0  0  0  0  0  0
    1.6525    4.3941    2.4146 C   0  0  0  0  0  0  0  0  0  0  0  0
   -0.4248    3.3841    3.0538 O   0  0  0  0  0  0  0  0  0  0  0  0
   -0.1746    0.7460    2.8987 H   0  0  0  0  0  0  0  0  0  0  0  0
    0.7115   -1.5043    1.5987 N   0  0  0  0  0  0  0  0  0  0  0  0
    1.5861   -2.6482    1.4773 C   0  0  0  0  0  0  0  0  0  0  0  0
   -1.5110    0.0834    0.9497 H   0  0  0  0  0  0  0  0  0  0  0  0
   -1.6170    1.8020    1.3639 H   0  0  0  0  0  0  0  0  0  0  0  0
    0.0278   -2.4036   -2.7158 H   0  0  0  0  0  0  0  0  0  0  0  0
    0.4035   -2.8351   -1.0454 H   0  0  0  0  0  0  0  0  0  0  0  0
    1.8007   -0.7518   -0.8284 H   0  0  0  0  0  0  0  0  0  0  0  0
    1.2993   -0.2205   -2.4393 H   0  0  0  0  0  0  0  0  0  0  0  0
    3.7549   -3.3056   -2.2167 H   0  0  0  0  0  0  0  0  0  0  0  0
   -3.8074   -1.8518    0.6865 H   0  0  0  0  0  0  0  0  0  0  0  0
   -4.7318    0.0868   -0.6046 H   0  0  0  0  0  0  0  0  0  0  0  0
    2.0133    1.9492    1.6126 H   0  0  0  0  0  0  0  0  0  0  0  0
    2.6844    4.0569    2.2434 H   0  0  0  0  0  0  0  0  0  0  0  0
    1.5999    4.9867    3.3368 H   0  0  0  0  0  0  0  0  0  0  0  0
    1.3556    5.0425    1.5765 H   0  0  0  0  0  0  0  0  0  0  0  0
   -0.2781   -1.7309    1.4257 H   0  0  0  0  0  0  0  0  0  0  0  0
    2.2440   -2.5748    0.5986 H   0  0  0  0  0  0  0  0  0  0  0  0
    0.9446   -3.5308    1.3650 H   0  0  0  0  0  0  0  0  0  0  0  0
    2.2248   -2.7547    2.3692 H   0  0  0  0  0  0  0  0  0  0  0  0
   -1.0155    0.2370   -2.7581 H   0  0  0  0  0  0  0  0  0  0  0  0
  1  2  2  0  0  0  0
  2  3  1  0  0  0  0
  3 19  1  0  0  0  0
  3 23  1  1  0  0  0
  4 27  1  0  0  0  0
  4  3  1  0  0  0  0
  5  4  1  0  0  0  0
  6 43  1  6  0  0  0
  6  7  1  0  0  0  0
  6  5  1  0  0  0  0
  7  8  1  1  0  0  0
  7 13  1  0  0  0  0
  8 29  1  0  0  0  0
  9  8  1  0  0  0  0
  9 30  1  0  0  0  0
 10  9  1  0  0  0  0
 10 11  1  0  0  0  0
 12 10  2  0  0  0  0
 13 15  1  0  0  0  0
 13 14  2  0  0  0  0
 15 33  1  0  0  0  0
 16 34  1  0  0  0  0
 16 15  2  0  0  0  0
 17  6  1  0  0  0  0
 17 16  1  0  0  0  0
 18 17  2  0  0  0  0
 19 20  1  0  0  0  0
 20 22  2  0  0  0  0
 21 20  1  0  0  0  0
 21 37  1  0  0  0  0
 24  2  1  0  0  0  0
 25 24  1  0  0  0  0
 25 42  1  0  0  0  0
 26  4  1  0  0  0  0
 28  8  1  0  0  0  0
 31  9  1  0  0  0  0
 32 11  1  0  0  0  0
 35 19  1  0  0  0  0
 36 21  1  0  0  0  0
 38 21  1  0  0  0  0
 39 24  1  0  0  0  0
 40 25  1  0  0  0  0
 41 25  1  0  0  0  0
M  END
