43
-1 1
O         5.111163   -0.528079    1.231262
C         3.937701   -0.254622    1.418106
C         3.369797    1.142583    1.113965
C         2.069612    0.978250    0.262106
S         1.663961    2.171329   -1.004537
C         1.201089    0.630305   -2.633368
C         1.934299   -0.567459   -2.495704
C         3.318215   -0.680781   -3.081403
C         4.350494   -0.028751   -2.165811
C         5.738993    0.098123   -2.707088
O         6.525926    0.821049   -1.872155
O         6.177322   -0.349993   -3.734723
C         1.463102   -1.612835   -1.641552
O         2.088888   -2.651289   -1.359231
C         0.093159   -1.425662   -1.056715
C        -0.693841   -0.372707   -1.326041
C        -0.257377    0.650995   -2.311554
O        -1.053599    1.398271   -2.848023
N         4.412802    1.924771    0.521585
C         4.495030    3.267113    0.689144
C         5.568311    3.941234   -0.143568
O         3.754979    3.898596    1.423125
H         3.094959    1.638195    2.059275
N         3.027609   -1.161992    1.859966
C         3.291541   -2.585386    1.809698
H         2.150087    0.024685   -0.294008
H         1.217981    0.873440    0.954021
H         3.357870   -0.195329   -4.070674
H         3.569107   -1.741916   -3.224310
H         4.433868   -0.592569   -1.221851
H         4.014479    0.983048   -1.882832
H         7.407760    0.832883   -2.268256
H        -0.234979   -2.233888   -0.394524
H        -1.707378   -0.270962   -0.928599
H         5.138470    1.429674    0.014853
H         6.310817    3.235978   -0.540749
H         6.057257    4.719174    0.457329
H         5.067994    4.430214   -0.992824
H         2.056601   -0.882662    1.809297
H         4.378447   -2.729038    1.830156
H         2.889280   -3.016498    0.877068
H         2.847379   -3.089354    2.681508
H         1.463598    1.304512   -3.454000
