43
-1 1
O         2.056499   -1.049755    1.855219
C         0.940894   -0.716752    2.220567
C         0.367366    0.677126    1.938318
C        -0.919305    0.479330    1.075186
S        -1.489336    1.799893    0.015043
C        -1.783844   -0.041170   -2.115539
C        -1.051049   -1.149170   -1.814340
C         0.356354   -1.311485   -2.329071
C         1.318662   -0.510423   -1.454952
C         2.703028   -0.343587   -1.997840
O         3.435469    0.483955   -1.218795
O         3.171186   -0.847767   -2.985795
C        -1.554098   -2.122293   -0.833036
O        -0.928021   -3.128905   -0.504253
C        -2.874390   -1.823749   -0.215869
C        -3.601514   -0.744548   -0.547271
C        -3.175955    0.157839   -1.651341
O        -3.970198    0.887769   -2.219251
N         1.386597    1.485781    1.341748
C         1.587686    2.782979    1.682146
C         2.579951    3.513030    0.796503
O         1.012420    3.340246    2.599912
H         0.085635    1.177389    2.877891
N         0.083410   -1.578308    2.832676
C         0.302036   -3.007687    2.797237
H        -0.738975   -0.396598    0.421016
H        -1.732017    0.175330    1.757733
H         0.423031   -0.952395   -3.367478
H         0.637905   -2.373748   -2.325027
H         1.430704   -0.979863   -0.463408
H         0.906856    0.497085   -1.262981
H         4.320621    0.519769   -1.605889
H        -3.206647   -2.538009    0.543181
H        -4.573490   -0.529281   -0.096475
H         1.994651    1.052318    0.657932
H         3.242326    2.833013    0.243264
H         3.167497    4.208968    1.409269
H         2.001928    4.099877    0.066865
H        -0.870421   -1.259106    2.939575
H         1.383346   -3.186769    2.758167
H        -0.158777   -3.458593    1.901631
H        -0.106930   -3.478792    3.703381
H        -1.433353    0.680852   -2.856553
