-1 1
 OpenBabel05232414493D

 54 56  0  0  1  0  0  0  0  0999 V2000
    1.4444    3.7200   -4.4474 O   0  0  0  0  0  0  0  0  0  0  0  0
    0.8595    3.3958   -3.4228 C   0  0  0  0  0  0  0  0  0  0  0  0
    1.6376    2.8340   -2.2229 C   0  0  2  0  0  0  0  0  0  0  0  0
    1.1023    1.5021   -1.6665 C   0  0  0  0  0  0  0  0  0  0  0  0
   -0.2564    1.6580   -0.4442 S   0  0  0  0  0  0  0  0  0  0  0  0
   -2.0060    0.7503   -1.2148 C   0  0  2  0  0  0  0  0  0  0  0  0
   -1.5247   -0.6298   -1.5571 C   0  0  0  0  0  0  0  0  0  0  0  0
   -1.5183   -1.5504   -0.7673 O   0  0  0  0  0  0  0  0  0  0  0  0
   -2.7209    1.4096   -2.2602 C   0  0  0  0  0  3  0  0  0  0  0  0
   -2.5229    1.1271   -3.6344 C   0  0  0  0  0  0  0  0  0  0  0  0
   -1.3915    0.1451   -3.9373 C   0  0  0  0  0  0  0  0  0  0  0  0
   -1.0043   -0.7783   -2.9556 C   0  0  0  0  0  0  0  0  0  0  0  0
   -0.0588   -1.7771   -3.2038 C   0  0  0  0  0  0  0  0  0  0  0  0
    0.5713   -1.8139   -4.4386 C   0  0  0  0  0  0  0  0  0  0  0  0
    0.2627   -0.8641   -5.4132 C   0  0  0  0  0  0  0  0  0  0  0  0
   -0.7170    0.1130   -5.1798 C   0  0  0  0  0  0  0  0  0  0  0  0
   -1.0301    1.0603   -6.0786 O   0  0  0  0  0  0  0  0  0  0  0  0
   -0.3632    1.1523   -7.3187 C   0  0  0  0  0  0  0  0  0  0  0  0
   -1.1646    2.1553   -8.1746 C   0  0  0  0  0  0  0  0  0  0  0  0
   -0.1405    3.1517   -8.7297 C   0  0  0  0  0  0  0  0  0  0  0  0
    0.9338    3.2021   -7.6419 C   0  0  0  0  0  0  0  0  0  0  0  0
    1.0620    1.7425   -7.1991 C   0  0  0  0  0  0  0  0  0  0  0  0
   -3.1950    1.5962   -4.5592 O   0  0  0  0  0  0  0  0  0  0  0  0
    1.7547    3.8382   -1.1851 N   0  0  0  0  0  0  0  0  0  0  0  0
    2.9450    4.2790   -0.6977 C   0  0  0  0  0  0  0  0  0  0  0  0
    2.8263    5.1731    0.5255 C   0  0  0  0  0  0  0  0  0  0  0  0
    4.0254    3.9779   -1.1687 O   0  0  0  0  0  0  0  0  0  0  0  0
    2.6533    2.6737   -2.6067 H   0  0  0  0  0  0  0  0  0  0  0  0
   -0.4694    3.5469   -3.2584 N   0  0  0  0  0  0  0  0  0  0  0  0
   -1.2966    4.0443   -4.3348 C   0  0  0  0  0  0  0  0  0  0  0  0
    0.7873    0.8622   -2.5011 H   0  0  0  0  0  0  0  0  0  0  0  0
    1.9298    0.9867   -1.1580 H   0  0  0  0  0  0  0  0  0  0  0  0
    0.1861   -2.4766   -2.4029 H   0  0  0  0  0  0  0  0  0  0  0  0
    1.3343   -2.5674   -4.6493 H   0  0  0  0  0  0  0  0  0  0  0  0
    0.8060   -0.8798   -6.3578 H   0  0  0  0  0  0  0  0  0  0  0  0
   -0.3469    0.1547   -7.7928 H   0  0  0  0  0  0  0  0  0  0  0  0
   -1.8712    2.6529   -7.4939 H   0  0  0  0  0  0  0  0  0  0  0  0
   -1.7610    1.6590   -8.9540 H   0  0  0  0  0  0  0  0  0  0  0  0
   -0.5845    4.1337   -8.9537 H   0  0  0  0  0  0  0  0  0  0  0  0
    0.2952    2.7702   -9.6707 H   0  0  0  0  0  0  0  0  0  0  0  0
    0.6061    3.8046   -6.7812 H   0  0  0  0  0  0  0  0  0  0  0  0
    1.8884    3.6278   -7.9855 H   0  0  0  0  0  0  0  0  0  0  0  0
    1.4567    1.6560   -6.1772 H   0  0  0  0  0  0  0  0  0  0  0  0
    1.7418    1.1933   -7.8731 H   0  0  0  0  0  0  0  0  0  0  0  0
    0.9069    4.0163   -0.6559 H   0  0  0  0  0  0  0  0  0  0  0  0
    1.8886    5.7463    0.5440 H   0  0  0  0  0  0  0  0  0  0  0  0
    3.6827    5.8582    0.5449 H   0  0  0  0  0  0  0  0  0  0  0  0
    2.8656    4.5456    1.4292 H   0  0  0  0  0  0  0  0  0  0  0  0
   -0.9270    3.0977   -2.4652 H   0  0  0  0  0  0  0  0  0  0  0  0
   -1.2041    3.4072   -5.2254 H   0  0  0  0  0  0  0  0  0  0  0  0
   -1.0111    5.0759   -4.5965 H   0  0  0  0  0  0  0  0  0  0  0  0
   -2.3459    4.0075   -4.0213 H   0  0  0  0  0  0  0  0  0  0  0  0
   -2.4852    0.7504   -0.2294 H   0  0  0  0  0  0  0  0  0  0  0  0
   -3.4908    2.1450   -2.0126 H   0  0  0  0  0  0  0  0  0  0  0  0
  1  2  2  0  0  0  0
  2 29  1  0  0  0  0
  2  3  1  0  0  0  0
  3 28  1  6  0  0  0
  3  4  1  0  0  0  0
  3 24  1  0  0  0  0
  4 32  1  0  0  0  0
  4  5  1  0  0  0  0
  6  5  1  0  0  0  0
  6 53  1  1  0  0  0
  7  6  1  0  0  0  0
  7  8  2  0  0  0  0
  9 54  1  0  0  0  0
  9  6  1  0  0  0  0
 10  9  1  0  0  0  0
 11 10  1  0  0  0  0
 11 12  1  0  0  0  0
 12  7  1  0  0  0  0
 13 12  2  0  0  0  0
 13 33  1  0  0  0  0
 14 13  1  0  0  0  0
 15 16  1  0  0  0  0
 15 14  2  0  0  0  0
 16 11  2  0  0  0  0
 17 16  1  0  0  0  0
 18 22  1  0  0  0  0
 18 17  1  0  0  0  0
 19 37  1  0  0  0  0
 19 18  1  0  0  0  0
 20 19  1  0  0  0  0
 20 21  1  0  0  0  0
 21 22  1  0  0  0  0
 21 41  1  0  0  0  0
 22 43  1  0  0  0  0
 23 10  2  0  0  0  0
 24 25  1  0  0  0  0
 24 45  1  0  0  0  0
 25 26  1  0  0  0  0
 26 46  1  0  0  0  0
 26 47  1  0  0  0  0
 26 48  1  0  0  0  0
 27 25  2  0  0  0  0
 29 49  1  0  0  0  0
 30 52  1  0  0  0  0
 30 29  1  0  0  0  0
 31  4  1  0  0  0  0
 34 14  1  0  0  0  0
 35 15  1  0  0  0  0
 36 18  1  0  0  0  0
 38 19  1  0  0  0  0
 39 20  1  0  0  0  0
 40 20  1  0  0  0  0
 42 21  1  0  0  0  0
 44 22  1  0  0  0  0
 50 30  1  0  0  0  0
 51 30  1  0  0  0  0
M  END
