-1 1
 OpenBabel05232413493D

 54 55  0  0  1  0  0  0  0  0999 V2000
    1.6387    1.6942   -0.9090 O   0  0  0  0  0  0  0  0  0  0  0  0
    1.1338    1.4619    0.1836 C   0  0  0  0  0  0  0  0  0  0  0  0
    1.9661    0.9237    1.3595 C   0  0  2  0  0  0  0  0  0  0  0  0
    1.4244   -0.4005    1.9335 C   0  0  0  0  0  0  0  0  0  0  0  0
   -0.0653   -0.2229    2.9869 S   0  0  0  0  0  1  0  0  0  0  0  0
   -2.9318   -1.2882    2.0535 C   0  0  0  0  0  0  0  0  0  0  0  0
   -1.9399   -2.3768    1.8844 C   0  0  0  0  0  0  0  0  0  0  0  0
   -1.8724   -3.3023    2.6681 O   0  0  0  0  0  0  0  0  0  0  0  0
   -3.3300   -0.5472    1.0108 C   0  0  0  0  0  0  0  0  0  0  0  0
   -2.7223   -0.6543   -0.3367 C   0  0  0  0  0  0  0  0  0  0  0  0
   -1.4879   -1.4933   -0.4475 C   0  0  0  0  0  0  0  0  0  0  0  0
   -1.1452   -2.3554    0.6115 C   0  0  0  0  0  0  0  0  0  0  0  0
   -0.0734   -3.2405    0.5075 C   0  0  0  0  0  0  0  0  0  0  0  0
    0.7054   -3.2334   -0.6408 C   0  0  0  0  0  0  0  0  0  0  0  0
    0.4258   -2.3566   -1.6862 C   0  0  0  0  0  0  0  0  0  0  0  0
   -0.6689   -1.4837   -1.6057 C   0  0  0  0  0  0  0  0  0  0  0  0
   -0.9866   -0.6216   -2.5769 O   0  0  0  0  0  0  0  0  0  0  0  0
   -0.2577   -0.5624   -3.7926 C   0  0  0  0  0  0  0  0  0  0  0  0
   -1.0948    0.3114   -4.7527 C   0  0  0  0  0  0  0  0  0  0  0  0
   -0.1705    1.4464   -5.2179 C   0  0  0  0  0  0  0  0  0  0  0  0
    0.8275    1.5970   -4.0685 C   0  0  0  0  0  0  0  0  0  0  0  0
    1.0996    0.1537   -3.6469 C   0  0  0  0  0  0  0  0  0  0  0  0
   -3.2418   -0.0741   -1.2730 O   0  0  0  0  0  0  0  0  0  0  0  0
    2.0649    1.8990    2.4252 N   0  0  0  0  0  0  0  0  0  0  0  0
    3.1484    2.6707    2.6625 C   0  0  0  0  0  0  0  0  0  0  0  0
    3.0406    3.5479    3.9019 C   0  0  0  0  0  0  0  0  0  0  0  0
    4.1436    2.6995    1.9582 O   0  0  0  0  0  0  0  0  0  0  0  0
    2.9742    0.7815    0.9463 H   0  0  0  0  0  0  0  0  0  0  0  0
   -0.1698    1.6827    0.4500 N   0  0  0  0  0  0  0  0  0  0  0  0
   -1.0507    2.2269   -0.5518 C   0  0  0  0  0  0  0  0  0  0  0  0
    1.2211   -1.0818    1.0926 H   0  0  0  0  0  0  0  0  0  0  0  0
    2.2332   -0.8573    2.5257 H   0  0  0  0  0  0  0  0  0  0  0  0
    0.1397   -3.8952    1.3529 H   0  0  0  0  0  0  0  0  0  0  0  0
    1.5640   -3.9040   -0.7250 H   0  0  0  0  0  0  0  0  0  0  0  0
    1.0759   -2.3421   -2.5596 H   0  0  0  0  0  0  0  0  0  0  0  0
   -0.1409   -1.5902   -4.1782 H   0  0  0  0  0  0  0  0  0  0  0  0
   -1.9380    0.7031   -4.1653 H   0  0  0  0  0  0  0  0  0  0  0  0
   -1.5185   -0.2703   -5.5845 H   0  0  0  0  0  0  0  0  0  0  0  0
   -0.7219    2.3711   -5.4466 H   0  0  0  0  0  0  0  0  0  0  0  0
    0.3640    1.1518   -6.1383 H   0  0  0  0  0  0  0  0  0  0  0  0
    0.3834    2.1326   -3.2159 H   0  0  0  0  0  0  0  0  0  0  0  0
    1.7431    2.1399   -4.3442 H   0  0  0  0  0  0  0  0  0  0  0  0
    1.5046    0.1004   -2.6274 H   0  0  0  0  0  0  0  0  0  0  0  0
    1.8239   -0.3158   -4.3352 H   0  0  0  0  0  0  0  0  0  0  0  0
    1.3101    1.8222    3.1089 H   0  0  0  0  0  0  0  0  0  0  0  0
    2.1438    3.3509    4.5054 H   0  0  0  0  0  0  0  0  0  0  0  0
    3.0375    4.6010    3.5843 H   0  0  0  0  0  0  0  0  0  0  0  0
    3.9377    3.3928    4.5173 H   0  0  0  0  0  0  0  0  0  0  0  0
   -0.5331    1.2820    1.3278 H   0  0  0  0  0  0  0  0  0  0  0  0
   -1.1512    1.5596   -1.4218 H   0  0  0  0  0  0  0  0  0  0  0  0
   -0.6783    3.2016   -0.9074 H   0  0  0  0  0  0  0  0  0  0  0  0
   -2.0486    2.3658   -0.1160 H   0  0  0  0  0  0  0  0  0  0  0  0
   -3.3889   -1.2090    3.0419 H   0  0  0  0  0  0  0  0  0  0  0  0
   -4.1316    0.1909    1.0923 H   0  0  0  0  0  0  0  0  0  0  0  0
  1  2  2  0  0  0  0
  2 29  1  0  0  0  0
  2  3  1  0  0  0  0
  3 28  1  6  0  0  0
  3  4  1  0  0  0  0
  3 24  1  0  0  0  0
  4 32  1  0  0  0  0
  4  5  1  0  0  0  0
  6 53  1  0  0  0  0
  7  6  1  0  0  0  0
  7  8  2  0  0  0  0
  9 54  1  0  0  0  0
  9  6  2  0  0  0  0
 10  9  1  0  0  0  0
 11 10  1  0  0  0  0
 11 12  1  0  0  0  0
 12  7  1  0  0  0  0
 13 12  2  0  0  0  0
 13 33  1  0  0  0  0
 14 13  1  0  0  0  0
 15 16  1  0  0  0  0
 15 14  2  0  0  0  0
 16 11  2  0  0  0  0
 17 16  1  0  0  0  0
 18 22  1  0  0  0  0
 18 17  1  0  0  0  0
 19 37  1  0  0  0  0
 19 18  1  0  0  0  0
 20 19  1  0  0  0  0
 20 21  1  0  0  0  0
 21 22  1  0  0  0  0
 21 41  1  0  0  0  0
 22 43  1  0  0  0  0
 23 10  2  0  0  0  0
 24 25  1  0  0  0  0
 24 45  1  0  0  0  0
 25 26  1  0  0  0  0
 26 46  1  0  0  0  0
 26 48  1  0  0  0  0
 27 25  2  0  0  0  0
 29 49  1  0  0  0  0
 30 52  1  0  0  0  0
 30 29  1  0  0  0  0
 31  4  1  0  0  0  0
 34 14  1  0  0  0  0
 35 15  1  0  0  0  0
 36 18  1  0  0  0  0
 38 19  1  0  0  0  0
 39 20  1  0  0  0  0
 40 20  1  0  0  0  0
 42 21  1  0  0  0  0
 44 22  1  0  0  0  0
 47 26  1  0  0  0  0
 50 30  1  0  0  0  0
 51 30  1  0  0  0  0
M  END
