54
-1 1
O        -0.214438    3.732008    1.682108
C        -0.104006    2.768573    0.929767
C         1.116845    1.835428    1.048899
C         0.799673    0.354773    1.295824
S        -0.140997   -0.011546    2.800577
C        -1.734921   -0.872255    2.083849
C        -1.361122   -2.316261    1.888647
O        -1.440126   -3.137687    2.778821
C        -2.264023   -0.227446    0.886241
C        -1.842998   -0.529688   -0.403815
C        -1.090898   -1.845147   -0.588729
C        -0.868105   -2.692441    0.522862
C        -0.203269   -3.912883    0.408228
C         0.274606   -4.331087   -0.827262
C         0.071489   -3.518874   -1.936129
C        -0.593414   -2.289489   -1.833726
O        -0.770309   -1.584831   -2.985303
C         0.376356   -0.965062   -3.547462
C        -0.052017   -0.367944   -4.905454
C         0.198980    1.147565   -4.812588
C         0.151540    1.432560   -3.309632
C         0.886048    0.229667   -2.723144
O        -2.007258    0.243493   -1.392049
N         1.953154    2.400108    2.078067
C         3.270659    2.129915    2.198919
C         3.963581    2.820523    3.361183
O         3.870529    1.365477    1.460389
H         1.662010    1.872717    0.087465
N        -0.978657    2.506239   -0.051619
C        -2.194932    3.271788   -0.173529
H         0.217362   -0.032178    0.450235
H         1.752543   -0.190658    1.317039
H        -0.079983   -4.513607    1.311000
H         0.796164   -5.285583   -0.931329
H         0.415156   -3.830917   -2.925502
H         1.171605   -1.725253   -3.662771
H        -1.125006   -0.579672   -5.015454
H         0.469812   -0.836985   -5.753119
H        -0.533209    1.731418   -5.391064
H         1.199000    1.394838   -5.210540
H        -0.885680    1.399464   -2.944563
H         0.596241    2.398810   -3.027138
H         0.718785    0.081557   -1.648617
H         1.974407    0.329923   -2.877409
H         1.492233    3.132916    2.612584
H         3.406985    3.686313    3.746123
H         4.965585    3.133247    3.039668
H         4.083977    2.091372    4.176394
H        -1.011076    1.615122   -0.565336
H        -2.007458    4.273111   -0.595214
H        -2.676974    3.406572    0.807737
H        -2.863298    2.706926   -0.835996
H        -2.380220   -0.800538    2.969620
H        -2.798259    0.715880    1.018771
