-1 1
 OpenBabel05192410563D

 54 56  0  0  1  0  0  0  0  0999 V2000
   -0.2144    3.7320    1.6821 O   0  0  0  0  0  0  0  0  0  0  0  0
   -0.1040    2.7686    0.9298 C   0  0  0  0  0  0  0  0  0  0  0  0
    1.1168    1.8354    1.0489 C   0  0  2  0  0  0  0  0  0  0  0  0
    0.7997    0.3548    1.2958 C   0  0  0  0  0  0  0  0  0  0  0  0
   -0.1410   -0.0115    2.8006 S   0  0  0  0  0  0  0  0  0  0  0  0
   -1.7349   -0.8723    2.0838 C   0  0  2  0  0  0  0  0  0  0  0  0
   -1.3611   -2.3163    1.8886 C   0  0  0  0  0  0  0  0  0  0  0  0
   -1.4401   -3.1377    2.7788 O   0  0  0  0  0  0  0  0  0  0  0  0
   -2.2640   -0.2274    0.8862 C   0  0  0  0  0  3  0  0  0  0  0  0
   -1.8430   -0.5297   -0.4038 C   0  0  0  0  0  0  0  0  0  0  0  0
   -1.0909   -1.8451   -0.5887 C   0  0  0  0  0  0  0  0  0  0  0  0
   -0.8681   -2.6924    0.5229 C   0  0  0  0  0  0  0  0  0  0  0  0
   -0.2033   -3.9129    0.4082 C   0  0  0  0  0  0  0  0  0  0  0  0
    0.2746   -4.3311   -0.8273 C   0  0  0  0  0  0  0  0  0  0  0  0
    0.0715   -3.5189   -1.9361 C   0  0  0  0  0  0  0  0  0  0  0  0
   -0.5934   -2.2895   -1.8337 C   0  0  0  0  0  0  0  0  0  0  0  0
   -0.7703   -1.5848   -2.9853 O   0  0  0  0  0  0  0  0  0  0  0  0
    0.3764   -0.9651   -3.5475 C   0  0  0  0  0  0  0  0  0  0  0  0
   -0.0520   -0.3679   -4.9055 C   0  0  0  0  0  0  0  0  0  0  0  0
    0.1990    1.1476   -4.8126 C   0  0  0  0  0  0  0  0  0  0  0  0
    0.1515    1.4326   -3.3096 C   0  0  0  0  0  0  0  0  0  0  0  0
    0.8860    0.2297   -2.7231 C   0  0  0  0  0  0  0  0  0  0  0  0
   -2.0073    0.2435   -1.3920 O   0  0  0  0  0  0  0  0  0  0  0  0
    1.9532    2.4001    2.0781 N   0  0  0  0  0  0  0  0  0  0  0  0
    3.2707    2.1299    2.1989 C   0  0  0  0  0  0  0  0  0  0  0  0
    3.9636    2.8205    3.3612 C   0  0  0  0  0  0  0  0  0  0  0  0
    3.8705    1.3655    1.4604 O   0  0  0  0  0  0  0  0  0  0  0  0
    1.6620    1.8727    0.0875 H   0  0  0  0  0  0  0  0  0  0  0  0
   -0.9787    2.5062   -0.0516 N   0  0  0  0  0  0  0  0  0  0  0  0
   -2.1949    3.2718   -0.1735 C   0  0  0  0  0  0  0  0  0  0  0  0
    0.2174   -0.0322    0.4502 H   0  0  0  0  0  0  0  0  0  0  0  0
    1.7525   -0.1907    1.3170 H   0  0  0  0  0  0  0  0  0  0  0  0
   -0.0800   -4.5136    1.3110 H   0  0  0  0  0  0  0  0  0  0  0  0
    0.7962   -5.2856   -0.9313 H   0  0  0  0  0  0  0  0  0  0  0  0
    0.4152   -3.8309   -2.9255 H   0  0  0  0  0  0  0  0  0  0  0  0
    1.1716   -1.7253   -3.6628 H   0  0  0  0  0  0  0  0  0  0  0  0
   -1.1250   -0.5797   -5.0155 H   0  0  0  0  0  0  0  0  0  0  0  0
    0.4698   -0.8370   -5.7531 H   0  0  0  0  0  0  0  0  0  0  0  0
   -0.5332    1.7314   -5.3911 H   0  0  0  0  0  0  0  0  0  0  0  0
    1.1990    1.3948   -5.2105 H   0  0  0  0  0  0  0  0  0  0  0  0
   -0.8857    1.3995   -2.9446 H   0  0  0  0  0  0  0  0  0  0  0  0
    0.5962    2.3988   -3.0271 H   0  0  0  0  0  0  0  0  0  0  0  0
    0.7188    0.0816   -1.6486 H   0  0  0  0  0  0  0  0  0  0  0  0
    1.9744    0.3299   -2.8774 H   0  0  0  0  0  0  0  0  0  0  0  0
    1.4922    3.1329    2.6126 H   0  0  0  0  0  0  0  0  0  0  0  0
    3.4070    3.6863    3.7461 H   0  0  0  0  0  0  0  0  0  0  0  0
    4.9656    3.1332    3.0397 H   0  0  0  0  0  0  0  0  0  0  0  0
    4.0840    2.0914    4.1764 H   0  0  0  0  0  0  0  0  0  0  0  0
   -1.0111    1.6151   -0.5653 H   0  0  0  0  0  0  0  0  0  0  0  0
   -2.0075    4.2731   -0.5952 H   0  0  0  0  0  0  0  0  0  0  0  0
   -2.6770    3.4066    0.8077 H   0  0  0  0  0  0  0  0  0  0  0  0
   -2.8633    2.7069   -0.8360 H   0  0  0  0  0  0  0  0  0  0  0  0
   -2.3802   -0.8005    2.9696 H   0  0  0  0  0  0  0  0  0  0  0  0
   -2.7983    0.7159    1.0188 H   0  0  0  0  0  0  0  0  0  0  0  0
  2  3  1  0  0  0  0
  2  1  2  0  0  0  0
  3 28  1  6  0  0  0
  3  4  1  0  0  0  0
  3 24  1  0  0  0  0
  4 32  1  0  0  0  0
  4  5  1  0  0  0  0
  6  5  1  0  0  0  0
  6 53  1  1  0  0  0
  7  6  1  0  0  0  0
  7  8  2  0  0  0  0
  9 54  1  0  0  0  0
  9  6  1  0  0  0  0
 10  9  1  0  0  0  0
 11 10  1  0  0  0  0
 11 12  1  0  0  0  0
 12  7  1  0  0  0  0
 13 12  2  0  0  0  0
 13 33  1  0  0  0  0
 14 13  1  0  0  0  0
 15 16  1  0  0  0  0
 15 14  2  0  0  0  0
 16 11  2  0  0  0  0
 17 16  1  0  0  0  0
 18 17  1  0  0  0  0
 18 22  1  0  0  0  0
 19 20  1  0  0  0  0
 19 18  1  0  0  0  0
 20 21  1  0  0  0  0
 21 42  1  0  0  0  0
 21 41  1  0  0  0  0
 21 22  1  0  0  0  0
 22 43  1  0  0  0  0
 23 10  2  0  0  0  0
 24 25  1  0  0  0  0
 24 45  1  0  0  0  0
 25 26  1  0  0  0  0
 26 46  1  0  0  0  0
 26 48  1  0  0  0  0
 27 25  2  0  0  0  0
 29  2  1  0  0  0  0
 30 29  1  0  0  0  0
 30 51  1  0  0  0  0
 31  4  1  0  0  0  0
 34 14  1  0  0  0  0
 35 15  1  0  0  0  0
 36 18  1  0  0  0  0
 37 19  1  0  0  0  0
 38 19  1  0  0  0  0
 39 20  1  0  0  0  0
 40 20  1  0  0  0  0
 44 22  1  0  0  0  0
 47 26  1  0  0  0  0
 49 29  1  0  0  0  0
 50 30  1  0  0  0  0
 52 30  1  0  0  0  0
M  END
