-1 1
 OpenBabel05192410563D

 73 76  0  0  1  0  0  0  0  0999 V2000
   -2.4531    0.8685    0.7544 O   0  0  0  0  0  0  0  0  0  0  0  0
   -1.9349   -0.1213    0.2508 C   0  0  0  0  0  0  0  0  0  0  0  0
   -0.9766    0.0302   -0.9452 C   0  0  2  0  0  0  0  0  0  0  0  0
   -1.5856   -0.5047   -2.2715 C   0  0  0  0  0  0  0  0  0  0  0  0
   -2.4405    0.7002   -3.3356 S   0  0  0  0  0  0  0  0  0  0  0  0
   -1.0077    1.4936   -4.2913 C   0  0  1  0  0  0  0  0  0  0  0  0
    0.0705    1.8949   -3.3535 C   0  0  1  0  0  3  0  0  0  0  0  0
   -0.3425    2.8643   -2.4138 N   0  0  0  0  0  0  0  0  0  0  0  0
    0.4676    3.4619   -1.4775 C   0  0  0  0  0  0  0  0  0  0  0  0
   -0.0287    3.5149   -0.2445 N   0  0  0  0  0  0  0  0  0  0  0  0
    0.6788    4.0859    0.7302 C   0  0  0  0  0  0  0  0  0  0  0  0
    0.1887    3.8471    2.1424 C   0  0  0  0  0  0  0  0  0  0  0  0
   -0.8286    2.9530    2.2096 N   0  0  0  0  0  0  0  0  0  0  0  0
   -1.0356    2.1363    3.3751 C   0  0  0  0  0  0  0  0  0  0  0  0
   -0.3115    0.8022    3.2692 C   0  0  0  0  0  0  0  0  0  0  0  0
   -0.8540   -0.3631    3.8087 C   0  0  0  0  0  0  0  0  0  0  0  0
   -0.2091   -1.5959    3.6945 C   0  0  0  0  0  0  0  0  0  0  0  0
    1.0117   -1.6688    3.0254 C   0  0  0  0  0  0  0  0  0  0  0  0
    1.7200   -2.8327    2.8708 O   0  0  0  0  0  0  0  0  0  0  0  0
    1.0790   -4.0313    3.0513 C   0  0  0  0  0  0  0  0  0  0  0  0
    0.2734   -4.5493    2.0364 C   0  0  0  0  0  0  0  0  0  0  0  0
   -0.3390   -5.7863    2.2289 C   0  0  0  0  0  0  0  0  0  0  0  0
   -0.1489   -6.4997    3.4140 C   0  0  0  0  0  0  0  0  0  0  0  0
    0.6656   -5.9726    4.4156 C   0  0  0  0  0  0  0  0  0  0  0  0
    1.2818   -4.7341    4.2379 C   0  0  0  0  0  0  0  0  0  0  0  0
    1.5806   -0.5123    2.4928 C   0  0  0  0  0  0  0  0  0  0  0  0
    0.9207    0.7027    2.6115 C   0  0  0  0  0  0  0  0  0  0  0  0
    0.7507    4.3303    3.1134 O   0  0  0  0  0  0  0  0  0  0  0  0
    1.9073    4.6956    0.5199 C   0  0  0  0  0  0  0  0  0  0  0  0
    2.4303    4.6488   -0.7815 C   0  0  0  0  0  0  0  0  0  0  0  0
    1.7316    4.0128   -1.7881 C   0  0  0  0  0  0  0  0  0  0  0  0
    1.2008    1.1104   -3.1684 C   0  0  0  0  0  0  0  0  0  0  0  0
    2.0085    1.1677   -2.1756 O   0  0  0  0  0  0  0  0  0  0  0  0
    1.4483    0.0908   -4.2169 C   0  0  0  0  0  0  0  0  0  0  0  0
    0.6130   -0.2166   -5.2330 C   0  0  0  0  0  0  0  0  0  0  0  0
   -0.6275    0.5426   -5.4234 C   0  0  0  0  0  0  0  0  0  0  0  0
   -1.3224    0.4356   -6.4159 O   0  0  0  0  0  0  0  0  0  0  0  0
    0.3707   -0.4761   -0.7333 N   0  0  0  0  0  0  0  0  0  0  0  0
    0.7105   -1.7686   -0.6628 C   0  0  0  0  0  0  0  0  0  0  0  0
    2.1929   -2.0517   -0.6898 C   0  0  0  0  0  0  0  0  0  0  0  0
   -0.1070   -2.6953   -0.5636 O   0  0  0  0  0  0  0  0  0  0  0  0
   -0.8529    1.1124   -1.0125 H   0  0  0  0  0  0  0  0  0  0  0  0
   -2.1997   -1.3852    0.6373 N   0  0  0  0  0  0  0  0  0  0  0  0
   -3.1292   -1.7035    1.6862 C   0  0  0  0  0  0  0  0  0  0  0  0
   -0.7911   -0.9749   -2.8657 H   0  0  0  0  0  0  0  0  0  0  0  0
   -2.3348   -1.2846   -2.0758 H   0  0  0  0  0  0  0  0  0  0  0  0
   -1.2845    2.7116   -2.0519 H   0  0  0  0  0  0  0  0  0  0  0  0
   -1.1740    2.5809    1.3224 H   0  0  0  0  0  0  0  0  0  0  0  0
   -2.1111    1.9553    3.5192 H   0  0  0  0  0  0  0  0  0  0  0  0
   -0.6625    2.7009    4.2439 H   0  0  0  0  0  0  0  0  0  0  0  0
   -1.8225   -0.3200    4.3149 H   0  0  0  0  0  0  0  0  0  0  0  0
   -0.6639   -2.4957    4.1120 H   0  0  0  0  0  0  0  0  0  0  0  0
    0.1468   -3.9860    1.1052 H   0  0  0  0  0  0  0  0  0  0  0  0
   -0.9676   -6.1986    1.4362 H   0  0  0  0  0  0  0  0  0  0  0  0
   -0.6322   -7.4692    3.5546 H   0  0  0  0  0  0  0  0  0  0  0  0
    0.8233   -6.5269    5.3439 H   0  0  0  0  0  0  0  0  0  0  0  0
    1.9216   -4.2975    5.0071 H   0  0  0  0  0  0  0  0  0  0  0  0
    2.5353   -0.5801    1.9696 H   0  0  0  0  0  0  0  0  0  0  0  0
    1.3750    1.5867    2.1612 H   0  0  0  0  0  0  0  0  0  0  0  0
    2.4425    5.1352    1.3613 H   0  0  0  0  0  0  0  0  0  0  0  0
    3.4071    5.0902   -0.9956 H   0  0  0  0  0  0  0  0  0  0  0  0
    2.1254    3.9184   -2.7995 H   0  0  0  0  0  0  0  0  0  0  0  0
    2.3910   -0.4528   -4.0913 H   0  0  0  0  0  0  0  0  0  0  0  0
    0.8493   -0.9761   -5.9820 H   0  0  0  0  0  0  0  0  0  0  0  0
    1.1108    0.1953   -1.0321 H   0  0  0  0  0  0  0  0  0  0  0  0
    2.7690   -1.1754   -1.0172 H   0  0  0  0  0  0  0  0  0  0  0  0
    2.3720   -2.8970   -1.3681 H   0  0  0  0  0  0  0  0  0  0  0  0
    2.5050   -2.3615    0.3195 H   0  0  0  0  0  0  0  0  0  0  0  0
   -1.6244   -2.1156    0.2036 H   0  0  0  0  0  0  0  0  0  0  0  0
   -2.6803   -2.4095    2.4007 H   0  0  0  0  0  0  0  0  0  0  0  0
   -4.0557   -2.1515    1.2868 H   0  0  0  0  0  0  0  0  0  0  0  0
   -3.3914   -0.7775    2.2138 H   0  0  0  0  0  0  0  0  0  0  0  0
   -1.5226    2.3535   -4.7461 H   0  0  0  0  0  0  0  0  0  0  0  0
  2 43  1  0  0  0  0
  2  1  2  0  0  0  0
  3 42  1  6  0  0  0
  3 38  1  0  0  0  0
  3  2  1  0  0  0  0
  4 46  1  0  0  0  0
  4  3  1  0  0  0  0
  5  4  1  0  0  0  0
  6 73  1  6  0  0  0
  6  7  1  0  0  0  0
  6  5  1  0  0  0  0
  7 32  1  0  0  0  0
  7  8  1  1  0  0  0
  8 47  1  0  0  0  0
  8  9  1  0  0  0  0
  9 10  1  0  0  0  0
 10 11  2  0  0  0  0
 11 12  1  0  0  0  0
 12 13  1  0  0  0  0
 12 28  2  0  0  0  0
 13 14  1  0  0  0  0
 14 49  1  0  0  0  0
 14 50  1  0  0  0  0
 15 14  1  0  0  0  0
 15 16  1  0  0  0  0
 16 51  1  0  0  0  0
 17 16  2  0  0  0  0
 17 52  1  0  0  0  0
 18 17  1  0  0  0  0
 19 18  1  0  0  0  0
 19 20  1  0  0  0  0
 20 25  1  0  0  0  0
 21 22  1  0  0  0  0
 21 20  2  0  0  0  0
 22 23  2  0  0  0  0
 23 55  1  0  0  0  0
 23 24  1  0  0  0  0
 24 56  1  0  0  0  0
 25 24  2  0  0  0  0
 25 57  1  0  0  0  0
 26 27  1  0  0  0  0
 26 18  2  0  0  0  0
 27 15  2  0  0  0  0
 29 11  1  0  0  0  0
 29 60  1  0  0  0  0
 30 29  2  0  0  0  0
 31  9  2  0  0  0  0
 31 30  1  0  0  0  0
 32 33  2  0  0  0  0
 34 63  1  0  0  0  0
 34 32  1  0  0  0  0
 35 34  2  0  0  0  0
 36 35  1  0  0  0  0
 36  6  1  0  0  0  0
 37 36  2  0  0  0  0
 38 39  1  0  0  0  0
 39 41  2  0  0  0  0
 40 39  1  0  0  0  0
 40 68  1  0  0  0  0
 43 44  1  0  0  0  0
 44 72  1  0  0  0  0
 44 70  1  0  0  0  0
 45  4  1  0  0  0  0
 48 13  1  0  0  0  0
 53 21  1  0  0  0  0
 54 22  1  0  0  0  0
 58 26  1  0  0  0  0
 59 27  1  0  0  0  0
 61 30  1  0  0  0  0
 62 31  1  0  0  0  0
 64 35  1  0  0  0  0
 65 38  1  0  0  0  0
 66 40  1  0  0  0  0
 67 40  1  0  0  0  0
 69 43  1  0  0  0  0
 71 44  1  0  0  0  0
M  END
