-1 1
 OpenBabel05232413493D

 55 55  0  0  1  0  0  0  0  0999 V2000
   -0.8698   -0.5508   -4.5377 O   0  0  0  0  0  0  0  0  0  0  0  0
   -0.6048   -0.0816   -3.4437 C   0  0  0  0  0  0  0  0  0  0  0  0
    0.4022   -0.7656   -2.5115 C   0  0  2  0  0  0  0  0  0  0  0  0
   -0.3917   -1.8231   -1.7083 C   0  0  0  0  0  0  0  0  0  0  0  0
    0.4027   -2.5203   -0.2446 S   0  0  0  0  0  1  0  0  0  0  0  0
   -0.4514    0.0667    1.4862 C   0  0  0  0  0  0  0  0  0  0  0  0
    0.8160    0.6754    1.9584 C   0  0  0  0  0  0  0  0  0  0  0  0
    1.9935   -0.0861    1.9907 C   0  0  0  0  0  0  0  0  0  0  0  0
    3.1943    0.4797    2.4053 C   0  0  0  0  0  0  0  0  0  0  0  0
    3.2698    1.8174    2.8086 C   0  0  0  0  0  0  0  0  0  0  0  0
    4.5860    2.4325    3.2083 C   0  0  0  0  0  0  0  0  0  0  0  0
    2.0896    2.5664    2.8017 C   0  0  0  0  0  0  0  0  0  0  0  0
    0.8845    2.0056    2.3875 C   0  0  0  0  0  0  0  0  0  0  0  0
   -0.7716   -1.3027    2.0095 C   0  0  0  0  0  0  0  0  0  0  0  0
   -0.2251   -1.7549    2.9957 O   0  0  0  0  0  0  0  0  0  0  0  0
   -1.3294    0.7055    0.6733 C   0  0  0  0  0  0  0  0  0  0  0  0
   -1.0094    1.9132    0.1271 O   0  0  0  0  0  0  0  0  0  0  0  0
   -1.8671    3.0082    0.3728 C   0  0  0  0  0  0  0  0  0  0  0  0
   -2.6028    0.0681    0.2100 C   0  0  0  0  0  0  0  0  0  0  0  0
   -3.3975    0.6990   -0.4831 O   0  0  0  0  0  0  0  0  0  0  0  0
   -2.8257   -1.3102    0.5966 C   0  0  0  0  0  0  0  0  0  0  0  0
   -1.9418   -1.9936    1.3796 C   0  0  0  0  0  0  0  0  0  0  0  0
   -2.1032   -3.2380    1.8165 O   0  0  0  0  0  0  0  0  0  0  0  0
   -3.0027   -4.0616    1.1285 C   0  0  0  0  0  0  0  0  0  0  0  0
    1.0497    0.1532   -1.6104 N   0  0  0  0  0  0  0  0  0  0  0  0
    1.8390    1.1703   -2.0475 C   0  0  0  0  0  0  0  0  0  0  0  0
    2.4923    1.9799   -0.9448 C   0  0  0  0  0  0  0  0  0  0  0  0
    1.9716    1.4423   -3.2282 O   0  0  0  0  0  0  0  0  0  0  0  0
    1.1370   -1.2604   -3.1671 H   0  0  0  0  0  0  0  0  0  0  0  0
   -1.2429    0.9816   -2.8976 N   0  0  0  0  0  0  0  0  0  0  0  0
   -2.3550    1.6347   -3.5294 C   0  0  0  0  0  0  0  0  0  0  0  0
   -1.3375   -1.3538   -1.3745 H   0  0  0  0  0  0  0  0  0  0  0  0
   -0.6832   -2.6162   -2.4121 H   0  0  0  0  0  0  0  0  0  0  0  0
    1.9599   -1.1245    1.6577 H   0  0  0  0  0  0  0  0  0  0  0  0
    4.0982   -0.1363    2.4083 H   0  0  0  0  0  0  0  0  0  0  0  0
    5.1668    2.7276    2.3186 H   0  0  0  0  0  0  0  0  0  0  0  0
    5.2033    1.7237    3.7806 H   0  0  0  0  0  0  0  0  0  0  0  0
    4.4412    3.3336    3.8222 H   0  0  0  0  0  0  0  0  0  0  0  0
    2.1109    3.6103    3.1281 H   0  0  0  0  0  0  0  0  0  0  0  0
   -0.0208    2.6130    2.4082 H   0  0  0  0  0  0  0  0  0  0  0  0
   -1.3711    3.8907   -0.0532 H   0  0  0  0  0  0  0  0  0  0  0  0
   -1.9986    3.1656    1.4589 H   0  0  0  0  0  0  0  0  0  0  0  0
   -2.8495    2.8599   -0.0935 H   0  0  0  0  0  0  0  0  0  0  0  0
   -3.7216   -1.7702    0.1806 H   0  0  0  0  0  0  0  0  0  0  0  0
   -2.8851   -5.0710    1.5417 H   0  0  0  0  0  0  0  0  0  0  0  0
   -2.7659   -4.0775    0.0514 H   0  0  0  0  0  0  0  0  0  0  0  0
   -4.0486   -3.7351    1.2692 H   0  0  0  0  0  0  0  0  0  0  0  0
    1.1395   -0.1903   -0.6544 H   0  0  0  0  0  0  0  0  0  0  0  0
    3.0737    1.3393   -0.2655 H   0  0  0  0  0  0  0  0  0  0  0  0
    1.7144    2.4655   -0.3371 H   0  0  0  0  0  0  0  0  0  0  0  0
    3.1438    2.7360   -1.3985 H   0  0  0  0  0  0  0  0  0  0  0  0
   -0.9728    1.2731   -1.9630 H   0  0  0  0  0  0  0  0  0  0  0  0
   -2.5617    1.1093   -4.4713 H   0  0  0  0  0  0  0  0  0  0  0  0
   -2.1306    2.6904   -3.7605 H   0  0  0  0  0  0  0  0  0  0  0  0
   -3.2433    1.5904   -2.8801 H   0  0  0  0  0  0  0  0  0  0  0  0
  1  2  2  0  0  0  0
  2 30  1  0  0  0  0
  2  3  1  0  0  0  0
  3 29  1  6  0  0  0
  3  4  1  0  0  0  0
  3 25  1  0  0  0  0
  4 32  1  0  0  0  0
  4  5  1  0  0  0  0
  6  7  1  0  0  0  0
  6 14  1  0  0  0  0
  7  8  2  0  0  0  0
  7 13  1  0  0  0  0
  8  9  1  0  0  0  0
  9 35  1  0  0  0  0
  9 10  2  0  0  0  0
 10 11  1  0  0  0  0
 11 37  1  0  0  0  0
 11 38  1  0  0  0  0
 12 10  1  0  0  0  0
 12 39  1  0  0  0  0
 13 40  1  0  0  0  0
 13 12  2  0  0  0  0
 14 15  2  0  0  0  0
 16  6  2  0  0  0  0
 17 18  1  0  0  0  0
 17 16  1  0  0  0  0
 18 42  1  0  0  0  0
 19 21  1  0  0  0  0
 19 16  1  0  0  0  0
 20 19  2  0  0  0  0
 21 22  2  0  0  0  0
 22 23  1  0  0  0  0
 22 14  1  0  0  0  0
 24 47  1  0  0  0  0
 24 45  1  0  0  0  0
 24 23  1  0  0  0  0
 25 48  1  0  0  0  0
 26 25  1  0  0  0  0
 26 27  1  0  0  0  0
 27 50  1  0  0  0  0
 27 49  1  0  0  0  0
 28 26  2  0  0  0  0
 30 52  1  0  0  0  0
 31 30  1  0  0  0  0
 31 55  1  0  0  0  0
 33  4  1  0  0  0  0
 34  8  1  0  0  0  0
 36 11  1  0  0  0  0
 41 18  1  0  0  0  0
 43 18  1  0  0  0  0
 44 21  1  0  0  0  0
 46 24  1  0  0  0  0
 51 27  1  0  0  0  0
 53 31  1  0  0  0  0
 54 31  1  0  0  0  0
M  END
