55
-1 1
O        -0.869840   -0.550786   -4.537655
C        -0.604823   -0.081639   -3.443714
C         0.402155   -0.765627   -2.511541
C        -0.391726   -1.823055   -1.708292
S         0.402719   -2.520336   -0.244573
C        -0.451399    0.066727    1.486218
C         0.815962    0.675387    1.958379
C         1.993526   -0.086144    1.990707
C         3.194316    0.479657    2.405266
C         3.269846    1.817388    2.808646
C         4.586013    2.432470    3.208303
C         2.089644    2.566412    2.801680
C         0.884486    2.005605    2.387549
C        -0.771634   -1.302655    2.009477
O        -0.225093   -1.754901    2.995656
C        -1.329360    0.705538    0.673341
O        -1.009415    1.913166    0.127134
C        -1.867098    3.008188    0.372785
C        -2.602757    0.068147    0.210026
O        -3.397452    0.699032   -0.483103
C        -2.825654   -1.310224    0.596568
C        -1.941795   -1.993623    1.379630
O        -2.103201   -3.238013    1.816476
C        -3.002663   -4.061605    1.128538
N         1.049729    0.153155   -1.610441
C         1.838970    1.170265   -2.047538
C         2.492313    1.979887   -0.944824
O         1.971602    1.442309   -3.228196
H         1.136960   -1.260370   -3.167061
N        -1.242919    0.981552   -2.897648
C        -2.354982    1.634683   -3.529386
H        -1.337546   -1.353803   -1.374459
H        -0.683185   -2.616169   -2.412119
H         1.959947   -1.124549    1.657703
H         4.098156   -0.136344    2.408298
H         5.166776    2.727624    2.318640
H         5.203264    1.723717    3.780631
H         4.441237    3.333583    3.822235
H         2.110938    3.610295    3.128130
H        -0.020831    2.613023    2.408198
H        -1.371146    3.890746   -0.053187
H        -1.998604    3.165567    1.458921
H        -2.849461    2.859884   -0.093478
H        -3.721636   -1.770170    0.180592
H        -2.885058   -5.071049    1.541671
H        -2.765881   -4.077489    0.051406
H        -4.048626   -3.735099    1.269174
H         1.139522   -0.190282   -0.654445
H         3.073691    1.339257   -0.265524
H         1.714413    2.465474   -0.337066
H         3.143826    2.735952   -1.398549
H        -0.972833    1.273080   -1.963034
H        -2.561732    1.109346   -4.471264
H        -2.130645    2.690380   -3.760461
H        -3.243319    1.590402   -2.880120
