47
-1 1
O         4.320807    1.517327   -0.913389
C         3.345099    1.590030   -0.187330
C         2.124472    0.684290   -0.405126
C         1.515850    1.005690   -1.777950
S         0.286196   -0.178939   -2.365858
C        -1.358395    0.358358   -1.608599
C        -2.017863   -0.841205   -0.948822
C        -1.300360   -1.801487   -0.227314
C        -1.949058   -2.827869    0.468009
C        -1.218717   -3.873471    1.273964
N         0.062997   -3.603687    1.622982
O        -1.770830   -4.912848    1.603880
C        -3.342478   -2.921906    0.412492
C        -4.069554   -1.980951   -0.310623
C        -3.413270   -0.948584   -0.979132
C        -1.355154    1.524303   -0.661358
C        -1.221842    2.839157   -1.141722
O        -0.873402    3.156263   -2.295961
C        -1.458510    3.975354   -0.138330
N         1.130958    0.809656    0.638862
C         0.959014   -0.144903    1.582158
C        -0.244190    0.046627    2.481948
O         1.697041   -1.118195    1.712266
H         2.513611   -0.345308   -0.405338
N         3.231144    2.473595    0.835746
C         4.255065    3.425765    1.163322
H         1.070834    2.012041   -1.809218
H         2.324756    0.975526   -2.520488
H        -0.210020   -1.746997   -0.248264
H         0.544017   -2.709760    1.523383
H         0.520606   -4.309738    2.183502
H        -3.827795   -3.745648    0.938924
H        -5.159589   -2.050319   -0.355155
H        -3.987147   -0.200641   -1.533234
H        -0.533946    4.567790   -0.041534
H        -1.770307    3.628728    0.859346
H        -2.228632    4.652304   -0.540998
H         0.258131    1.311866    0.332186
H         0.019645   -0.279426    3.496446
H        -1.060266   -0.595765    2.117511
H        -0.604031    1.083618    2.493603
H         2.368137    2.433862    1.363637
H         4.635613    3.280926    2.188169
H         3.891610    4.462354    1.069162
H         5.082226    3.277846    0.456443
H        -1.841376    1.360426    0.305522
H        -1.929431    0.629019   -2.511739
