51
-1 1
O         4.972027   -0.196398    0.506930
C         3.802754    0.157964    0.520689
C         2.659112   -0.845756    0.290557
C         2.033606   -0.583817   -1.102704
S         0.421078   -1.324779   -1.423854
C        -0.839148    0.159823   -1.100114
C        -2.112532   -0.420459   -0.501718
C        -3.291061    0.329972   -0.612979
C        -4.470798   -0.089745   -0.011568
C        -4.523099   -1.277507    0.730081
C        -5.812408   -1.738650    1.360720
C        -3.347338   -2.019092    0.843657
C        -2.161409   -1.600461    0.237145
C        -0.280442    1.221155   -0.243644
O        -0.358200    0.991869    1.124265
C        -0.977599    2.017541    1.862818
C         0.501548    2.271771   -0.703971
O         1.177885    3.059561    0.025842
C         0.537199    2.437658   -2.184516
C        -0.110598    1.639951   -3.051918
C        -1.018387    0.579226   -2.568026
O        -1.852935    0.076082   -3.291501
N         1.705652   -0.833136    1.369044
C         1.338077   -1.973632    2.012282
C         0.200350   -1.775647    3.000625
O         1.878871   -3.054743    1.856233
H         3.124121   -1.838748    0.303893
N         3.428965    1.446407    0.696638
C         4.408198    2.494392    0.822603
H         1.932579    0.496141   -1.273577
H         2.717755   -0.959237   -1.877014
H        -3.277801    1.265897   -1.175530
H        -5.373273    0.520063   -0.117861
H        -6.502524   -2.145227    0.602849
H        -6.333528   -0.909050    1.863462
H        -5.635372   -2.528730    2.105055
H        -3.347080   -2.946570    1.423939
H        -1.255158   -2.195869    0.351626
H        -0.976663    1.703524    2.917373
H        -2.021696    2.154596    1.530016
H        -0.420678    2.960974    1.751247
H         1.152267    3.274325   -2.530767
H        -0.093175    1.802346   -4.132137
H         1.070845   -0.035256    1.449617
H         0.606409   -1.395512    3.951145
H        -0.276703   -2.745501    3.187626
H        -0.537990   -1.053787    2.623453
H         2.459857    1.780674    0.615299
H         4.814503    2.567471    1.846809
H         3.920469    3.443444    0.563288
H         5.256912    2.312935    0.145506
