51
-1 1
O         4.596097   -0.300337    0.617032
C         3.391808   -0.124330    0.688866
C         2.409610   -1.123430    0.065130
C         2.269767   -0.730225   -1.424877
S         0.885756   -1.428378   -2.340515
C        -1.127838    0.780134   -1.019790
C        -2.163745    0.017170   -0.284372
C        -2.949974    0.599750    0.716691
C        -3.894632   -0.147112    1.414655
C        -4.093429   -1.502807    1.135920
C        -5.078755   -2.327161    1.923267
C        -3.325624   -2.077284    0.117249
C        -2.381126   -1.335752   -0.584675
C        -0.284802    1.664397   -0.427808
O        -0.266561    1.792975    0.929862
C        -0.515455    3.065931    1.489627
C         0.756815    2.424925   -1.192039
O         1.436620    3.283089   -0.636436
C         0.923855    2.060421   -2.591460
C         0.139131    1.125773   -3.183635
C        -1.055279    0.575806   -2.508049
O        -1.996164    0.111579   -3.129289
N         1.120512   -1.121371    0.708514
C         0.958720   -1.481594    2.010355
C        -0.478712   -1.485919    2.491076
O         1.898057   -1.730184    2.745813
H         2.889408   -2.111686    0.151159
N         2.815568    0.992598    1.194967
C         3.573236    2.123773    1.652716
H         2.164511    0.373783   -1.478218
H         3.225363   -0.963179   -1.915673
H        -2.828475    1.657893    0.950192
H        -4.491555    0.336705    2.193336
H        -5.856463   -1.698590    2.381572
H        -4.571856   -2.871971    2.737036
H        -5.574288   -3.076271    1.287734
H        -3.463817   -3.133275   -0.132030
H        -1.777895   -1.808254   -1.361305
H        -0.603821    2.914775    2.574025
H        -1.467764    3.479702    1.111001
H         0.296948    3.768807    1.265781
H         1.746236    2.548553   -3.118020
H         0.233964    0.872828   -4.239903
H         0.326909   -1.143884    0.069547
H        -0.885051   -0.465107    2.435161
H        -0.504979   -1.846526    3.526043
H        -1.115707   -2.117594    1.854643
H         1.802180    1.055076    1.187525
H         3.414621    2.312153    2.728494
H         3.294454    3.025241    1.085167
H         4.636608    1.902601    1.491478
