-1 1
 OpenBabel05192410563D

 51 52  0  0  1  0  0  0  0  0999 V2000
    4.9720   -0.1964    0.5069 O   0  0  0  0  0  0  0  0  0  0  0  0
    3.8028    0.1580    0.5207 C   0  0  0  0  0  0  0  0  0  0  0  0
    2.6591   -0.8458    0.2906 C   0  0  2  0  0  0  0  0  0  0  0  0
    2.0336   -0.5838   -1.1027 C   0  0  0  0  0  0  0  0  0  0  0  0
    0.4211   -1.3248   -1.4239 S   0  0  0  0  0  0  0  0  0  0  0  0
   -0.8391    0.1598   -1.1001 C   0  0  1  0  0  0  0  0  0  0  0  0
   -2.1125   -0.4205   -0.5017 C   0  0  0  0  0  0  0  0  0  0  0  0
   -3.2911    0.3300   -0.6130 C   0  0  0  0  0  0  0  0  0  0  0  0
   -4.4708   -0.0897   -0.0116 C   0  0  0  0  0  0  0  0  0  0  0  0
   -4.5231   -1.2775    0.7301 C   0  0  0  0  0  0  0  0  0  0  0  0
   -5.8124   -1.7387    1.3607 C   0  0  0  0  0  0  0  0  0  0  0  0
   -3.3473   -2.0191    0.8437 C   0  0  0  0  0  0  0  0  0  0  0  0
   -2.1614   -1.6005    0.2371 C   0  0  0  0  0  0  0  0  0  0  0  0
   -0.2804    1.2212   -0.2436 C   0  0  1  0  0  3  0  0  0  0  0  0
   -0.3582    0.9919    1.1243 O   0  0  0  0  0  0  0  0  0  0  0  0
   -0.9776    2.0175    1.8628 C   0  0  0  0  0  0  0  0  0  0  0  0
    0.5015    2.2718   -0.7040 C   0  0  0  0  0  0  0  0  0  0  0  0
    1.1779    3.0596    0.0258 O   0  0  0  0  0  0  0  0  0  0  0  0
    0.5372    2.4377   -2.1845 C   0  0  0  0  0  0  0  0  0  0  0  0
   -0.1106    1.6400   -3.0519 C   0  0  0  0  0  0  0  0  0  0  0  0
   -1.0184    0.5792   -2.5680 C   0  0  0  0  0  0  0  0  0  0  0  0
   -1.8529    0.0761   -3.2915 O   0  0  0  0  0  0  0  0  0  0  0  0
    1.7057   -0.8331    1.3690 N   0  0  0  0  0  0  0  0  0  0  0  0
    1.3381   -1.9736    2.0123 C   0  0  0  0  0  0  0  0  0  0  0  0
    0.2004   -1.7756    3.0006 C   0  0  0  0  0  0  0  0  0  0  0  0
    1.8789   -3.0547    1.8562 O   0  0  0  0  0  0  0  0  0  0  0  0
    3.1241   -1.8387    0.3039 H   0  0  0  0  0  0  0  0  0  0  0  0
    3.4290    1.4464    0.6966 N   0  0  0  0  0  0  0  0  0  0  0  0
    4.4082    2.4944    0.8226 C   0  0  0  0  0  0  0  0  0  0  0  0
    1.9326    0.4961   -1.2736 H   0  0  0  0  0  0  0  0  0  0  0  0
    2.7178   -0.9592   -1.8770 H   0  0  0  0  0  0  0  0  0  0  0  0
   -3.2778    1.2659   -1.1755 H   0  0  0  0  0  0  0  0  0  0  0  0
   -5.3733    0.5201   -0.1179 H   0  0  0  0  0  0  0  0  0  0  0  0
   -6.5025   -2.1452    0.6028 H   0  0  0  0  0  0  0  0  0  0  0  0
   -6.3335   -0.9091    1.8635 H   0  0  0  0  0  0  0  0  0  0  0  0
   -5.6354   -2.5287    2.1051 H   0  0  0  0  0  0  0  0  0  0  0  0
   -3.3471   -2.9466    1.4239 H   0  0  0  0  0  0  0  0  0  0  0  0
   -1.2552   -2.1959    0.3516 H   0  0  0  0  0  0  0  0  0  0  0  0
   -0.9767    1.7035    2.9174 H   0  0  0  0  0  0  0  0  0  0  0  0
   -2.0217    2.1546    1.5300 H   0  0  0  0  0  0  0  0  0  0  0  0
   -0.4207    2.9610    1.7512 H   0  0  0  0  0  0  0  0  0  0  0  0
    1.1523    3.2743   -2.5308 H   0  0  0  0  0  0  0  0  0  0  0  0
   -0.0932    1.8023   -4.1321 H   0  0  0  0  0  0  0  0  0  0  0  0
    1.0708   -0.0353    1.4496 H   0  0  0  0  0  0  0  0  0  0  0  0
    0.6064   -1.3955    3.9511 H   0  0  0  0  0  0  0  0  0  0  0  0
   -0.2767   -2.7455    3.1876 H   0  0  0  0  0  0  0  0  0  0  0  0
   -0.5380   -1.0538    2.6235 H   0  0  0  0  0  0  0  0  0  0  0  0
    2.4599    1.7807    0.6153 H   0  0  0  0  0  0  0  0  0  0  0  0
    4.8145    2.5675    1.8468 H   0  0  0  0  0  0  0  0  0  0  0  0
    3.9205    3.4434    0.5633 H   0  0  0  0  0  0  0  0  0  0  0  0
    5.2569    2.3129    0.1455 H   0  0  0  0  0  0  0  0  0  0  0  0
  1  2  2  0  0  0  0
  2 28  1  0  0  0  0
  3 27  1  6  0  0  0
  3  2  1  0  0  0  0
  3 23  1  0  0  0  0
  4  3  1  0  0  0  0
  5  4  1  0  0  0  0
  6  5  1  6  0  0  0
  6  7  1  0  0  0  0
  6 14  1  0  0  0  0
  7 13  1  0  0  0  0
  8  7  2  0  0  0  0
  8  9  1  0  0  0  0
  9 10  2  0  0  0  0
 10 12  1  0  0  0  0
 10 11  1  0  0  0  0
 11 35  1  0  0  0  0
 11 36  1  0  0  0  0
 12 37  1  0  0  0  0
 13 38  1  0  0  0  0
 13 12  2  0  0  0  0
 14 15  1  1  0  0  0
 15 16  1  0  0  0  0
 16 39  1  0  0  0  0
 17 14  1  0  0  0  0
 17 18  2  0  0  0  0
 19 17  1  0  0  0  0
 20 21  1  0  0  0  0
 20 19  2  0  0  0  0
 21  6  1  0  0  0  0
 22 21  2  0  0  0  0
 23 44  1  0  0  0  0
 23 24  1  0  0  0  0
 24 25  1  0  0  0  0
 25 46  1  0  0  0  0
 25 45  1  0  0  0  0
 26 24  2  0  0  0  0
 28 29  1  0  0  0  0
 29 49  1  0  0  0  0
 30  4  1  0  0  0  0
 31  4  1  0  0  0  0
 32  8  1  0  0  0  0
 33  9  1  0  0  0  0
 34 11  1  0  0  0  0
 40 16  1  0  0  0  0
 41 16  1  0  0  0  0
 42 19  1  0  0  0  0
 43 20  1  0  0  0  0
 47 25  1  0  0  0  0
 48 28  1  0  0  0  0
 50 29  1  0  0  0  0
 51 29  1  0  0  0  0
M  END
