-1 1
 OpenBabel05232413493D

 51 51  0  0  1  0  0  0  0  0999 V2000
    4.5961   -0.3003    0.6170 O   0  0  0  0  0  0  0  0  0  0  0  0
    3.3918   -0.1243    0.6889 C   0  0  0  0  0  0  0  0  0  0  0  0
    2.4096   -1.1234    0.0651 C   0  0  2  0  0  0  0  0  0  0  0  0
    2.2698   -0.7302   -1.4249 C   0  0  0  0  0  0  0  0  0  0  0  0
    0.8858   -1.4284   -2.3405 S   0  0  0  0  0  1  0  0  0  0  0  0
   -1.1278    0.7801   -1.0198 C   0  0  0  0  0  0  0  0  0  0  0  0
   -2.1637    0.0172   -0.2844 C   0  0  0  0  0  0  0  0  0  0  0  0
   -2.9500    0.5998    0.7167 C   0  0  0  0  0  0  0  0  0  0  0  0
   -3.8946   -0.1471    1.4147 C   0  0  0  0  0  0  0  0  0  0  0  0
   -4.0934   -1.5028    1.1359 C   0  0  0  0  0  0  0  0  0  0  0  0
   -5.0788   -2.3272    1.9233 C   0  0  0  0  0  0  0  0  0  0  0  0
   -3.3256   -2.0773    0.1172 C   0  0  0  0  0  0  0  0  0  0  0  0
   -2.3811   -1.3358   -0.5847 C   0  0  0  0  0  0  0  0  0  0  0  0
   -0.2848    1.6644   -0.4278 C   0  0  0  0  0  0  0  0  0  0  0  0
   -0.2666    1.7930    0.9299 O   0  0  0  0  0  0  0  0  0  0  0  0
   -0.5155    3.0659    1.4896 C   0  0  0  0  0  0  0  0  0  0  0  0
    0.7568    2.4249   -1.1920 C   0  0  0  0  0  0  0  0  0  0  0  0
    1.4366    3.2831   -0.6364 O   0  0  0  0  0  0  0  0  0  0  0  0
    0.9239    2.0604   -2.5915 C   0  0  0  0  0  0  0  0  0  0  0  0
    0.1391    1.1258   -3.1836 C   0  0  0  0  0  0  0  0  0  0  0  0
   -1.0553    0.5758   -2.5080 C   0  0  0  0  0  0  0  0  0  0  0  0
   -1.9962    0.1116   -3.1293 O   0  0  0  0  0  0  0  0  0  0  0  0
    1.1205   -1.1214    0.7085 N   0  0  0  0  0  0  0  0  0  0  0  0
    0.9587   -1.4816    2.0104 C   0  0  0  0  0  0  0  0  0  0  0  0
   -0.4787   -1.4859    2.4911 C   0  0  0  0  0  0  0  0  0  0  0  0
    1.8981   -1.7302    2.7458 O   0  0  0  0  0  0  0  0  0  0  0  0
    2.8894   -2.1117    0.1512 H   0  0  0  0  0  0  0  0  0  0  0  0
    2.8156    0.9926    1.1950 N   0  0  0  0  0  0  0  0  0  0  0  0
    3.5732    2.1238    1.6527 C   0  0  0  0  0  0  0  0  0  0  0  0
    2.1645    0.3738   -1.4782 H   0  0  0  0  0  0  0  0  0  0  0  0
    3.2254   -0.9632   -1.9157 H   0  0  0  0  0  0  0  0  0  0  0  0
   -2.8285    1.6579    0.9502 H   0  0  0  0  0  0  0  0  0  0  0  0
   -4.4916    0.3367    2.1933 H   0  0  0  0  0  0  0  0  0  0  0  0
   -5.8565   -1.6986    2.3816 H   0  0  0  0  0  0  0  0  0  0  0  0
   -4.5719   -2.8720    2.7370 H   0  0  0  0  0  0  0  0  0  0  0  0
   -5.5743   -3.0763    1.2877 H   0  0  0  0  0  0  0  0  0  0  0  0
   -3.4638   -3.1333   -0.1320 H   0  0  0  0  0  0  0  0  0  0  0  0
   -1.7779   -1.8083   -1.3613 H   0  0  0  0  0  0  0  0  0  0  0  0
   -0.6038    2.9148    2.5740 H   0  0  0  0  0  0  0  0  0  0  0  0
   -1.4678    3.4797    1.1110 H   0  0  0  0  0  0  0  0  0  0  0  0
    0.2969    3.7688    1.2658 H   0  0  0  0  0  0  0  0  0  0  0  0
    1.7462    2.5486   -3.1180 H   0  0  0  0  0  0  0  0  0  0  0  0
    0.2340    0.8728   -4.2399 H   0  0  0  0  0  0  0  0  0  0  0  0
    0.3269   -1.1439    0.0695 H   0  0  0  0  0  0  0  0  0  0  0  0
   -0.8851   -0.4651    2.4352 H   0  0  0  0  0  0  0  0  0  0  0  0
   -0.5050   -1.8465    3.5260 H   0  0  0  0  0  0  0  0  0  0  0  0
   -1.1157   -2.1176    1.8546 H   0  0  0  0  0  0  0  0  0  0  0  0
    1.8022    1.0551    1.1875 H   0  0  0  0  0  0  0  0  0  0  0  0
    3.4146    2.3122    2.7285 H   0  0  0  0  0  0  0  0  0  0  0  0
    3.2945    3.0252    1.0852 H   0  0  0  0  0  0  0  0  0  0  0  0
    4.6366    1.9026    1.4915 H   0  0  0  0  0  0  0  0  0  0  0  0
  1  2  2  0  0  0  0
  2 28  1  0  0  0  0
  3 27  1  1  0  0  0
  3  2  1  0  0  0  0
  3 23  1  0  0  0  0
  4  3  1  0  0  0  0
  5  4  1  0  0  0  0
  6 14  2  0  0  0  0
  6  7  1  0  0  0  0
  7  8  1  0  0  0  0
  8 32  1  0  0  0  0
  8  9  2  0  0  0  0
  9 33  1  0  0  0  0
 10  9  1  0  0  0  0
 10 11  1  0  0  0  0
 11 34  1  0  0  0  0
 11 35  1  0  0  0  0
 12 10  2  0  0  0  0
 13  7  2  0  0  0  0
 13 12  1  0  0  0  0
 14 15  1  0  0  0  0
 15 16  1  0  0  0  0
 16 39  1  0  0  0  0
 17 18  2  0  0  0  0
 17 14  1  0  0  0  0
 19 17  1  0  0  0  0
 20 19  2  0  0  0  0
 20 21  1  0  0  0  0
 21  6  1  0  0  0  0
 22 21  2  0  0  0  0
 23 24  1  0  0  0  0
 24 25  1  0  0  0  0
 24 26  2  0  0  0  0
 25 46  1  0  0  0  0
 28 29  1  0  0  0  0
 29 49  1  0  0  0  0
 30  4  1  0  0  0  0
 31  4  1  0  0  0  0
 36 11  1  0  0  0  0
 37 12  1  0  0  0  0
 38 13  1  0  0  0  0
 40 16  1  0  0  0  0
 41 16  1  0  0  0  0
 42 19  1  0  0  0  0
 43 20  1  0  0  0  0
 44 23  1  0  0  0  0
 45 25  1  0  0  0  0
 47 25  1  0  0  0  0
 48 28  1  0  0  0  0
 50 29  1  0  0  0  0
 51 29  1  0  0  0  0
M  END
