46
-1 1
O         3.058966    0.047129    0.082369
C         1.987862    0.218284   -0.467140
C         1.647611   -0.446705   -1.817066
C         0.191827   -0.904709   -1.993668
S        -0.267298   -2.319816   -0.938296
C         0.089266   -1.467776    2.304007
C        -0.770593   -1.566787    3.323055
C        -1.541299   -0.467439    3.955587
N        -1.892942    0.669715    3.248848
C        -2.084299    0.950371    1.879250
C        -2.013925    2.283803    1.470058
C        -2.226156    2.651588    0.140020
C        -2.509058    1.667360   -0.811415
O        -2.702198    1.912318   -2.132921
C        -2.413600    3.186337   -2.624081
C        -2.583149    0.330084   -0.406299
C        -2.382613   -0.025974    0.917656
O        -1.824156   -0.519645    5.142068
N         2.528029   -1.556370   -2.041286
C         3.736289   -1.452987   -2.632366
C         4.576555   -2.717897   -2.563416
O         4.149705   -0.439928   -3.174491
H         1.895364    0.318901   -2.574084
N         1.060987    1.104324    0.006421
C         1.309518    1.901909    1.178804
H        -0.481379   -0.043171   -1.834333
H         0.072441   -1.166875   -3.058030
H         0.240686   -0.551817    1.732220
H         0.682797   -2.319830    1.971139
H        -0.869371   -2.504256    3.876912
H        -2.268680    1.365250    3.884525
H        -1.765749    3.055152    2.203762
H        -2.150904    3.704005   -0.134967
H        -2.540218    3.143958   -3.713474
H        -1.374097    3.486783   -2.398814
H        -3.097684    3.955539   -2.219716
H        -2.756002   -0.451053   -1.148480
H        -2.414763   -1.082467    1.179489
H         2.210649   -2.415449   -1.592474
H         3.963813   -3.630654   -2.544389
H         5.175957   -2.685585   -1.640661
H         5.259800   -2.740515   -3.421792
H         0.121276    1.070489   -0.368972
H         2.388728    1.877396    1.377347
H         0.786519    1.520977    2.073204
H         0.988609    2.942828    1.016027
