-1 1
 OpenBabel05232413493D

 46 45  0  0  1  0  0  0  0  0999 V2000
    3.0590    0.0471    0.0824 O   0  0  0  0  0  0  0  0  0  0  0  0
    1.9879    0.2183   -0.4671 C   0  0  0  0  0  0  0  0  0  0  0  0
    1.6476   -0.4467   -1.8171 C   0  0  2  0  0  0  0  0  0  0  0  0
    0.1918   -0.9047   -1.9937 C   0  0  0  0  0  0  0  0  0  0  0  0
   -0.2673   -2.3198   -0.9383 S   0  0  0  0  0  1  0  0  0  0  0  0
    0.0893   -1.4678    2.3040 C   0  0  0  0  0  0  0  0  0  0  0  0
   -0.7706   -1.5668    3.3231 C   0  0  0  0  0  0  0  0  0  0  0  0
   -1.5413   -0.4674    3.9556 C   0  0  0  0  0  0  0  0  0  0  0  0
   -1.8929    0.6697    3.2488 N   0  0  0  0  0  0  0  0  0  0  0  0
   -2.0843    0.9504    1.8793 C   0  0  0  0  0  0  0  0  0  0  0  0
   -2.0139    2.2838    1.4701 C   0  0  0  0  0  0  0  0  0  0  0  0
   -2.2262    2.6516    0.1400 C   0  0  0  0  0  0  0  0  0  0  0  0
   -2.5091    1.6674   -0.8114 C   0  0  0  0  0  0  0  0  0  0  0  0
   -2.7022    1.9123   -2.1329 O   0  0  0  0  0  0  0  0  0  0  0  0
   -2.4136    3.1863   -2.6241 C   0  0  0  0  0  0  0  0  0  0  0  0
   -2.5831    0.3301   -0.4063 C   0  0  0  0  0  0  0  0  0  0  0  0
   -2.3826   -0.0260    0.9177 C   0  0  0  0  0  0  0  0  0  0  0  0
   -1.8242   -0.5196    5.1421 O   0  0  0  0  0  0  0  0  0  0  0  0
    2.5280   -1.5564   -2.0413 N   0  0  0  0  0  0  0  0  0  0  0  0
    3.7363   -1.4530   -2.6324 C   0  0  0  0  0  0  0  0  0  0  0  0
    4.5766   -2.7179   -2.5634 C   0  0  0  0  0  0  0  0  0  0  0  0
    4.1497   -0.4399   -3.1745 O   0  0  0  0  0  0  0  0  0  0  0  0
    1.8954    0.3189   -2.5741 H   0  0  0  0  0  0  0  0  0  0  0  0
    1.0610    1.1043    0.0064 N   0  0  0  0  0  0  0  0  0  0  0  0
    1.3095    1.9019    1.1788 C   0  0  0  0  0  0  0  0  0  0  0  0
   -0.4814   -0.0432   -1.8343 H   0  0  0  0  0  0  0  0  0  0  0  0
    0.0724   -1.1669   -3.0580 H   0  0  0  0  0  0  0  0  0  0  0  0
    0.2407   -0.5518    1.7322 H   0  0  0  0  0  0  0  0  0  0  0  0
    0.6828   -2.3198    1.9711 H   0  0  0  0  0  0  0  0  0  0  0  0
   -0.8694   -2.5043    3.8769 H   0  0  0  0  0  0  0  0  0  0  0  0
   -2.2687    1.3653    3.8845 H   0  0  0  0  0  0  0  0  0  0  0  0
   -1.7657    3.0552    2.2038 H   0  0  0  0  0  0  0  0  0  0  0  0
   -2.1509    3.7040   -0.1350 H   0  0  0  0  0  0  0  0  0  0  0  0
   -2.5402    3.1440   -3.7135 H   0  0  0  0  0  0  0  0  0  0  0  0
   -1.3741    3.4868   -2.3988 H   0  0  0  0  0  0  0  0  0  0  0  0
   -3.0977    3.9555   -2.2197 H   0  0  0  0  0  0  0  0  0  0  0  0
   -2.7560   -0.4511   -1.1485 H   0  0  0  0  0  0  0  0  0  0  0  0
   -2.4148   -1.0825    1.1795 H   0  0  0  0  0  0  0  0  0  0  0  0
    2.2106   -2.4154   -1.5925 H   0  0  0  0  0  0  0  0  0  0  0  0
    3.9638   -3.6307   -2.5444 H   0  0  0  0  0  0  0  0  0  0  0  0
    5.1760   -2.6856   -1.6407 H   0  0  0  0  0  0  0  0  0  0  0  0
    5.2598   -2.7405   -3.4218 H   0  0  0  0  0  0  0  0  0  0  0  0
    0.1213    1.0705   -0.3690 H   0  0  0  0  0  0  0  0  0  0  0  0
    2.3887    1.8774    1.3773 H   0  0  0  0  0  0  0  0  0  0  0  0
    0.7865    1.5210    2.0732 H   0  0  0  0  0  0  0  0  0  0  0  0
    0.9886    2.9428    1.0160 H   0  0  0  0  0  0  0  0  0  0  0  0
  2 24  1  0  0  0  0
  2  1  2  0  0  0  0
  3 23  1  6  0  0  0
  3  2  1  0  0  0  0
  4 26  1  0  0  0  0
  4  3  1  0  0  0  0
  4  5  1  0  0  0  0
  6  7  2  0  0  0  0
  7 30  1  0  0  0  0
  7  8  1  0  0  0  0
  8 18  2  0  0  0  0
  9 31  1  0  0  0  0
  9  8  1  0  0  0  0
 10  9  1  0  0  0  0
 11 10  1  0  0  0  0
 11 32  1  0  0  0  0
 12 11  2  0  0  0  0
 13 16  2  0  0  0  0
 13 12  1  0  0  0  0
 14 13  1  0  0  0  0
 15 35  1  0  0  0  0
 15 36  1  0  0  0  0
 15 14  1  0  0  0  0
 16 17  1  0  0  0  0
 17 38  1  0  0  0  0
 17 10  2  0  0  0  0
 19  3  1  0  0  0  0
 19 39  1  0  0  0  0
 20 21  1  0  0  0  0
 20 19  1  0  0  0  0
 21 40  1  0  0  0  0
 21 41  1  0  0  0  0
 22 20  2  0  0  0  0
 24 25  1  0  0  0  0
 25 44  1  0  0  0  0
 25 45  1  0  0  0  0
 27  4  1  0  0  0  0
 28  6  1  0  0  0  0
 29  6  1  0  0  0  0
 33 12  1  0  0  0  0
 34 15  1  0  0  0  0
 37 16  1  0  0  0  0
 42 21  1  0  0  0  0
 43 24  1  0  0  0  0
 46 25  1  0  0  0  0
M  END
