58
-1 1
O         3.037808    0.402799    1.036574
C         2.256885    0.455284    0.088905
C         2.577103   -0.255069   -1.240793
C         1.396061   -1.003674   -1.867804
S         0.826561   -2.413459   -0.889765
C        -0.857059   -1.853267   -0.140628
C        -0.810291   -2.029014    1.363109
C         0.273895   -1.586659    2.127510
C         0.250968   -1.624320    3.523718
C         1.384543   -1.124813    4.386276
N         2.381248   -0.442114    3.772864
O         1.387088   -1.318290    5.593406
C        -0.867241   -2.154599    4.174955
C        -1.945576   -2.619107    3.428625
C        -1.920392   -2.550114    2.035243
C        -1.346032   -0.500711   -0.496511
C        -1.900852   -0.256212   -1.760654
O        -1.866016   -1.059679   -2.716863
C        -2.527290    1.109921   -2.023324
C        -2.854780    1.423342   -3.350365
C        -3.419050    2.643571   -3.692131
C        -3.682838    3.598332   -2.702268
O        -4.236431    4.768936   -3.121772
C        -4.509901    5.754766   -2.173934
C        -3.376226    3.304264   -1.370978
C        -2.805824    2.069198   -1.048299
N         3.700238   -1.134310   -1.047936
C         4.985563   -0.701586   -1.178866
C         6.020425   -1.629529   -0.571771
O         5.288642    0.338222   -1.731732
H         2.911656    0.532975   -1.935050
N         1.113527    1.161966    0.120726
C         0.704922    1.849229    1.322728
H         0.527750   -0.350458   -2.038852
H         1.704170   -1.385240   -2.850315
H         1.156812   -1.230092    1.598719
H         2.447973   -0.200440    2.783325
H         3.125136   -0.119951    4.376682
H        -0.859754   -2.193082    5.265588
H        -2.820094   -3.035689    3.935076
H        -2.778759   -2.894962    1.452314
H        -2.646400    0.656637   -4.099741
H        -3.669290    2.887303   -4.727038
H        -4.939183    6.608419   -2.715283
H        -3.597358    6.091776   -1.648619
H        -5.239563    5.413708   -1.416487
H        -3.578262    4.019353   -0.572420
H        -2.591220    1.858649    0.001464
H         3.517411   -1.922891   -0.435696
H         6.061292   -1.442247    0.512341
H         7.001462   -1.408243   -1.008248
H         5.768639   -2.688570   -0.727586
H         0.349507    0.846748   -0.490503
H         1.554219    2.408654    1.737629
H         0.342370    1.154547    2.099756
H        -0.102852    2.550546    1.073643
H        -1.471965    0.205150    0.324972
H        -1.514010   -2.611617   -0.592123
