58
-1 1
O         2.302555    0.385253    1.026118
C         1.682798    0.593115   -0.007061
C         2.033597   -0.080082   -1.341677
C         0.941989   -1.073494   -1.806330
S         0.925265   -2.639300   -0.909250
C        -1.572744   -2.069391    0.284425
C        -1.077207   -2.402121    1.631428
C        -0.289359   -1.506886    2.368675
C         0.124700   -1.802469    3.664438
C         0.972388   -0.865135    4.486334
N         1.652829    0.090333    3.805808
O         1.027679   -0.966545    5.702839
C        -0.261809   -3.014129    4.251587
C        -1.020848   -3.923394    3.524543
C        -1.420796   -3.622984    2.221566
C        -1.886023   -0.805366   -0.112270
C        -2.455367   -0.541691   -1.425585
O        -2.790057   -1.415916   -2.214043
C        -2.569878    0.905821   -1.856048
C        -2.633076    1.177094   -3.231913
C        -2.703299    2.476158   -3.705998
C        -2.730279    3.554196   -2.808382
O        -2.794990    4.789868   -3.357220
C        -2.786555    5.904110   -2.512651
C        -2.694362    3.303330   -1.433606
C        -2.613933    1.985855   -0.973725
N         3.295360   -0.749443   -1.239617
C         4.464496   -0.073129   -1.162221
C         5.656112   -0.917066   -0.748651
O         4.565197    1.120961   -1.394634
H         2.129367    0.732353   -2.081953
N         0.648806    1.470254   -0.061676
C         0.194423    2.201700    1.091620
H        -0.041204   -0.576668   -1.690466
H         1.079271   -1.239449   -2.886763
H         0.026032   -0.578986    1.893818
H         1.822764    0.078242    2.795557
H         2.271221    0.660291    4.367795
H         0.057869   -3.219101    5.274842
H        -1.305329   -4.878853    3.972437
H        -2.013502   -4.341943    1.650224
H        -2.618481    0.325782   -3.915472
H        -2.735044    2.692314   -4.775516
H        -2.820175    6.791102   -3.157960
H        -1.870621    5.947306   -1.896677
H        -3.663627    5.920595   -1.840972
H        -2.733103    4.116742   -0.708461
H        -2.599184    1.813019    0.103897
H         3.205754   -1.708924   -0.898468
H         5.698667   -0.939790    0.351160
H         6.574671   -0.450974   -1.126028
H         5.579837   -1.952584   -1.109465
H         0.104475    1.526321   -0.914136
H         1.044234    2.367089    1.766669
H        -0.580293    1.661430    1.665327
H        -0.216277    3.172585    0.780144
H        -1.619433    0.036597    0.526100
H        -1.901448   -2.894585   -0.349630
