58
-1 1
O         1.740294    1.435756   -1.636964
C         1.130714    1.608808   -2.683936
C         1.494003    0.870930   -3.983162
C         0.374240   -0.074812   -4.465749
S         0.197713   -1.582784   -3.499612
C        -1.999589   -1.043986   -2.510646
C        -1.631011   -1.352322   -1.108762
C        -0.854939   -0.463971   -0.351836
C        -0.542876   -0.719395    0.980033
C         0.288646    0.217840    1.818161
N         1.005663    1.157081    1.151280
O         0.301512    0.133871    3.037208
C        -1.022077   -1.888398    1.586264
C        -1.774812   -2.790106    0.844303
C        -2.074444   -2.526992   -0.495050
C        -2.370943    0.238581   -2.885484
C        -2.961140    0.508653   -4.165482
O        -3.234359   -0.347515   -5.008345
C        -3.190681    1.966658   -4.528724
C        -3.318738    2.289246   -5.888556
C        -3.493863    3.598591   -6.306627
C        -3.563432    4.635889   -5.365542
O        -3.733381    5.886949   -5.860809
C        -3.785108    6.961064   -4.969127
C        -3.463025    4.333675   -4.004621
C        -3.278537    3.007180   -3.602718
N         2.719904    0.148270   -3.806935
C         3.920761    0.776206   -3.754475
C         5.057903   -0.081469   -3.231866
O         4.083432    1.936625   -4.090962
H         1.664792    1.650333   -4.744122
N         0.114305    2.497388   -2.784320
C        -0.351176    3.253111   -1.649263
H        -0.590992    0.466747   -4.422512
H         0.554989   -0.313056   -5.524739
H        -0.470758    0.428369   -0.842783
H         1.197715    1.146216    0.146460
H         1.604859    1.732199    1.728151
H        -0.780466   -2.064691    2.635914
H        -2.136649   -3.710939    1.308975
H        -2.667667   -3.239520   -1.074185
H        -3.273905    1.465339   -6.603974
H        -3.580127    3.853262   -7.364845
H        -3.906418    7.869748   -5.572822
H        -2.857453    7.050754   -4.375488
H        -4.639746    6.881484   -4.273105
H        -3.534394    5.112828   -3.244811
H        -3.220673    2.791366   -2.534150
H         2.591187   -0.762634   -3.368170
H         5.048150   -0.036421   -2.131945
H         6.010075    0.325505   -3.593244
H         4.957408   -1.134241   -3.532084
H        -0.455257    2.493539   -3.622491
H         0.508598    3.551471   -1.034391
H        -1.034804    2.673669   -1.003427
H        -0.877391    4.151133   -1.999922
H        -2.121657    1.070140   -2.227654
H        -2.427096   -1.860620   -3.094776
