-1 1
 OpenBabel05192410563D

 58 59  0  0  1  0  0  0  0  0999 V2000
    3.0378    0.4028    1.0366 O   0  0  0  0  0  0  0  0  0  0  0  0
    2.2569    0.4553    0.0889 C   0  0  0  0  0  0  0  0  0  0  0  0
    2.5771   -0.2551   -1.2408 C   0  0  2  0  0  0  0  0  0  0  0  0
    1.3961   -1.0037   -1.8678 C   0  0  0  0  0  0  0  0  0  0  0  0
    0.8266   -2.4135   -0.8898 S   0  0  0  0  0  0  0  0  0  0  0  0
   -0.8571   -1.8533   -0.1406 C   0  0  1  0  0  0  0  0  0  0  0  0
   -0.8103   -2.0290    1.3631 C   0  0  0  0  0  0  0  0  0  0  0  0
    0.2739   -1.5867    2.1275 C   0  0  0  0  0  0  0  0  0  0  0  0
    0.2510   -1.6243    3.5237 C   0  0  0  0  0  0  0  0  0  0  0  0
    1.3845   -1.1248    4.3863 C   0  0  0  0  0  0  0  0  0  0  0  0
    2.3812   -0.4421    3.7729 N   0  0  0  0  0  0  0  0  0  0  0  0
    1.3871   -1.3183    5.5934 O   0  0  0  0  0  0  0  0  0  0  0  0
   -0.8672   -2.1546    4.1750 C   0  0  0  0  0  0  0  0  0  0  0  0
   -1.9456   -2.6191    3.4286 C   0  0  0  0  0  0  0  0  0  0  0  0
   -1.9204   -2.5501    2.0352 C   0  0  0  0  0  0  0  0  0  0  0  0
   -1.3460   -0.5007   -0.4965 C   0  0  0  0  0  3  0  0  0  0  0  0
   -1.9009   -0.2562   -1.7607 C   0  0  0  0  0  0  0  0  0  0  0  0
   -1.8660   -1.0597   -2.7169 O   0  0  0  0  0  0  0  0  0  0  0  0
   -2.5273    1.1099   -2.0233 C   0  0  0  0  0  0  0  0  0  0  0  0
   -2.8548    1.4233   -3.3504 C   0  0  0  0  0  0  0  0  0  0  0  0
   -3.4190    2.6436   -3.6921 C   0  0  0  0  0  0  0  0  0  0  0  0
   -3.6828    3.5983   -2.7023 C   0  0  0  0  0  0  0  0  0  0  0  0
   -4.2364    4.7689   -3.1218 O   0  0  0  0  0  0  0  0  0  0  0  0
   -4.5099    5.7548   -2.1739 C   0  0  0  0  0  0  0  0  0  0  0  0
   -3.3762    3.3043   -1.3710 C   0  0  0  0  0  0  0  0  0  0  0  0
   -2.8058    2.0692   -1.0483 C   0  0  0  0  0  0  0  0  0  0  0  0
    3.7002   -1.1343   -1.0479 N   0  0  0  0  0  0  0  0  0  0  0  0
    4.9856   -0.7016   -1.1789 C   0  0  0  0  0  0  0  0  0  0  0  0
    6.0204   -1.6295   -0.5718 C   0  0  0  0  0  0  0  0  0  0  0  0
    5.2886    0.3382   -1.7317 O   0  0  0  0  0  0  0  0  0  0  0  0
    2.9117    0.5330   -1.9350 H   0  0  0  0  0  0  0  0  0  0  0  0
    1.1135    1.1620    0.1207 N   0  0  0  0  0  0  0  0  0  0  0  0
    0.7049    1.8492    1.3227 C   0  0  0  0  0  0  0  0  0  0  0  0
    0.5278   -0.3505   -2.0389 H   0  0  0  0  0  0  0  0  0  0  0  0
    1.7042   -1.3852   -2.8503 H   0  0  0  0  0  0  0  0  0  0  0  0
    1.1568   -1.2301    1.5987 H   0  0  0  0  0  0  0  0  0  0  0  0
    2.4480   -0.2004    2.7833 H   0  0  0  0  0  0  0  0  0  0  0  0
    3.1251   -0.1200    4.3767 H   0  0  0  0  0  0  0  0  0  0  0  0
   -0.8598   -2.1931    5.2656 H   0  0  0  0  0  0  0  0  0  0  0  0
   -2.8201   -3.0357    3.9351 H   0  0  0  0  0  0  0  0  0  0  0  0
   -2.7788   -2.8950    1.4523 H   0  0  0  0  0  0  0  0  0  0  0  0
   -2.6464    0.6566   -4.0997 H   0  0  0  0  0  0  0  0  0  0  0  0
   -3.6693    2.8873   -4.7270 H   0  0  0  0  0  0  0  0  0  0  0  0
   -4.9392    6.6084   -2.7153 H   0  0  0  0  0  0  0  0  0  0  0  0
   -3.5974    6.0918   -1.6486 H   0  0  0  0  0  0  0  0  0  0  0  0
   -5.2396    5.4137   -1.4165 H   0  0  0  0  0  0  0  0  0  0  0  0
   -3.5783    4.0194   -0.5724 H   0  0  0  0  0  0  0  0  0  0  0  0
   -2.5912    1.8586    0.0015 H   0  0  0  0  0  0  0  0  0  0  0  0
    3.5174   -1.9229   -0.4357 H   0  0  0  0  0  0  0  0  0  0  0  0
    6.0613   -1.4422    0.5123 H   0  0  0  0  0  0  0  0  0  0  0  0
    7.0015   -1.4082   -1.0082 H   0  0  0  0  0  0  0  0  0  0  0  0
    5.7686   -2.6886   -0.7276 H   0  0  0  0  0  0  0  0  0  0  0  0
    0.3495    0.8467   -0.4905 H   0  0  0  0  0  0  0  0  0  0  0  0
    1.5542    2.4087    1.7376 H   0  0  0  0  0  0  0  0  0  0  0  0
    0.3424    1.1545    2.0998 H   0  0  0  0  0  0  0  0  0  0  0  0
   -0.1029    2.5505    1.0736 H   0  0  0  0  0  0  0  0  0  0  0  0
   -1.4720    0.2051    0.3250 H   0  0  0  0  0  0  0  0  0  0  0  0
   -1.5140   -2.6116   -0.5921 H   0  0  0  0  0  0  0  0  0  0  0  0
  2 32  1  0  0  0  0
  2  1  2  0  0  0  0
  3 31  1  6  0  0  0
  3 27  1  0  0  0  0
  3  2  1  0  0  0  0
  4  3  1  0  0  0  0
  4  5  1  0  0  0  0
  5  6  1  0  0  0  0
  6 58  1  6  0  0  0
  6  7  1  0  0  0  0
  7 15  2  0  0  0  0
  7  8  1  0  0  0  0
  8  9  2  0  0  0  0
  9 13  1  0  0  0  0
  9 10  1  0  0  0  0
 10 12  2  0  0  0  0
 11 38  1  0  0  0  0
 11 10  1  0  0  0  0
 13 39  1  0  0  0  0
 14 40  1  0  0  0  0
 14 13  2  0  0  0  0
 15 14  1  0  0  0  0
 16  6  1  0  0  0  0
 16 57  1  0  0  0  0
 17 16  1  0  0  0  0
 18 17  2  0  0  0  0
 19 17  1  0  0  0  0
 19 26  1  0  0  0  0
 20 19  2  0  0  0  0
 21 20  1  0  0  0  0
 21 22  2  0  0  0  0
 22 25  1  0  0  0  0
 23 22  1  0  0  0  0
 23 24  1  0  0  0  0
 24 45  1  0  0  0  0
 24 46  1  0  0  0  0
 25 26  2  0  0  0  0
 25 47  1  0  0  0  0
 26 48  1  0  0  0  0
 27 49  1  0  0  0  0
 28 27  1  0  0  0  0
 28 29  1  0  0  0  0
 29 50  1  0  0  0  0
 30 28  2  0  0  0  0
 32 33  1  0  0  0  0
 33 54  1  0  0  0  0
 33 55  1  0  0  0  0
 34  4  1  0  0  0  0
 35  4  1  0  0  0  0
 36  8  1  0  0  0  0
 37 11  1  0  0  0  0
 41 15  1  0  0  0  0
 42 20  1  0  0  0  0
 43 21  1  0  0  0  0
 44 24  1  0  0  0  0
 51 29  1  0  0  0  0
 52 29  1  0  0  0  0
 53 32  1  0  0  0  0
 56 33  1  0  0  0  0
M  END
