-1 1
 OpenBabel05192410563D

 45 45  0  0  1  0  0  0  0  0999 V2000
   -1.6729   -3.0501   -1.8096 O   0  0  0  0  0  0  0  0  0  0  0  0
   -0.8044   -2.1867   -1.6921 C   0  0  0  0  0  0  0  0  0  0  0  0
   -0.1826   -1.9021   -0.3172 C   0  0  2  0  0  0  0  0  0  0  0  0
    1.1917   -2.5946   -0.2543 C   0  0  0  0  0  0  0  0  0  0  0  0
    2.1537   -2.3408    1.2508 S   0  0  0  0  0  0  0  0  0  0  0  0
    2.9226   -0.5743    0.9110 C   0  0  0  0  0  0  0  0  0  0  0  0
    2.9269   -0.1389   -0.4867 C   0  0  0  0  0  3  0  0  0  0  0  0
    1.8852    0.4717   -1.1975 C   0  0  0  0  0  0  0  0  0  0  0  0
    0.8491    1.1744   -0.5454 N   0  0  0  0  0  0  0  0  0  0  0  0
    0.9295    1.8436    0.7347 C   0  0  0  0  0  0  0  0  0  0  0  0
   -0.1101    2.9357    0.8108 C   0  0  0  0  0  0  0  0  0  0  0  0
   -1.3718    2.6691    1.3561 C   0  0  0  0  0  0  0  0  0  0  0  0
   -2.3510    3.6621    1.3846 C   0  0  0  0  0  0  0  0  0  0  0  0
   -2.0864    4.9297    0.8654 C   0  0  0  0  0  0  0  0  0  0  0  0
   -0.8345    5.2006    0.3127 C   0  0  0  0  0  0  0  0  0  0  0  0
    0.1436    4.2072    0.2842 C   0  0  0  0  0  0  0  0  0  0  0  0
    1.7359    0.4096   -2.4558 O   0  0  0  0  0  0  0  0  0  0  0  0
   -1.0955   -2.3836    0.6891 N   0  0  0  0  0  0  0  0  0  0  0  0
   -1.5213   -1.6607    1.7463 C   0  0  0  0  0  0  0  0  0  0  0  0
   -2.5147   -2.3760    2.6476 C   0  0  0  0  0  0  0  0  0  0  0  0
   -1.1400   -0.5320    2.0143 O   0  0  0  0  0  0  0  0  0  0  0  0
   -0.0562   -0.8174   -0.1819 H   0  0  0  0  0  0  0  0  0  0  0  0
   -0.2937   -1.4774   -2.7127 N   0  0  0  0  0  0  0  0  0  0  0  0
   -0.7092   -1.7008   -4.0718 C   0  0  0  0  0  0  0  0  0  0  0  0
    1.0549   -3.6825   -0.3636 H   0  0  0  0  0  0  0  0  0  0  0  0
    1.7993   -2.2360   -1.0983 H   0  0  0  0  0  0  0  0  0  0  0  0
    3.9346   -0.7203    1.3152 H   0  0  0  0  0  0  0  0  0  0  0  0
    2.3668    0.0645    1.6029 H   0  0  0  0  0  0  0  0  0  0  0  0
    3.6577   -0.6183   -1.1458 H   0  0  0  0  0  0  0  0  0  0  0  0
    0.2785    1.6404   -1.2413 H   0  0  0  0  0  0  0  0  0  0  0  0
    1.9397    2.2721    0.8851 H   0  0  0  0  0  0  0  0  0  0  0  0
    0.7372    1.1328    1.5539 H   0  0  0  0  0  0  0  0  0  0  0  0
   -1.5671    1.6677    1.7512 H   0  0  0  0  0  0  0  0  0  0  0  0
   -3.3317    3.4423    1.8146 H   0  0  0  0  0  0  0  0  0  0  0  0
   -2.8557    5.7062    0.8894 H   0  0  0  0  0  0  0  0  0  0  0  0
   -0.6191    6.1903   -0.0987 H   0  0  0  0  0  0  0  0  0  0  0  0
    1.1240    4.4156   -0.1539 H   0  0  0  0  0  0  0  0  0  0  0  0
   -1.5964   -3.2246    0.4230 H   0  0  0  0  0  0  0  0  0  0  0  0
   -3.2984   -1.6660    2.9431 H   0  0  0  0  0  0  0  0  0  0  0  0
   -1.9849   -2.6908    3.5590 H   0  0  0  0  0  0  0  0  0  0  0  0
   -2.9718   -3.2606    2.1820 H   0  0  0  0  0  0  0  0  0  0  0  0
    0.4586   -0.7669   -2.5661 H   0  0  0  0  0  0  0  0  0  0  0  0
    0.1463   -1.9922   -4.7029 H   0  0  0  0  0  0  0  0  0  0  0  0
   -1.1530   -0.7900   -4.5069 H   0  0  0  0  0  0  0  0  0  0  0  0
   -1.4580   -2.5035   -4.0863 H   0  0  0  0  0  0  0  0  0  0  0  0
  1  2  2  0  0  0  0
  2  3  1  0  0  0  0
  3  4  1  0  0  0  0
  3 22  1  1  0  0  0
  3 18  1  0  0  0  0
  4  5  1  0  0  0  0
  6  5  1  0  0  0  0
  6 27  1  0  0  0  0
  6 28  1  0  0  0  0
  7  6  1  0  0  0  0
  8  9  1  0  0  0  0
  8  7  1  0  0  0  0
  9 10  1  0  0  0  0
 10 11  1  0  0  0  0
 10 31  1  0  0  0  0
 10 32  1  0  0  0  0
 11 12  1  0  0  0  0
 12 13  2  0  0  0  0
 12 33  1  0  0  0  0
 13 34  1  0  0  0  0
 14 35  1  0  0  0  0
 14 13  1  0  0  0  0
 15 14  2  0  0  0  0
 16 15  1  0  0  0  0
 16 11  2  0  0  0  0
 17  8  2  0  0  0  0
 18 19  1  0  0  0  0
 19 21  2  0  0  0  0
 19 20  1  0  0  0  0
 20 39  1  0  0  0  0
 20 40  1  0  0  0  0
 23 42  1  0  0  0  0
 23  2  1  0  0  0  0
 24 23  1  0  0  0  0
 25  4  1  0  0  0  0
 26  4  1  0  0  0  0
 29  7  1  0  0  0  0
 30  9  1  0  0  0  0
 36 15  1  0  0  0  0
 37 16  1  0  0  0  0
 38 18  1  0  0  0  0
 41 20  1  0  0  0  0
 43 24  1  0  0  0  0
 44 24  1  0  0  0  0
 45 24  1  0  0  0  0
M  END
