45
-1 1
O        -1.672901   -3.050066   -1.809613
C        -0.804422   -2.186714   -1.692100
C        -0.182625   -1.902114   -0.317154
C         1.191651   -2.594642   -0.254281
S         2.153740   -2.340796    1.250823
C         2.922610   -0.574298    0.911018
C         2.926855   -0.138935   -0.486680
C         1.885247    0.471687   -1.197468
N         0.849127    1.174447   -0.545429
C         0.929491    1.843636    0.734675
C        -0.110098    2.935720    0.810842
C        -1.371751    2.669106    1.356118
C        -2.350964    3.662133    1.384597
C        -2.086444    4.929738    0.865364
C        -0.834462    5.200559    0.312690
C         0.143611    4.207214    0.284223
O         1.735917    0.409620   -2.455758
N        -1.095494   -2.383614    0.689100
C        -1.521306   -1.660735    1.746319
C        -2.514697   -2.376036    2.647624
O        -1.139985   -0.531964    2.014314
H        -0.056190   -0.817425   -0.181855
N        -0.293732   -1.477433   -2.712667
C        -0.709163   -1.700825   -4.071755
H         1.054942   -3.682484   -0.363608
H         1.799334   -2.236041   -1.098319
H         3.934552   -0.720290    1.315159
H         2.366823    0.064460    1.602864
H         3.657709   -0.618317   -1.145780
H         0.278519    1.640391   -1.241308
H         1.939719    2.272090    0.885112
H         0.737217    1.132781    1.553905
H        -1.567108    1.667677    1.751220
H        -3.331709    3.442290    1.814629
H        -2.855651    5.706236    0.889355
H        -0.619061    6.190256   -0.098740
H         1.123960    4.415630   -0.153944
H        -1.596354   -3.224584    0.423031
H        -3.298368   -1.665975    2.943125
H        -1.984911   -2.690789    3.558952
H        -2.971796   -3.260590    2.182031
H         0.458570   -0.766912   -2.566058
H         0.146297   -1.992189   -4.702918
H        -1.152974   -0.790000   -4.506929
H        -1.457957   -2.503496   -4.086307
