45
-1 1
O        -0.741441   -4.203582   -1.639205
C        -0.346544   -3.048720   -1.704327
C        -0.169220   -2.178224   -0.462477
C         1.148685   -2.535774    0.258446
S         1.404584   -1.673303    1.846193
C         3.383412    0.441297   -0.463303
C         2.660335    1.011309   -1.429925
C         1.172545    0.878126   -1.548350
N         0.373998    1.255668   -0.533384
C         0.748415    1.769986    0.773029
C        -0.126157    2.923875    1.211855
C        -1.515065    2.771597    1.331613
C        -2.308500    3.836716    1.752499
C        -1.733618    5.068504    2.070076
C        -0.354009    5.227907    1.959874
C         0.438921    4.162692    1.531098
O         0.714218    0.394505   -2.587219
N        -1.305886   -2.311270    0.418413
C        -2.066060   -1.264469    0.782365
C        -2.920498   -1.477326    2.012399
O        -2.078306   -0.186185    0.189345
H        -0.137522   -1.129290   -0.763495
N         0.027836   -2.438124   -2.855905
C         0.009642   -3.114807   -4.122499
H         1.160509   -3.630449    0.403420
H         1.960379   -2.308908   -0.456178
H         4.476739    0.456816   -0.513225
H         2.915459   -0.089857    0.384460
H         3.135602    1.469166   -2.304103
H        -0.586618    0.904118   -0.603376
H         1.792057    2.102277    0.732493
H         0.710018    0.934654    1.499285
H        -1.970942    1.806819    1.086957
H        -3.389803    3.700763    1.837451
H        -2.359731    5.900536    2.402579
H         0.109796    6.187131    2.204592
H         1.520982    4.295422    1.441720
H        -1.283206   -3.111176    1.038219
H        -3.840874   -0.886832    1.922864
H        -2.345194   -1.112807    2.877145
H        -3.167163   -2.534735    2.182595
H         0.285978   -1.448593   -2.823155
H         1.002282   -3.099716   -4.602803
H        -0.714115   -2.658964   -4.819614
H        -0.284912   -4.157633   -3.943792
