-1 1
 OpenBabel05192410563D

 52 52  0  0  1  0  0  0  0  0999 V2000
    0.8725    3.8809   -1.6604 O   0  0  0  0  0  0  0  0  0  0  0  0
    1.0165    3.0491   -0.7668 C   0  0  0  0  0  0  0  0  0  0  0  0
   -0.2110    2.5770    0.0193 C   0  0  2  0  0  0  0  0  0  0  0  0
   -1.0435    1.5631   -0.7977 C   0  0  0  0  0  0  0  0  0  0  0  0
   -0.1430    0.1720   -1.5381 S   0  0  0  0  0  0  0  0  0  0  0  0
   -0.3313   -1.1359   -0.1878 C   0  0  1  0  0  0  0  0  0  0  0  0
    0.3935   -2.3573   -0.7246 C   0  0  0  0  0  0  0  0  0  0  0  0
   -0.0579   -2.9469   -1.9118 C   0  0  0  0  0  0  0  0  0  0  0  0
    0.5679   -4.0690   -2.4593 C   0  0  0  0  0  0  0  0  0  0  0  0
    0.1254   -4.6948   -3.7507 C   0  0  0  0  0  0  0  0  0  0  0  0
   -0.6340   -3.9016   -4.5635 N   0  0  0  0  0  0  0  0  0  0  0  0
    0.4244   -5.8321   -4.0661 O   0  0  0  0  0  0  0  0  0  0  0  0
    1.6526   -4.6431   -1.7888 C   0  0  0  0  0  0  0  0  0  0  0  0
    2.1067   -4.0724   -0.6055 C   0  0  0  0  0  0  0  0  0  0  0  0
    1.4888   -2.9364   -0.0784 C   0  0  0  0  0  0  0  0  0  0  0  0
    0.0097   -0.6341    1.1701 C   0  0  1  0  0  3  0  0  0  0  0  0
    1.2932   -0.1495    1.4324 C   0  0  0  0  0  0  0  0  0  0  0  0
    2.3797    0.2761    1.5521 N   0  0  0  0  0  0  0  0  0  0  0  0
   -1.0772   -0.3715    2.0670 C   0  0  0  0  0  0  0  0  0  0  0  0
   -2.2613   -0.6010    1.8500 O   0  0  0  0  0  0  0  0  0  0  0  0
   -0.6753    0.1987    3.2327 O   0  0  0  0  0  0  0  0  0  0  0  0
   -1.6923    0.6224    4.1173 C   0  0  0  0  0  0  0  0  0  0  0  0
   -1.0619    1.5512    5.1323 C   0  0  0  0  0  0  0  0  0  0  0  0
   -1.0023    3.7662    0.2614 N   0  0  0  0  0  0  0  0  0  0  0  0
   -1.7394    3.9923    1.3721 C   0  0  0  0  0  0  0  0  0  0  0  0
   -2.4867    5.3163    1.3890 C   0  0  0  0  0  0  0  0  0  0  0  0
   -1.8233    3.2107    2.3018 O   0  0  0  0  0  0  0  0  0  0  0  0
    0.0685    2.1352    0.9851 H   0  0  0  0  0  0  0  0  0  0  0  0
    2.1938    2.5229   -0.4060 N   0  0  0  0  0  0  0  0  0  0  0  0
    3.3965    2.7783   -1.1541 C   0  0  0  0  0  0  0  0  0  0  0  0
   -1.8459    1.1669   -0.1576 H   0  0  0  0  0  0  0  0  0  0  0  0
   -1.5044    2.1025   -1.6388 H   0  0  0  0  0  0  0  0  0  0  0  0
   -0.9376   -2.5115   -2.3932 H   0  0  0  0  0  0  0  0  0  0  0  0
   -0.6986   -2.9044   -4.4176 H   0  0  0  0  0  0  0  0  0  0  0  0
   -0.8724   -4.2741   -5.4722 H   0  0  0  0  0  0  0  0  0  0  0  0
    2.1216   -5.5311   -2.2166 H   0  0  0  0  0  0  0  0  0  0  0  0
    2.9580   -4.5125   -0.0805 H   0  0  0  0  0  0  0  0  0  0  0  0
    1.8556   -2.4952    0.8491 H   0  0  0  0  0  0  0  0  0  0  0  0
   -2.1517   -0.2568    4.6049 H   0  0  0  0  0  0  0  0  0  0  0  0
   -2.4797    1.1415    3.5537 H   0  0  0  0  0  0  0  0  0  0  0  0
   -0.2358    1.0552    5.6644 H   0  0  0  0  0  0  0  0  0  0  0  0
   -1.8120    1.8744    5.8710 H   0  0  0  0  0  0  0  0  0  0  0  0
   -0.6712    2.4410    4.6194 H   0  0  0  0  0  0  0  0  0  0  0  0
   -0.9303    4.4605   -0.4756 H   0  0  0  0  0  0  0  0  0  0  0  0
   -2.2341    5.8466    2.3176 H   0  0  0  0  0  0  0  0  0  0  0  0
   -3.5654    5.1049    1.4145 H   0  0  0  0  0  0  0  0  0  0  0  0
   -2.2658    5.9618    0.5276 H   0  0  0  0  0  0  0  0  0  0  0  0
    2.2234    1.7832    0.3074 H   0  0  0  0  0  0  0  0  0  0  0  0
    3.3422    3.7803   -1.6005 H   0  0  0  0  0  0  0  0  0  0  0  0
    3.5323    2.0456   -1.9679 H   0  0  0  0  0  0  0  0  0  0  0  0
    4.2659    2.7186   -0.4847 H   0  0  0  0  0  0  0  0  0  0  0  0
   -1.4077   -1.3606   -0.1607 H   0  0  0  0  0  0  0  0  0  0  0  0
  1  2  2  0  0  0  0
  2 29  1  0  0  0  0
  2  3  1  0  0  0  0
  3 24  1  0  0  0  0
  3 28  1  1  0  0  0
  4 31  1  0  0  0  0
  4  3  1  0  0  0  0
  5  4  1  0  0  0  0
  5  6  1  0  0  0  0
  6 52  1  1  0  0  0
  6 16  1  0  0  0  0
  7  6  1  0  0  0  0
  7 15  1  0  0  0  0
  8  7  2  0  0  0  0
  9  8  1  0  0  0  0
  9 13  2  0  0  0  0
 10  9  1  0  0  0  0
 11 34  1  0  0  0  0
 11 10  1  0  0  0  0
 12 10  2  0  0  0  0
 13 14  1  0  0  0  0
 14 37  1  0  0  0  0
 14 15  2  0  0  0  0
 15 38  1  0  0  0  0
 16 17  1  6  0  0  0
 16 19  1  0  0  0  0
 17 18  3  0  0  0  0
 19 21  1  0  0  0  0
 20 19  2  0  0  0  0
 21 22  1  0  0  0  0
 22 39  1  0  0  0  0
 22 23  1  0  0  0  0
 23 41  1  0  0  0  0
 23 42  1  0  0  0  0
 24 25  1  0  0  0  0
 25 26  1  0  0  0  0
 25 27  2  0  0  0  0
 26 46  1  0  0  0  0
 26 45  1  0  0  0  0
 29 48  1  0  0  0  0
 30 51  1  0  0  0  0
 30 29  1  0  0  0  0
 32  4  1  0  0  0  0
 33  8  1  0  0  0  0
 35 11  1  0  0  0  0
 36 13  1  0  0  0  0
 40 22  1  0  0  0  0
 43 23  1  0  0  0  0
 44 24  1  0  0  0  0
 47 26  1  0  0  0  0
 49 30  1  0  0  0  0
 50 30  1  0  0  0  0
M  END
