52
-1 1
O         2.278954    3.453919    1.257088
C         1.970223    2.268703    1.355697
C         0.828953    1.822802    2.290070
C        -0.345115    1.097854    1.590573
S         0.053203   -0.473746    0.766566
C         0.154794   -2.079941    2.816927
C         1.203179   -2.891119    2.161232
C         0.877260   -3.495763    0.937237
C         1.797411   -4.259289    0.226953
C         1.490349   -4.812446   -1.135355
N         0.525478   -4.140542   -1.827781
O         2.068414   -5.778881   -1.598727
C         3.064159   -4.495325    0.775223
C         3.394030   -3.926722    1.999090
C         2.480734   -3.122490    2.685742
C         0.213174   -1.397023    4.017829
C         1.421438   -0.972601    4.640541
N         2.420087   -0.619390    5.119265
C        -1.065640   -1.010528    4.641167
O        -2.156986   -1.167651    4.138970
O        -0.892591   -0.495432    5.864456
C        -2.029830    0.075465    6.488754
C        -1.539735    0.969209    7.605452
N         0.388788    3.038298    2.942174
C        -0.376561    3.095863    4.048266
C        -0.575061    4.490061    4.622214
O        -0.875198    2.120648    4.587655
H         1.258890    1.135731    3.038648
N         2.602668    1.275632    0.708912
C         3.634137    1.534247   -0.259614
H        -1.089517    0.896458    2.374857
H        -0.803747    1.793845    0.869178
H        -0.124756   -3.323052    0.537947
H         0.219779   -3.217690   -1.545728
H         0.356348   -4.434457   -2.780006
H         3.770451   -5.114451    0.218760
H         4.383052   -4.097859    2.430673
H         2.775113   -2.673110    3.633597
H        -2.683226   -0.732227    6.863432
H        -2.595533    0.650978    5.743313
H        -0.926098    0.406401    8.324812
H        -2.393970    1.410294    8.141989
H        -0.933565    1.777131    7.173517
H         0.855588    3.866275    2.576977
H         0.019101    4.575165    5.544462
H        -1.632083    4.608427    4.895379
H        -0.279154    5.293943    3.933899
H         2.099685    0.374592    0.688073
H         4.130961    2.480855   -0.009841
H         3.231899    1.618994   -1.284529
H         4.374904    0.721459   -0.244980
H        -0.866370   -2.320284    2.518169
