-1 1
 OpenBabel05232414493D

 52 51  0  0  1  0  0  0  0  0999 V2000
    2.2790    3.4539    1.2571 O   0  0  0  0  0  0  0  0  0  0  0  0
    1.9702    2.2687    1.3557 C   0  0  0  0  0  0  0  0  0  0  0  0
    0.8290    1.8228    2.2901 C   0  0  2  0  0  0  0  0  0  0  0  0
   -0.3451    1.0979    1.5906 C   0  0  0  0  0  0  0  0  0  0  0  0
    0.0532   -0.4737    0.7666 S   0  0  0  0  0  1  0  0  0  0  0  0
    0.1548   -2.0799    2.8169 C   0  0  0  0  0  3  0  0  0  0  0  0
    1.2032   -2.8911    2.1612 C   0  0  0  0  0  0  0  0  0  0  0  0
    0.8773   -3.4958    0.9372 C   0  0  0  0  0  0  0  0  0  0  0  0
    1.7974   -4.2593    0.2270 C   0  0  0  0  0  0  0  0  0  0  0  0
    1.4903   -4.8124   -1.1354 C   0  0  0  0  0  0  0  0  0  0  0  0
    0.5255   -4.1405   -1.8278 N   0  0  0  0  0  0  0  0  0  0  0  0
    2.0684   -5.7789   -1.5987 O   0  0  0  0  0  0  0  0  0  0  0  0
    3.0642   -4.4953    0.7752 C   0  0  0  0  0  0  0  0  0  0  0  0
    3.3940   -3.9267    1.9991 C   0  0  0  0  0  0  0  0  0  0  0  0
    2.4807   -3.1225    2.6857 C   0  0  0  0  0  0  0  0  0  0  0  0
    0.2132   -1.3970    4.0178 C   0  0  1  0  0  3  0  0  0  0  0  0
    1.4214   -0.9726    4.6405 C   0  0  0  0  0  0  0  0  0  0  0  0
    2.4201   -0.6194    5.1193 N   0  0  0  0  0  0  0  0  0  0  0  0
   -1.0656   -1.0105    4.6412 C   0  0  0  0  0  0  0  0  0  0  0  0
   -2.1570   -1.1677    4.1390 O   0  0  0  0  0  0  0  0  0  0  0  0
   -0.8926   -0.4954    5.8645 O   0  0  0  0  0  0  0  0  0  0  0  0
   -2.0298    0.0755    6.4888 C   0  0  0  0  0  0  0  0  0  0  0  0
   -1.5397    0.9692    7.6055 C   0  0  0  0  0  0  0  0  0  0  0  0
    0.3888    3.0383    2.9422 N   0  0  0  0  0  0  0  0  0  0  0  0
   -0.3766    3.0959    4.0483 C   0  0  0  0  0  0  0  0  0  0  0  0
   -0.5751    4.4901    4.6222 C   0  0  0  0  0  0  0  0  0  0  0  0
   -0.8752    2.1206    4.5877 O   0  0  0  0  0  0  0  0  0  0  0  0
    1.2589    1.1357    3.0386 H   0  0  0  0  0  0  0  0  0  0  0  0
    2.6027    1.2756    0.7089 N   0  0  0  0  0  0  0  0  0  0  0  0
    3.6341    1.5342   -0.2596 C   0  0  0  0  0  0  0  0  0  0  0  0
   -1.0895    0.8965    2.3749 H   0  0  0  0  0  0  0  0  0  0  0  0
   -0.8037    1.7938    0.8692 H   0  0  0  0  0  0  0  0  0  0  0  0
   -0.1248   -3.3231    0.5379 H   0  0  0  0  0  0  0  0  0  0  0  0
    0.2198   -3.2177   -1.5457 H   0  0  0  0  0  0  0  0  0  0  0  0
    0.3563   -4.4345   -2.7800 H   0  0  0  0  0  0  0  0  0  0  0  0
    3.7705   -5.1145    0.2188 H   0  0  0  0  0  0  0  0  0  0  0  0
    4.3831   -4.0979    2.4307 H   0  0  0  0  0  0  0  0  0  0  0  0
    2.7751   -2.6731    3.6336 H   0  0  0  0  0  0  0  0  0  0  0  0
   -2.6832   -0.7322    6.8634 H   0  0  0  0  0  0  0  0  0  0  0  0
   -2.5955    0.6510    5.7433 H   0  0  0  0  0  0  0  0  0  0  0  0
   -0.9261    0.4064    8.3248 H   0  0  0  0  0  0  0  0  0  0  0  0
   -2.3940    1.4103    8.1420 H   0  0  0  0  0  0  0  0  0  0  0  0
   -0.9336    1.7771    7.1735 H   0  0  0  0  0  0  0  0  0  0  0  0
    0.8556    3.8663    2.5770 H   0  0  0  0  0  0  0  0  0  0  0  0
    0.0191    4.5752    5.5445 H   0  0  0  0  0  0  0  0  0  0  0  0
   -1.6321    4.6084    4.8954 H   0  0  0  0  0  0  0  0  0  0  0  0
   -0.2792    5.2939    3.9339 H   0  0  0  0  0  0  0  0  0  0  0  0
    2.0997    0.3746    0.6881 H   0  0  0  0  0  0  0  0  0  0  0  0
    4.1310    2.4809   -0.0098 H   0  0  0  0  0  0  0  0  0  0  0  0
    3.2319    1.6190   -1.2845 H   0  0  0  0  0  0  0  0  0  0  0  0
    4.3749    0.7215   -0.2450 H   0  0  0  0  0  0  0  0  0  0  0  0
   -0.8664   -2.3203    2.5182 H   0  0  0  0  0  0  0  0  0  0  0  0
  1  2  2  0  0  0  0
  2  3  1  0  0  0  0
  3 24  1  0  0  0  0
  3 28  1  1  0  0  0
  4  3  1  0  0  0  0
  4 31  1  0  0  0  0
  5  4  1  0  0  0  0
  6 16  1  0  0  0  0
  7 15  1  0  0  0  0
  7  6  1  0  0  0  0
  8  7  2  0  0  0  0
  9 13  2  0  0  0  0
  9  8  1  0  0  0  0
 10  9  1  0  0  0  0
 11 34  1  0  0  0  0
 11 10  1  0  0  0  0
 12 10  2  0  0  0  0
 13 14  1  0  0  0  0
 14 37  1  0  0  0  0
 14 15  2  0  0  0  0
 15 38  1  0  0  0  0
 16 17  1  6  0  0  0
 16 19  1  0  0  0  0
 17 18  3  0  0  0  0
 19 21  1  0  0  0  0
 20 19  2  0  0  0  0
 21 22  1  0  0  0  0
 22 39  1  0  0  0  0
 22 23  1  0  0  0  0
 23 42  1  0  0  0  0
 23 41  1  0  0  0  0
 24 25  1  0  0  0  0
 25 27  2  0  0  0  0
 25 26  1  0  0  0  0
 26 46  1  0  0  0  0
 26 45  1  0  0  0  0
 29  2  1  0  0  0  0
 30 51  1  0  0  0  0
 30 49  1  0  0  0  0
 30 29  1  0  0  0  0
 32  4  1  0  0  0  0
 33  8  1  0  0  0  0
 35 11  1  0  0  0  0
 36 13  1  0  0  0  0
 40 22  1  0  0  0  0
 43 23  1  0  0  0  0
 44 24  1  0  0  0  0
 47 26  1  0  0  0  0
 48 29  1  0  0  0  0
 50 30  1  0  0  0  0
 52  6  1  0  0  0  0
M  END
