52
-1 1
O         0.872467    3.880872   -1.660426
C         1.016548    3.049114   -0.766832
C        -0.210995    2.577003    0.019326
C        -1.043464    1.563137   -0.797661
S        -0.142956    0.171963   -1.538087
C        -0.331304   -1.135941   -0.187819
C         0.393537   -2.357306   -0.724577
C        -0.057948   -2.946855   -1.911831
C         0.567875   -4.068954   -2.459323
C         0.125354   -4.694793   -3.750684
N        -0.633970   -3.901594   -4.563542
O         0.424405   -5.832128   -4.066067
C         1.652648   -4.643105   -1.788782
C         2.106750   -4.072425   -0.605532
C         1.488807   -2.936428   -0.078398
C         0.009703   -0.634105    1.170105
C         1.293246   -0.149549    1.432405
N         2.379720    0.276068    1.552067
C        -1.077187   -0.371481    2.066963
O        -2.261321   -0.600996    1.849977
O        -0.675331    0.198705    3.232685
C        -1.692265    0.622410    4.117329
C        -1.061913    1.551172    5.132268
N        -1.002272    3.766159    0.261404
C        -1.739400    3.992288    1.372086
C        -2.486695    5.316341    1.389049
O        -1.823343    3.210659    2.301804
H         0.068514    2.135200    0.985058
N         2.193789    2.522920   -0.406030
C         3.396545    2.778316   -1.154072
H        -1.845879    1.166896   -0.157588
H        -1.504420    2.102506   -1.638759
H        -0.937570   -2.511520   -2.393178
H        -0.698578   -2.904377   -4.417576
H        -0.872413   -4.274092   -5.472218
H         2.121611   -5.531124   -2.216606
H         2.958010   -4.512506   -0.080488
H         1.855632   -2.495198    0.849052
H        -2.151722   -0.256836    4.604875
H        -2.479663    1.141512    3.553703
H        -0.235767    1.055187    5.664427
H        -1.812018    1.874356    5.870971
H        -0.671156    2.441009    4.619394
H        -0.930274    4.460522   -0.475561
H        -2.234051    5.846591    2.317626
H        -3.565406    5.104941    1.414453
H        -2.265756    5.961770    0.527595
H         2.223354    1.783199    0.307442
H         3.342249    3.780258   -1.600513
H         3.532348    2.045617   -1.967921
H         4.265877    2.718576   -0.484675
H        -1.407746   -1.360560   -0.160668
