-1 1
 OpenBabel05232413493D

 50 48  0  0  1  0  0  0  0  0999 V2000
    0.2904   -3.8158   -1.0657 O   0  0  0  0  0  0  0  0  0  0  0  0
    1.0530   -3.1475   -0.3701 C   0  0  0  0  0  0  0  0  0  0  0  0
    1.8392   -1.9639   -0.9515 C   0  0  2  0  0  0  0  0  0  0  0  0
    1.5156   -0.6162   -0.2664 C   0  0  0  0  0  0  0  0  0  0  0  0
    2.0052   -0.4356    1.4772 S   0  0  0  0  0  1  0  0  0  0  0  0
   -1.0803   -1.1140    2.0485 C   0  0  0  0  0  0  0  0  0  0  0  0
   -1.6234   -1.1577    0.8273 C   0  0  0  0  0  0  0  0  0  0  0  0
   -2.3149   -0.0483    0.1217 C   0  0  0  0  0  0  0  0  0  0  0  0
   -1.8363    1.2462    0.2058 N   0  0  0  0  0  0  0  0  0  0  0  0
   -0.7396    1.8483    0.9449 C   0  0  1  0  0  0  0  0  0  0  0  0
    0.0836    2.7467    0.0090 C   0  0  0  0  0  0  0  0  0  0  0  0
    0.1536    2.3239   -1.2551 O   0  0  0  0  0  0  0  0  0  0  0  0
    0.6570    3.7406    0.3621 O   0  0  0  0  0  0  0  0  0  0  0  0
   -1.1656    2.5750    2.2292 C   0  0  0  0  0  0  0  0  0  0  0  0
   -2.4813    3.3538    2.1506 C   0  0  0  0  0  0  0  0  0  0  0  0
   -2.5261    4.5371    1.1786 C   0  0  0  0  0  0  0  0  0  0  0  0
   -1.6142    5.6980    1.5630 C   0  0  0  0  0  0  0  0  0  0  0  0
   -3.2972   -0.2663   -0.5676 O   0  0  0  0  0  0  0  0  0  0  0  0
    1.5139   -1.9341   -2.3601 N   0  0  0  0  0  0  0  0  0  0  0  0
    2.3105   -1.3930   -3.3090 C   0  0  0  0  0  0  0  0  0  0  0  0
    1.7860   -1.5199   -4.7323 C   0  0  0  0  0  0  0  0  0  0  0  0
    3.3580   -0.8182   -3.0713 O   0  0  0  0  0  0  0  0  0  0  0  0
    2.9190   -2.1506   -0.8263 H   0  0  0  0  0  0  0  0  0  0  0  0
    1.2628   -3.3909    0.9345 N   0  0  0  0  0  0  0  0  0  0  0  0
    0.4919   -4.3962    1.6154 C   0  0  0  0  0  0  0  0  0  0  0  0
    2.0121    0.1568   -0.8707 H   0  0  0  0  0  0  0  0  0  0  0  0
    0.4210   -0.4731   -0.3795 H   0  0  0  0  0  0  0  0  0  0  0  0
   -1.0575   -0.2135    2.6616 H   0  0  0  0  0  0  0  0  0  0  0  0
   -0.6612   -2.0109    2.5034 H   0  0  0  0  0  0  0  0  0  0  0  0
   -1.6668   -2.1011    0.2742 H   0  0  0  0  0  0  0  0  0  0  0  0
   -2.4955    1.8891   -0.2243 H   0  0  0  0  0  0  0  0  0  0  0  0
   -0.0080    1.0591    1.2263 H   0  0  0  0  0  0  0  0  0  0  0  0
   -0.3385    1.4922   -1.3259 H   0  0  0  0  0  0  0  0  0  0  0  0
   -0.3330    3.2288    2.5254 H   0  0  0  0  0  0  0  0  0  0  0  0
   -1.2656    1.8238    3.0278 H   0  0  0  0  0  0  0  0  0  0  0  0
   -2.7185    3.7265    3.1625 H   0  0  0  0  0  0  0  0  0  0  0  0
   -3.2921    2.6490    1.8988 H   0  0  0  0  0  0  0  0  0  0  0  0
   -3.5695    4.8922    1.1190 H   0  0  0  0  0  0  0  0  0  0  0  0
   -2.2707    4.2027    0.1569 H   0  0  0  0  0  0  0  0  0  0  0  0
   -1.8404    6.0525    2.5825 H   0  0  0  0  0  0  0  0  0  0  0  0
   -1.7450    6.5478    0.8755 H   0  0  0  0  0  0  0  0  0  0  0  0
   -0.5586    5.3960    1.5205 H   0  0  0  0  0  0  0  0  0  0  0  0
    0.7383   -2.5435   -2.6069 H   0  0  0  0  0  0  0  0  0  0  0  0
    0.9389   -2.2131   -4.8303 H   0  0  0  0  0  0  0  0  0  0  0  0
    2.6095   -1.8479   -5.3811 H   0  0  0  0  0  0  0  0  0  0  0  0
    1.4710   -0.5237   -5.0769 H   0  0  0  0  0  0  0  0  0  0  0  0
    1.6740   -2.5941    1.4626 H   0  0  0  0  0  0  0  0  0  0  0  0
    0.6205   -5.3781    1.1350 H   0  0  0  0  0  0  0  0  0  0  0  0
   -0.5911   -4.1745    1.6098 H   0  0  0  0  0  0  0  0  0  0  0  0
    0.8325   -4.4642    2.6577 H   0  0  0  0  0  0  0  0  0  0  0  0
  1  2  2  0  0  0  0
  2 24  1  0  0  0  0
  3 23  1  1  0  0  0
  3  2  1  0  0  0  0
  3  4  1  0  0  0  0
  4  5  1  0  0  0  0
  6 29  1  0  0  0  0
  6 28  1  0  0  0  0
  7  6  2  0  0  0  0
  8  9  1  0  0  0  0
  8  7  1  0  0  0  0
  9 10  1  0  0  0  0
 10 32  1  1  0  0  0
 10 14  1  0  0  0  0
 11 13  2  0  0  0  0
 11 10  1  0  0  0  0
 12 11  1  0  0  0  0
 14 34  1  0  0  0  0
 14 35  1  0  0  0  0
 15 14  1  0  0  0  0
 15 36  1  0  0  0  0
 16 17  1  0  0  0  0
 16 15  1  0  0  0  0
 17 40  1  0  0  0  0
 18  8  2  0  0  0  0
 19  3  1  0  0  0  0
 20 22  2  0  0  0  0
 20 19  1  0  0  0  0
 21 20  1  0  0  0  0
 24 47  1  0  0  0  0
 24 25  1  0  0  0  0
 25 50  1  0  0  0  0
 26  4  1  0  0  0  0
 27  4  1  0  0  0  0
 30  7  1  0  0  0  0
 31  9  1  0  0  0  0
 33 12  1  0  0  0  0
 37 15  1  0  0  0  0
 38 16  1  0  0  0  0
 39 16  1  0  0  0  0
 41 17  1  0  0  0  0
 42 17  1  0  0  0  0
 43 19  1  0  0  0  0
 44 21  1  0  0  0  0
 45 21  1  0  0  0  0
 46 21  1  0  0  0  0
 48 25  1  0  0  0  0
 49 25  1  0  0  0  0
M  END
