80
-1 1
O         0.407630    0.862581   -7.623971
C         0.735930    1.405789   -6.582004
C         1.110889    0.620786   -5.307561
C         1.260778   -0.866336   -5.606431
S         2.011046   -1.878737   -4.291762
C         0.645709   -1.966709   -3.022430
C        -0.667664   -2.473717   -3.651529
N        -1.722711   -1.464811   -3.527041
C        -2.848845   -1.690639   -4.424507
C        -3.732647   -2.875614   -4.016845
C        -4.215819   -2.712160   -2.573452
C        -3.040985   -2.435556   -1.632223
C        -2.190829   -1.271942   -2.149260
C         1.052362   -2.644204   -1.788942
F         1.265202   -4.015816   -1.865248
C         0.942720   -2.053747   -0.544235
O         0.612467   -0.853852   -0.320998
N         1.206139   -2.932882    0.546292
C         1.064024   -2.682574    1.877084
C         1.328392   -3.771210    2.788612
O         1.693291   -4.921024    2.176552
C         1.978179   -6.044457    2.958393
C         1.206704   -3.616762    4.148880
C         0.811685   -2.370081    4.701847
N         0.690725   -2.241763    6.055018
C         0.318720   -1.070032    6.490184
N         0.039730    0.031091    5.758071
C         0.152286   -0.068824    4.449048
N        -0.114196    1.004532    3.634138
C        -0.543471    2.295673    3.924298
C        -0.745542    3.157866    2.832002
C        -1.177567    4.462450    3.030853
Cl        -1.426144    5.520218    1.671411
C        -1.415119    4.932255    4.321094
F        -1.830620    6.185406    4.515430
C        -1.216958    4.089296    5.403878
C        -0.784512    2.778888    5.220988
C         0.553334   -1.298178    3.818426
C         0.684534   -1.464547    2.422531
N         0.148764    0.872274   -4.245794
C         0.327324    1.886794   -3.364018
C        -0.489145    1.804344   -2.099505
O         1.131143    2.793714   -3.570248
H         2.078756    1.015912   -4.956616
N         0.818230    2.747819   -6.413568
C         0.433753    3.682691   -7.435383
H         0.293018   -1.284777   -5.922881
H         1.924295   -0.977069   -6.474667
H         0.501991   -0.934979   -2.692117
H        -0.930748   -3.438983   -3.179639
H        -0.545386   -2.689695   -4.722898
H        -2.465237   -1.821652   -5.449176
H        -3.462617   -0.771276   -4.431025
H        -3.156781   -3.812056   -4.112559
H        -4.586420   -2.959112   -4.709380
H        -4.780583   -3.601445   -2.249128
H        -4.919737   -1.860357   -2.528054
H        -2.411471   -3.335781   -1.535420
H        -3.398344   -2.200951   -0.617273
H        -1.332300   -1.086603   -1.484549
H        -2.805957   -0.353510   -2.139358
H         1.466905   -3.876870    0.292799
H         2.249974   -6.851014    2.266272
H         1.102517   -6.358314    3.553419
H         2.822286   -5.857919    3.645301
H         1.401499   -4.428900    4.848021
H         0.214902   -0.946731    7.575308
H         0.016170    0.813142    2.649405
H        -0.564448    2.811288    1.812134
H        -1.407614    4.476532    6.406448
H        -0.626292    2.111023    6.064169
H         0.503733   -0.678368    1.689164
H        -0.565018    0.155928   -4.049675
H        -0.444196    2.769372   -1.580653
H        -0.070699    1.008739   -1.454500
H        -1.534592    1.543986   -2.316879
H         1.064113    3.072916   -5.474174
H         0.183148    3.113973   -8.340400
H         1.253481    4.380777   -7.671220
H        -0.447098    4.275635   -7.136505
