-1 1
 OpenBabel05232413493D

 80 82  0  0  1  0  0  0  0  0999 V2000
   -1.4123    1.7119   -7.2676 O   0  0  0  0  0  0  0  0  0  0  0  0
   -1.1604    2.1863   -6.1720 C   0  0  0  0  0  0  0  0  0  0  0  0
   -0.0885    1.6124   -5.2188 C   0  0  2  0  0  0  0  0  0  0  0  0
    0.9304    0.7584   -5.9735 C   0  0  0  0  0  0  0  0  0  0  0  0
    2.1570   -0.1045   -4.9320 S   0  0  0  0  0  1  0  0  0  0  0  0
    0.5214   -2.1084   -2.2881 C   0  0  0  0  0  0  0  0  0  0  0  0
    0.3418   -2.7838   -3.6103 C   0  0  0  0  0  0  0  0  0  0  0  0
   -0.8188   -2.2224   -4.2925 N   0  0  0  0  0  0  0  0  0  0  0  0
   -0.7425   -2.2958   -5.7494 C   0  0  0  0  0  0  0  0  0  0  0  0
   -1.0625   -3.6882   -6.3002 C   0  0  0  0  0  0  0  0  0  0  0  0
   -2.4232   -4.1719   -5.7955 C   0  0  0  0  0  0  0  0  0  0  0  0
   -2.4899   -4.0860   -4.2697 C   0  0  0  0  0  0  0  0  0  0  0  0
   -2.1054   -2.6804   -3.7915 C   0  0  0  0  0  0  0  0  0  0  0  0
    0.2509   -2.6498   -1.1033 C   0  0  0  0  0  0  0  0  0  0  0  0
   -0.2055   -3.9276   -0.9953 F   0  0  0  0  0  0  0  0  0  0  0  0
    0.3881   -1.9539    0.2053 C   0  0  0  0  0  0  0  0  0  0  0  0
    0.7094   -0.7842    0.2943 O   0  0  0  0  0  0  0  0  0  0  0  0
    0.1065   -2.7593    1.2810 N   0  0  0  0  0  0  0  0  0  0  0  0
    0.1176   -2.4089    2.6260 C   0  0  0  0  0  0  0  0  0  0  0  0
   -0.2328   -3.4509    3.5490 C   0  0  0  0  0  0  0  0  0  0  0  0
   -0.5244   -4.6311    2.9649 O   0  0  0  0  0  0  0  0  0  0  0  0
   -0.8798   -5.7225    3.7726 C   0  0  0  0  0  0  0  0  0  0  0  0
   -0.2538   -3.2134    4.9022 C   0  0  0  0  0  0  0  0  0  0  0  0
    0.0703   -1.9294    5.4107 C   0  0  0  0  0  0  0  0  0  0  0  0
    0.0391   -1.7319    6.7599 N   0  0  0  0  0  0  0  0  0  0  0  0
    0.3468   -0.5314    7.1665 C   0  0  0  0  0  0  0  0  0  0  0  0
    0.6888    0.5329    6.4138 N   0  0  0  0  0  0  0  0  0  0  0  0
    0.7271    0.3740    5.1046 C   0  0  0  0  0  0  0  0  0  0  0  0
    1.0644    1.4164    4.2893 N   0  0  0  0  0  0  0  0  0  0  0  0
    1.4152    2.7405    4.5847 C   0  0  0  0  0  0  0  0  0  0  0  0
    1.7107    3.5706    3.4913 C   0  0  0  0  0  0  0  0  0  0  0  0
    2.0703    4.8981    3.6881 C   0  0  0  0  0  0  0  0  0  0  0  0
    2.4364    5.9191    2.3330 Cl  0  0  0  0  0  0  0  0  0  0  0  0
    2.1393    5.4162    4.9805 C   0  0  0  0  0  0  0  0  0  0  0  0
    2.4836    6.6874    5.1751 F   0  0  0  0  0  0  0  0  0  0  0  0
    1.8482    4.6029    6.0643 C   0  0  0  0  0  0  0  0  0  0  0  0
    1.4870    3.2710    5.8810 C   0  0  0  0  0  0  0  0  0  0  0  0
    0.4139   -0.9007    4.5057 C   0  0  0  0  0  0  0  0  0  0  0  0
    0.4341   -1.1589    3.1126 C   0  0  0  0  0  0  0  0  0  0  0  0
   -0.7543    0.8691   -4.1551 N   0  0  0  0  0  0  0  0  0  0  0  0
   -1.2422    1.4751   -3.0589 C   0  0  0  0  0  0  0  0  0  0  0  0
   -1.6584    0.5639   -1.9242 C   0  0  0  0  0  0  0  0  0  0  0  0
   -1.3411    2.6981   -2.9426 O   0  0  0  0  0  0  0  0  0  0  0  0
    0.4308    2.4594   -4.7399 H   0  0  0  0  0  0  0  0  0  0  0  0
   -1.8041    3.2715   -5.6613 N   0  0  0  0  0  0  0  0  0  0  0  0
   -2.9367    3.8642   -6.3166 C   0  0  0  0  0  0  0  0  0  0  0  0
    0.3661    0.0561   -6.6064 H   0  0  0  0  0  0  0  0  0  0  0  0
    1.4350    1.4374   -6.6793 H   0  0  0  0  0  0  0  0  0  0  0  0
    0.8893   -1.0766   -2.3225 H   0  0  0  0  0  0  0  0  0  0  0  0
    0.2955   -3.8837   -3.4929 H   0  0  0  0  0  0  0  0  0  0  0  0
    1.2224   -2.5013   -4.2130 H   0  0  0  0  0  0  0  0  0  0  0  0
    0.2634   -1.9623   -6.0449 H   0  0  0  0  0  0  0  0  0  0  0  0
   -1.4583   -1.5613   -6.1617 H   0  0  0  0  0  0  0  0  0  0  0  0
   -0.2766   -4.3976   -5.9855 H   0  0  0  0  0  0  0  0  0  0  0  0
   -1.0393   -3.6622   -7.4013 H   0  0  0  0  0  0  0  0  0  0  0  0
   -2.6310   -5.1992   -6.1378 H   0  0  0  0  0  0  0  0  0  0  0  0
   -3.2135   -3.5299   -6.2262 H   0  0  0  0  0  0  0  0  0  0  0  0
   -1.8006   -4.8249   -3.8251 H   0  0  0  0  0  0  0  0  0  0  0  0
   -3.4986   -4.3388   -3.9032 H   0  0  0  0  0  0  0  0  0  0  0  0
   -2.0973   -2.6417   -2.6907 H   0  0  0  0  0  0  0  0  0  0  0  0
   -2.8732   -1.9604   -4.1303 H   0  0  0  0  0  0  0  0  0  0  0  0
   -0.1527   -3.7186    1.0816 H   0  0  0  0  0  0  0  0  0  0  0  0
   -1.0708   -6.5640    3.0965 H   0  0  0  0  0  0  0  0  0  0  0  0
   -1.7917   -5.5102    4.3556 H   0  0  0  0  0  0  0  0  0  0  0  0
   -0.0648   -5.9908    4.4658 H   0  0  0  0  0  0  0  0  0  0  0  0
   -0.5143   -3.9820    5.6280 H   0  0  0  0  0  0  0  0  0  0  0  0
    0.3291   -0.3505    8.2481 H   0  0  0  0  0  0  0  0  0  0  0  0
    1.0624    1.2018    3.3015 H   0  0  0  0  0  0  0  0  0  0  0  0
    1.6626    3.1876    2.4694 H   0  0  0  0  0  0  0  0  0  0  0  0
    1.9083    5.0294    7.0670 H   0  0  0  0  0  0  0  0  0  0  0  0
    1.2579    2.6299    6.7275 H   0  0  0  0  0  0  0  0  0  0  0  0
    0.6947   -0.4037    2.3735 H   0  0  0  0  0  0  0  0  0  0  0  0
   -0.6248   -0.1495   -4.1474 H   0  0  0  0  0  0  0  0  0  0  0  0
   -2.5113    1.0168   -1.4027 H   0  0  0  0  0  0  0  0  0  0  0  0
   -0.8230    0.4779   -1.2120 H   0  0  0  0  0  0  0  0  0  0  0  0
   -1.9174   -0.4446   -2.2696 H   0  0  0  0  0  0  0  0  0  0  0  0
   -1.6410    3.4468   -4.6659 H   0  0  0  0  0  0  0  0  0  0  0  0
   -2.9801    3.4731   -7.3418 H   0  0  0  0  0  0  0  0  0  0  0  0
   -2.8467    4.9621   -6.3562 H   0  0  0  0  0  0  0  0  0  0  0  0
   -3.8873    3.6173   -5.8109 H   0  0  0  0  0  0  0  0  0  0  0  0
  1  2  2  0  0  0  0
  2 45  1  0  0  0  0
  2  3  1  0  0  0  0
  3 44  1  1  0  0  0
  3 40  1  0  0  0  0
  4  3  1  0  0  0  0
  4  5  1  0  0  0  0
  6 14  2  0  0  0  0
  7 50  1  0  0  0  0
  7  6  1  0  0  0  0
  8 13  1  0  0  0  0
  8  7  1  0  0  0  0
  9  8  1  0  0  0  0
 10 54  1  0  0  0  0
 10 11  1  0  0  0  0
 10  9  1  0  0  0  0
 11 12  1  0  0  0  0
 12 59  1  0  0  0  0
 12 58  1  0  0  0  0
 12 13  1  0  0  0  0
 13 60  1  0  0  0  0
 14 15  1  0  0  0  0
 14 16  1  0  0  0  0
 16 17  2  0  0  0  0
 16 18  1  0  0  0  0
 18 19  1  0  0  0  0
 19 39  2  0  0  0  0
 19 20  1  0  0  0  0
 20 23  2  0  0  0  0
 21 20  1  0  0  0  0
 21 22  1  0  0  0  0
 22 64  1  0  0  0  0
 22 65  1  0  0  0  0
 23 24  1  0  0  0  0
 23 66  1  0  0  0  0
 24 25  1  0  0  0  0
 25 26  2  0  0  0  0
 26 67  1  0  0  0  0
 27 26  1  0  0  0  0
 28 27  2  0  0  0  0
 29 30  1  0  0  0  0
 29 28  1  0  0  0  0
 30 37  1  0  0  0  0
 31 32  1  0  0  0  0
 31 30  2  0  0  0  0
 32 34  2  0  0  0  0
 33 32  1  0  0  0  0
 34 35  1  0  0  0  0
 34 36  1  0  0  0  0
 36 70  1  0  0  0  0
 37 36  2  0  0  0  0
 37 71  1  0  0  0  0
 38 28  1  0  0  0  0
 38 24  2  0  0  0  0
 39 38  1  0  0  0  0
 40 73  1  0  0  0  0
 40 41  1  0  0  0  0
 41 43  2  0  0  0  0
 41 42  1  0  0  0  0
 42 74  1  0  0  0  0
 42 75  1  0  0  0  0
 45 77  1  0  0  0  0
 46 80  1  0  0  0  0
 46 45  1  0  0  0  0
 47  4  1  0  0  0  0
 48  4  1  0  0  0  0
 49  6  1  0  0  0  0
 51  7  1  0  0  0  0
 52  9  1  0  0  0  0
 53  9  1  0  0  0  0
 55 10  1  0  0  0  0
 56 11  1  0  0  0  0
 57 11  1  0  0  0  0
 61 13  1  0  0  0  0
 62 18  1  0  0  0  0
 63 22  1  0  0  0  0
 68 29  1  0  0  0  0
 69 31  1  0  0  0  0
 72 39  1  0  0  0  0
 76 42  1  0  0  0  0
 78 46  1  0  0  0  0
 79 46  1  0  0  0  0
M  END
