80
-1 1
O         5.042426   -0.347810   -2.821080
C         5.125727    0.305023   -1.793734
C         5.479185   -0.299809   -0.423579
C         6.096788   -1.690810   -0.530728
S         6.634056   -2.407727    1.055139
C         4.484363   -3.153806    2.094401
C         3.861165   -3.790726    0.876547
N         2.802731   -2.924472    0.352749
C         2.484089   -3.122785   -1.054850
C         1.679901   -4.398381   -1.323076
C         0.406480   -4.410943   -0.473946
C         0.735582   -4.175042    1.002020
C         1.596109   -2.917285    1.173128
C         4.691822   -3.828213    3.267163
F         4.906502   -5.186369    3.253447
C         4.873844   -3.171073    4.534528
O         4.685827   -1.968484    4.722997
N         5.260615   -4.033883    5.562562
C         5.474233   -3.724659    6.886278
C         5.854023   -4.811907    7.750089
O         5.954369   -6.003315    7.123384
C         6.342766   -7.129349    7.860024
C         6.081865   -4.609501    9.090242
C         5.948053   -3.314983    9.655464
N         6.170293   -3.147584   10.991480
C         6.026634   -1.934396   11.447224
N         5.692632   -0.826322   10.753201
C         5.478035   -0.959227    9.458970
N         5.145531    0.125926    8.691226
C         4.937800    1.463817    9.031127
C         4.591148    2.335134    7.984468
C         4.358211    3.681679    8.232650
Cl         3.926024    4.751519    6.932417
C         4.468865    4.182325    9.528675
F         4.245459    5.474035    9.771345
C         4.812999    3.329957   10.566182
C         5.048683    1.978051   10.332540
C         5.585110   -2.241516    8.812298
C         5.349940   -2.461960    7.434086
N         4.289874   -0.304892    0.412270
C         3.990480    0.717940    1.238730
C         2.968839    0.406381    2.310627
O         4.531273    1.819154    1.160235
H         6.203513    0.371794    0.064533
N         4.896713    1.644044   -1.726407
C         4.419885    2.403084   -2.849002
H         5.384471   -2.354634   -1.050960
H         6.961326   -1.619614   -1.207529
H         4.269555   -2.101115    2.256680
H         3.498426   -4.803498    1.140480
H         4.613220   -3.929913    0.089981
H         3.417046   -3.104426   -1.637807
H         1.896915   -2.248211   -1.389882
H         2.298629   -5.279877   -1.081089
H         1.436156   -4.468080   -2.395470
H        -0.143838   -5.356931   -0.604534
H        -0.265026   -3.606043   -0.826095
H         1.277179   -5.047318    1.405394
H        -0.185499   -4.076656    1.598899
H         1.886755   -2.785506    2.226642
H         0.996604   -2.032514    0.888788
H         5.410086   -5.000400    5.300381
H         6.370608   -7.970856    7.157449
H         5.622694   -7.353338    8.665973
H         7.343848   -6.995064    8.304495
H         6.366610   -5.416672    9.763422
H         6.195834   -1.778789   12.519808
H         5.031773   -0.077854    7.707358
H         4.500785    1.966089    6.960367
H         4.896177    3.742397   11.573273
H         5.320556    1.304674   11.141001
H         5.063716   -1.675040    6.737769
H         3.749332   -1.178607    0.455977
H         2.543804    1.342675    2.691867
H         3.473672   -0.124976    3.135220
H         2.168492   -0.245824    1.933921
H         4.886901    2.050725   -0.788038
H         4.461289    1.757090   -3.736012
H         5.044820    3.293271   -3.028213
H         3.377425    2.738611   -2.709242
