78
-1 1
O        -0.751283   -2.758950   -2.108195
C         0.160009   -2.337032   -2.803163
C         0.967475   -1.070216   -2.455262
C         0.921915   -0.766172   -0.960535
S         1.698963    0.816024   -0.493877
C        -0.859132    2.793778   -0.633281
C        -1.833041    1.681813   -0.856731
N        -2.058248    1.436530   -2.276363
C        -2.683324    0.141725   -2.545658
C        -4.169611    0.138486   -2.210132
O        -4.847625    1.173289   -2.888082
C        -4.305511    2.438878   -2.597364
C        -2.815779    2.495503   -2.935621
C        -0.813540    3.649938    0.387740
F         0.165108    4.564722    0.424620
C        -1.787881    3.870287    1.499940
O        -2.064446    4.999186    1.855381
N        -2.419680    2.792944    2.072847
C        -2.166776    1.408605    2.095100
C        -3.328448    0.574421    2.032262
O        -4.491341    1.244870    1.860159
C        -5.681780    0.510149    1.767312
C        -3.224424   -0.789926    2.151639
C        -1.953439   -1.393562    2.323298
N        -1.903568   -2.734499    2.553893
C        -0.711074   -3.220863    2.785174
N         0.463777   -2.576978    2.753065
C         0.459333   -1.287351    2.447722
N         1.633610   -0.621905    2.277914
C         2.897112   -1.178486    2.531837
C         3.934164   -0.928340    1.622193
C         5.212679   -1.411115    1.878352
Cl         6.511521   -1.105154    0.755349
C         5.470154   -2.154001    3.027109
F         6.697431   -2.622974    3.269933
C         4.446020   -2.409346    3.928988
C         3.166447   -1.922546    3.689619
C        -0.792965   -0.583199    2.287396
C        -0.921948    0.828286    2.200810
N         0.454865    0.030384   -3.254570
C         0.853159    0.259977   -4.517392
C         0.371616    1.566048   -5.114032
O         1.572044   -0.507461   -5.155376
H         2.014492   -1.226913   -2.761201
N         0.540663   -2.908720   -3.974310
C        -0.186302   -4.000297   -4.564810
H        -0.131756   -0.809926   -0.633458
H         1.412948   -1.612694   -0.450318
H        -0.050188    2.872903   -1.363313
H        -2.770579    1.864198   -0.302695
H        -1.391893    0.765208   -0.436564
H        -2.155780   -0.656040   -1.999752
H        -2.560623   -0.074258   -3.620991
H        -4.311946    0.242750   -1.114139
H        -4.632923   -0.809533   -2.518536
H        -4.466335    2.686998   -1.527925
H        -4.863429    3.175400   -3.194497
H        -2.394729    3.474357   -2.657126
H        -2.700421    2.377504   -4.027058
H        -3.235391    3.084101    2.602416
H        -6.487136    1.236265    1.602721
H        -5.884121   -0.054253    2.693803
H        -5.654815   -0.195766    0.919752
H        -4.087555   -1.453314    2.142953
H        -0.652199   -4.291155    3.021466
H         1.627685    0.095870    1.500499
H         3.716938   -0.352609    0.713913
H         4.670290   -2.993063    4.823477
H         2.366835   -2.130786    4.397824
H        -0.031067    1.456952    2.225337
H        -0.161926    0.710612   -2.804048
H         1.205776    2.283011   -5.092985
H        -0.470754    1.993848   -4.554162
H         0.090647    1.402226   -6.162593
H         1.166306   -2.345330   -4.554379
H         0.498914   -4.787048   -4.917653
H        -0.803995   -3.672066   -5.419016
H        -0.850815   -4.422404   -3.799869
