-1 1
 OpenBabel05232413493D

 73 74  0  0  1  0  0  0  0  0999 V2000
    1.7406    3.9352   -2.4051 O   0  0  0  0  0  0  0  0  0  0  0  0
    0.7097    3.6952   -1.7992 C   0  0  0  0  0  0  0  0  0  0  0  0
    0.6065    2.5251   -0.8131 C   0  0  2  0  0  0  0  0  0  0  0  0
    1.3814    2.8872    0.4612 C   0  0  0  0  0  0  0  0  0  0  0  0
    1.1872    1.7403    1.8638 S   0  0  0  0  0  1  0  0  0  0  0  0
   -2.8801    2.1608    0.5271 C   0  0  0  0  0  0  0  0  0  0  0  0
   -3.1651    2.0483   -0.9389 C   0  0  0  0  0  0  0  0  0  0  0  0
   -3.1475    3.3397   -1.6118 N   0  0  0  0  0  0  0  0  0  0  0  0
   -3.1309    3.1732   -3.0535 C   0  0  0  0  0  0  0  0  0  0  0  0
   -4.2138    4.2144   -1.1743 C   0  0  0  0  0  0  0  0  0  0  0  0
   -3.1525    1.2040    1.4076 C   0  0  0  0  0  0  0  0  0  0  0  0
   -3.7540    0.0655    1.0163 F   0  0  0  0  0  0  0  0  0  0  0  0
   -2.8587    1.3035    2.8773 C   0  0  0  0  0  0  0  0  0  0  0  0
   -2.9798    2.3526    3.4746 O   0  0  0  0  0  0  0  0  0  0  0  0
   -2.4985    0.1388    3.4938 N   0  0  0  0  0  0  0  0  0  0  0  0
   -2.0303   -1.0410    2.8644 C   0  0  0  0  0  0  0  0  0  0  0  0
   -2.7922   -2.2387    3.0065 C   0  0  0  0  0  0  0  0  0  0  0  0
   -3.8843   -2.1418    3.7870 O   0  0  0  0  0  0  0  0  0  0  0  0
   -4.7058   -3.2660    3.9302 C   0  0  0  0  0  0  0  0  0  0  0  0
   -2.3897   -3.3866    2.3575 C   0  0  0  0  0  0  0  0  0  0  0  0
   -1.2200   -3.3896    1.5579 C   0  0  0  0  0  0  0  0  0  0  0  0
   -0.8798   -4.5506    0.9235 N   0  0  0  0  0  0  0  0  0  0  0  0
    0.2117   -4.4990    0.2105 C   0  0  0  0  0  0  0  0  0  0  0  0
    1.0559   -3.4654    0.0588 N   0  0  0  0  0  0  0  0  0  0  0  0
    0.7768   -2.3228    0.6754 C   0  0  0  0  0  0  0  0  0  0  0  0
    1.6504   -1.2859    0.6040 N   0  0  0  0  0  0  0  0  0  0  0  0
    2.9208   -1.2445    0.0119 C   0  0  0  0  0  0  0  0  0  0  0  0
    3.4602   -2.2458   -0.8102 C   0  0  0  0  0  0  0  0  0  0  0  0
    4.7147   -2.0650   -1.3866 C   0  0  0  0  0  0  0  0  0  0  0  0
    5.3789   -3.3067   -2.4193 Cl  0  0  0  0  0  0  0  0  0  0  0  0
    5.4492   -0.9061   -1.1640 C   0  0  0  0  0  0  0  0  0  0  0  0
    6.6470   -0.7440   -1.7295 F   0  0  0  0  0  0  0  0  0  0  0  0
    4.9290    0.0830   -0.3389 C   0  0  0  0  0  0  0  0  0  0  0  0
    3.6849   -0.0849    0.2530 C   0  0  0  0  0  0  0  0  0  0  0  0
   -0.4461   -2.2083    1.4441 C   0  0  0  0  0  0  0  0  0  0  0  0
   -0.8855   -1.0352    2.1040 C   0  0  0  0  0  0  0  0  0  0  0  0
    1.1295    1.3216   -1.4165 N   0  0  0  0  0  0  0  0  0  0  0  0
    0.4484    0.6077   -2.3335 C   0  0  0  0  0  0  0  0  0  0  0  0
    1.1555   -0.6171   -2.8734 C   0  0  0  0  0  0  0  0  0  0  0  0
   -0.6877    0.8990   -2.6932 O   0  0  0  0  0  0  0  0  0  0  0  0
   -0.4443    2.3472   -0.5481 H   0  0  0  0  0  0  0  0  0  0  0  0
   -0.3976    4.4756   -1.8692 N   0  0  0  0  0  0  0  0  0  0  0  0
   -0.4373    5.6142   -2.7474 C   0  0  0  0  0  0  0  0  0  0  0  0
    2.4434    3.0019    0.1764 H   0  0  0  0  0  0  0  0  0  0  0  0
    1.0405    3.8886    0.7672 H   0  0  0  0  0  0  0  0  0  0  0  0
   -2.3695    3.0452    0.9164 H   0  0  0  0  0  0  0  0  0  0  0  0
   -4.1341    1.5243   -1.0955 H   0  0  0  0  0  0  0  0  0  0  0  0
   -2.3893    1.4224   -1.4121 H   0  0  0  0  0  0  0  0  0  0  0  0
   -2.2739    2.5454   -3.3362 H   0  0  0  0  0  0  0  0  0  0  0  0
   -3.0307    4.1553   -3.5417 H   0  0  0  0  0  0  0  0  0  0  0  0
   -4.0619    2.6969   -3.4322 H   0  0  0  0  0  0  0  0  0  0  0  0
   -4.1814    4.3434   -0.0826 H   0  0  0  0  0  0  0  0  0  0  0  0
   -5.2205    3.8210   -1.4399 H   0  0  0  0  0  0  0  0  0  0  0  0
   -4.1023    5.2064   -1.6391 H   0  0  0  0  0  0  0  0  0  0  0  0
   -2.4081    0.2181    4.5010 H   0  0  0  0  0  0  0  0  0  0  0  0
   -5.5369   -2.9681    4.5815 H   0  0  0  0  0  0  0  0  0  0  0  0
   -4.1672   -4.1100    4.3962 H   0  0  0  0  0  0  0  0  0  0  0  0
   -5.1110   -3.5994    2.9591 H   0  0  0  0  0  0  0  0  0  0  0  0
   -2.9423   -4.3230    2.4144 H   0  0  0  0  0  0  0  0  0  0  0  0
    0.4935   -5.4108   -0.3320 H   0  0  0  0  0  0  0  0  0  0  0  0
    1.3874   -0.3725    1.0403 H   0  0  0  0  0  0  0  0  0  0  0  0
    2.8931   -3.1527   -0.9972 H   0  0  0  0  0  0  0  0  0  0  0  0
    5.5161    0.9853   -0.1595 H   0  0  0  0  0  0  0  0  0  0  0  0
    3.2675    0.6814    0.9197 H   0  0  0  0  0  0  0  0  0  0  0  0
   -0.3371   -0.0869    2.0079 H   0  0  0  0  0  0  0  0  0  0  0  0
    2.0941    1.0838   -1.2211 H   0  0  0  0  0  0  0  0  0  0  0  0
    0.8364   -0.7767   -3.9107 H   0  0  0  0  0  0  0  0  0  0  0  0
    0.8541   -1.4962   -2.2825 H   0  0  0  0  0  0  0  0  0  0  0  0
    2.2500   -0.5366   -2.8257 H   0  0  0  0  0  0  0  0  0  0  0  0
   -1.2934    4.0969   -1.5408 H   0  0  0  0  0  0  0  0  0  0  0  0
   -1.2209    6.3115   -2.4163 H   0  0  0  0  0  0  0  0  0  0  0  0
   -0.6394    5.3328   -3.7972 H   0  0  0  0  0  0  0  0  0  0  0  0
    0.5336    6.1284   -2.7279 H   0  0  0  0  0  0  0  0  0  0  0  0
  1  2  2  0  0  0  0
  2  3  1  0  0  0  0
  3 41  1  1  0  0  0
  3  4  1  0  0  0  0
  4 45  1  0  0  0  0
  4  5  1  0  0  0  0
  6 46  1  0  0  0  0
  6 11  2  0  0  0  0
  7  6  1  0  0  0  0
  8 10  1  0  0  0  0
  8  7  1  0  0  0  0
  9  8  1  0  0  0  0
 10 52  1  0  0  0  0
 11 13  1  0  0  0  0
 12 11  1  0  0  0  0
 13 14  2  0  0  0  0
 13 15  1  0  0  0  0
 15 55  1  0  0  0  0
 16 17  1  0  0  0  0
 16 15  1  0  0  0  0
 17 18  1  0  0  0  0
 18 19  1  0  0  0  0
 19 57  1  0  0  0  0
 19 56  1  0  0  0  0
 20 59  1  0  0  0  0
 20 17  2  0  0  0  0
 21 20  1  0  0  0  0
 22 21  1  0  0  0  0
 23 22  2  0  0  0  0
 24 23  1  0  0  0  0
 24 25  2  0  0  0  0
 25 35  1  0  0  0  0
 26 25  1  0  0  0  0
 26 61  1  0  0  0  0
 27 34  1  0  0  0  0
 27 26  1  0  0  0  0
 28 27  2  0  0  0  0
 29 31  2  0  0  0  0
 29 28  1  0  0  0  0
 30 29  1  0  0  0  0
 31 33  1  0  0  0  0
 32 31  1  0  0  0  0
 33 63  1  0  0  0  0
 33 34  2  0  0  0  0
 34 64  1  0  0  0  0
 35 21  2  0  0  0  0
 35 36  1  0  0  0  0
 36 16  2  0  0  0  0
 37 66  1  0  0  0  0
 37  3  1  0  0  0  0
 38 37  1  0  0  0  0
 39 69  1  0  0  0  0
 39 38  1  0  0  0  0
 39 68  1  0  0  0  0
 40 38  2  0  0  0  0
 42  2  1  0  0  0  0
 42 70  1  0  0  0  0
 43 73  1  0  0  0  0
 43 71  1  0  0  0  0
 43 42  1  0  0  0  0
 44  4  1  0  0  0  0
 47  7  1  0  0  0  0
 48  7  1  0  0  0  0
 49  9  1  0  0  0  0
 50  9  1  0  0  0  0
 51  9  1  0  0  0  0
 53 10  1  0  0  0  0
 54 10  1  0  0  0  0
 58 19  1  0  0  0  0
 60 23  1  0  0  0  0
 62 28  1  0  0  0  0
 65 36  1  0  0  0  0
 67 39  1  0  0  0  0
 72 43  1  0  0  0  0
M  END
