73
-1 1
O         2.246552    4.161464   -2.851142
C         1.091393    4.105424   -2.470847
C         0.471303    2.863207   -1.836477
C         0.455557    3.044980   -0.310298
S        -0.426972    1.757318    0.610744
C        -2.307712    2.093127    0.530847
C        -2.814240    2.402805   -0.878107
N        -2.544857    3.739866   -1.421374
C        -2.972017    3.781819   -2.808578
C        -3.167797    4.793299   -0.647780
C        -2.924617    0.896954    1.101737
F        -2.947262   -0.188291    0.242722
C        -3.202973    0.720830    2.454942
O        -3.290086    1.611217    3.318442
N        -3.465123   -0.638061    2.870216
C        -2.611491   -1.696450    2.709160
C        -2.982231   -2.966158    3.278922
O        -4.141008   -2.939313    3.978329
C        -4.585581   -4.114913    4.587939
C        -2.199865   -4.085612    3.111850
C        -0.989179   -4.018817    2.374451
N        -0.239749   -5.147738    2.210464
C         0.866459   -5.006909    1.534218
N         1.359999   -3.874559    0.988897
C         0.658626   -2.768424    1.139244
N         1.134829   -1.580641    0.635088
C         2.368464   -1.298499    0.051550
C         3.174667   -2.258982   -0.577535
C         4.360748   -1.869171   -1.191557
Cl         5.358462   -3.058115   -1.985812
C         4.766354   -0.537371   -1.192782
F         5.905037   -0.177537   -1.785500
C         3.983658    0.417673   -0.556199
C         2.802410    0.038473    0.069056
C        -0.596561   -2.769414    1.841403
C        -1.406056   -1.630173    2.030406
N         1.108229    1.655534   -2.263814
C         0.429338    0.691925   -2.944375
C         1.192807   -0.594059   -3.170687
O        -0.721751    0.831334   -3.322401
H        -0.565210    2.792585   -2.174156
N         0.218144    5.147426   -2.501689
C         0.574468    6.463020   -2.957837
H         1.489386    3.064027    0.073579
H         0.009803    4.018774   -0.064087
H        -2.486098    2.908517    1.243091
H        -3.913810    2.238011   -0.848142
H        -2.401603    1.659375   -1.576799
H        -2.443739    3.005871   -3.383661
H        -2.742904    4.764018   -3.254323
H        -4.065082    3.606915   -2.919364
H        -2.792090    4.793017    0.384361
H        -4.275226    4.693841   -0.604577
H        -2.933928    5.775479   -1.090644
H        -4.062599   -0.686562    3.686950
H        -5.524767   -3.871342    5.100739
H        -3.857857   -4.492470    5.328215
H        -4.776994   -4.911293    3.847149
H        -2.471586   -5.055488    3.526291
H         1.481142   -5.903116    1.383296
H         0.541325   -0.764877    0.763272
H         2.868477   -3.302087   -0.571655
H         4.319995    1.456460   -0.549702
H         2.191344    0.784865    0.579046
H        -1.113526   -0.658977    1.639958
H         2.085115    1.515183   -2.044461
H         0.984722   -0.961976   -4.183358
H         0.813632   -1.339465   -2.455628
H         2.277027   -0.492837   -3.020471
H        -0.712690    4.958489   -2.134440
H         0.486533    7.213436   -2.154706
H        -0.054957    6.783725   -3.803949
H         1.619577    6.428228   -3.292613
