73
-1 1
O         5.926913   -0.060357   -1.608225
C         4.799063   -0.155461   -1.159420
C         4.258380   -1.411420   -0.479784
C         4.341438   -1.238041    1.044382
S         3.397179   -2.458733    2.000000
C         1.224947   -2.158091    1.857111
C         0.892815   -1.943114    0.392478
N         1.150108   -0.613716   -0.168088
C         0.850059   -0.638866   -1.589947
C         0.408520    0.432842    0.503411
C         0.676183   -3.302658    2.458032
F         0.568012   -4.412006    1.650588
C         0.474241   -3.459224    3.853715
O         0.383790   -2.537757    4.667962
N         0.296998   -4.793838    4.319563
C         1.125519   -5.866410    4.061234
C         0.749856   -7.143760    4.599766
O        -0.373637   -7.120220    5.353671
C        -0.816518   -8.311297    5.935783
C         1.501758   -8.269883    4.355573
C         2.679557   -8.194804    3.569532
N         3.397539   -9.333718    3.342120
C         4.483764   -9.188112    2.635572
N         4.983445   -8.048247    2.117553
C         4.313309   -6.929363    2.323304
N         4.813208   -5.743968    1.848217
C         6.065783   -5.492918    1.282250
C         6.828021   -6.454503    0.602953
C         8.038874   -6.091506    0.021271
Cl         8.982924   -7.282582   -0.834147
C         8.509807   -4.784234    0.099499
F         9.671276   -4.448998   -0.462886
C         7.768121   -3.828424    0.782722
C         6.563857   -4.182238    1.378199
C         3.077151   -6.935444    3.063356
C         2.296184   -5.789394    3.330668
N         4.890078   -2.604182   -0.958128
C         4.219349   -3.533699   -1.685358
C         4.994401   -4.798044   -1.986103
O         3.064642   -3.389368   -2.055183
H         3.201994   -1.501227   -0.740858
N         3.887106    0.854272   -1.150512
C         4.167716    2.174139   -1.643498
H         5.398533   -1.264587    1.362192
H         3.970384   -0.235144    1.301422
H         1.153978   -1.294173    2.521354
H        -0.190436   -2.176112    0.279799
H         1.431113   -2.684458   -0.216519
H         1.454703   -1.415101   -2.083366
H         1.085535    0.334666   -2.049984
H        -0.222740   -0.857733   -1.788198
H         0.690203    0.495257    1.562945
H        -0.692362    0.276210    0.451548
H         0.631884    1.407464    0.039541
H        -0.203256   -4.838157    5.199688
H        -1.727298   -8.069933    6.498234
H        -0.065680   -8.732123    6.627864
H        -1.056468   -9.072611    5.172907
H         1.231410   -9.250582    4.744311
H         5.074356  -10.090323    2.432068
H         4.255739   -4.899525    1.993577
H         6.471812   -7.479285    0.542986
H         8.154461   -2.809613    0.850364
H         5.979627   -3.438557    1.922991
H         2.599709   -4.811206    2.962916
H         5.866298   -2.754174   -0.742475
H         4.806769   -5.093915   -3.026237
H         4.607656   -5.594499   -1.333176
H         6.075281   -4.702604   -1.811173
H         2.980508    0.632177   -0.741831
H         4.096647    2.934233   -0.847561
H         3.481081    2.458965   -2.457763
H         5.193408    2.171698   -2.035773
