81
-1 1
O         0.065387   -3.117555    0.447432
C         0.386285   -4.254404    0.168286
C         1.710263   -4.574732   -0.536347
C         1.535179   -4.774184   -2.049705
S         0.881521   -3.373475   -2.992148
C         2.588541   -1.874686   -2.588359
C         3.119163   -1.302657   -3.745769
F         2.411879   -0.281533   -4.308631
C         4.374441   -1.555634   -4.345462
N         5.128291   -2.669243   -3.796856
C         4.957238   -3.964835   -4.240791
C         3.741996   -4.510679   -4.626635
C         6.123285   -4.794727   -4.317916
O         7.301886   -4.214469   -3.955150
C         8.252436   -3.947470   -4.980902
H         8.689639   -4.895938   -5.337317
C         7.694112   -3.081863   -6.120005
C         8.035080   -1.638044   -5.689314
O         8.678570   -1.744163   -4.428614
C         9.278849   -3.006128   -4.366291
C         6.053562   -6.093728   -4.750414
C         4.814441   -6.662569   -5.130469
C         3.650287   -5.858546   -5.046490
C         2.416248   -6.531420   -5.396851
N         1.225625   -5.879370   -5.240016
C        -0.075666   -6.338170   -5.482675
C        -0.383757   -7.503317   -6.201037
C        -1.715033   -7.857739   -6.403479
Cl        -2.098926   -9.309172   -7.294529
C        -2.750798   -7.076412   -5.904657
F        -4.022865   -7.429533   -6.102451
C        -2.453386   -5.922719   -5.190858
C        -1.132137   -5.555571   -4.979479
N         2.433507   -7.773756   -5.843671
C         3.618810   -8.412565   -5.915114
N         4.788816   -7.955972   -5.571452
O         4.906933   -0.873031   -5.217644
C         1.842506   -0.981192   -1.596924
N         2.726602   -0.202515   -0.748797
C         3.404106   -0.967826    0.266566
C         3.572220    0.763277   -1.406019
N         2.328161   -5.786254   -0.015275
C         2.798613   -5.862011    1.265857
C         3.648315   -7.083154    1.566277
O         2.561735   -5.010008    2.096146
H         2.359493   -3.708695   -0.339105
N        -0.404785   -5.338221    0.392692
C        -1.683444   -5.244433    1.044353
H         2.529974   -5.041790   -2.449909
H         0.875542   -5.644311   -2.216544
H         3.266757   -2.606207   -2.137653
H         6.114106   -2.428431   -3.723924
H         2.857488   -3.871993   -4.579803
H         6.613318   -3.224495   -6.256577
H         8.182627   -3.354283   -7.066733
H         7.131489   -1.023682   -5.569861
H         8.714187   -1.159482   -6.420620
H         9.496238   -3.254702   -3.318580
H        10.222016   -3.046740   -4.952407
H         6.950656   -6.710481   -4.819372
H         1.253035   -4.970876   -4.761612
H         0.418237   -8.130594   -6.579573
H        -3.271813   -5.317085   -4.798338
H        -0.899885   -4.654169   -4.405023
H         3.571997   -9.439745   -6.298211
H         1.197502   -1.588187   -0.948592
H         1.187809   -0.299867   -2.161023
H         4.228829   -1.609229   -0.122785
H         2.685887   -1.617054    0.791432
H         3.853154   -0.289878    1.012099
H         3.014370    1.264924   -2.209486
H         4.480316    0.324179   -1.872022
H         3.904342    1.527626   -0.681045
H         2.691447   -6.440728   -0.697923
H         3.563399   -7.317035    2.634236
H         4.701689   -6.847967    1.349342
H         3.360432   -7.959653    0.968257
H         0.001574   -6.246768    0.215199
H        -1.916368   -4.178055    1.158617
H        -1.670722   -5.708580    2.044760
H        -2.475196   -5.718722    0.443338
