-1 1
 OpenBabel05192410563D

 81 84  0  0  1  0  0  0  0  0999 V2000
   -2.6030    1.2672    3.9985 O   0  0  0  0  0  0  0  0  0  0  0  0
   -2.3266    0.1434    3.6375 C   0  0  0  0  0  0  0  0  0  0  0  0
   -0.9928   -0.1751    2.9491 C   0  0  2  0  0  0  0  0  0  0  0  0
   -1.1275   -0.1610    1.4206 C   0  0  0  0  0  0  0  0  0  0  0  0
   -1.6062    1.3911    0.6287 S   0  0  0  0  0  0  0  0  0  0  0  0
   -0.0670    2.4693    0.9423 C   0  0  1  0  0  0  0  0  0  0  0  0
    0.4437    3.1213   -0.2686 C   0  0  1  0  0  3  0  0  0  0  0  0
   -0.3758    4.1340   -0.7157 F   0  0  0  0  0  0  0  0  0  0  0  0
    1.7413    3.1186   -0.7442 C   0  0  0  0  0  0  0  0  0  0  0  0
    2.5777    2.0113   -0.2695 N   0  0  0  0  0  0  0  0  0  0  0  0
    2.4527    0.7103   -0.6628 C   0  0  0  0  0  0  0  0  0  0  0  0
    1.2592    0.1218   -1.0662 C   0  0  0  0  0  0  0  0  0  0  0  0
    3.6328   -0.1122   -0.6722 C   0  0  0  0  0  0  0  0  0  0  0  0
    4.7974    0.5000   -0.3206 O   0  0  0  0  0  0  0  0  0  0  0  0
    5.7181    0.8239   -1.3592 C   0  0  1  0  0  0  0  0  0  0  0  0
    6.2017   -0.1004   -1.7207 H   0  0  0  0  0  0  0  0  0  0  0  0
    5.1097    1.6590   -2.4953 C   0  0  0  0  0  0  0  0  0  0  0  0
    5.3556    3.1206   -2.0576 C   0  0  0  0  0  0  0  0  0  0  0  0
    6.0254    3.0458   -0.8057 O   0  0  0  0  0  0  0  0  0  0  0  0
    6.6967    1.8211   -0.7545 C   0  0  0  0  0  0  0  0  0  0  0  0
    3.5880   -1.4373   -1.0207 C   0  0  0  0  0  0  0  0  0  0  0  0
    2.3628   -2.0505   -1.3854 C   0  0  0  0  0  0  0  0  0  0  0  0
    1.1959   -1.2476   -1.4017 C   0  0  0  0  0  0  0  0  0  0  0  0
   -0.0233   -1.9492   -1.7294 C   0  0  2  0  0  3  0  0  0  0  0  0
   -1.2063   -1.2569   -1.6877 N   0  0  0  0  0  0  0  0  0  0  0  0
   -2.5207   -1.7029   -1.8375 C   0  0  0  0  0  0  0  0  0  0  0  0
   -2.8739   -3.0093   -2.2070 C   0  0  0  0  0  0  0  0  0  0  0  0
   -4.2184   -3.3533   -2.3189 C   0  0  0  0  0  0  0  0  0  0  0  0
   -4.6613   -4.9779   -2.7746 Cl  0  0  0  0  0  0  0  0  0  0  0  0
   -5.2220   -2.4230   -2.0717 C   0  0  0  0  0  0  0  0  0  0  0  0
   -6.5066   -2.7665   -2.1803 F   0  0  0  0  0  0  0  0  0  0  0  0
   -4.8793   -1.1268   -1.7086 C   0  0  0  0  0  0  0  0  0  0  0  0
   -3.5441   -0.7675   -1.5934 C   0  0  0  0  0  0  0  0  0  0  0  0
   -0.0103   -3.2306   -2.0368 N   0  0  0  0  0  0  0  0  0  0  0  0
    1.1789   -3.8729   -2.0193 C   0  0  0  0  0  0  0  0  0  0  0  0
    2.3423   -3.3778   -1.7068 N   0  0  0  0  0  2  0  0  0  0  0  0
    2.2985    3.9471   -1.4879 O   0  0  0  0  0  0  0  0  0  0  0  0
   -0.4404    3.4526    2.0826 C   0  0  0  0  0  0  0  0  0  0  0  0
    0.6376    4.2927    2.5520 N   0  0  0  0  0  0  0  0  0  0  0  0
    1.7822    3.5788    3.0559 C   0  0  0  0  0  0  0  0  0  0  0  0
    0.9772    5.4475    1.7484 C   0  0  0  0  0  0  0  0  0  0  0  0
   -0.4779   -1.4882    3.3083 N   0  0  0  0  0  0  0  0  0  0  0  0
   -0.0829   -1.7831    4.5859 C   0  0  0  0  0  0  0  0  0  0  0  0
    0.6845   -3.0833    4.7329 C   0  0  0  0  0  0  0  0  0  0  0  0
   -0.3246   -1.0523    5.5222 O   0  0  0  0  0  0  0  0  0  0  0  0
   -0.2976    0.6122    3.2810 H   0  0  0  0  0  0  0  0  0  0  0  0
   -3.1785   -0.9148    3.7232 N   0  0  0  0  0  0  0  0  0  0  0  0
   -4.4694   -0.8194    4.3519 C   0  0  0  0  0  0  0  0  0  0  0  0
   -0.1601   -0.4770    0.9948 H   0  0  0  0  0  0  0  0  0  0  0  0
   -1.8828   -0.9046    1.1161 H   0  0  0  0  0  0  0  0  0  0  0  0
    0.6931    1.7590    1.2967 H   0  0  0  0  0  0  0  0  0  0  0  0
    3.5421    2.3040   -0.1385 H   0  0  0  0  0  0  0  0  0  0  0  0
    0.3863    0.7745   -1.1109 H   0  0  0  0  0  0  0  0  0  0  0  0
    4.0423    1.4476   -2.6452 H   0  0  0  0  0  0  0  0  0  0  0  0
    5.6248    1.4204   -3.4374 H   0  0  0  0  0  0  0  0  0  0  0  0
    4.4128    3.6735   -1.9176 H   0  0  0  0  0  0  0  0  0  0  0  0
    5.9931    3.6476   -2.7932 H   0  0  0  0  0  0  0  0  0  0  0  0
    6.9410    1.5824    0.2898 H   0  0  0  0  0  0  0  0  0  0  0  0
    7.6338    1.8337   -1.3523 H   0  0  0  0  0  0  0  0  0  0  0  0
    4.4963   -2.0416   -1.0233 H   0  0  0  0  0  0  0  0  0  0  0  0
   -1.1378   -0.2895   -1.3782 H   0  0  0  0  0  0  0  0  0  0  0  0
   -2.0922   -3.7407   -2.3969 H   0  0  0  0  0  0  0  0  0  0  0  0
   -5.6731   -0.4038   -1.5151 H   0  0  0  0  0  0  0  0  0  0  0  0
   -3.2819    0.2515   -1.2997 H   0  0  0  0  0  0  0  0  0  0  0  0
    1.1388   -4.9343   -2.2931 H   0  0  0  0  0  0  0  0  0  0  0  0
   -0.8452    2.8728    2.9303 H   0  0  0  0  0  0  0  0  0  0  0  0
   -1.2620    4.0963    1.7337 H   0  0  0  0  0  0  0  0  0  0  0  0
    2.4130    3.1153    2.2664 H   0  0  0  0  0  0  0  0  0  0  0  0
    1.4518    2.7778    3.7385 H   0  0  0  0  0  0  0  0  0  0  0  0
    2.4276    4.2615    3.6346 H   0  0  0  0  0  0  0  0  0  0  0  0
    0.0562    5.9585    1.4325 H   0  0  0  0  0  0  0  0  0  0  0  0
    1.5548    5.2239    0.8301 H   0  0  0  0  0  0  0  0  0  0  0  0
    1.5650    6.1546    2.3605 H   0  0  0  0  0  0  0  0  0  0  0  0
   -0.1091   -2.0556    2.5540 H   0  0  0  0  0  0  0  0  0  0  0  0
    0.5637   -3.4498    5.7591 H   0  0  0  0  0  0  0  0  0  0  0  0
    1.7543   -2.8901    4.5590 H   0  0  0  0  0  0  0  0  0  0  0  0
    0.3543   -3.8522    4.0198 H   0  0  0  0  0  0  0  0  0  0  0  0
   -2.7994   -1.8252    3.4995 H   0  0  0  0  0  0  0  0  0  0  0  0
   -4.6754    0.2446    4.5247 H   0  0  0  0  0  0  0  0  0  0  0  0
   -4.4939   -1.3409    5.3232 H   0  0  0  0  0  0  0  0  0  0  0  0
   -5.2583   -1.2349    3.7058 H   0  0  0  0  0  0  0  0  0  0  0  0
  2 47  1  0  0  0  0
  2  1  2  0  0  0  0
  3 46  1  1  0  0  0
  3 42  1  0  0  0  0
  3  2  1  0  0  0  0
  4  3  1  0  0  0  0
  5  6  1  0  0  0  0
  5  4  1  0  0  0  0
  6 51  1  1  0  0  0
  6 38  1  0  0  0  0
  7  8  1  1  0  0  0
  7  6  1  0  0  0  0
  9 10  1  0  0  0  0
  9  7  1  0  0  0  0
 10 52  1  0  0  0  0
 11 10  1  0  0  0  0
 12 11  2  0  0  0  0
 13 11  1  0  0  0  0
 13 14  1  0  0  0  0
 15 16  1  6  0  0  0
 15 20  1  0  0  0  0
 15 14  1  0  0  0  0
 17 18  1  0  0  0  0
 17 15  1  0  0  0  0
 18 56  1  0  0  0  0
 18 19  1  0  0  0  0
 19 20  1  0  0  0  0
 20 58  1  0  0  0  0
 21 13  2  0  0  0  0
 22 21  1  0  0  0  0
 23 22  2  0  0  0  0
 23 12  1  0  0  0  0
 24 25  1  1  0  0  0
 24 23  1  0  0  0  0
 25 61  1  0  0  0  0
 26 25  1  0  0  0  0
 26 33  1  0  0  0  0
 27 26  2  0  0  0  0
 28 27  1  0  0  0  0
 28 30  2  0  0  0  0
 29 28  1  0  0  0  0
 30 32  1  0  0  0  0
 31 30  1  0  0  0  0
 32 33  2  0  0  0  0
 32 63  1  0  0  0  0
 33 64  1  0  0  0  0
 34 35  2  0  0  0  0
 34 24  1  0  0  0  0
 35 36  1  0  0  0  0
 36 22  1  0  0  0  0
 37  9  2  0  0  0  0
 38 39  1  0  0  0  0
 38 66  1  0  0  0  0
 39 40  1  0  0  0  0
 40 70  1  0  0  0  0
 40 69  1  0  0  0  0
 41 73  1  0  0  0  0
 41 39  1  0  0  0  0
 42 43  1  0  0  0  0
 43 44  1  0  0  0  0
 43 45  2  0  0  0  0
 44 75  1  0  0  0  0
 47 48  1  0  0  0  0
 48 79  1  0  0  0  0
 48 80  1  0  0  0  0
 49  4  1  0  0  0  0
 50  4  1  0  0  0  0
 53 12  1  0  0  0  0
 54 17  1  0  0  0  0
 55 17  1  0  0  0  0
 57 18  1  0  0  0  0
 59 20  1  0  0  0  0
 60 21  1  0  0  0  0
 62 27  1  0  0  0  0
 65 35  1  0  0  0  0
 67 38  1  0  0  0  0
 68 40  1  0  0  0  0
 71 41  1  0  0  0  0
 72 41  1  0  0  0  0
 74 42  1  0  0  0  0
 76 44  1  0  0  0  0
 77 44  1  0  0  0  0
 78 47  1  0  0  0  0
 81 48  1  0  0  0  0
M  END
