89
-1 1
O         0.104274   -2.960134   -1.735583
C         1.000632   -2.365188   -2.310183
C         2.474121   -2.537886   -1.879688
C         2.566692   -2.806475   -0.366624
S         2.472567   -1.277346    0.634427
C         1.098991   -0.055768    3.668834
C         0.494684    1.293623    3.407572
N         0.695046    1.766371    2.049862
C        -0.233747    2.810432    1.696871
C         2.063197    2.125530    1.765366
C         0.387136   -1.110503    4.049823
F        -0.936668   -1.017416    4.283218
C         0.935750   -2.502880    4.227063
O         1.934964   -2.720991    4.879270
N         0.208547   -3.506592    3.641620
C        -0.779762   -3.369697    2.647960
C        -1.937415   -4.199882    2.711639
O        -1.915159   -5.122764    3.701667
C        -2.960744   -6.061306    3.815013
C        -2.841677   -7.196311    2.810891
C        -2.964395   -4.016431    1.808703
C        -2.893010   -2.987529    0.835692
N        -3.961665   -2.783693    0.008589
C        -3.839306   -1.789303   -0.829432
N        -2.799440   -0.950347   -0.988265
C        -1.728163   -1.147691   -0.232100
N        -0.639116   -0.350046   -0.360018
C        -0.493107    0.807028   -1.124721
C         0.820324    1.202196   -1.420535
C         1.056640    2.390071   -2.088769
Cl         2.709653    2.870238   -2.406526
C         0.011719    3.230359   -2.494517
O         0.321179    4.387570   -3.147609
C        -0.440091    5.528843   -2.852986
C        -0.338256    5.967384   -1.405945
N        -1.369057    6.669219   -0.935359
C        -1.321213    7.088638    0.327396
C        -0.256022    6.823168    1.185055
C         0.820672    6.091544    0.688100
C         0.786238    5.659953   -0.632740
C        -1.290396    2.817613   -2.215731
C        -1.549742    1.623640   -1.546402
C        -1.725232   -2.199590    0.753982
C        -0.663204   -2.433708    1.649387
N         3.351993   -1.428342   -2.192161
C         3.860737   -1.122639   -3.395837
C         4.870750    0.006877   -3.415162
O         3.534300   -1.696858   -4.433266
H         2.828643   -3.423719   -2.438815
N         0.788289   -1.553259   -3.372699
C        -0.534074   -1.318095   -3.894457
H         1.747099   -3.489497   -0.104986
H         3.517966   -3.321840   -0.160827
H         2.159949   -0.234198    3.482824
H         0.899495    2.026447    4.149542
H        -0.586858    1.229973    3.591654
H        -1.269273    2.449994    1.795337
H        -0.085544    3.109023    0.648221
H        -0.126238    3.726577    2.326374
H         2.729892    1.260330    1.888676
H         2.429642    2.956709    2.416203
H         2.152982    2.445755    0.717270
H         0.486077   -4.442677    3.914503
H        -3.939205   -5.556486    3.733955
H        -2.882175   -6.451598    4.840260
H        -2.913935   -6.829972    1.777142
H        -3.644423   -7.931321    2.973485
H        -1.873959   -7.705942    2.925889
H        -3.871464   -4.619200    1.816285
H        -4.690802   -1.600270   -1.496642
H         0.248300   -0.671048    0.067341
H         1.648569    0.573522   -1.080905
H        -1.506944    5.411707   -3.106064
H        -0.041279    6.322195   -3.503837
H        -2.185619    7.661236    0.682379
H        -0.276745    7.173941    2.218412
H         1.674030    5.847322    1.324514
H         1.605434    5.080352   -1.062000
H        -2.131239    3.443182   -2.519415
H        -2.573535    1.316978   -1.350057
H         0.278447   -1.879059    1.562037
H         3.544278   -0.855961   -1.360088
H         4.489776    0.803015   -4.069716
H         5.803859   -0.371123   -3.856807
H         5.076483    0.423951   -2.420755
H         1.593040   -1.350186   -3.960883
H        -0.848232   -2.093961   -4.615751
H        -0.561216   -0.338492   -4.392832
H        -1.260916   -1.306368   -3.071376
