-1 1
 OpenBabel05232414493D

 78 81  0  0  1  0  0  0  0  0999 V2000
   -3.6064    0.1929    0.4783 O   0  0  0  0  0  0  0  0  0  0  0  0
   -3.4396    1.4047    0.4317 C   0  0  0  0  0  0  0  0  0  0  0  0
   -2.3258    2.0735    1.2911 C   0  0  2  0  0  0  0  0  0  0  0  0
   -1.3218    3.0560    0.6436 C   0  0  0  0  0  0  0  0  0  0  0  0
   -1.9988    4.4084   -0.3654 S   0  0  0  0  0  0  0  0  0  0  0  0
   -1.6064    3.7611   -2.4775 C   0  0  1  0  0  0  0  0  0  0  0  0
   -1.9325    2.2799   -2.4837 C   0  0  0  0  0  0  0  0  0  0  0  0
   -1.2702    1.6013   -3.5971 N   0  0  0  0  0  0  0  0  0  0  0  0
   -0.8603    0.2403   -3.2744 C   0  0  0  0  0  0  0  0  0  0  0  0
   -2.0443   -0.7234   -3.2477 C   0  0  0  0  0  0  0  0  0  0  0  0
   -2.7485   -0.6963   -4.4696 O   0  0  0  0  0  0  0  0  0  0  0  0
   -3.1963    0.6049   -4.7915 C   0  0  0  0  0  0  0  0  0  0  0  0
   -2.0399    1.5999   -4.8360 C   0  0  0  0  0  0  0  0  0  0  0  0
   -2.2587    4.6608   -3.3349 C   0  0  2  0  0  3  0  0  0  0  0  0
   -1.5458    5.8241   -3.5807 F   0  0  0  0  0  0  0  0  0  0  0  0
   -3.6118    4.6251   -3.7576 C   0  0  0  0  0  0  0  0  0  0  0  0
   -4.3676    3.6468   -3.6417 O   0  0  0  0  0  0  0  0  0  0  0  0
   -4.1414    5.7339   -4.4597 N   0  0  0  0  0  0  0  0  0  0  0  0
   -3.6226    7.0147   -4.6180 C   0  0  0  0  0  0  0  0  0  0  0  0
   -3.3575    7.8252   -3.4519 C   0  0  0  0  0  0  0  0  0  0  0  0
   -3.6356    7.2379   -2.2907 O   0  0  0  0  0  0  0  0  0  0  0  0
   -3.1701    7.8118   -1.0965 C   0  0  0  0  0  0  0  0  0  0  0  0
   -2.8813    9.1113   -3.5894 C   0  0  0  0  0  0  0  0  0  0  0  0
   -2.5921    9.6424   -4.8727 C   0  0  0  0  0  0  0  0  0  0  0  0
   -2.1482   10.9239   -4.9882 N   0  0  0  0  0  0  0  0  0  0  0  0
   -1.8630   11.3318   -6.1985 C   0  0  0  0  0  0  0  0  0  0  0  0
   -1.8434   10.5954   -7.3243 N   0  0  0  0  0  0  0  0  0  0  0  0
   -2.2460    9.3397   -7.2272 C   0  0  0  0  0  0  0  0  0  0  0  0
   -2.1213    8.5808   -8.3791 N   0  0  0  0  0  0  0  0  0  0  0  0
   -1.7049    7.2386   -8.4829 C   0  0  0  0  0  0  0  0  0  0  0  0
   -1.0410    6.5656   -7.4468 C   0  0  0  0  0  0  0  0  0  0  0  0
   -0.6933    5.2251   -7.5885 C   0  0  0  0  0  0  0  0  0  0  0  0
    0.0463    4.3695   -6.2798 Cl  0  0  0  0  0  0  0  0  0  0  0  0
   -0.9520    4.5622   -8.7890 C   0  0  0  0  0  0  0  0  0  0  0  0
   -0.6128    3.2844   -8.9356 F   0  0  0  0  0  0  0  0  0  0  0  0
   -1.5699    5.2308   -9.8361 C   0  0  0  0  0  0  0  0  0  0  0  0
   -1.9590    6.5574   -9.6796 C   0  0  0  0  0  0  0  0  0  0  0  0
   -2.7819    8.8205   -6.0138 C   0  0  0  0  0  0  0  0  0  0  0  0
   -3.3724    7.5394   -5.8591 C   0  0  0  0  0  0  0  0  0  0  0  0
   -1.6183    1.0213    2.0065 N   0  0  0  0  0  0  0  0  0  0  0  0
   -0.9136    0.0530    1.3368 C   0  0  0  0  0  0  0  0  0  0  0  0
   -0.7551   -1.2446    2.1054 C   0  0  0  0  0  0  0  0  0  0  0  0
   -0.4414    0.1971    0.2270 O   0  0  0  0  0  0  0  0  0  0  0  0
   -2.8748    2.6524    2.0530 H   0  0  0  0  0  0  0  0  0  0  0  0
   -4.2399    2.2464   -0.2442 N   0  0  0  0  0  0  0  0  0  0  0  0
   -5.2755    1.7745   -1.1353 C   0  0  0  0  0  0  0  0  0  0  0  0
   -0.7417    3.4870    1.4732 H   0  0  0  0  0  0  0  0  0  0  0  0
   -0.6099    2.4846    0.0352 H   0  0  0  0  0  0  0  0  0  0  0  0
   -0.5295    3.9465   -2.4252 H   0  0  0  0  0  0  0  0  0  0  0  0
   -3.0216    2.1530   -2.4956 H   0  0  0  0  0  0  0  0  0  0  0  0
   -1.5545    1.8189   -1.5645 H   0  0  0  0  0  0  0  0  0  0  0  0
   -0.3458    0.2234   -2.3020 H   0  0  0  0  0  0  0  0  0  0  0  0
   -0.1477   -0.0993   -4.0482 H   0  0  0  0  0  0  0  0  0  0  0  0
   -2.7145   -0.4669   -2.4015 H   0  0  0  0  0  0  0  0  0  0  0  0
   -1.7030   -1.7594   -3.0964 H   0  0  0  0  0  0  0  0  0  0  0  0
   -3.9539    0.9487   -4.0609 H   0  0  0  0  0  0  0  0  0  0  0  0
   -3.6891    0.5392   -5.7737 H   0  0  0  0  0  0  0  0  0  0  0  0
   -2.4170    2.6124   -5.0311 H   0  0  0  0  0  0  0  0  0  0  0  0
   -1.3619    1.3269   -5.6643 H   0  0  0  0  0  0  0  0  0  0  0  0
   -4.9029    5.4559   -5.0658 H   0  0  0  0  0  0  0  0  0  0  0  0
   -2.0892    8.0163   -1.1572 H   0  0  0  0  0  0  0  0  0  0  0  0
   -3.3422    7.0683   -0.3094 H   0  0  0  0  0  0  0  0  0  0  0  0
   -3.7104    8.7462   -0.8619 H   0  0  0  0  0  0  0  0  0  0  0  0
   -2.7114    9.7596   -2.7312 H   0  0  0  0  0  0  0  0  0  0  0  0
   -1.5659   12.3816   -6.3151 H   0  0  0  0  0  0  0  0  0  0  0  0
   -1.8802    9.1656   -9.1725 H   0  0  0  0  0  0  0  0  0  0  0  0
   -0.8187    7.0601   -6.5019 H   0  0  0  0  0  0  0  0  0  0  0  0
   -1.7640    4.6882  -10.7626 H   0  0  0  0  0  0  0  0  0  0  0  0
   -2.4826    7.0716  -10.4881 H   0  0  0  0  0  0  0  0  0  0  0  0
   -3.5642    6.9108   -6.7275 H   0  0  0  0  0  0  0  0  0  0  0  0
   -2.1241    0.6653    2.8072 H   0  0  0  0  0  0  0  0  0  0  0  0
    0.1027   -1.7972    1.7051 H   0  0  0  0  0  0  0  0  0  0  0  0
   -1.6690   -1.8366    1.9435 H   0  0  0  0  0  0  0  0  0  0  0  0
   -0.6268   -1.0822    3.1859 H   0  0  0  0  0  0  0  0  0  0  0  0
   -3.8802    3.1999   -0.3713 H   0  0  0  0  0  0  0  0  0  0  0  0
   -5.3099    2.4321   -2.0161 H   0  0  0  0  0  0  0  0  0  0  0  0
   -6.2623    1.7628   -0.6409 H   0  0  0  0  0  0  0  0  0  0  0  0
   -5.0474    0.7480   -1.4565 H   0  0  0  0  0  0  0  0  0  0  0  0
  2  1  2  0  0  0  0
  2  3  1  0  0  0  0
  3 40  1  0  0  0  0
  3 44  1  1  0  0  0
  4  3  1  0  0  0  0
  4 47  1  0  0  0  0
  5  4  1  0  0  0  0
  6 49  1  6  0  0  0
  6  5  1  0  0  0  0
  7  6  1  0  0  0  0
  7 51  1  0  0  0  0
  8  9  1  0  0  0  0
  8  7  1  0  0  0  0
  9 10  1  0  0  0  0
  9 52  1  0  0  0  0
 10 55  1  0  0  0  0
 10 54  1  0  0  0  0
 11 10  1  0  0  0  0
 12 11  1  0  0  0  0
 12 56  1  0  0  0  0
 13 12  1  0  0  0  0
 13  8  1  0  0  0  0
 14 15  1  1  0  0  0
 14  6  1  0  0  0  0
 16 17  2  0  0  0  0
 16 14  1  0  0  0  0
 18 16  1  0  0  0  0
 19 18  1  0  0  0  0
 19 20  1  0  0  0  0
 20 21  1  0  0  0  0
 21 22  1  0  0  0  0
 22 63  1  0  0  0  0
 22 62  1  0  0  0  0
 23 20  2  0  0  0  0
 23 64  1  0  0  0  0
 24 23  1  0  0  0  0
 25 24  1  0  0  0  0
 26 25  2  0  0  0  0
 27 28  2  0  0  0  0
 27 26  1  0  0  0  0
 28 38  1  0  0  0  0
 29 28  1  0  0  0  0
 30 29  1  0  0  0  0
 30 31  1  0  0  0  0
 31 67  1  0  0  0  0
 32 31  2  0  0  0  0
 32 33  1  0  0  0  0
 34 32  1  0  0  0  0
 35 34  1  0  0  0  0
 36 37  1  0  0  0  0
 36 34  2  0  0  0  0
 37 30  2  0  0  0  0
 38 39  1  0  0  0  0
 38 24  2  0  0  0  0
 39 19  2  0  0  0  0
 40 71  1  0  0  0  0
 41 40  1  0  0  0  0
 41 42  1  0  0  0  0
 42 74  1  0  0  0  0
 43 41  2  0  0  0  0
 45  2  1  0  0  0  0
 46 77  1  0  0  0  0
 46 45  1  0  0  0  0
 48  4  1  0  0  0  0
 50  7  1  0  0  0  0
 53  9  1  0  0  0  0
 57 12  1  0  0  0  0
 58 13  1  0  0  0  0
 59 13  1  0  0  0  0
 60 18  1  0  0  0  0
 61 22  1  0  0  0  0
 65 26  1  0  0  0  0
 66 29  1  0  0  0  0
 68 36  1  0  0  0  0
 69 37  1  0  0  0  0
 70 39  1  0  0  0  0
 72 42  1  0  0  0  0
 73 42  1  0  0  0  0
 75 45  1  0  0  0  0
 76 46  1  0  0  0  0
 78 46  1  0  0  0  0
M  END
