-1 1
 OpenBabel05192410563D

 78 81  0  0  1  0  0  0  0  0999 V2000
   -1.3938   -4.4251    4.1046 O   0  0  0  0  0  0  0  0  0  0  0  0
   -1.3096   -3.2048    4.1034 C   0  0  0  0  0  0  0  0  0  0  0  0
   -0.2450   -2.5027    5.0018 C   0  0  2  0  0  0  0  0  0  0  0  0
    0.7325   -1.4632    4.4056 C   0  0  0  0  0  0  0  0  0  0  0  0
    0.0246   -0.1378    3.3813 S   0  0  0  0  0  0  0  0  0  0  0  0
    0.4803   -0.6315    1.5767 C   0  0  1  0  0  0  0  0  0  0  0  0
    0.1963   -2.1168    1.3276 C   0  0  0  0  0  0  0  0  0  0  0  0
    0.8575   -2.6001    0.1188 N   0  0  0  0  0  0  0  0  0  0  0  0
    1.4426   -3.9253    0.2687 C   0  0  0  0  0  0  0  0  0  0  0  0
    0.3825   -5.0247    0.2566 C   0  0  0  0  0  0  0  0  0  0  0  0
   -0.3971   -4.9625   -0.9162 O   0  0  0  0  0  0  0  0  0  0  0  0
   -1.0142   -3.7004   -1.0704 C   0  0  0  0  0  0  0  0  0  0  0  0
    0.0101   -2.5695   -1.0693 C   0  0  0  0  0  0  0  0  0  0  0  0
   -0.1789    0.3233    0.6846 C   0  0  2  0  0  3  0  0  0  0  0  0
    0.6049    1.4389    0.4098 F   0  0  0  0  0  0  0  0  0  0  0  0
   -1.5120    0.3003    0.3058 C   0  0  0  0  0  0  0  0  0  0  0  0
   -2.3068   -0.6526    0.4948 O   0  0  0  0  0  0  0  0  0  0  0  0
   -2.0438    1.3853   -0.4802 N   0  0  0  0  0  0  0  0  0  0  0  0
   -1.4700    2.6135   -0.7352 C   0  0  0  0  0  0  0  0  0  0  0  0
   -1.1498    3.4915    0.3702 C   0  0  0  0  0  0  0  0  0  0  0  0
   -1.4410    2.9977    1.5745 O   0  0  0  0  0  0  0  0  0  0  0  0
   -0.8838    3.5928    2.7130 C   0  0  0  0  0  0  0  0  0  0  0  0
   -0.6215    4.7427    0.1467 C   0  0  0  0  0  0  0  0  0  0  0  0
   -0.3364    5.1854   -1.1720 C   0  0  0  0  0  0  0  0  0  0  0  0
    0.1555    6.4371   -1.3765 N   0  0  0  0  0  0  0  0  0  0  0  0
    0.4334    6.7571   -2.6153 C   0  0  0  0  0  0  0  0  0  0  0  0
    0.4042    5.9487   -3.6906 N   0  0  0  0  0  0  0  0  0  0  0  0
   -0.0473    4.7206   -3.5037 C   0  0  0  0  0  0  0  0  0  0  0  0
    0.0276    3.8714   -4.5988 N   0  0  0  0  0  0  0  0  0  0  0  0
    0.4494    2.5261   -4.5826 C   0  0  0  0  0  0  0  0  0  0  0  0
    1.1459    1.9652   -3.5022 C   0  0  0  0  0  0  0  0  0  0  0  0
    1.5050    0.6206   -3.5168 C   0  0  0  0  0  0  0  0  0  0  0  0
    2.3022   -0.0874   -2.1562 Cl  0  0  0  0  0  0  0  0  0  0  0  0
    1.2116   -0.1647   -4.6326 C   0  0  0  0  0  0  0  0  0  0  0  0
    1.5581   -1.4498   -4.6579 F   0  0  0  0  0  0  0  0  0  0  0  0
    0.5564    0.3890   -5.7232 C   0  0  0  0  0  0  0  0  0  0  0  0
    0.1641    1.7239   -5.6940 C   0  0  0  0  0  0  0  0  0  0  0  0
   -0.5847    4.3015   -2.2535 C   0  0  0  0  0  0  0  0  0  0  0  0
   -1.2197    3.0567   -2.0126 C   0  0  0  0  0  0  0  0  0  0  0  0
    0.4991   -3.5344    5.7075 N   0  0  0  0  0  0  0  0  0  0  0  0
    1.2738   -4.4412    5.0239 C   0  0  0  0  0  0  0  0  0  0  0  0
    1.4755   -5.7570    5.7481 C   0  0  0  0  0  0  0  0  0  0  0  0
    1.7709   -4.2273    3.9369 O   0  0  0  0  0  0  0  0  0  0  0  0
   -0.8377   -1.9698    5.7644 H   0  0  0  0  0  0  0  0  0  0  0  0
   -2.1675   -2.3978    3.4561 N   0  0  0  0  0  0  0  0  0  0  0  0
   -3.1572   -2.9119    2.5335 C   0  0  0  0  0  0  0  0  0  0  0  0
    1.2492   -0.9964    5.2569 H   0  0  0  0  0  0  0  0  0  0  0  0
    1.4993   -1.9810    3.8183 H   0  0  0  0  0  0  0  0  0  0  0  0
    1.5659   -0.4699    1.5250 H   0  0  0  0  0  0  0  0  0  0  0  0
   -0.8912   -2.2502    1.2845 H   0  0  0  0  0  0  0  0  0  0  0  0
    0.5747   -2.7112    2.1696 H   0  0  0  0  0  0  0  0  0  0  0  0
    2.0221   -3.9758    1.2032 H   0  0  0  0  0  0  0  0  0  0  0  0
    2.1364   -4.0961   -0.5743 H   0  0  0  0  0  0  0  0  0  0  0  0
   -0.2586   -4.9333    1.1579 H   0  0  0  0  0  0  0  0  0  0  0  0
    0.8494   -6.0219    0.2801 H   0  0  0  0  0  0  0  0  0  0  0  0
   -1.7560   -3.5326   -0.2649 H   0  0  0  0  0  0  0  0  0  0  0  0
   -1.5614   -3.7270   -2.0251 H   0  0  0  0  0  0  0  0  0  0  0  0
   -0.4990   -1.5987   -1.1232 H   0  0  0  0  0  0  0  0  0  0  0  0
    0.6555   -2.6662   -1.9597 H   0  0  0  0  0  0  0  0  0  0  0  0
   -2.6331    1.0125   -1.2154 H   0  0  0  0  0  0  0  0  0  0  0  0
    0.2073    3.7050    2.6024 H   0  0  0  0  0  0  0  0  0  0  0  0
   -1.0878    2.9133    3.5491 H   0  0  0  0  0  0  0  0  0  0  0  0
   -1.3337    4.5806    2.9201 H   0  0  0  0  0  0  0  0  0  0  0  0
   -0.4121    5.4344    0.9615 H   0  0  0  0  0  0  0  0  0  0  0  0
    0.7695    7.7845   -2.8037 H   0  0  0  0  0  0  0  0  0  0  0  0
    0.2735    4.3836   -5.4395 H   0  0  0  0  0  0  0  0  0  0  0  0
    1.3891    2.5559   -2.6198 H   0  0  0  0  0  0  0  0  0  0  0  0
    0.3370   -0.2482   -6.5814 H   0  0  0  0  0  0  0  0  0  0  0  0
   -0.3873    2.1501   -6.5345 H   0  0  0  0  0  0  0  0  0  0  0  0
   -1.4421    2.3861   -2.8421 H   0  0  0  0  0  0  0  0  0  0  0  0
   -0.0148   -3.9482    6.4748 H   0  0  0  0  0  0  0  0  0  0  0  0
    2.3686   -6.2530    5.3509 H   0  0  0  0  0  0  0  0  0  0  0  0
    0.5953   -6.3846    5.5403 H   0  0  0  0  0  0  0  0  0  0  0  0
    1.5686   -5.6290    6.8368 H   0  0  0  0  0  0  0  0  0  0  0  0
   -1.8900   -1.4195    3.3480 H   0  0  0  0  0  0  0  0  0  0  0  0
   -3.2568   -2.1889    1.7112 H   0  0  0  0  0  0  0  0  0  0  0  0
   -4.1312   -3.0633    3.0293 H   0  0  0  0  0  0  0  0  0  0  0  0
   -2.8256   -3.8823    2.1367 H   0  0  0  0  0  0  0  0  0  0  0  0
  2  1  2  0  0  0  0
  2  3  1  0  0  0  0
  3 40  1  0  0  0  0
  3 44  1  1  0  0  0
  4  3  1  0  0  0  0
  4 47  1  0  0  0  0
  5  4  1  0  0  0  0
  6 49  1  6  0  0  0
  6  5  1  0  0  0  0
  7  6  1  0  0  0  0
  7 51  1  0  0  0  0
  8  9  1  0  0  0  0
  8  7  1  0  0  0  0
  9 52  1  0  0  0  0
 10  9  1  0  0  0  0
 10 55  1  0  0  0  0
 10 54  1  0  0  0  0
 11 10  1  0  0  0  0
 12 13  1  0  0  0  0
 12 11  1  0  0  0  0
 12 56  1  0  0  0  0
 13  8  1  0  0  0  0
 14 15  1  1  0  0  0
 14  6  1  0  0  0  0
 16 17  2  0  0  0  0
 16 14  1  0  0  0  0
 18 16  1  0  0  0  0
 19 18  1  0  0  0  0
 19 20  1  0  0  0  0
 20 21  1  0  0  0  0
 21 22  1  0  0  0  0
 22 63  1  0  0  0  0
 22 62  1  0  0  0  0
 23 20  2  0  0  0  0
 23 64  1  0  0  0  0
 24 23  1  0  0  0  0
 25 24  1  0  0  0  0
 26 25  2  0  0  0  0
 27 28  2  0  0  0  0
 27 26  1  0  0  0  0
 28 38  1  0  0  0  0
 29 30  1  0  0  0  0
 29 28  1  0  0  0  0
 30 31  1  0  0  0  0
 31 67  1  0  0  0  0
 32 31  2  0  0  0  0
 32 33  1  0  0  0  0
 34 32  1  0  0  0  0
 35 34  1  0  0  0  0
 36 37  1  0  0  0  0
 36 34  2  0  0  0  0
 37 30  2  0  0  0  0
 38 39  1  0  0  0  0
 38 24  2  0  0  0  0
 39 19  2  0  0  0  0
 40 71  1  0  0  0  0
 41 40  1  0  0  0  0
 41 42  1  0  0  0  0
 42 74  1  0  0  0  0
 43 41  2  0  0  0  0
 45  2  1  0  0  0  0
 46 77  1  0  0  0  0
 46 45  1  0  0  0  0
 48  4  1  0  0  0  0
 50  7  1  0  0  0  0
 53  9  1  0  0  0  0
 57 12  1  0  0  0  0
 58 13  1  0  0  0  0
 59 13  1  0  0  0  0
 60 18  1  0  0  0  0
 61 22  1  0  0  0  0
 65 26  1  0  0  0  0
 66 29  1  0  0  0  0
 68 36  1  0  0  0  0
 69 37  1  0  0  0  0
 70 39  1  0  0  0  0
 72 42  1  0  0  0  0
 73 42  1  0  0  0  0
 75 45  1  0  0  0  0
 76 46  1  0  0  0  0
 78 46  1  0  0  0  0
M  END
