87
-1 1
O         5.006085   -0.597111    2.615310
C         4.691272   -0.290827    3.746958
C         5.138515    1.048969    4.373652
C         4.005790    1.856769    5.022738
S         2.687218    2.352970    3.865892
C         1.298109    1.059659    4.307729
C         0.561260    1.610568    5.528283
N        -0.378686    0.680645    6.129767
C         0.199807   -0.580421    6.504689
C        -1.109133    1.305642    7.199397
C         0.471043    0.694694    3.180366
F         1.074630   -0.216940    2.314643
C        -0.715740    1.286853    2.764013
O        -1.352648    2.191874    3.333938
N        -1.225919    0.759939    1.521026
C        -2.503396    1.017817    1.104347
C        -3.581859    0.855986    2.059450
O        -3.257869    0.253197    3.208408
C        -3.699295    0.805607    4.424270
C        -4.858114    1.255876    1.745183
C        -5.180225    1.695734    0.434906
N        -6.444781    2.111082    0.159499
C        -6.674486    2.516208   -1.062863
N        -5.815958    2.498317   -2.098915
C        -4.594459    2.055561   -1.863737
N        -3.748352    2.050890   -2.972543
C        -2.916716    1.015858   -3.406612
C        -2.060897    1.272091   -4.488311
C        -1.233533    0.272185   -4.983740
Cl        -0.181575    0.619684   -6.333467
C        -1.209402   -1.001388   -4.405190
O        -0.362386   -1.970911   -4.852766
C        -0.861714   -2.773413   -5.895311
C         0.140489   -3.839968   -6.255099
C        -0.096994   -4.640081   -7.377827
C         0.807008   -5.640654   -7.701867
F         0.571916   -6.400801   -8.776649
C         1.949978   -5.873892   -6.945706
C         2.178527   -5.069478   -5.832258
C         1.282889   -4.058165   -5.483101
C        -2.058140   -1.246191   -3.326641
C        -2.912114   -0.266184   -2.835435
C        -4.160489    1.685326   -0.558279
C        -2.822395    1.391480   -0.186386
N         5.801754    1.828082    3.363388
C         7.156204    1.795852    3.210741
C         7.646917    2.349739    1.888136
O         7.912865    1.360616    4.058320
H         5.902226    0.817495    5.134844
N         3.968654   -1.112197    4.557112
C         3.270690   -2.258642    4.013751
H         3.545987    1.303754    5.859142
H         4.445444    2.762568    5.464006
H         1.919226    0.199001    4.583251
H         0.000456    2.498169    5.208448
H         1.321533    1.929304    6.283007
H        -0.562152   -1.216081    6.982176
H         1.051049   -0.480815    7.225480
H         0.560246   -1.117579    5.614780
H        -1.615018    2.207950    6.823907
H        -0.462894    1.610785    8.058859
H        -1.879932    0.621140    7.590267
H        -0.534673    0.514316    0.824586
H        -3.573452    1.897802    4.405556
H        -3.036625    0.399698    5.198976
H        -4.749181    0.533845    4.640438
H        -5.666752    1.191244    2.473767
H        -7.679186    2.895943   -1.285855
H        -4.140491    2.614871   -3.719057
H        -2.032863    2.265546   -4.938500
H        -1.083985   -2.155769   -6.785057
H        -1.810781   -3.249529   -5.580902
H        -0.977416   -4.494090   -8.007993
H         2.636661   -6.669899   -7.237281
H         3.071342   -5.233026   -5.224943
H         1.464673   -3.427056   -4.613568
H        -2.037208   -2.237830   -2.870271
H        -3.571198   -0.495748   -1.999189
H        -2.013809    1.526178   -0.906043
H         5.234259    2.018948    2.543622
H         8.716566    2.575876    1.967312
H         7.091411    3.250638    1.590154
H         7.497673    1.584017    1.111344
H         3.636648   -0.736614    5.434530
H         2.351950   -1.954243    3.484628
H         3.019322   -2.955597    4.825038
H         3.927093   -2.765183    3.294818
