87
-1 1
O         4.087817   -1.895736   13.812296
C         3.750922   -1.651264   14.952368
C         4.220410   -0.378246   15.691454
C         3.082053    0.425405   16.340002
S         1.878539    1.098681   15.155324
C         0.183271   -0.380187   15.564513
C        -0.448709    0.286416   16.770171
N        -1.454933   -0.536453   17.433329
C        -0.940542   -1.794647   17.905615
C        -2.129182    0.208852   18.463821
C        -0.594518   -0.691292   14.458965
F        -0.049952   -1.590994   13.558429
C        -1.810214   -0.076703   14.043746
O        -2.408863    0.822589   14.633181
N        -2.338282   -0.602546   12.839881
C        -3.630676   -0.338540   12.432140
C        -4.695612   -0.485054   13.399098
O        -4.354699   -1.060148   14.554928
C        -4.807197   -0.507781   15.768361
C        -5.973913   -0.081143   13.092414
C        -6.300209    0.351412   11.782048
N        -7.565717    0.773780   11.514483
C        -7.799113    1.177865   10.293483
N        -6.949144    1.151750    9.249918
C        -5.728765    0.701036    9.474716
N        -4.895328    0.682601    8.362426
C        -4.033646   -0.341746    7.952387
C        -3.133025   -0.064966    6.914637
C        -2.279813   -1.054553    6.441614
Cl        -1.171692   -0.684902    5.145912
C        -2.275211   -2.335729    7.004593
O        -1.404822   -3.293978    6.583068
C        -1.851603   -4.085950    5.508237
C        -0.808296   -5.113273    5.151686
C        -1.026247   -5.939674    4.044073
C        -0.079926   -6.899104    3.717022
F        -0.295997   -7.684839    2.657013
C         1.085521   -7.066154    4.456440
C         1.293230   -6.236881    5.555453
C         0.355566   -5.264946    5.906859
C        -3.169303   -2.600083    8.041369
C        -4.049749   -1.630480    8.505858
C        -5.290118    0.331802   10.780778
C        -3.949758    0.035310   11.146387
N         4.951044    0.450780   14.774276
C         6.276487    0.266036   14.535623
C         6.786146    0.951484   13.282305
O         7.003012   -0.392390   15.258078
H         4.934538   -0.703835   16.466431
N         2.982539   -2.503159   15.690418
C         2.300474   -3.620384   15.077864
H         2.549735   -0.199781   17.082292
H         3.537686    1.245001   16.916106
H         0.924267   -1.150114   15.789203
H        -0.933992    1.211725   16.438296
H         0.357993    0.561248   17.486547
H        -1.741483   -2.371514   18.394680
H        -0.108330   -1.680758   18.644078
H        -0.569883   -2.396027   17.062278
H        -2.585969    1.110973   18.029481
H        -1.451572    0.533804   19.290103
H        -2.932526   -0.398520   18.912867
H        -1.689870   -1.042366   12.200923
H        -4.807407    0.590641   15.710044
H        -4.076590   -0.810632   16.529595
H        -5.814899   -0.877404   16.030915
H        -6.776597   -0.130404   13.828628
H        -8.802362    1.564608   10.076385
H        -5.297524    1.226112    7.605903
H        -3.089663    0.935653    6.482102
H        -2.066176   -3.453069    4.627294
H        -2.795002   -4.595672    5.784137
H        -1.924022   -5.846532    3.428478
H         1.805062   -7.832063    4.163582
H         2.202647   -6.348907    6.149594
H         0.519678   -4.614099    6.765374
H        -3.163102   -3.598240    8.483595
H        -4.746588   -1.874443    9.307131
H        -3.142625    0.159843   10.423769
H         4.371787    0.873298   14.053943
H         7.875577    1.057162   13.347159
H         6.318876    1.935240   13.130640
H         6.538421    0.317679   12.416965
H         2.646284   -2.176425   16.585545
H         1.336472   -3.316683   14.636673
H         2.133871   -4.413523   15.821008
H         2.934070   -4.010642   14.271405
