-1 1
 OpenBabel05232413493D

 89 91  0  0  1  0  0  0  0  0999 V2000
    3.2226   -3.6802   -2.9388 O   0  0  0  0  0  0  0  0  0  0  0  0
    2.6052   -2.7295   -2.4646 C   0  0  0  0  0  0  0  0  0  0  0  0
    3.3101   -1.7167   -1.5363 C   0  0  2  0  0  0  0  0  0  0  0  0
    3.1817   -0.2354   -1.9620 C   0  0  0  0  0  0  0  0  0  0  0  0
    1.4991    0.5009   -1.9792 S   0  0  0  0  0  1  0  0  0  0  0  0
    1.2803    3.3336    0.9496 C   0  0  0  0  0  0  0  0  0  0  0  0
   -0.0679    3.9210    1.3041 C   0  0  0  0  0  0  0  0  0  0  0  0
   -1.2177    3.3026    0.6612 N   0  0  0  0  0  0  0  0  0  0  0  0
   -1.1554    3.3454   -0.7876 C   0  0  0  0  0  0  0  0  0  0  0  0
   -1.4872    1.9719    1.1592 C   0  0  0  0  0  0  0  0  0  0  0  0
    1.9452    2.4389    1.6758 C   0  0  0  0  0  0  0  0  0  0  0  0
    1.4582    1.9808    2.8423 F   0  0  0  0  0  0  0  0  0  0  0  0
    3.2926    1.8970    1.2746 C   0  0  0  0  0  0  0  0  0  0  0  0
    4.0646    2.5910    0.6424 O   0  0  0  0  0  0  0  0  0  0  0  0
    3.6220    0.6380    1.6906 N   0  0  0  0  0  0  0  0  0  0  0  0
    2.7586   -0.4423    1.9272 C   0  0  0  0  0  0  0  0  0  0  0  0
    3.2232   -1.4938    2.7759 C   0  0  0  0  0  0  0  0  0  0  0  0
    4.4487   -1.3135    3.2934 O   0  0  0  0  0  0  0  0  0  0  0  0
    5.2437   -2.4428    3.5784 C   0  0  0  0  0  0  0  0  0  0  0  0
    6.6923   -2.0065    3.5455 C   0  0  0  0  0  0  0  0  0  0  0  0
    2.4375   -2.6061    3.0064 C   0  0  0  0  0  0  0  0  0  0  0  0
    1.1694   -2.7311    2.3878 C   0  0  0  0  0  0  0  0  0  0  0  0
    0.3663   -3.7962    2.6806 N   0  0  0  0  0  0  0  0  0  0  0  0
   -0.7915   -3.8207    2.0749 C   0  0  0  0  0  0  0  0  0  0  0  0
   -1.2571   -2.9796    1.1284 N   0  0  0  0  0  0  0  0  0  0  0  0
   -0.4737   -1.9729    0.7824 C   0  0  0  0  0  0  0  0  0  0  0  0
   -0.8006   -1.1448   -0.2548 N   0  0  0  0  0  0  0  0  0  0  0  0
   -2.0529   -0.8240   -0.7619 C   0  0  0  0  0  0  0  0  0  0  0  0
   -2.0845    0.0149   -1.8905 C   0  0  0  0  0  0  0  0  0  0  0  0
   -3.2912    0.5289   -2.3399 C   0  0  0  0  0  0  0  0  0  0  0  0
   -3.3108    1.6090   -3.7080 Cl  0  0  0  0  0  0  0  0  0  0  0  0
   -4.4912    0.2253   -1.6893 C   0  0  0  0  0  0  0  0  0  0  0  0
   -5.6825    0.7780   -2.0888 O   0  0  0  0  0  0  0  0  0  0  0  0
   -5.9699    2.0420   -1.6736 C   0  0  0  0  0  0  0  0  0  0  0  0
   -7.1487    2.6191   -2.1610 C   0  0  0  0  0  0  0  0  0  0  0  0
   -7.5487    3.8386   -1.8349 N   0  0  0  0  0  0  0  0  0  0  0  0
   -6.7987    4.5737   -1.0042 C   0  0  0  0  0  0  0  0  0  0  0  0
   -7.3004    5.9563   -0.6824 C   0  0  0  0  0  0  0  0  0  0  0  0
   -5.6085    4.0743   -0.4714 C   0  0  0  0  0  0  0  0  0  0  0  0
   -5.1829    2.7902   -0.8025 C   0  0  0  0  0  0  0  0  0  0  0  0
   -4.4602   -0.6600   -0.6170 C   0  0  0  0  0  0  0  0  0  0  0  0
   -3.2635   -1.1992   -0.1579 C   0  0  0  0  0  0  0  0  0  0  0  0
    0.7580   -1.7298    1.4788 C   0  0  0  0  0  0  0  0  0  0  0  0
    1.5564   -0.5827    1.2833 C   0  0  0  0  0  0  0  0  0  0  0  0
    4.6938   -2.1550   -1.5088 N   0  0  0  0  0  0  0  0  0  0  0  0
    5.5917   -1.9204   -0.5403 C   0  0  0  0  0  0  0  0  0  0  0  0
    6.9246   -2.6287   -0.7063 C   0  0  0  0  0  0  0  0  0  0  0  0
    5.4004   -1.1982    0.4330 O   0  0  0  0  0  0  0  0  0  0  0  0
    2.8746   -1.8271   -0.5294 H   0  0  0  0  0  0  0  0  0  0  0  0
    1.2990   -2.5072   -2.6678 N   0  0  0  0  0  0  0  0  0  0  0  0
    0.5077   -3.3390   -3.5357 C   0  0  0  0  0  0  0  0  0  0  0  0
    3.8103    0.3408   -1.2669 H   0  0  0  0  0  0  0  0  0  0  0  0
    3.6306   -0.1320   -2.9634 H   0  0  0  0  0  0  0  0  0  0  0  0
    1.7630    3.6135    0.0109 H   0  0  0  0  0  0  0  0  0  0  0  0
   -0.0592    4.9900    1.0315 H   0  0  0  0  0  0  0  0  0  0  0  0
   -0.2165    3.8660    2.3937 H   0  0  0  0  0  0  0  0  0  0  0  0
   -0.9682    4.3778   -1.1227 H   0  0  0  0  0  0  0  0  0  0  0  0
   -2.1203    3.0300   -1.2136 H   0  0  0  0  0  0  0  0  0  0  0  0
   -0.3674    2.6933   -1.2193 H   0  0  0  0  0  0  0  0  0  0  0  0
   -1.6055    1.9919    2.2533 H   0  0  0  0  0  0  0  0  0  0  0  0
   -0.6915    1.2390    0.9190 H   0  0  0  0  0  0  0  0  0  0  0  0
   -2.4231    1.5893    0.7221 H   0  0  0  0  0  0  0  0  0  0  0  0
    4.5566    0.3348    1.4060 H   0  0  0  0  0  0  0  0  0  0  0  0
    5.0573   -3.2221    2.8187 H   0  0  0  0  0  0  0  0  0  0  0  0
    4.9702   -2.8637    4.5642 H   0  0  0  0  0  0  0  0  0  0  0  0
    6.9197   -1.6096    2.5459 H   0  0  0  0  0  0  0  0  0  0  0  0
    7.3552   -2.8573    3.7634 H   0  0  0  0  0  0  0  0  0  0  0  0
    6.8778   -1.2181    4.2894 H   0  0  0  0  0  0  0  0  0  0  0  0
    2.7552   -3.4034    3.6780 H   0  0  0  0  0  0  0  0  0  0  0  0
   -1.4722   -4.6389    2.3429 H   0  0  0  0  0  0  0  0  0  0  0  0
   -0.0153   -0.6188   -0.6857 H   0  0  0  0  0  0  0  0  0  0  0  0
   -1.1515    0.2939   -2.3881 H   0  0  0  0  0  0  0  0  0  0  0  0
   -7.7736    2.0370   -2.8474 H   0  0  0  0  0  0  0  0  0  0  0  0
   -7.3762    6.5578   -1.6011 H   0  0  0  0  0  0  0  0  0  0  0  0
   -6.6372    6.4767    0.0222 H   0  0  0  0  0  0  0  0  0  0  0  0
   -8.3090    5.9047   -0.2452 H   0  0  0  0  0  0  0  0  0  0  0  0
   -4.9997    4.6821    0.2012 H   0  0  0  0  0  0  0  0  0  0  0  0
   -4.2536    2.3937   -0.3918 H   0  0  0  0  0  0  0  0  0  0  0  0
   -5.4041   -0.9103   -0.1290 H   0  0  0  0  0  0  0  0  0  0  0  0
   -3.2482   -1.8938    0.6787 H   0  0  0  0  0  0  0  0  0  0  0  0
    1.2829    0.1647    0.5351 H   0  0  0  0  0  0  0  0  0  0  0  0
    4.8641   -2.8971   -2.1871 H   0  0  0  0  0  0  0  0  0  0  0  0
    7.0115   -3.1928   -1.6446 H   0  0  0  0  0  0  0  0  0  0  0  0
    7.7250   -1.8774   -0.6568 H   0  0  0  0  0  0  0  0  0  0  0  0
    7.0631   -3.3151    0.1419 H   0  0  0  0  0  0  0  0  0  0  0  0
    0.9817   -1.5454   -2.4513 H   0  0  0  0  0  0  0  0  0  0  0  0
    0.8618   -4.3765   -3.4710 H   0  0  0  0  0  0  0  0  0  0  0  0
    0.5720   -3.0230   -4.5915 H   0  0  0  0  0  0  0  0  0  0  0  0
   -0.5448   -3.2960   -3.2219 H   0  0  0  0  0  0  0  0  0  0  0  0
  1  2  2  0  0  0  0
  2  3  1  0  0  0  0
  3 45  1  0  0  0  0
  3 49  1  1  0  0  0
  4  3  1  0  0  0  0
  4 52  1  0  0  0  0
  5  4  1  0  0  0  0
  6  7  1  0  0  0  0
  6 11  2  0  0  0  0
  7 56  1  0  0  0  0
  8 10  1  0  0  0  0
  8  7  1  0  0  0  0
  9  8  1  0  0  0  0
 10 60  1  0  0  0  0
 11 12  1  0  0  0  0
 13 11  1  0  0  0  0
 13 15  1  0  0  0  0
 14 13  2  0  0  0  0
 15 16  1  0  0  0  0
 16 17  1  0  0  0  0
 17 21  2  0  0  0  0
 17 18  1  0  0  0  0
 18 19  1  0  0  0  0
 19 65  1  0  0  0  0
 20 19  1  0  0  0  0
 20 67  1  0  0  0  0
 20 68  1  0  0  0  0
 21 69  1  0  0  0  0
 22 23  1  0  0  0  0
 22 21  1  0  0  0  0
 24 70  1  0  0  0  0
 24 23  2  0  0  0  0
 25 24  1  0  0  0  0
 26 25  2  0  0  0  0
 26 43  1  0  0  0  0
 27 26  1  0  0  0  0
 28 27  1  0  0  0  0
 28 42  1  0  0  0  0
 29 28  2  0  0  0  0
 30 29  1  0  0  0  0
 30 32  2  0  0  0  0
 31 30  1  0  0  0  0
 32 41  1  0  0  0  0
 33 32  1  0  0  0  0
 33 34  1  0  0  0  0
 34 40  1  0  0  0  0
 35 36  1  0  0  0  0
 35 34  2  0  0  0  0
 36 37  2  0  0  0  0
 37 38  1  0  0  0  0
 37 39  1  0  0  0  0
 38 76  1  0  0  0  0
 38 75  1  0  0  0  0
 39 77  1  0  0  0  0
 40 39  2  0  0  0  0
 40 78  1  0  0  0  0
 41 42  2  0  0  0  0
 41 79  1  0  0  0  0
 42 80  1  0  0  0  0
 43 22  2  0  0  0  0
 44 43  1  0  0  0  0
 44 16  2  0  0  0  0
 45 46  1  0  0  0  0
 46 48  2  0  0  0  0
 47 84  1  0  0  0  0
 47 46  1  0  0  0  0
 47 85  1  0  0  0  0
 50  2  1  0  0  0  0
 50 86  1  0  0  0  0
 51 87  1  0  0  0  0
 51 89  1  0  0  0  0
 51 50  1  0  0  0  0
 53  4  1  0  0  0  0
 54  6  1  0  0  0  0
 55  7  1  0  0  0  0
 57  9  1  0  0  0  0
 58  9  1  0  0  0  0
 59  9  1  0  0  0  0
 61 10  1  0  0  0  0
 62 10  1  0  0  0  0
 63 15  1  0  0  0  0
 64 19  1  0  0  0  0
 66 20  1  0  0  0  0
 71 27  1  0  0  0  0
 72 29  1  0  0  0  0
 73 35  1  0  0  0  0
 74 38  1  0  0  0  0
 81 44  1  0  0  0  0
 82 45  1  0  0  0  0
 83 47  1  0  0  0  0
 88 51  1  0  0  0  0
M  END
