-1 1
 OpenBabel05232414493D

 89 92  0  0  1  0  0  0  0  0999 V2000
   -4.8701   -2.7581   -2.5040 O   0  0  0  0  0  0  0  0  0  0  0  0
   -5.6151   -1.9506   -1.9651 C   0  0  0  0  0  0  0  0  0  0  0  0
   -6.1298   -2.1699   -0.5371 C   0  0  2  0  0  0  0  0  0  0  0  0
   -5.8106   -0.9826    0.3916 C   0  0  0  0  0  0  0  0  0  0  0  0
   -7.0489    0.3426    0.2706 S   0  0  0  0  0  0  0  0  0  0  0  0
   -5.7994    1.9198    1.2174 C   0  0  1  0  0  0  0  0  0  0  0  0
   -6.7181    3.1347    1.1609 C   0  0  0  0  0  0  0  0  0  0  0  0
   -7.3177    3.5213   -0.0939 N   0  0  0  0  0  0  0  0  0  0  0  0
   -6.4278    3.6150   -1.2168 C   0  0  0  0  0  0  0  0  0  0  0  0
   -8.6454    3.0595   -0.4165 C   0  0  0  0  0  0  0  0  0  0  0  0
   -5.3422    1.4970    2.4697 C   0  0  1  0  0  3  0  0  0  0  0  0
   -6.2210    1.6347    3.5233 F   0  0  0  0  0  0  0  0  0  0  0  0
   -4.1890    0.6863    2.6578 C   0  0  0  0  0  0  0  0  0  0  0  0
   -3.2188    0.6570    1.8968 O   0  0  0  0  0  0  0  0  0  0  0  0
   -4.1343   -0.1232    3.8285 N   0  0  0  0  0  0  0  0  0  0  0  0
   -5.0695   -1.0704    4.2155 C   0  0  0  0  0  0  0  0  0  0  0  0
   -4.6162   -2.0877    5.1257 C   0  0  0  0  0  0  0  0  0  0  0  0
   -3.3167   -1.9677    5.4896 O   0  0  0  0  0  0  0  0  0  0  0  0
   -2.7468   -2.9321    6.3377 C   0  0  0  0  0  0  0  0  0  0  0  0
   -1.2911   -2.5747    6.5452 C   0  0  0  0  0  0  0  0  0  0  0  0
   -5.4562   -3.0847    5.5631 C   0  0  0  0  0  0  0  0  0  0  0  0
   -6.7987   -3.1474    5.1096 C   0  0  0  0  0  0  0  0  0  0  0  0
   -7.6133   -4.1346    5.5835 N   0  0  0  0  0  0  0  0  0  0  0  0
   -8.8390   -4.1148    5.1385 C   0  0  0  0  0  0  0  0  0  0  0  0
   -9.3780   -3.2700    4.2381 N   0  0  0  0  0  0  0  0  0  0  0  0
   -8.5992   -2.3374    3.7252 C   0  0  0  0  0  0  0  0  0  0  0  0
   -9.0720   -1.5015    2.7469 N   0  0  0  0  0  0  0  0  0  0  0  0
  -10.3499   -1.3999    2.2032 C   0  0  0  0  0  0  0  0  0  0  0  0
  -10.4924   -0.5678    1.0765 C   0  0  0  0  0  0  0  0  0  0  0  0
  -11.7376   -0.3708    0.5012 C   0  0  0  0  0  0  0  0  0  0  0  0
  -11.8892    0.6754   -0.8884 Cl  0  0  0  0  0  0  0  0  0  0  0  0
  -12.8779   -0.9910    1.0201 C   0  0  0  0  0  0  0  0  0  0  0  0
  -14.1127   -0.8226    0.4406 O   0  0  0  0  0  0  0  0  0  0  0  0
  -14.8580    0.2568    0.7876 C   0  0  0  0  0  0  0  0  0  0  0  0
  -16.1003    0.3997    0.1556 C   0  0  0  0  0  0  0  0  0  0  0  0
  -16.9312    1.3997    0.4044 N   0  0  0  0  0  0  0  0  0  0  0  0
  -16.5825    2.3330    1.2987 C   0  0  0  0  0  0  0  0  0  0  0  0
  -17.5674    3.4475    1.5337 C   0  0  0  0  0  0  0  0  0  0  0  0
  -15.3616    2.2673    1.9729 C   0  0  0  0  0  0  0  0  0  0  0  0
  -14.4805    1.2175    1.7213 C   0  0  0  0  0  0  0  0  0  0  0  0
  -12.7326   -1.8219    2.1248 C   0  0  0  0  0  0  0  0  0  0  0  0
  -11.4923   -2.0366    2.7177 C   0  0  0  0  0  0  0  0  0  0  0  0
   -7.2448   -2.1768    4.1893 C   0  0  0  0  0  0  0  0  0  0  0  0
   -6.3764   -1.1447    3.7698 C   0  0  0  0  0  0  0  0  0  0  0  0
   -5.5428   -3.3924   -0.0497 N   0  0  0  0  0  0  0  0  0  0  0  0
   -6.0955   -4.0749    0.9807 C   0  0  0  0  0  0  0  0  0  0  0  0
   -5.3516   -5.3157    1.4300 C   0  0  0  0  0  0  0  0  0  0  0  0
   -7.1103   -3.7015    1.5445 O   0  0  0  0  0  0  0  0  0  0  0  0
   -7.2264   -2.2947   -0.5698 H   0  0  0  0  0  0  0  0  0  0  0  0
   -6.0453   -0.8116   -2.5476 N   0  0  0  0  0  0  0  0  0  0  0  0
   -5.6087   -0.3935   -3.8538 C   0  0  0  0  0  0  0  0  0  0  0  0
   -5.7946   -1.3699    1.4174 H   0  0  0  0  0  0  0  0  0  0  0  0
   -4.8075   -0.5812    0.1822 H   0  0  0  0  0  0  0  0  0  0  0  0
   -5.0031    1.8943    0.4678 H   0  0  0  0  0  0  0  0  0  0  0  0
   -6.0871    3.9721    1.5208 H   0  0  0  0  0  0  0  0  0  0  0  0
   -7.5126    3.0123    1.9105 H   0  0  0  0  0  0  0  0  0  0  0  0
   -5.4961    4.1248   -0.9211 H   0  0  0  0  0  0  0  0  0  0  0  0
   -6.8936    4.2120   -2.0199 H   0  0  0  0  0  0  0  0  0  0  0  0
   -6.1498    2.6293   -1.6508 H   0  0  0  0  0  0  0  0  0  0  0  0
   -9.2422    2.9607    0.5020 H   0  0  0  0  0  0  0  0  0  0  0  0
   -8.6763    2.0815   -0.9380 H   0  0  0  0  0  0  0  0  0  0  0  0
   -9.1549    3.7960   -1.0647 H   0  0  0  0  0  0  0  0  0  0  0  0
   -3.1812   -0.4243    4.0022 H   0  0  0  0  0  0  0  0  0  0  0  0
   -2.8449   -3.9371    5.8866 H   0  0  0  0  0  0  0  0  0  0  0  0
   -3.2868   -2.9527    7.3024 H   0  0  0  0  0  0  0  0  0  0  0  0
   -0.7547   -2.5679    5.5854 H   0  0  0  0  0  0  0  0  0  0  0  0
   -0.8102   -3.3066    7.2104 H   0  0  0  0  0  0  0  0  0  0  0  0
   -1.2003   -1.5767    6.9973 H   0  0  0  0  0  0  0  0  0  0  0  0
   -5.1361   -3.8544    6.2638 H   0  0  0  0  0  0  0  0  0  0  0  0
   -9.5241   -4.8787    5.5282 H   0  0  0  0  0  0  0  0  0  0  0  0
   -8.3684   -0.9651    2.2398 H   0  0  0  0  0  0  0  0  0  0  0  0
   -9.6105   -0.0865    0.6472 H   0  0  0  0  0  0  0  0  0  0  0  0
  -16.4023   -0.3518   -0.5821 H   0  0  0  0  0  0  0  0  0  0  0  0
  -17.7570    3.9927    0.5966 H   0  0  0  0  0  0  0  0  0  0  0  0
  -17.2047    4.1611    2.2864 H   0  0  0  0  0  0  0  0  0  0  0  0
  -18.5323    3.0400    1.8716 H   0  0  0  0  0  0  0  0  0  0  0  0
  -15.0918    3.0386    2.6975 H   0  0  0  0  0  0  0  0  0  0  0  0
  -13.5207    1.1505    2.2367 H   0  0  0  0  0  0  0  0  0  0  0  0
  -13.6241   -2.3124    2.5210 H   0  0  0  0  0  0  0  0  0  0  0  0
  -11.3836   -2.7042    3.5675 H   0  0  0  0  0  0  0  0  0  0  0  0
   -6.7444   -0.3719    3.1017 H   0  0  0  0  0  0  0  0  0  0  0  0
   -4.7941   -3.7743   -0.6183 H   0  0  0  0  0  0  0  0  0  0  0  0
   -4.5796   -5.6456    0.7209 H   0  0  0  0  0  0  0  0  0  0  0  0
   -4.8787   -5.0935    2.3983 H   0  0  0  0  0  0  0  0  0  0  0  0
   -6.0781   -6.1219    1.5959 H   0  0  0  0  0  0  0  0  0  0  0  0
   -6.5768   -0.1642   -1.9566 H   0  0  0  0  0  0  0  0  0  0  0  0
   -5.0099   -1.2024   -4.2913 H   0  0  0  0  0  0  0  0  0  0  0  0
   -4.9872    0.5154   -3.7995 H   0  0  0  0  0  0  0  0  0  0  0  0
   -6.4675   -0.1878   -4.5122 H   0  0  0  0  0  0  0  0  0  0  0  0
  1  2  2  0  0  0  0
  2  3  1  0  0  0  0
  3 49  1  6  0  0  0
  3 45  1  0  0  0  0
  3  4  1  0  0  0  0
  4 52  1  0  0  0  0
  5  4  1  0  0  0  0
  5  6  1  0  0  0  0
  6 54  1  6  0  0  0
  6 11  1  0  0  0  0
  7  6  1  0  0  0  0
  7 55  1  0  0  0  0
  7 56  1  0  0  0  0
  8  7  1  0  0  0  0
  9 57  1  0  0  0  0
  9  8  1  0  0  0  0
 10  8  1  0  0  0  0
 10 60  1  0  0  0  0
 11 13  1  0  0  0  0
 11 12  1  6  0  0  0
 13 15  1  0  0  0  0
 14 13  2  0  0  0  0
 15 63  1  0  0  0  0
 15 16  1  0  0  0  0
 16 17  1  0  0  0  0
 17 18  1  0  0  0  0
 17 21  2  0  0  0  0
 18 19  1  0  0  0  0
 19 20  1  0  0  0  0
 19 65  1  0  0  0  0
 20 68  1  0  0  0  0
 20 67  1  0  0  0  0
 21 69  1  0  0  0  0
 22 21  1  0  0  0  0
 22 23  1  0  0  0  0
 24 70  1  0  0  0  0
 24 23  2  0  0  0  0
 25 24  1  0  0  0  0
 26 43  1  0  0  0  0
 26 25  2  0  0  0  0
 27 26  1  0  0  0  0
 28 42  1  0  0  0  0
 28 27  1  0  0  0  0
 29 28  2  0  0  0  0
 30 32  2  0  0  0  0
 30 29  1  0  0  0  0
 31 30  1  0  0  0  0
 32 41  1  0  0  0  0
 33 34  1  0  0  0  0
 33 32  1  0  0  0  0
 34 40  1  0  0  0  0
 35 36  1  0  0  0  0
 35 34  2  0  0  0  0
 36 37  2  0  0  0  0
 37 38  1  0  0  0  0
 37 39  1  0  0  0  0
 38 76  1  0  0  0  0
 38 75  1  0  0  0  0
 39 77  1  0  0  0  0
 40 39  2  0  0  0  0
 40 78  1  0  0  0  0
 41 79  1  0  0  0  0
 41 42  2  0  0  0  0
 42 80  1  0  0  0  0
 43 22  2  0  0  0  0
 44 43  1  0  0  0  0
 44 16  2  0  0  0  0
 45 46  1  0  0  0  0
 46 47  1  0  0  0  0
 46 48  2  0  0  0  0
 47 85  1  0  0  0  0
 47 84  1  0  0  0  0
 50  2  1  0  0  0  0
 50 86  1  0  0  0  0
 51 88  1  0  0  0  0
 51 50  1  0  0  0  0
 53  4  1  0  0  0  0
 58  9  1  0  0  0  0
 59  9  1  0  0  0  0
 61 10  1  0  0  0  0
 62 10  1  0  0  0  0
 64 19  1  0  0  0  0
 66 20  1  0  0  0  0
 71 27  1  0  0  0  0
 72 29  1  0  0  0  0
 73 35  1  0  0  0  0
 74 38  1  0  0  0  0
 81 44  1  0  0  0  0
 82 45  1  0  0  0  0
 83 47  1  0  0  0  0
 87 51  1  0  0  0  0
 89 51  1  0  0  0  0
M  END
