89
-1 1
O         3.476812   -2.130570   -3.861253
C         2.768802   -1.218731   -3.461109
C         1.909088   -1.368867   -2.200078
C         2.213445   -0.280562   -1.154508
S         1.280372    1.255223   -1.442784
C         2.551201    2.505138   -0.722724
C         1.957449    3.913421   -0.869647
N         1.552330    4.364508   -2.184858
C         2.538327    4.226017   -3.219682
C         0.199565    4.116338   -2.618687
C         2.964774    2.153043    0.631716
F         2.017431    2.424923    1.609278
C         4.046236    1.324165    0.899070
O         4.979160    1.066995    0.110634
N         4.123669    0.689426    2.204997
C         3.255835   -0.310262    2.589769
C         3.780590   -1.403964    3.368817
O         5.097880   -1.294365    3.657694
C         5.744342   -2.334838    4.345196
C         7.206983   -1.971097    4.480314
C         2.986615   -2.458834    3.756833
C         1.615047   -2.505263    3.393403
N         0.847979   -3.561369    3.795942
C        -0.409267   -3.513567    3.448474
N        -1.028026   -2.572728    2.707244
C        -0.295646   -1.574140    2.256887
N        -0.833484   -0.623990    1.428215
C        -2.065044   -0.593860    0.783270
C        -2.200230    0.329675   -0.268435
C        -3.402852    0.448533   -0.946933
Cl        -3.547045    1.601400   -2.249443
C        -4.502674   -0.343075   -0.603133
O        -5.689871   -0.256253   -1.289972
C        -6.587361    0.696996   -0.934531
C        -7.770986    0.763043   -1.681496
N        -8.734898    1.637384   -1.439756
C        -8.587681    2.513113   -0.437774
C        -9.715781    3.485628   -0.216990
C        -7.438664    2.516915    0.355441
C        -6.418764    1.598946    0.112013
C        -4.361895   -1.260189    0.432466
C        -3.164106   -1.396988    1.126572
C         1.089836   -1.445280    2.626289
C         1.912109   -0.356859    2.258039
N         2.167710   -2.674581   -1.648407
C         1.341162   -3.218251   -0.724035
C         1.793609   -4.518990   -0.098320
O         0.307098   -2.669307   -0.379010
H         0.843350   -1.309191   -2.483210
N         2.675356   -0.012125   -4.062306
C         3.494840    0.360038   -5.186655
H         1.940457   -0.676908   -0.171980
H         3.287986   -0.043992   -1.125414
H         3.432449    2.381428   -1.366803
H         2.742060    4.592309   -0.487100
H         1.101840    4.017923   -0.185481
H         3.522360    4.560398   -2.853808
H         2.270281    4.854743   -4.086107
H         2.658984    3.183882   -3.593441
H        -0.490779    4.212948   -1.767894
H         0.036457    3.112877   -3.064293
H        -0.096412    4.866139   -3.374614
H         5.089874    0.425044    2.369086
H         5.625122   -3.284331    3.790743
H         5.281565   -2.476231    5.339721
H         7.664037   -1.841269    3.488901
H         7.748956   -2.763686    5.016616
H         7.319947   -1.029855    5.037238
H         3.369355   -3.291114    4.345926
H        -1.051740   -4.336493    3.786747
H        -0.152516    0.004491    1.016802
H        -1.345833    0.940489   -0.570704
H        -7.908682    0.057201   -2.507908
H        -9.873483    4.097764   -1.117972
H        -9.517326    4.155919    0.630790
H       -10.654741    2.944528   -0.025385
H        -7.333919    3.239904    1.167286
H        -5.512347    1.587956    0.719829
H        -5.222188   -1.881344    0.689753
H        -3.050270   -2.127757    1.922714
H         1.499401    0.502673    1.738156
H         2.972207   -3.163152   -2.026395
H         2.626101   -4.996813   -0.633098
H         2.105570   -4.303563    0.935558
H         0.937266   -5.203731   -0.045835
H         2.141373    0.707811   -3.570316
H         3.975258   -0.545674   -5.577598
H         4.281660    1.075198   -4.895327
H         2.884778    0.815599   -5.981779
