86
-1 1
O        -4.337645   -0.106744   -7.923176
C        -3.711257    0.607810   -7.159424
C        -2.220137    0.368338   -6.870269
C        -1.920087    0.097219   -5.381213
S        -1.952217    1.572158   -4.301738
C         0.266747    2.111812   -3.802881
C         1.057738    1.509145   -4.940252
N         1.418081    0.120819   -4.703628
C         2.401278   -0.026363   -3.648501
C         2.730511   -1.493858   -3.425193
O         3.173211   -2.107731   -4.606945
C         2.224772   -1.978390   -5.637996
C         1.893005   -0.522152   -5.917020
C         0.265827    3.468002   -3.448326
F        -0.334118    3.705508   -2.241474
C         0.251111    4.627003   -4.287341
N         0.939980    4.535574   -5.560967
C         2.316443    4.520063   -5.695468
C         3.187882    4.035892   -4.741533
C         2.869811    4.994809   -6.936315
O         1.944026    5.454248   -7.804037
C         2.335115    5.924489   -9.078551
H         3.084544    6.723883   -8.951987
C         2.812775    4.793167  -10.013019
C         1.692888    4.690948  -11.065221
O         0.577643    5.341308  -10.507023
C         1.077020    6.432216   -9.784322
C         4.226100    4.976703   -7.164139
C         5.114188    4.441342   -6.195826
C         4.576822    3.946476   -4.988247
C         5.518045    3.296020   -4.116593
N         5.031699    2.669977   -2.996366
C         5.647594    1.793890   -2.100535
C         4.808115    1.128079   -1.192499
C         5.330864    0.222871   -0.278487
Cl         4.279955   -0.610145    0.827892
C         6.701219   -0.028818   -0.251400
F         7.206356   -0.898816    0.622447
C         7.537300    0.630878   -1.139034
C         7.026757    1.539803   -2.061526
N         6.804719    3.270217   -4.397519
C         7.201135    3.844718   -5.553660
N         6.451338    4.400567   -6.464214
O        -0.301840    5.683718   -4.032164
N        -1.416475    1.459679   -7.382867
C        -0.422934    1.290754   -8.296044
C         0.381424    2.541493   -8.584674
O        -0.187838    0.226068   -8.844184
H        -1.956091   -0.516732   -7.462977
N        -4.250604    1.674198   -6.513562
C        -5.643250    2.017315   -6.623824
H        -2.638352   -0.649263   -5.007393
H        -0.919738   -0.354833   -5.299944
H         0.195956    1.464851   -2.926981
H         1.974172    2.098460   -5.132567
H         0.470686    1.554932   -5.862717
H         2.009186    0.398543   -2.710960
H         3.342642    0.520037   -3.898383
H         1.827881   -2.008124   -3.037522
H         3.535106   -1.594812   -2.681822
H         1.292612   -2.515880   -5.370624
H         2.652403   -2.451830   -6.532981
H         1.121397   -0.463243   -6.700860
H         2.803550   -0.013536   -6.311274
H         0.511850    5.190105   -6.209667
H         2.738067    3.707413   -3.802519
H         2.913623    3.863682   -9.437540
H         3.790084    5.012362  -10.464811
H         1.407656    3.656613  -11.299543
H         1.996592    5.190661  -12.006973
H         0.317271    6.781522   -9.073476
H         1.348417    7.267140  -10.462604
H         4.667495    5.339153   -8.091031
H         4.027247    2.721914   -2.894365
H         3.731312    1.308608   -1.197516
H         8.607369    0.419802   -1.100832
H         7.675183    2.053320   -2.766670
H         8.281423    3.818598   -5.740683
H        -1.441940    2.313253   -6.829854
H         0.615299    3.102966   -7.668889
H        -0.172608    3.221581   -9.249402
H         1.310989    2.238941   -9.081963
H        -3.687149    2.102135   -5.774042
H        -6.201067    1.772668   -5.703986
H        -6.071516    1.440234   -7.453491
H        -5.770535    3.092122   -6.828743
