-1 1
 OpenBabel05232413493D

 57 57  0  0  1  0  0  0  0  0999 V2000
    1.1720   -0.1355   -3.9718 O   0  0  0  0  0  0  0  0  0  0  0  0
    0.7585    0.4517   -2.9873 C   0  0  0  0  0  0  0  0  0  0  0  0
    0.8175   -0.1743   -1.5865 C   0  0  2  0  0  0  0  0  0  0  0  0
    2.2815   -0.3450   -1.1633 C   0  0  0  0  0  0  0  0  0  0  0  0
    2.5206   -1.0870    0.4908 S   0  0  0  0  0  1  0  0  0  0  0  0
   -1.4921    0.3368    1.4124 C   0  0  0  0  0  0  0  0  0  0  0  0
   -1.8669    1.1795    0.4401 C   0  0  0  0  0  0  0  0  0  0  0  0
   -1.2799    2.5274    0.3220 C   0  0  0  0  0  0  0  0  0  0  0  0
   -0.8280    3.0173    1.4870 O   0  0  0  0  0  0  0  0  0  0  0  0
   -0.0203    4.1794    1.4388 C   0  0  0  0  0  0  0  0  0  0  0  0
    1.4428    3.8670    1.2117 C   0  0  0  0  0  0  0  0  0  0  0  0
    2.2248    4.9457    1.1194 N   0  0  0  0  0  0  0  0  0  0  0  0
    3.5282    4.7582    0.9339 C   0  0  0  0  0  0  0  0  0  0  0  0
    4.1192    3.4984    0.8359 C   0  0  0  0  0  0  0  0  0  0  0  0
    3.3009    2.3769    0.9377 C   0  0  0  0  0  0  0  0  0  0  0  0
    1.9333    2.5641    1.1279 C   0  0  0  0  0  0  0  0  0  0  0  0
   -1.1690    3.1251   -0.7255 O   0  0  0  0  0  0  0  0  0  0  0  0
   -1.8733   -1.0867    1.4806 C   0  0  0  0  0  0  0  0  0  0  0  0
   -0.8452   -2.0353    1.5507 C   0  0  0  0  0  0  0  0  0  0  0  0
   -1.1380   -3.3975    1.5581 C   0  0  0  0  0  0  0  0  0  0  0  0
   -0.0690   -4.4637    1.5096 C   0  0  0  0  0  0  0  0  0  0  0  0
    1.1558   -4.0660    1.1012 N   0  0  0  0  0  0  0  0  0  0  0  0
   -0.3343   -5.6256    1.7835 O   0  0  0  0  0  0  0  0  0  0  0  0
   -2.4734   -3.8147    1.5747 C   0  0  0  0  0  0  0  0  0  0  0  0
   -3.4998   -2.8772    1.5134 C   0  0  0  0  0  0  0  0  0  0  0  0
   -3.2034   -1.5147    1.4434 C   0  0  0  0  0  0  0  0  0  0  0  0
    0.1581   -1.4582   -1.5853 N   0  0  0  0  0  0  0  0  0  0  0  0
   -1.1502   -1.6041   -1.8737 C   0  0  0  0  0  0  0  0  0  0  0  0
   -1.6837   -3.0200   -1.8192 C   0  0  0  0  0  0  0  0  0  0  0  0
   -1.8697   -0.6616   -2.1816 O   0  0  0  0  0  0  0  0  0  0  0  0
    0.3155    0.4937   -0.8692 H   0  0  0  0  0  0  0  0  0  0  0  0
    0.2969    1.7274   -3.0148 N   0  0  0  0  0  0  0  0  0  0  0  0
    0.1517    2.4409   -4.2547 C   0  0  0  0  0  0  0  0  0  0  0  0
    2.7829   -0.9447   -1.9397 H   0  0  0  0  0  0  0  0  0  0  0  0
    2.7385    0.6581   -1.1959 H   0  0  0  0  0  0  0  0  0  0  0  0
   -0.1400    4.6735    2.4131 H   0  0  0  0  0  0  0  0  0  0  0  0
   -0.3711    4.8602    0.6505 H   0  0  0  0  0  0  0  0  0  0  0  0
    4.1426    5.6634    0.8586 H   0  0  0  0  0  0  0  0  0  0  0  0
    5.1960    3.4034    0.6826 H   0  0  0  0  0  0  0  0  0  0  0  0
    3.6787    1.3492    0.8791 H   0  0  0  0  0  0  0  0  0  0  0  0
    1.2910    1.6842    1.2064 H   0  0  0  0  0  0  0  0  0  0  0  0
    0.1909   -1.6751    1.5282 H   0  0  0  0  0  0  0  0  0  0  0  0
    1.4561   -3.1035    0.8668 H   0  0  0  0  0  0  0  0  0  0  0  0
    1.8707   -4.7817    1.0794 H   0  0  0  0  0  0  0  0  0  0  0  0
   -2.6754   -4.8869    1.6128 H   0  0  0  0  0  0  0  0  0  0  0  0
   -4.5415   -3.2068    1.5062 H   0  0  0  0  0  0  0  0  0  0  0  0
   -4.0051   -0.7753    1.3759 H   0  0  0  0  0  0  0  0  0  0  0  0
    0.6909   -2.2315   -1.2022 H   0  0  0  0  0  0  0  0  0  0  0  0
   -0.9502   -3.7504   -1.4520 H   0  0  0  0  0  0  0  0  0  0  0  0
   -2.0070   -3.3059   -2.8307 H   0  0  0  0  0  0  0  0  0  0  0  0
   -2.5651   -3.0343   -1.1645 H   0  0  0  0  0  0  0  0  0  0  0  0
   -0.2218    2.0760   -2.2131 H   0  0  0  0  0  0  0  0  0  0  0  0
    0.9117    2.0801   -4.9603 H   0  0  0  0  0  0  0  0  0  0  0  0
    0.2891    3.5196   -4.0890 H   0  0  0  0  0  0  0  0  0  0  0  0
   -0.8396    2.2801   -4.7148 H   0  0  0  0  0  0  0  0  0  0  0  0
   -0.7818    0.6891    2.1680 H   0  0  0  0  0  0  0  0  0  0  0  0
   -2.4444    0.8367   -0.4229 H   0  0  0  0  0  0  0  0  0  0  0  0
  1  2  2  0  0  0  0
  2  3  1  0  0  0  0
  3 27  1  0  0  0  0
  3  4  1  0  0  0  0
  3 31  1  1  0  0  0
  4  5  1  0  0  0  0
  6 18  1  0  0  0  0
  6 56  1  0  0  0  0
  7  6  2  0  0  0  0
  8  7  1  0  0  0  0
  8  9  1  0  0  0  0
 10  9  1  0  0  0  0
 10 36  1  0  0  0  0
 11 10  1  0  0  0  0
 12 11  2  0  0  0  0
 13 12  1  0  0  0  0
 14 13  2  0  0  0  0
 14 15  1  0  0  0  0
 15 16  2  0  0  0  0
 16 41  1  0  0  0  0
 16 11  1  0  0  0  0
 17  8  2  0  0  0  0
 18 19  1  0  0  0  0
 19 20  2  0  0  0  0
 20 24  1  0  0  0  0
 21 20  1  0  0  0  0
 21 23  2  0  0  0  0
 22 21  1  0  0  0  0
 24 45  1  0  0  0  0
 25 24  2  0  0  0  0
 26 18  2  0  0  0  0
 26 25  1  0  0  0  0
 27 48  1  0  0  0  0
 28 29  1  0  0  0  0
 28 27  1  0  0  0  0
 29 49  1  0  0  0  0
 29 51  1  0  0  0  0
 30 28  2  0  0  0  0
 32  2  1  0  0  0  0
 32 52  1  0  0  0  0
 33 54  1  0  0  0  0
 33 32  1  0  0  0  0
 34  4  1  0  0  0  0
 35  4  1  0  0  0  0
 37 10  1  0  0  0  0
 38 13  1  0  0  0  0
 39 14  1  0  0  0  0
 40 15  1  0  0  0  0
 42 19  1  0  0  0  0
 43 22  1  0  0  0  0
 44 22  1  0  0  0  0
 46 25  1  0  0  0  0
 47 26  1  0  0  0  0
 50 29  1  0  0  0  0
 53 33  1  0  0  0  0
 55 33  1  0  0  0  0
 57  7  1  0  0  0  0
M  END
