-1 1
 OpenBabel05192410563D

 57 58  0  0  1  0  0  0  0  0999 V2000
    0.7907    1.5919   -4.1760 O   0  0  0  0  0  0  0  0  0  0  0  0
    0.1722    1.5945   -3.1150 C   0  0  0  0  0  0  0  0  0  0  0  0
   -0.1119    0.2733   -2.3897 C   0  0  2  0  0  0  0  0  0  0  0  0
    1.0062    0.0859   -1.3472 C   0  0  0  0  0  0  0  0  0  0  0  0
    0.8763   -1.3524   -0.2643 S   0  0  0  0  0  0  0  0  0  0  0  0
   -0.3850   -0.7012    1.0804 C   0  0  1  0  0  0  0  0  0  0  0  0
   -1.2728    0.3708    0.6137 C   0  0  0  0  0  3  0  0  0  0  0  0
   -0.9545    1.7163    0.6335 C   0  0  0  0  0  0  0  0  0  0  0  0
    0.1783    2.0329    1.4188 O   0  0  0  0  0  0  0  0  0  0  0  0
    0.6907    3.3256    1.2946 C   0  0  0  0  0  0  0  0  0  0  0  0
    2.0231    3.3431    0.5778 C   0  0  0  0  0  0  0  0  0  0  0  0
    2.3737    4.4867   -0.0166 N   0  0  0  0  0  0  0  0  0  0  0  0
    3.5421    4.5379   -0.6535 C   0  0  0  0  0  0  0  0  0  0  0  0
    4.4225    3.4623   -0.7377 C   0  0  0  0  0  0  0  0  0  0  0  0
    4.0599    2.2711   -0.1103 C   0  0  0  0  0  0  0  0  0  0  0  0
    2.8468    2.2101    0.5635 C   0  0  0  0  0  0  0  0  0  0  0  0
   -1.5228    2.6512    0.0313 O   0  0  0  0  0  0  0  0  0  0  0  0
   -1.1044   -1.9446    1.5439 C   0  0  0  0  0  0  0  0  0  0  0  0
   -0.9709   -2.3920    2.8583 C   0  0  0  0  0  0  0  0  0  0  0  0
   -1.6513   -3.5289    3.3177 C   0  0  0  0  0  0  0  0  0  0  0  0
   -1.5126   -4.0538    4.7164 C   0  0  0  0  0  0  0  0  0  0  0  0
   -0.4235   -3.6102    5.4161 N   0  0  0  0  0  0  0  0  0  0  0  0
   -2.3091   -4.8298    5.2125 O   0  0  0  0  0  0  0  0  0  0  0  0
   -2.5006   -4.2127    2.4461 C   0  0  0  0  0  0  0  0  0  0  0  0
   -2.6346   -3.7783    1.1284 C   0  0  0  0  0  0  0  0  0  0  0  0
   -1.9380   -2.6622    0.6727 C   0  0  0  0  0  0  0  0  0  0  0  0
   -0.1486   -0.7846   -3.3646 N   0  0  0  0  0  0  0  0  0  0  0  0
   -1.0951   -1.7519   -3.3957 C   0  0  0  0  0  0  0  0  0  0  0  0
   -0.9249   -2.7716   -4.5090 C   0  0  0  0  0  0  0  0  0  0  0  0
   -2.0056   -1.8453   -2.5907 O   0  0  0  0  0  0  0  0  0  0  0  0
   -1.0775    0.3058   -1.8716 H   0  0  0  0  0  0  0  0  0  0  0  0
   -0.2204    2.6979   -2.4566 N   0  0  0  0  0  0  0  0  0  0  0  0
    0.1349    4.0247   -2.8914 C   0  0  0  0  0  0  0  0  0  0  0  0
    1.9721   -0.0004   -1.8702 H   0  0  0  0  0  0  0  0  0  0  0  0
    1.0579    0.9872   -0.7279 H   0  0  0  0  0  0  0  0  0  0  0  0
    0.8315    3.7494    2.3061 H   0  0  0  0  0  0  0  0  0  0  0  0
   -0.0182    3.9682    0.7529 H   0  0  0  0  0  0  0  0  0  0  0  0
    3.7898    5.4903   -1.1372 H   0  0  0  0  0  0  0  0  0  0  0  0
    5.3609    3.5560   -1.2877 H   0  0  0  0  0  0  0  0  0  0  0  0
    4.7113    1.3947   -0.1519 H   0  0  0  0  0  0  0  0  0  0  0  0
    2.5086    1.2948    1.0521 H   0  0  0  0  0  0  0  0  0  0  0  0
   -0.3424   -1.8082    3.5372 H   0  0  0  0  0  0  0  0  0  0  0  0
    0.3539   -3.1658    4.9508 H   0  0  0  0  0  0  0  0  0  0  0  0
   -0.2693   -4.0232    6.3255 H   0  0  0  0  0  0  0  0  0  0  0  0
   -3.0384   -5.0859    2.8204 H   0  0  0  0  0  0  0  0  0  0  0  0
   -3.2878   -4.3203    0.4402 H   0  0  0  0  0  0  0  0  0  0  0  0
   -2.0291   -2.3403   -0.3698 H   0  0  0  0  0  0  0  0  0  0  0  0
    0.4834   -0.6550   -4.1473 H   0  0  0  0  0  0  0  0  0  0  0  0
   -0.2954   -2.4137   -5.3362 H   0  0  0  0  0  0  0  0  0  0  0  0
   -1.9166   -3.0487   -4.8889 H   0  0  0  0  0  0  0  0  0  0  0  0
   -0.4631   -3.6737   -4.0805 H   0  0  0  0  0  0  0  0  0  0  0  0
   -0.7756    2.6200   -1.5843 H   0  0  0  0  0  0  0  0  0  0  0  0
    0.8554    3.9440   -3.7160 H   0  0  0  0  0  0  0  0  0  0  0  0
    0.5911    4.5868   -2.0613 H   0  0  0  0  0  0  0  0  0  0  0  0
   -0.7460    4.5834   -3.2499 H   0  0  0  0  0  0  0  0  0  0  0  0
    0.2767   -0.3352    1.8745 H   0  0  0  0  0  0  0  0  0  0  0  0
   -2.1603    0.1029    0.0378 H   0  0  0  0  0  0  0  0  0  0  0  0
  1  2  2  0  0  0  0
  2 32  1  0  0  0  0
  2  3  1  0  0  0  0
  3 31  1  1  0  0  0
  3  4  1  0  0  0  0
  4 35  1  0  0  0  0
  4  5  1  0  0  0  0
  5  6  1  0  0  0  0
  6 18  1  0  0  0  0
  6 56  1  1  0  0  0
  7  8  1  0  0  0  0
  7  6  1  0  0  0  0
  8  9  1  0  0  0  0
 10  9  1  0  0  0  0
 10 36  1  0  0  0  0
 11 10  1  0  0  0  0
 12 11  2  0  0  0  0
 13 12  1  0  0  0  0
 14 13  2  0  0  0  0
 14 15  1  0  0  0  0
 15 16  2  0  0  0  0
 16 11  1  0  0  0  0
 16 41  1  0  0  0  0
 17  8  2  0  0  0  0
 18 19  1  0  0  0  0
 19 20  2  0  0  0  0
 19 42  1  0  0  0  0
 20 21  1  0  0  0  0
 21 23  2  0  0  0  0
 21 22  1  0  0  0  0
 22 44  1  0  0  0  0
 24 45  1  0  0  0  0
 24 20  1  0  0  0  0
 25 24  2  0  0  0  0
 26 25  1  0  0  0  0
 26 18  2  0  0  0  0
 27  3  1  0  0  0  0
 28 27  1  0  0  0  0
 28 30  2  0  0  0  0
 29 51  1  0  0  0  0
 29 28  1  0  0  0  0
 32 52  1  0  0  0  0
 33 32  1  0  0  0  0
 33 54  1  0  0  0  0
 34  4  1  0  0  0  0
 37 10  1  0  0  0  0
 38 13  1  0  0  0  0
 39 14  1  0  0  0  0
 40 15  1  0  0  0  0
 43 22  1  0  0  0  0
 46 25  1  0  0  0  0
 47 26  1  0  0  0  0
 48 27  1  0  0  0  0
 49 29  1  0  0  0  0
 50 29  1  0  0  0  0
 53 33  1  0  0  0  0
 55 33  1  0  0  0  0
 57  7  1  0  0  0  0
M  END
