-1 1
 OpenBabel05232413493D

 96 99  0  0  1  0  0  0  0  0999 V2000
    4.1629   -1.9845   -4.0951 O   0  0  0  0  0  0  0  0  0  0  0  0
    4.0869   -3.1541   -3.6936 C   0  0  0  0  0  0  0  0  0  0  0  0
    5.3475   -4.0111   -3.4935 C   0  0  2  0  0  0  0  0  0  0  0  0
    5.4267   -4.6953   -2.1090 C   0  0  0  0  0  0  0  0  0  0  0  0
    4.2212   -6.0508   -1.8546 S   0  0  0  0  0  1  0  0  0  0  0  0
    2.6453   -3.6374    0.2379 C   0  0  0  0  0  0  0  0  0  0  0  0
    3.4016   -2.6705    1.1050 C   0  0  0  0  0  0  0  0  0  0  0  0
    4.6566   -2.2059    0.5529 N   0  0  0  0  0  0  0  0  0  0  0  0
    5.5122   -1.6325    1.5730 C   0  0  0  0  0  0  0  0  0  0  0  0
    6.8799   -1.2550    1.0171 C   0  0  0  0  0  0  0  0  0  0  0  0
    6.7345   -0.2958   -0.1610 C   0  0  0  0  0  0  0  0  0  0  0  0
    5.8048   -0.9080   -1.2031 C   0  0  0  0  0  0  0  0  0  0  0  0
    4.4766   -1.3234   -0.5840 C   0  0  0  0  0  0  0  0  0  0  0  0
    1.3724   -3.4733   -0.1123 C   0  0  0  0  0  0  0  0  0  0  0  0
    0.6812   -4.4458   -0.7246 F   0  0  0  0  0  0  0  0  0  0  0  0
    0.5149   -2.2395    0.0367 C   0  0  0  0  0  0  0  0  0  0  0  0
   -0.5428   -2.2205    0.6335 O   0  0  0  0  0  0  0  0  0  0  0  0
    1.0418   -1.1733   -0.6423 N   0  0  0  0  0  0  0  0  0  0  0  0
    0.4753    0.0765   -0.8660 C   0  0  0  0  0  0  0  0  0  0  0  0
    1.1579    0.8919   -1.8357 C   0  0  0  0  0  0  0  0  0  0  0  0
    2.2430    0.3044   -2.3532 O   0  0  0  0  0  0  0  0  0  0  0  0
    2.9661    0.8674   -3.4426 C   0  0  0  0  0  0  0  0  0  0  0  0
    2.2520    0.6676   -4.7639 C   0  0  0  0  0  0  0  0  0  0  0  0
    0.6833    2.1452   -2.1440 C   0  0  0  0  0  0  0  0  0  0  0  0
   -0.4848    2.6446   -1.5132 C   0  0  0  0  0  0  0  0  0  0  0  0
   -0.9248    3.8943   -1.8386 N   0  0  0  0  0  0  0  0  0  0  0  0
   -2.0055    4.3004   -1.2329 C   0  0  0  0  0  0  0  0  0  0  0  0
   -2.7453    3.6272   -0.3274 N   0  0  0  0  0  0  0  0  0  0  0  0
   -2.3470    2.4156    0.0035 C   0  0  0  0  0  0  0  0  0  0  0  0
   -3.0614    1.6760    0.9110 N   0  0  0  0  0  0  0  0  0  0  0  0
   -4.2226    1.9678    1.6260 C   0  0  0  0  0  0  0  0  0  0  0  0
   -4.9135    3.1848    1.5401 C   0  0  0  0  0  0  0  0  0  0  0  0
   -6.0635    3.3738    2.2999 C   0  0  0  0  0  0  0  0  0  0  0  0
   -6.9167    4.8890    2.1873 Cl  0  0  0  0  0  0  0  0  0  0  0  0
   -6.5515    2.3817    3.1529 C   0  0  0  0  0  0  0  0  0  0  0  0
   -7.7116    2.5523    3.8601 O   0  0  0  0  0  0  0  0  0  0  0  0
   -7.6837    3.2201    5.0462 C   0  0  0  0  0  0  0  0  0  0  0  0
   -6.5147    3.6556    5.6778 C   0  0  0  0  0  0  0  0  0  0  0  0
   -6.5262    4.2934    6.8435 N   0  0  0  0  0  0  0  0  0  0  0  0
   -7.6865    4.5399    7.4530 C   0  0  0  0  0  0  0  0  0  0  0  0
   -7.6218    5.2683    8.7688 C   0  0  0  0  0  0  0  0  0  0  0  0
   -8.9028    4.1374    6.8862 C   0  0  0  0  0  0  0  0  0  0  0  0
   -8.9043    3.4706    5.6685 C   0  0  0  0  0  0  0  0  0  0  0  0
   -5.8620    1.1741    3.2315 C   0  0  0  0  0  0  0  0  0  0  0  0
   -4.7151    0.9655    2.4806 C   0  0  0  0  0  0  0  0  0  0  0  0
   -1.1632    1.8359   -0.5714 C   0  0  0  0  0  0  0  0  0  0  0  0
   -0.6646    0.5459   -0.2569 C   0  0  0  0  0  0  0  0  0  0  0  0
    6.4598   -3.1189   -3.7533 N   0  0  0  0  0  0  0  0  0  0  0  0
    7.7339   -3.5046   -3.9917 C   0  0  0  0  0  0  0  0  0  0  0  0
    8.7007   -2.3541   -4.2441 C   0  0  0  0  0  0  0  0  0  0  0  0
    8.1198   -4.6591   -3.9724 O   0  0  0  0  0  0  0  0  0  0  0  0
    5.3332   -4.8184   -4.2481 H   0  0  0  0  0  0  0  0  0  0  0  0
    2.9337   -3.7586   -3.4054 N   0  0  0  0  0  0  0  0  0  0  0  0
    1.6654   -3.1021   -3.5675 C   0  0  0  0  0  0  0  0  0  0  0  0
    6.4461   -5.0986   -2.0349 H   0  0  0  0  0  0  0  0  0  0  0  0
    5.3186   -3.9260   -1.3239 H   0  0  0  0  0  0  0  0  0  0  0  0
    3.1422   -4.5755   -0.0733 H   0  0  0  0  0  0  0  0  0  0  0  0
    3.6350   -3.2149    2.0356 H   0  0  0  0  0  0  0  0  0  0  0  0
    2.7530   -1.8149    1.4084 H   0  0  0  0  0  0  0  0  0  0  0  0
    5.6276   -2.3687    2.3842 H   0  0  0  0  0  0  0  0  0  0  0  0
    5.0420   -0.7250    2.0284 H   0  0  0  0  0  0  0  0  0  0  0  0
    7.4913   -0.8101    1.8186 H   0  0  0  0  0  0  0  0  0  0  0  0
    7.3885   -2.1741    0.6825 H   0  0  0  0  0  0  0  0  0  0  0  0
    7.7176   -0.0667   -0.6028 H   0  0  0  0  0  0  0  0  0  0  0  0
    6.3139    0.6617    0.1979 H   0  0  0  0  0  0  0  0  0  0  0  0
    6.2792   -1.7960   -1.6464 H   0  0  0  0  0  0  0  0  0  0  0  0
    5.6110   -0.2050   -2.0277 H   0  0  0  0  0  0  0  0  0  0  0  0
    3.8802   -1.8496   -1.3462 H   0  0  0  0  0  0  0  0  0  0  0  0
    3.9063   -0.4092   -0.2887 H   0  0  0  0  0  0  0  0  0  0  0  0
    1.9030   -1.3388   -1.1540 H   0  0  0  0  0  0  0  0  0  0  0  0
    3.9067    0.3040   -3.4539 H   0  0  0  0  0  0  0  0  0  0  0  0
    3.1771    1.9293   -3.2291 H   0  0  0  0  0  0  0  0  0  0  0  0
    1.2441    1.1085   -4.7652 H   0  0  0  0  0  0  0  0  0  0  0  0
    2.1911   -0.4082   -4.9763 H   0  0  0  0  0  0  0  0  0  0  0  0
    2.8355    1.1390   -5.5685 H   0  0  0  0  0  0  0  0  0  0  0  0
    1.1699    2.7869   -2.8769 H   0  0  0  0  0  0  0  0  0  0  0  0
   -2.3709    5.3045   -1.4789 H   0  0  0  0  0  0  0  0  0  0  0  0
   -2.6908    0.7527    1.0873 H   0  0  0  0  0  0  0  0  0  0  0  0
   -4.5444    3.9641    0.8779 H   0  0  0  0  0  0  0  0  0  0  0  0
   -5.5379    3.4799    5.2155 H   0  0  0  0  0  0  0  0  0  0  0  0
   -7.1505    6.2535    8.6347 H   0  0  0  0  0  0  0  0  0  0  0  0
   -7.0007    4.7078    9.4833 H   0  0  0  0  0  0  0  0  0  0  0  0
   -8.6190    5.4129    9.2067 H   0  0  0  0  0  0  0  0  0  0  0  0
   -9.8446    4.3485    7.3973 H   0  0  0  0  0  0  0  0  0  0  0  0
   -9.8275    3.1414    5.1883 H   0  0  0  0  0  0  0  0  0  0  0  0
   -6.2463    0.3966    3.8936 H   0  0  0  0  0  0  0  0  0  0  0  0
   -4.1908    0.0094    2.5551 H   0  0  0  0  0  0  0  0  0  0  0  0
   -1.1514   -0.1263    0.4479 H   0  0  0  0  0  0  0  0  0  0  0  0
    6.1648   -2.1678   -3.9574 H   0  0  0  0  0  0  0  0  0  0  0  0
    9.4048   -2.6507   -5.0325 H   0  0  0  0  0  0  0  0  0  0  0  0
    9.2817   -2.1801   -3.3255 H   0  0  0  0  0  0  0  0  0  0  0  0
    8.2024   -1.4149   -4.5244 H   0  0  0  0  0  0  0  0  0  0  0  0
    3.0177   -4.6942   -2.9325 H   0  0  0  0  0  0  0  0  0  0  0  0
    1.3423   -3.0865   -4.6234 H   0  0  0  0  0  0  0  0  0  0  0  0
    1.7124   -2.0556   -3.2295 H   0  0  0  0  0  0  0  0  0  0  0  0
    0.9099   -3.6377   -2.9795 H   0  0  0  0  0  0  0  0  0  0  0  0
  1  2  2  0  0  0  0
  2  3  1  0  0  0  0
  2 53  1  0  0  0  0
  3 52  1  6  0  0  0
  3  4  1  0  0  0  0
  4 55  1  0  0  0  0
  4  5  1  0  0  0  0
  4 56  1  0  0  0  0
  6  7  1  0  0  0  0
  7 59  1  0  0  0  0
  7 58  1  0  0  0  0
  8  7  1  0  0  0  0
  8  9  1  0  0  0  0
  9 61  1  0  0  0  0
  9 60  1  0  0  0  0
 10  9  1  0  0  0  0
 10 62  1  0  0  0  0
 11 65  1  0  0  0  0
 11 10  1  0  0  0  0
 12 13  1  0  0  0  0
 12 11  1  0  0  0  0
 13 69  1  0  0  0  0
 13  8  1  0  0  0  0
 14 16  1  0  0  0  0
 14  6  2  0  0  0  0
 15 14  1  0  0  0  0
 16 17  2  0  0  0  0
 18 16  1  0  0  0  0
 19 18  1  0  0  0  0
 19 47  1  0  0  0  0
 20 19  2  0  0  0  0
 21 20  1  0  0  0  0
 22 72  1  0  0  0  0
 22 21  1  0  0  0  0
 23 22  1  0  0  0  0
 24 20  1  0  0  0  0
 24 25  2  0  0  0  0
 25 46  1  0  0  0  0
 26 25  1  0  0  0  0
 26 27  2  0  0  0  0
 27 28  1  0  0  0  0
 28 29  2  0  0  0  0
 29 30  1  0  0  0  0
 30 78  1  0  0  0  0
 30 31  1  0  0  0  0
 31 45  1  0  0  0  0
 32 31  2  0  0  0  0
 32 33  1  0  0  0  0
 33 35  2  0  0  0  0
 34 33  1  0  0  0  0
 35 44  1  0  0  0  0
 35 36  1  0  0  0  0
 36 37  1  0  0  0  0
 37 43  2  0  0  0  0
 37 38  1  0  0  0  0
 38 39  2  0  0  0  0
 39 40  1  0  0  0  0
 40 41  1  0  0  0  0
 41 83  1  0  0  0  0
 41 82  1  0  0  0  0
 42 84  1  0  0  0  0
 42 40  2  0  0  0  0
 43 42  1  0  0  0  0
 44 86  1  0  0  0  0
 45 87  1  0  0  0  0
 45 44  2  0  0  0  0
 46 47  2  0  0  0  0
 46 29  1  0  0  0  0
 47 88  1  0  0  0  0
 48  3  1  0  0  0  0
 49 51  2  0  0  0  0
 49 48  1  0  0  0  0
 50 49  1  0  0  0  0
 50 91  1  0  0  0  0
 53 93  1  0  0  0  0
 54 53  1  0  0  0  0
 54 95  1  0  0  0  0
 54 96  1  0  0  0  0
 57  6  1  0  0  0  0
 63 10  1  0  0  0  0
 64 11  1  0  0  0  0
 66 12  1  0  0  0  0
 67 12  1  0  0  0  0
 68 13  1  0  0  0  0
 70 18  1  0  0  0  0
 71 22  1  0  0  0  0
 73 23  1  0  0  0  0
 74 23  1  0  0  0  0
 75 23  1  0  0  0  0
 76 24  1  0  0  0  0
 77 27  1  0  0  0  0
 79 32  1  0  0  0  0
 80 38  1  0  0  0  0
 81 41  1  0  0  0  0
 85 43  1  0  0  0  0
 89 48  1  0  0  0  0
 90 50  1  0  0  0  0
 92 50  1  0  0  0  0
 94 54  1  0  0  0  0
M  END
