-1 1
 OpenBabel05192410563D

 96100  0  0  1  0  0  0  0  0999 V2000
    5.3535   -2.0094   -3.9618 O   0  0  0  0  0  0  0  0  0  0  0  0
    4.9197   -3.1077   -3.6148 C   0  0  0  0  0  0  0  0  0  0  0  0
    5.7126   -3.9517   -2.5975 C   0  0  2  0  0  0  0  0  0  0  0  0
    5.1471   -4.0061   -1.1667 C   0  0  0  0  0  0  0  0  0  0  0  0
    3.5830   -4.8870   -0.8953 S   0  0  0  0  0  0  0  0  0  0  0  0
    2.1848   -3.6354   -0.6986 C   0  0  1  0  0  0  0  0  0  0  0  0
    2.4788   -2.6495    0.4478 C   0  0  0  0  0  0  0  0  0  0  0  0
    3.6433   -1.7962    0.3522 N   0  0  0  0  0  0  0  0  0  0  0  0
    4.0155   -1.2047    1.6184 C   0  0  0  0  0  0  0  0  0  0  0  0
    5.4123   -0.5911    1.5543 C   0  0  0  0  0  0  0  0  0  0  0  0
    5.5220    0.4144    0.4096 C   0  0  0  0  0  0  0  0  0  0  0  0
    5.0641   -0.2271   -0.8975 C   0  0  0  0  0  0  0  0  0  0  0  0
    3.6772   -0.8390   -0.7398 C   0  0  0  0  0  0  0  0  0  0  0  0
    1.6159   -3.1906   -2.0034 C   0  0  1  0  0  3  0  0  0  0  0  0
    1.4339   -4.3244   -2.7956 F   0  0  0  0  0  0  0  0  0  0  0  0
    0.8385   -2.1221   -2.4582 C   0  0  0  0  0  0  0  0  0  0  0  0
    0.2709   -2.0584   -3.5629 O   0  0  0  0  0  0  0  0  0  0  0  0
    0.7324   -0.9587   -1.6100 N   0  0  0  0  0  0  0  0  0  0  0  0
   -0.0781    0.1119   -1.9681 C   0  0  0  0  0  0  0  0  0  0  0  0
    0.1062    0.8817   -3.1794 C   0  0  0  0  0  0  0  0  0  0  0  0
    1.0843    0.7148   -4.0734 O   0  0  0  0  0  0  0  0  0  0  0  0
    2.3889    0.2838   -3.7132 C   0  0  0  0  0  0  0  0  0  0  0  0
    3.3276    0.6512   -4.8387 C   0  0  0  0  0  0  0  0  0  0  0  0
   -0.7810    1.9043   -3.4686 C   0  0  0  0  0  0  0  0  0  0  0  0
   -1.8189    2.2831   -2.5958 C   0  0  0  0  0  0  0  0  0  0  0  0
   -2.6430    3.3221   -2.9295 N   0  0  0  0  0  0  0  0  0  0  0  0
   -3.5621    3.6316   -2.0623 C   0  0  0  0  0  0  0  0  0  0  0  0
   -3.7941    3.0505   -0.8625 N   0  0  0  0  0  0  0  0  0  0  0  0
   -3.0114    2.0528   -0.5132 C   0  0  0  0  0  0  0  0  0  0  0  0
   -3.1924    1.4288    0.7034 N   0  0  0  0  0  0  0  0  0  0  0  0
   -4.1207    1.6433    1.7154 C   0  0  0  0  0  0  0  0  0  0  0  0
   -5.1187    2.6293    1.6695 C   0  0  0  0  0  0  0  0  0  0  0  0
   -6.0009    2.7620    2.7363 C   0  0  0  0  0  0  0  0  0  0  0  0
   -7.2365    3.9903    2.6705 Cl  0  0  0  0  0  0  0  0  0  0  0  0
   -5.9230    1.9402    3.8626 C   0  0  0  0  0  0  0  0  0  0  0  0
   -6.8266    2.0414    4.8887 O   0  0  0  0  0  0  0  0  0  0  0  0
   -6.6303    2.9657    5.8671 C   0  0  0  0  0  0  0  0  0  0  0  0
   -5.4950    3.7760    5.9711 C   0  0  0  0  0  0  0  0  0  0  0  0
   -5.3331    4.6590    6.9509 N   0  0  0  0  0  0  0  0  0  0  0  0
   -6.2778    4.7971    7.8821 C   0  0  0  0  0  0  0  0  0  0  0  0
   -6.0263    5.8184    8.9593 C   0  0  0  0  0  0  0  0  0  0  0  0
   -7.4462    4.0250    7.8493 C   0  0  0  0  0  0  0  0  0  0  0  0
   -7.6272    3.0988    6.8310 C   0  0  0  0  0  0  0  0  0  0  0  0
   -4.9328    0.9621    3.9030 C   0  0  0  0  0  0  0  0  0  0  0  0
   -4.0448    0.8121    2.8486 C   0  0  0  0  0  0  0  0  0  0  0  0
   -1.9569    1.5884   -1.3688 C   0  0  0  0  0  0  0  0  0  0  0  0
   -1.0913    0.5032   -1.1065 C   0  0  0  0  0  0  0  0  0  0  0  0
    7.0329   -3.3613   -2.5660 N   0  0  0  0  0  0  0  0  0  0  0  0
    8.1360   -3.9949   -2.1107 C   0  0  0  0  0  0  0  0  0  0  0  0
    9.4224   -3.1906   -2.1945 C   0  0  0  0  0  0  0  0  0  0  0  0
    8.1221   -5.1258   -1.6534 O   0  0  0  0  0  0  0  0  0  0  0  0
    5.7849   -4.9831   -2.9808 H   0  0  0  0  0  0  0  0  0  0  0  0
    3.8261   -3.6847   -4.1232 N   0  0  0  0  0  0  0  0  0  0  0  0
    2.9756   -3.0448   -5.1061 C   0  0  0  0  0  0  0  0  0  0  0  0
    5.8875   -4.5593   -0.5722 H   0  0  0  0  0  0  0  0  0  0  0  0
    5.0532   -3.0073   -0.7313 H   0  0  0  0  0  0  0  0  0  0  0  0
    1.4763   -4.3606   -0.2424 H   0  0  0  0  0  0  0  0  0  0  0  0
    2.6317   -3.2774    1.3388 H   0  0  0  0  0  0  0  0  0  0  0  0
    1.5510   -2.0667    0.6709 H   0  0  0  0  0  0  0  0  0  0  0  0
    3.9889   -1.9850    2.3958 H   0  0  0  0  0  0  0  0  0  0  0  0
    3.2831   -0.4185    1.9295 H   0  0  0  0  0  0  0  0  0  0  0  0
    5.6502   -0.1160    2.5199 H   0  0  0  0  0  0  0  0  0  0  0  0
    6.1422   -1.4039    1.4006 H   0  0  0  0  0  0  0  0  0  0  0  0
    6.5523    0.7960    0.3253 H   0  0  0  0  0  0  0  0  0  0  0  0
    4.8780    1.2852    0.6304 H   0  0  0  0  0  0  0  0  0  0  0  0
    5.7761   -1.0094   -1.2075 H   0  0  0  0  0  0  0  0  0  0  0  0
    5.0394    0.5099   -1.7150 H   0  0  0  0  0  0  0  0  0  0  0  0
    3.3770   -1.3557   -1.6608 H   0  0  0  0  0  0  0  0  0  0  0  0
    2.9371   -0.0241   -0.5777 H   0  0  0  0  0  0  0  0  0  0  0  0
    0.7021   -1.1599   -0.6202 H   0  0  0  0  0  0  0  0  0  0  0  0
    2.4016   -0.8014   -3.5585 H   0  0  0  0  0  0  0  0  0  0  0  0
    2.6914    0.7730   -2.7721 H   0  0  0  0  0  0  0  0  0  0  0  0
    3.4185    1.7421   -4.9529 H   0  0  0  0  0  0  0  0  0  0  0  0
    2.9508    0.2353   -5.7850 H   0  0  0  0  0  0  0  0  0  0  0  0
    4.3147    0.2082   -4.6419 H   0  0  0  0  0  0  0  0  0  0  0  0
   -0.6387    2.4698   -4.3892 H   0  0  0  0  0  0  0  0  0  0  0  0
   -4.2356    4.4597   -2.3145 H   0  0  0  0  0  0  0  0  0  0  0  0
   -2.5334    0.6890    0.8955 H   0  0  0  0  0  0  0  0  0  0  0  0
   -5.1866    3.2742    0.7962 H   0  0  0  0  0  0  0  0  0  0  0  0
   -4.6941    3.7025    5.2283 H   0  0  0  0  0  0  0  0  0  0  0  0
   -5.9055    6.8176    8.5146 H   0  0  0  0  0  0  0  0  0  0  0  0
   -5.0920    5.5871    9.4922 H   0  0  0  0  0  0  0  0  0  0  0  0
   -6.8475    5.8557    9.6883 H   0  0  0  0  0  0  0  0  0  0  0  0
   -8.2114    4.1519    8.6181 H   0  0  0  0  0  0  0  0  0  0  0  0
   -8.5225    2.4781    6.7635 H   0  0  0  0  0  0  0  0  0  0  0  0
   -4.8746    0.3152    4.7799 H   0  0  0  0  0  0  0  0  0  0  0  0
   -3.2782    0.0349    2.9002 H   0  0  0  0  0  0  0  0  0  0  0  0
   -1.2264   -0.1184   -0.2166 H   0  0  0  0  0  0  0  0  0  0  0  0
    7.0698   -2.4474   -3.0128 H   0  0  0  0  0  0  0  0  0  0  0  0
   10.1653   -3.7753   -2.7547 H   0  0  0  0  0  0  0  0  0  0  0  0
    9.8133   -3.0535   -1.1761 H   0  0  0  0  0  0  0  0  0  0  0  0
    9.2977   -2.2073   -2.6680 H   0  0  0  0  0  0  0  0  0  0  0  0
    3.4142   -4.4558   -3.6007 H   0  0  0  0  0  0  0  0  0  0  0  0
    3.4790   -2.1377   -5.4592 H   0  0  0  0  0  0  0  0  0  0  0  0
    1.9911   -2.7887   -4.6825 H   0  0  0  0  0  0  0  0  0  0  0  0
    2.8267   -3.7217   -5.9622 H   0  0  0  0  0  0  0  0  0  0  0  0
  1  2  2  0  0  0  0
  2  3  1  0  0  0  0
  3 52  1  6  0  0  0
  3 48  1  0  0  0  0
  3  4  1  0  0  0  0
  4  5  1  0  0  0  0
  4 56  1  0  0  0  0
  4 55  1  0  0  0  0
  5  6  1  0  0  0  0
  6 57  1  1  0  0  0
  6  7  1  0  0  0  0
  7 59  1  0  0  0  0
  7 58  1  0  0  0  0
  8  7  1  0  0  0  0
  8  9  1  0  0  0  0
  9 61  1  0  0  0  0
  9 60  1  0  0  0  0
 10  9  1  0  0  0  0
 10 62  1  0  0  0  0
 11 65  1  0  0  0  0
 11 10  1  0  0  0  0
 12 13  1  0  0  0  0
 12 11  1  0  0  0  0
 13 69  1  0  0  0  0
 13  8  1  0  0  0  0
 14 15  1  1  0  0  0
 14  6  1  0  0  0  0
 16 14  1  0  0  0  0
 16 18  1  0  0  0  0
 17 16  2  0  0  0  0
 18 70  1  0  0  0  0
 19 18  1  0  0  0  0
 19 47  1  0  0  0  0
 20 19  2  0  0  0  0
 21 22  1  0  0  0  0
 21 20  1  0  0  0  0
 22 71  1  0  0  0  0
 22 72  1  0  0  0  0
 23 75  1  0  0  0  0
 23 22  1  0  0  0  0
 24 20  1  0  0  0  0
 24 25  2  0  0  0  0
 25 46  1  0  0  0  0
 26 25  1  0  0  0  0
 26 27  2  0  0  0  0
 27 28  1  0  0  0  0
 28 29  2  0  0  0  0
 29 30  1  0  0  0  0
 30 78  1  0  0  0  0
 30 31  1  0  0  0  0
 31 45  1  0  0  0  0
 32 31  2  0  0  0  0
 32 33  1  0  0  0  0
 33 35  2  0  0  0  0
 34 33  1  0  0  0  0
 35 44  1  0  0  0  0
 35 36  1  0  0  0  0
 36 37  1  0  0  0  0
 37 38  2  0  0  0  0
 37 43  1  0  0  0  0
 38 39  1  0  0  0  0
 39 40  2  0  0  0  0
 40 41  1  0  0  0  0
 41 82  1  0  0  0  0
 41 83  1  0  0  0  0
 42 40  1  0  0  0  0
 42 84  1  0  0  0  0
 43 42  2  0  0  0  0
 44 86  1  0  0  0  0
 45 87  1  0  0  0  0
 45 44  2  0  0  0  0
 46 47  2  0  0  0  0
 46 29  1  0  0  0  0
 47 88  1  0  0  0  0
 48 49  1  0  0  0  0
 49 51  2  0  0  0  0
 50 49  1  0  0  0  0
 50 91  1  0  0  0  0
 53  2  1  0  0  0  0
 53 93  1  0  0  0  0
 54 95  1  0  0  0  0
 54 53  1  0  0  0  0
 63 10  1  0  0  0  0
 64 11  1  0  0  0  0
 66 12  1  0  0  0  0
 67 12  1  0  0  0  0
 68 13  1  0  0  0  0
 73 23  1  0  0  0  0
 74 23  1  0  0  0  0
 76 24  1  0  0  0  0
 77 27  1  0  0  0  0
 79 32  1  0  0  0  0
 80 38  1  0  0  0  0
 81 41  1  0  0  0  0
 85 43  1  0  0  0  0
 89 48  1  0  0  0  0
 90 50  1  0  0  0  0
 92 50  1  0  0  0  0
 94 54  1  0  0  0  0
 96 54  1  0  0  0  0
M  END
