89
-1 1
O         0.466312    5.068703    2.587726
C         1.471214    4.396611    2.740456
C         1.531147    2.907510    2.357263
C         2.353913    2.683937    1.074924
S         4.157936    2.780980    1.279714
C         4.489827    0.941344    1.749375
C         5.898311    0.908561    2.334466
N         6.892199    1.645475    1.578019
C         8.116180    1.826799    2.314154
C         7.120729    1.114113    0.256454
C         3.481597    0.336107    2.604636
F         3.455381    0.793260    3.924607
C         2.351219   -0.327604    2.131661
O         2.146096   -0.651056    0.937270
N         1.394745   -0.632420    3.137282
C         0.126110   -1.097761    2.957954
C        -0.688299   -1.251649    4.143169
O        -0.044239   -0.951369    5.283570
C        -0.732786   -0.882595    6.515314
C        -1.644377    0.327888    6.633218
C        -1.989580   -1.687851    4.057694
C        -2.571499   -1.994474    2.801547
N        -3.871799   -2.404074    2.745867
C        -4.344849   -2.662758    1.558713
N        -3.695342   -2.576601    0.377122
C        -2.436910   -2.188207    0.407218
N        -1.706465   -2.081391   -0.755693
C        -2.057247   -2.302320   -2.080465
C        -1.056062   -2.096814   -3.047776
C        -1.326734   -2.290903   -4.395085
Cl        -0.072753   -2.023436   -5.575206
C        -2.596383   -2.692257   -4.820649
O        -2.864700   -2.921710   -6.145883
C        -3.227149   -1.877134   -6.936918
C        -3.461586   -2.159136   -8.288551
N        -3.826936   -1.240051   -9.167997
C        -3.981394    0.027442   -8.765148
C        -4.392209    1.026294   -9.813712
C        -3.766394    0.393968   -7.434990
C        -3.384209   -0.565789   -6.499598
C        -3.582702   -2.896758   -3.861360
C        -3.333283   -2.710535   -2.506341
C        -1.776463   -1.859703    1.639470
C        -0.437043   -1.417898    1.732166
N         0.199247    2.387650    2.178934
C        -0.598354    2.115670    3.244385
C        -2.026969    1.754855    2.891993
O        -0.183977    2.147841    4.390614
H         1.992203    2.352070    3.185527
N         2.636834    4.882287    3.238139
C         2.824267    6.272427    3.555216
H         2.113984    1.688097    0.674415
H         2.081126    3.435173    0.315854
H         4.430245    0.405127    0.792978
H         6.179343   -0.164393    2.449132
H         5.853803    1.335404    3.348228
H         7.908601    2.314423    3.278765
H         8.807694    2.473103    1.750319
H         8.647920    0.868854    2.526708
H         6.186314    1.108040   -0.321684
H         7.526952    0.075532    0.272606
H         7.837962    1.750922   -0.284305
H         1.615743   -0.315874    4.073828
H         0.067376   -0.823846    7.266289
H        -1.278898   -1.827557    6.692824
H        -1.112674    1.223910    6.282912
H        -1.953306    0.456122    7.681818
H        -2.552245    0.221259    6.022589
H        -2.621363   -1.805121    4.936781
H        -5.389800   -2.990162    1.493943
H        -0.746965   -1.794676   -0.610858
H        -0.054135   -1.782823   -2.747271
H        -3.337406   -3.189599   -8.639020
H        -5.343184    0.723375  -10.277135
H        -3.640040    1.067311  -10.616016
H        -4.511019    2.034482   -9.393595
H        -3.894727    1.432731   -7.123572
H        -3.210338   -0.296915   -5.456181
H        -4.570897   -3.214330   -4.199957
H        -4.104503   -2.874004   -1.757881
H         0.231011   -1.291361    0.879504
H        -0.235787    2.505151    1.273999
H        -2.532362    2.625053    2.445378
H        -2.558031    1.455193    3.801983
H        -2.052736    0.924306    2.170649
H         3.446929    4.268141    3.187024
H         1.846286    6.766601    3.491279
H         3.514597    6.765835    2.850264
H         3.220695    6.398507    4.575456
