89
-1 1
O         0.157050    4.739598    2.535320
C         1.278273    4.293533    2.322674
C         1.501402    2.793822    2.023804
C         2.212317    2.519131    0.682382
S         3.974900    2.989984    0.597630
C         4.698976    0.376924    2.107404
C         5.976544    0.884144    2.702330
N         6.871278    1.613861    1.836734
C         8.079092    1.970311    2.526313
C         7.098237    1.021474    0.544492
C         3.635358    0.057739    2.850703
F         3.585906    0.382451    4.169335
C         2.423820   -0.612819    2.335505
O         2.337507   -1.023596    1.188000
N         1.433211   -0.745650    3.276242
C         0.146494   -1.215324    3.073519
C        -0.659726   -1.379769    4.253155
O        -0.011962   -1.122277    5.397207
C        -0.713419   -0.968671    6.618030
C        -1.551894    0.296878    6.671333
C        -1.970385   -1.786407    4.149271
C        -2.544609   -2.052417    2.882458
N        -3.851937   -2.439552    2.815289
C        -4.324059   -2.661348    1.620789
N        -3.674024   -2.555691    0.442758
C        -2.408383   -2.189211    0.478055
N        -1.687253   -2.063954   -0.682869
C        -2.052525   -2.250971   -2.015100
C        -1.050207   -2.047032   -2.979417
C        -1.327638   -2.208236   -4.330056
Cl        -0.071573   -1.948683   -5.506243
C        -2.608247   -2.571954   -4.758115
O        -2.887170   -2.769425   -6.084174
C        -3.206775   -1.698105   -6.860898
C        -3.449674   -1.950998   -8.216278
N        -3.777204   -1.004932   -9.081823
C        -3.881866    0.261539   -8.660180
C        -4.249068    1.291775   -9.694162
C        -3.655143    0.599375   -7.324247
C        -3.313146   -0.388921   -6.403205
C        -3.595769   -2.774097   -3.799971
C        -3.337620   -2.622274   -2.441910
C        -1.747388   -1.906951    1.723450
C        -0.399090   -1.490603    1.839295
N         0.207853    2.137306    2.036369
C        -0.458341    1.883418    3.191885
C        -1.952277    1.691320    3.024397
O         0.095397    1.796149    4.277488
H         2.099803    2.370318    2.843954
N         2.405636    5.030594    2.338341
C         2.377569    6.458816    2.493321
H         2.116168    1.437558    0.502521
H         1.638618    3.024534   -0.117628
H         4.637848    0.087000    1.059547
H         6.492303   -0.024863    3.114657
H         5.735300    1.512864    3.573528
H         7.839733    2.522668    3.448907
H         8.698285    2.625937    1.894970
H         8.703987    1.089054    2.817527
H         6.166397    1.024414   -0.038805
H         7.501301   -0.019172    0.599258
H         7.823984    1.633120   -0.011920
H         1.588348   -0.306381    4.179060
H         0.081043   -0.929205    7.375552
H        -1.314173   -1.873938    6.820896
H        -0.969011    1.138178    6.269148
H        -1.845342    0.502398    7.711581
H        -2.469414    0.208900    6.072233
H        -2.610435   -1.912749    5.021023
H        -5.373647   -2.971194    1.546851
H        -0.724043   -1.787395   -0.549492
H        -0.040573   -1.759127   -2.678328
H        -3.365580   -2.980086   -8.582339
H        -5.204626    1.028374  -10.171866
H        -3.487714    1.321864  -10.488231
H        -4.338277    2.295774   -9.257258
H        -3.741970    1.637550   -6.997266
H        -3.130551   -0.141348   -5.355999
H        -4.591851   -3.061720   -4.141680
H        -4.111520   -2.784709   -1.696695
H         0.260770   -1.356828    0.984055
H        -0.376794    2.363587    1.240699
H        -2.410820    2.680545    2.872833
H        -2.371399    1.231860    3.926015
H        -2.184072    1.058928    2.154113
H         3.238788    4.572447    1.921049
H         1.426275    6.745613    2.961053
H         2.457571    6.983257    1.524540
H         3.209566    6.794468    3.132139
