-1 1
 OpenBabel05232413493D

 87 89  0  0  1  0  0  0  0  0999 V2000
   -1.5130   -1.1323    2.2640 O   0  0  0  0  0  0  0  0  0  0  0  0
   -1.2572   -1.7919    3.2643 C   0  0  0  0  0  0  0  0  0  0  0  0
   -0.6613   -1.1744    4.5492 C   0  0  2  0  0  0  0  0  0  0  0  0
   -0.4842    0.3507    4.4072 C   0  0  0  0  0  0  0  0  0  0  0  0
    0.6422    1.0915    5.6415 S   0  0  0  0  0  1  0  0  0  0  0  0
    2.6741   -0.0266    2.4387 C   0  0  0  0  0  0  0  0  0  0  0  0
    1.7627   -1.0226    1.7843 C   0  0  0  0  0  0  0  0  0  0  0  0
    2.0334   -1.3277    0.3906 N   0  0  0  0  0  0  0  0  0  0  0  0
    0.9589   -2.1116   -0.1769 C   0  0  0  0  0  0  0  0  0  0  0  0
    3.3142   -1.9646    0.1786 C   0  0  0  0  0  0  0  0  0  0  0  0
    3.3551    0.9691    1.8801 C   0  0  0  0  0  0  0  0  0  0  0  0
    4.1836    1.7107    2.6346 F   0  0  0  0  0  0  0  0  0  0  0  0
    3.4560    1.3797    0.4340 C   0  0  0  0  0  0  0  0  0  0  0  0
    4.5181    1.3403   -0.1538 O   0  0  0  0  0  0  0  0  0  0  0  0
    2.3148    1.8219   -0.1749 N   0  0  0  0  0  0  0  0  0  0  0  0
    1.0073    1.8628    0.3538 C   0  0  0  0  0  0  0  0  0  0  0  0
    0.7135    2.6820    1.4959 C   0  0  0  0  0  0  0  0  0  0  0  0
    1.7423    3.3560    2.0068 O   0  0  0  0  0  0  0  0  0  0  0  0
    1.6032    3.9410    3.3008 C   0  0  0  0  0  0  0  0  0  0  0  0
    2.9342    4.5419    3.6857 C   0  0  0  0  0  0  0  0  0  0  0  0
   -0.5714    2.7034    1.9983 C   0  0  0  0  0  0  0  0  0  0  0  0
   -1.6000    1.9396    1.3987 C   0  0  0  0  0  0  0  0  0  0  0  0
   -2.8282    1.9255    1.9842 N   0  0  0  0  0  0  0  0  0  0  0  0
   -3.7082    1.1167    1.4624 C   0  0  0  0  0  0  0  0  0  0  0  0
   -3.5630    0.3348    0.3744 N   0  0  0  0  0  0  0  0  0  0  0  0
   -2.3957    0.3610   -0.2313 C   0  0  0  0  0  0  0  0  0  0  0  0
   -2.2695   -0.5205   -1.2978 N   0  0  0  0  0  0  0  0  0  0  0  0
   -1.6520   -0.3146   -2.5320 C   0  0  0  0  0  0  0  0  0  0  0  0
   -1.3019   -1.4344   -3.2976 C   0  0  0  0  0  0  0  0  0  0  0  0
   -0.7140   -1.2751   -4.5475 C   0  0  0  0  0  0  0  0  0  0  0  0
   -0.2748   -2.6946   -5.4656 Cl  0  0  0  0  0  0  0  0  0  0  0  0
   -0.4351   -0.0047   -5.0663 C   0  0  0  0  0  0  0  0  0  0  0  0
    0.1859    0.1628   -6.2645 O   0  0  0  0  0  0  0  0  0  0  0  0
   -0.6492    0.1381   -7.4126 C   0  0  0  0  0  0  0  0  0  0  0  0
   -1.6292    1.2822   -7.4688 C   0  0  0  0  0  0  0  0  0  0  0  0
   -1.1238    2.6689   -7.7475 C   0  0  0  0  0  0  0  0  0  0  0  0
   -1.9249    1.9393   -8.7892 C   0  0  0  0  0  0  0  0  0  0  0  0
   -0.7767    1.1033   -4.2878 C   0  0  0  0  0  0  0  0  0  0  0  0
   -1.3892    0.9628   -3.0493 C   0  0  0  0  0  0  0  0  0  0  0  0
   -1.3164    1.1628    0.2466 C   0  0  0  0  0  0  0  0  0  0  0  0
    0.0127    1.1321   -0.2415 C   0  0  0  0  0  0  0  0  0  0  0  0
    0.6338   -1.7431    4.8985 N   0  0  0  0  0  0  0  0  0  0  0  0
    0.8351   -2.9430    5.4697 C   0  0  0  0  0  0  0  0  0  0  0  0
    2.2256   -3.1558    6.0329 C   0  0  0  0  0  0  0  0  0  0  0  0
   -0.0012   -3.8475    5.5143 O   0  0  0  0  0  0  0  0  0  0  0  0
   -1.3704   -1.3922    5.3701 H   0  0  0  0  0  0  0  0  0  0  0  0
   -1.5057   -3.1161    3.3304 N   0  0  0  0  0  0  0  0  0  0  0  0
   -2.0033   -3.8329    2.1874 C   0  0  0  0  0  0  0  0  0  0  0  0
   -0.1004    0.5465    3.3973 H   0  0  0  0  0  0  0  0  0  0  0  0
   -1.4833    0.8091    4.4382 H   0  0  0  0  0  0  0  0  0  0  0  0
    2.7697   -0.1028    3.5269 H   0  0  0  0  0  0  0  0  0  0  0  0
    0.7294   -0.6472    1.8514 H   0  0  0  0  0  0  0  0  0  0  0  0
    1.7738   -1.9432    2.4116 H   0  0  0  0  0  0  0  0  0  0  0  0
   -0.0134   -1.6420    0.0312 H   0  0  0  0  0  0  0  0  0  0  0  0
    0.9202   -3.1439    0.2438 H   0  0  0  0  0  0  0  0  0  0  0  0
    1.0854   -2.1988   -1.2689 H   0  0  0  0  0  0  0  0  0  0  0  0
    4.1329   -1.3315    0.5464 H   0  0  0  0  0  0  0  0  0  0  0  0
    3.4761   -2.1230   -0.8987 H   0  0  0  0  0  0  0  0  0  0  0  0
    3.3838   -2.9554    0.6854 H   0  0  0  0  0  0  0  0  0  0  0  0
    2.4151    1.9198   -1.1789 H   0  0  0  0  0  0  0  0  0  0  0  0
    1.2931    3.1586    4.0215 H   0  0  0  0  0  0  0  0  0  0  0  0
    0.8196    4.7195    3.2613 H   0  0  0  0  0  0  0  0  0  0  0  0
    3.2451    5.3166    2.9680 H   0  0  0  0  0  0  0  0  0  0  0  0
    3.7039    3.7608    3.7162 H   0  0  0  0  0  0  0  0  0  0  0  0
    2.8537    4.9961    4.6838 H   0  0  0  0  0  0  0  0  0  0  0  0
   -0.8271    3.2534    2.9014 H   0  0  0  0  0  0  0  0  0  0  0  0
   -4.6904    1.0677    1.9481 H   0  0  0  0  0  0  0  0  0  0  0  0
   -2.9977   -1.2257   -1.2773 H   0  0  0  0  0  0  0  0  0  0  0  0
   -1.4713   -2.4371   -2.9029 H   0  0  0  0  0  0  0  0  0  0  0  0
   -1.1828   -0.8272   -7.4711 H   0  0  0  0  0  0  0  0  0  0  0  0
    0.0420    0.1902   -8.2668 H   0  0  0  0  0  0  0  0  0  0  0  0
   -2.4675    1.2035   -6.7694 H   0  0  0  0  0  0  0  0  0  0  0  0
   -0.0495    2.7876   -7.9132 H   0  0  0  0  0  0  0  0  0  0  0  0
   -1.5926    3.5035   -7.2210 H   0  0  0  0  0  0  0  0  0  0  0  0
   -1.3996    1.5691   -9.6745 H   0  0  0  0  0  0  0  0  0  0  0  0
   -2.9496    2.2651   -8.9824 H   0  0  0  0  0  0  0  0  0  0  0  0
   -0.5588    2.0935   -4.6918 H   0  0  0  0  0  0  0  0  0  0  0  0
   -1.6596    1.8474   -2.4718 H   0  0  0  0  0  0  0  0  0  0  0  0
    0.2943    0.4816   -1.0671 H   0  0  0  0  0  0  0  0  0  0  0  0
    1.2462   -0.9591    5.2073 H   0  0  0  0  0  0  0  0  0  0  0  0
    2.1422   -3.7290    6.9653 H   0  0  0  0  0  0  0  0  0  0  0  0
    2.7558   -2.2119    6.2188 H   0  0  0  0  0  0  0  0  0  0  0  0
    2.8086   -3.7570    5.3187 H   0  0  0  0  0  0  0  0  0  0  0  0
   -1.1505   -3.6118    4.1574 H   0  0  0  0  0  0  0  0  0  0  0  0
   -2.4217   -4.7961    2.5111 H   0  0  0  0  0  0  0  0  0  0  0  0
   -1.2148   -4.0282    1.4381 H   0  0  0  0  0  0  0  0  0  0  0  0
   -2.7897   -3.2462    1.6903 H   0  0  0  0  0  0  0  0  0  0  0  0
  1  2  2  0  0  0  0
  2 47  1  0  0  0  0
  2  3  1  0  0  0  0
  3 42  1  0  0  0  0
  3 46  1  1  0  0  0
  4 50  1  0  0  0  0
  4  3  1  0  0  0  0
  4  5  1  0  0  0  0
  6 51  1  0  0  0  0
  7 52  1  0  0  0  0
  7 53  1  0  0  0  0
  7  6  1  0  0  0  0
  8  7  1  0  0  0  0
  9 54  1  0  0  0  0
  9 55  1  0  0  0  0
  9  8  1  0  0  0  0
 10  8  1  0  0  0  0
 10 57  1  0  0  0  0
 10 59  1  0  0  0  0
 11  6  2  0  0  0  0
 11 12  1  0  0  0  0
 13 11  1  0  0  0  0
 14 13  2  0  0  0  0
 15 16  1  0  0  0  0
 15 13  1  0  0  0  0
 16 17  1  0  0  0  0
 17 21  2  0  0  0  0
 17 18  1  0  0  0  0
 18 19  1  0  0  0  0
 19 20  1  0  0  0  0
 19 61  1  0  0  0  0
 20 64  1  0  0  0  0
 20 65  1  0  0  0  0
 21 66  1  0  0  0  0
 22 23  1  0  0  0  0
 22 21  1  0  0  0  0
 24 67  1  0  0  0  0
 24 23  2  0  0  0  0
 25 24  1  0  0  0  0
 26 40  1  0  0  0  0
 26 25  2  0  0  0  0
 27 68  1  0  0  0  0
 27 26  1  0  0  0  0
 28 27  1  0  0  0  0
 29 69  1  0  0  0  0
 29 28  2  0  0  0  0
 30 29  1  0  0  0  0
 31 30  1  0  0  0  0
 32 30  2  0  0  0  0
 32 38  1  0  0  0  0
 33 32  1  0  0  0  0
 34 33  1  0  0  0  0
 35 34  1  0  0  0  0
 35 72  1  0  0  0  0
 36 35  1  0  0  0  0
 36 74  1  0  0  0  0
 37 36  1  0  0  0  0
 37 35  1  0  0  0  0
 38 39  2  0  0  0  0
 39 28  1  0  0  0  0
 39 78  1  0  0  0  0
 40 22  2  0  0  0  0
 41 40  1  0  0  0  0
 41 16  2  0  0  0  0
 42 80  1  0  0  0  0
 42 43  1  0  0  0  0
 43 45  2  0  0  0  0
 43 44  1  0  0  0  0
 44 82  1  0  0  0  0
 44 81  1  0  0  0  0
 47 84  1  0  0  0  0
 48 85  1  0  0  0  0
 48 47  1  0  0  0  0
 49  4  1  0  0  0  0
 56  9  1  0  0  0  0
 58 10  1  0  0  0  0
 60 15  1  0  0  0  0
 62 19  1  0  0  0  0
 63 20  1  0  0  0  0
 70 34  1  0  0  0  0
 71 34  1  0  0  0  0
 73 36  1  0  0  0  0
 75 37  1  0  0  0  0
 76 37  1  0  0  0  0
 77 38  1  0  0  0  0
 79 41  1  0  0  0  0
 83 44  1  0  0  0  0
 86 48  1  0  0  0  0
 87 48  1  0  0  0  0
M  END
