-1 1
 OpenBabel05192410563D

 87 90  0  0  1  0  0  0  0  0999 V2000
    4.5114   -3.6660    4.8614 O   0  0  0  0  0  0  0  0  0  0  0  0
    3.7455   -2.8159    5.2845 C   0  0  0  0  0  0  0  0  0  0  0  0
    2.4697   -2.3846    4.5230 C   0  0  2  0  0  0  0  0  0  0  0  0
    2.2154   -3.3332    3.3546 C   0  0  0  0  0  0  0  0  0  0  0  0
    0.5529   -3.2217    2.6262 S   0  0  0  0  0  0  0  0  0  0  0  0
    0.9119   -2.3659    0.9314 C   0  0  1  0  0  0  0  0  0  0  0  0
   -0.3096   -2.7764    0.0904 C   0  0  0  0  0  0  0  0  0  0  0  0
   -0.4354   -2.0873   -1.1873 N   0  0  0  0  0  0  0  0  0  0  0  0
   -1.6563   -2.4484   -1.8710 C   0  0  0  0  0  0  0  0  0  0  0  0
    0.7303   -2.2176   -2.0366 C   0  0  0  0  0  0  0  0  0  0  0  0
    1.2880   -0.9545    0.9819 C   0  0  2  0  0  3  0  0  0  0  0  0
    2.6475   -0.8053    1.3120 F   0  0  0  0  0  0  0  0  0  0  0  0
    0.5346    0.2121    1.1281 C   0  0  0  0  0  0  0  0  0  0  0  0
    0.9402    1.3336    1.4703 O   0  0  0  0  0  0  0  0  0  0  0  0
   -0.8404    0.0524    0.7185 N   0  0  0  0  0  0  0  0  0  0  0  0
   -1.6815    1.1399    0.6950 C   0  0  0  0  0  0  0  0  0  0  0  0
   -1.9173    1.9232    1.8874 C   0  0  0  0  0  0  0  0  0  0  0  0
   -1.4269    1.4087    3.0151 O   0  0  0  0  0  0  0  0  0  0  0  0
   -1.6750    2.0529    4.2418 C   0  0  0  0  0  0  0  0  0  0  0  0
   -1.2439    1.1388    5.3666 C   0  0  0  0  0  0  0  0  0  0  0  0
   -2.6845    3.0677    1.8164 C   0  0  0  0  0  0  0  0  0  0  0  0
   -3.3279    3.4525    0.6106 C   0  0  0  0  0  0  0  0  0  0  0  0
   -4.1173    4.5609    0.6085 N   0  0  0  0  0  0  0  0  0  0  0  0
   -4.7328    4.8329   -0.5129 C   0  0  0  0  0  0  0  0  0  0  0  0
   -4.6315    4.1733   -1.6801 N   0  0  0  0  0  0  0  0  0  0  0  0
   -3.8478    3.1076   -1.7114 C   0  0  0  0  0  0  0  0  0  0  0  0
   -3.8003    2.4728   -2.9448 N   0  0  0  0  0  0  0  0  0  0  0  0
   -2.7531    1.7636   -3.5459 C   0  0  0  0  0  0  0  0  0  0  0  0
   -3.0715    0.7676   -4.4767 C   0  0  0  0  0  0  0  0  0  0  0  0
   -2.0627    0.0212   -5.0764 C   0  0  0  0  0  0  0  0  0  0  0  0
   -2.4889   -1.2294   -6.2192 Cl  0  0  0  0  0  0  0  0  0  0  0  0
   -0.7174    0.2163   -4.7428 C   0  0  0  0  0  0  0  0  0  0  0  0
    0.2555   -0.5885   -5.2466 O   0  0  0  0  0  0  0  0  0  0  0  0
    0.8815   -0.1621   -6.4473 C   0  0  0  0  0  0  0  0  0  0  0  0
    1.7088    1.0878   -6.2885 C   0  0  0  0  0  0  0  0  0  0  0  0
    2.9830    1.0234   -5.4959 C   0  0  0  0  0  0  0  0  0  0  0  0
    3.0374    1.1909   -6.9880 C   0  0  0  0  0  0  0  0  0  0  0  0
   -0.4108    1.2180   -3.8187 C   0  0  0  0  0  0  0  0  0  0  0  0
   -1.4030    2.0060   -3.2514 C   0  0  0  0  0  0  0  0  0  0  0  0
   -3.1768    2.6355   -0.5427 C   0  0  0  0  0  0  0  0  0  0  0  0
   -2.3770    1.4678   -0.4488 C   0  0  0  0  0  0  0  0  0  0  0  0
    2.5679   -1.0052    4.0818 N   0  0  0  0  0  0  0  0  0  0  0  0
    2.3123    0.0464    4.8880 C   0  0  0  0  0  0  0  0  0  0  0  0
    2.3763    1.3994    4.2281 C   0  0  0  0  0  0  0  0  0  0  0  0
    2.0697   -0.0903    6.0912 O   0  0  0  0  0  0  0  0  0  0  0  0
    1.6296   -2.4466    5.2368 H   0  0  0  0  0  0  0  0  0  0  0  0
    3.9098   -2.1687    6.4641 N   0  0  0  0  0  0  0  0  0  0  0  0
    5.0757   -2.3492    7.2850 C   0  0  0  0  0  0  0  0  0  0  0  0
    2.9700   -3.1730    2.5704 H   0  0  0  0  0  0  0  0  0  0  0  0
    2.3603   -4.3594    3.7140 H   0  0  0  0  0  0  0  0  0  0  0  0
    1.7900   -2.9312    0.5810 H   0  0  0  0  0  0  0  0  0  0  0  0
   -1.2251   -2.5663    0.6664 H   0  0  0  0  0  0  0  0  0  0  0  0
   -0.2671   -3.8785   -0.0527 H   0  0  0  0  0  0  0  0  0  0  0  0
   -2.5249   -2.2409   -1.2260 H   0  0  0  0  0  0  0  0  0  0  0  0
   -1.6941   -3.5235   -2.1577 H   0  0  0  0  0  0  0  0  0  0  0  0
   -1.7624   -1.8496   -2.7893 H   0  0  0  0  0  0  0  0  0  0  0  0
    1.6043   -1.7858   -1.5303 H   0  0  0  0  0  0  0  0  0  0  0  0
    0.5749   -1.6702   -2.9775 H   0  0  0  0  0  0  0  0  0  0  0  0
    0.9473   -3.2792   -2.2937 H   0  0  0  0  0  0  0  0  0  0  0  0
   -0.8724   -0.5029   -0.1424 H   0  0  0  0  0  0  0  0  0  0  0  0
   -2.7537    2.2813    4.3312 H   0  0  0  0  0  0  0  0  0  0  0  0
   -1.1291    3.0138    4.2712 H   0  0  0  0  0  0  0  0  0  0  0  0
   -0.1682    0.9276    5.3411 H   0  0  0  0  0  0  0  0  0  0  0  0
   -1.7793    0.1807    5.3034 H   0  0  0  0  0  0  0  0  0  0  0  0
   -1.4755    1.6066    6.3352 H   0  0  0  0  0  0  0  0  0  0  0  0
   -2.8706    3.6955    2.6857 H   0  0  0  0  0  0  0  0  0  0  0  0
   -5.3994    5.7047   -0.5195 H   0  0  0  0  0  0  0  0  0  0  0  0
   -4.5167    2.8294   -3.5675 H   0  0  0  0  0  0  0  0  0  0  0  0
   -4.1153    0.5510   -4.7078 H   0  0  0  0  0  0  0  0  0  0  0  0
    0.1199   -0.0246   -7.2359 H   0  0  0  0  0  0  0  0  0  0  0  0
    1.5234   -1.0046   -6.7437 H   0  0  0  0  0  0  0  0  0  0  0  0
    1.1322    2.0144   -6.2061 H   0  0  0  0  0  0  0  0  0  0  0  0
    3.2622    0.0544   -5.0734 H   0  0  0  0  0  0  0  0  0  0  0  0
    3.2407    1.8770   -4.8650 H   0  0  0  0  0  0  0  0  0  0  0  0
    3.3673    0.3384   -7.5890 H   0  0  0  0  0  0  0  0  0  0  0  0
    3.3289    2.1623   -7.3940 H   0  0  0  0  0  0  0  0  0  0  0  0
    0.6350    1.3638   -3.5446 H   0  0  0  0  0  0  0  0  0  0  0  0
   -1.1331    2.7808   -2.5337 H   0  0  0  0  0  0  0  0  0  0  0  0
   -2.2438    0.8142   -1.3073 H   0  0  0  0  0  0  0  0  0  0  0  0
    2.6817   -0.8354    3.0798 H   0  0  0  0  0  0  0  0  0  0  0  0
    3.4160    1.6058    3.9282 H   0  0  0  0  0  0  0  0  0  0  0  0
    2.0600    2.1596    4.9528 H   0  0  0  0  0  0  0  0  0  0  0  0
    1.7646    1.4391    3.3067 H   0  0  0  0  0  0  0  0  0  0  0  0
    3.2361   -1.4245    6.6706 H   0  0  0  0  0  0  0  0  0  0  0  0
    4.8016   -2.6222    8.3172 H   0  0  0  0  0  0  0  0  0  0  0  0
    5.6944   -1.4365    7.3244 H   0  0  0  0  0  0  0  0  0  0  0  0
    5.6756   -3.1603    6.8518 H   0  0  0  0  0  0  0  0  0  0  0  0
  1  2  2  0  0  0  0
  2 47  1  0  0  0  0
  3 46  1  1  0  0  0
  3  2  1  0  0  0  0
  4 50  1  0  0  0  0
  4  3  1  0  0  0  0
  5  4  1  0  0  0  0
  6 51  1  6  0  0  0
  6 11  1  0  0  0  0
  6  5  1  0  0  0  0
  7 52  1  0  0  0  0
  7  6  1  0  0  0  0
  8  7  1  0  0  0  0
  9 54  1  0  0  0  0
  9  8  1  0  0  0  0
 10 57  1  0  0  0  0
 10  8  1  0  0  0  0
 11 13  1  0  0  0  0
 11 12  1  1  0  0  0
 13 14  2  0  0  0  0
 15 13  1  0  0  0  0
 16 15  1  0  0  0  0
 16 17  1  0  0  0  0
 17 18  1  0  0  0  0
 18 19  1  0  0  0  0
 19 62  1  0  0  0  0
 19 61  1  0  0  0  0
 19 20  1  0  0  0  0
 20 65  1  0  0  0  0
 21 17  2  0  0  0  0
 21 66  1  0  0  0  0
 22 21  1  0  0  0  0
 23 22  1  0  0  0  0
 24 23  2  0  0  0  0
 25 24  1  0  0  0  0
 26 25  2  0  0  0  0
 26 40  1  0  0  0  0
 27 26  1  0  0  0  0
 28 39  1  0  0  0  0
 28 27  1  0  0  0  0
 29 28  2  0  0  0  0
 30 32  2  0  0  0  0
 30 29  1  0  0  0  0
 31 30  1  0  0  0  0
 32 38  1  0  0  0  0
 33 32  1  0  0  0  0
 34 35  1  0  0  0  0
 34 33  1  0  0  0  0
 35 72  1  0  0  0  0
 35 36  1  0  0  0  0
 36 73  1  0  0  0  0
 36 74  1  0  0  0  0
 37 35  1  0  0  0  0
 37 36  1  0  0  0  0
 38 77  1  0  0  0  0
 38 39  2  0  0  0  0
 39 78  1  0  0  0  0
 40 41  1  0  0  0  0
 40 22  2  0  0  0  0
 41 16  2  0  0  0  0
 42  3  1  0  0  0  0
 42 43  1  0  0  0  0
 43 45  2  0  0  0  0
 44 43  1  0  0  0  0
 44 82  1  0  0  0  0
 47 84  1  0  0  0  0
 47 48  1  0  0  0  0
 48 86  1  0  0  0  0
 48 85  1  0  0  0  0
 49  4  1  0  0  0  0
 53  7  1  0  0  0  0
 55  9  1  0  0  0  0
 56  9  1  0  0  0  0
 58 10  1  0  0  0  0
 59 10  1  0  0  0  0
 60 15  1  0  0  0  0
 63 20  1  0  0  0  0
 64 20  1  0  0  0  0
 67 24  1  0  0  0  0
 68 27  1  0  0  0  0
 69 29  1  0  0  0  0
 70 34  1  0  0  0  0
 71 34  1  0  0  0  0
 75 37  1  0  0  0  0
 76 37  1  0  0  0  0
 79 41  1  0  0  0  0
 80 42  1  0  0  0  0
 81 44  1  0  0  0  0
 83 44  1  0  0  0  0
 87 48  1  0  0  0  0
M  END
