87
-1 1
O        -1.512986   -1.132276    2.264016
C        -1.257230   -1.791914    3.264333
C        -0.661327   -1.174440    4.549224
C        -0.484206    0.350691    4.407230
S         0.642206    1.091479    5.641485
C         2.674108   -0.026643    2.438687
C         1.762711   -1.022589    1.784301
N         2.033377   -1.327715    0.390575
C         0.958945   -2.111556   -0.176945
C         3.314170   -1.964578    0.178643
C         3.355130    0.969134    1.880088
F         4.183638    1.710665    2.634553
C         3.455969    1.379725    0.434026
O         4.518131    1.340299   -0.153755
N         2.314840    1.821925   -0.174888
C         1.007340    1.862844    0.353782
C         0.713536    2.682015    1.495872
O         1.742331    3.355991    2.006840
C         1.603193    3.941047    3.300761
C         2.934164    4.541867    3.685704
C        -0.571362    2.703420    1.998331
C        -1.599958    1.939604    1.398687
N        -2.828209    1.925484    1.984248
C        -3.708240    1.116669    1.462385
N        -3.563021    0.334774    0.374418
C        -2.395709    0.361044   -0.231285
N        -2.269491   -0.520498   -1.297771
C        -1.651951   -0.314552   -2.532025
C        -1.301937   -1.434351   -3.297616
C        -0.714037   -1.275079   -4.547469
Cl        -0.274824   -2.694631   -5.465638
C        -0.435148   -0.004744   -5.066301
O         0.185870    0.162823   -6.264487
C        -0.649201    0.138073   -7.412599
C        -1.629170    1.282157   -7.468820
C        -1.123832    2.668922   -7.747525
C        -1.924927    1.939281   -8.789230
C        -0.776694    1.103295   -4.287834
C        -1.389200    0.962847   -3.049322
C        -1.316361    1.162757    0.246566
C         0.012685    1.132065   -0.241545
N         0.633801   -1.743101    4.898490
C         0.835089   -2.942998    5.469671
C         2.225554   -3.155792    6.032924
O        -0.001224   -3.847515    5.514335
H        -1.370396   -1.392187    5.370070
N        -1.505686   -3.116135    3.330392
C        -2.003348   -3.832905    2.187389
H        -0.100431    0.546503    3.397265
H        -1.483254    0.809149    4.438176
H         2.769722   -0.102806    3.526906
H         0.729355   -0.647159    1.851401
H         1.773766   -1.943212    2.411634
H        -0.013431   -1.642046    0.031209
H         0.920199   -3.143922    0.243834
H         1.085440   -2.198846   -1.268851
H         4.132861   -1.331491    0.546378
H         3.476064   -2.123031   -0.898703
H         3.383789   -2.955395    0.685442
H         2.415110    1.919840   -1.178914
H         1.293055    3.158635    4.021492
H         0.819591    4.719550    3.261307
H         3.245122    5.316608    2.968019
H         3.703901    3.760759    3.716206
H         2.853662    4.996120    4.683814
H        -0.827124    3.253392    2.901383
H        -4.690368    1.067660    1.948082
H        -2.997678   -1.225742   -1.277301
H        -1.471338   -2.437056   -2.902869
H        -1.182755   -0.827201   -7.471051
H         0.041960    0.190163   -8.266759
H        -2.467459    1.203481   -6.769390
H        -0.049515    2.787558   -7.913151
H        -1.592618    3.503515   -7.221031
H        -1.399633    1.569149   -9.674489
H        -2.949551    2.265118   -8.982363
H        -0.558812    2.093474   -4.691832
H        -1.659634    1.847430   -2.471795
H         0.294304    0.481565   -1.067128
H         1.246249   -0.959108    5.207318
H         2.142199   -3.729040    6.965314
H         2.755780   -2.211903    6.218791
H         2.808627   -3.757009    5.318735
H        -1.150491   -3.611831    4.157406
H        -2.421659   -4.796059    2.511052
H        -1.214798   -4.028170    1.438079
H        -2.789696   -3.246242    1.690339
