-1 1
 OpenBabel05232414493D

 66 65  0  0  1  0  0  0  0  0999 V2000
    1.0295   -5.2587    3.4376 O   0  0  0  0  0  0  0  0  0  0  0  0
    1.0346   -4.0869    3.8018 C   0  0  0  0  0  0  0  0  0  0  0  0
    2.2442   -3.1832    3.5289 C   0  0  2  0  0  0  0  0  0  0  0  0
    1.9240   -2.4201    2.2237 C   0  0  0  0  0  0  0  0  0  0  0  0
    3.0074   -1.0670    1.7379 S   0  0  0  0  0  1  0  0  0  0  0  0
    1.8373    0.5583    3.1998 C   0  0  0  0  0  3  0  0  0  0  0  0
    0.9708   -0.0619    4.0765 C   0  0  0  0  0  3  0  0  0  0  0  0
   -0.4486   -0.2794    3.9607 C   0  0  0  0  0  0  0  0  0  0  0  0
   -1.1603    0.1234    2.8201 N   0  0  0  0  0  0  0  0  0  0  0  0
   -0.8151   -0.3052    1.4707 C   0  0  0  0  0  0  0  0  0  0  0  0
   -1.3304   -1.6903    1.1940 C   0  0  0  0  0  0  0  0  0  0  0  0
   -2.0903   -2.0431    0.1513 C   0  0  0  0  0  0  0  0  0  0  0  0
   -2.5665   -3.4237   -0.0878 C   0  0  0  0  0  0  0  0  0  0  0  0
   -3.8310   -3.6588   -0.6629 C   0  0  0  0  0  0  0  0  0  0  0  0
   -4.7297   -2.5314   -1.0513 C   0  0  0  0  0  0  0  0  0  0  0  0
   -5.9414   -2.6546   -0.4974 O   0  0  0  0  0  0  0  0  0  0  0  0
   -6.9502   -1.7086   -0.8664 C   0  0  0  0  0  0  0  0  0  0  0  0
   -7.5619   -2.1133   -2.1995 C   0  0  0  0  0  0  0  0  0  0  0  0
   -7.9502   -1.6856    0.2744 C   0  0  0  0  0  0  0  0  0  0  0  0
   -4.4222   -1.6042   -1.7607 O   0  0  0  0  0  0  0  0  0  0  0  0
   -4.2535   -4.9861   -0.8679 C   0  0  0  0  0  0  0  0  0  0  0  0
   -5.4502   -5.1948   -1.4665 O   0  0  0  0  0  0  0  0  0  0  0  0
   -3.4438   -6.0529   -0.5009 C   0  0  0  0  0  0  0  0  0  0  0  0
   -2.1914   -5.8193    0.0830 C   0  0  0  0  0  0  0  0  0  0  0  0
   -1.4768   -6.9126    0.3828 O   0  0  0  0  0  0  0  0  0  0  0  0
   -0.1764   -6.7631    0.9165 C   0  0  0  0  0  0  0  0  0  0  0  0
   -1.7574   -4.5071    0.2891 C   0  0  0  0  0  0  0  0  0  0  0  0
   -1.0958   -0.7895    4.8914 O   0  0  0  0  0  0  0  0  0  0  0  0
    3.4210   -4.0116    3.4803 N   0  0  0  0  0  0  0  0  0  0  0  0
    4.6638   -3.7694    3.9789 C   0  0  0  0  0  0  0  0  0  0  0  0
    4.8803   -2.4235    4.6409 C   0  0  0  0  0  0  0  0  0  0  0  0
    5.5499   -4.6044    3.9025 O   0  0  0  0  0  0  0  0  0  0  0  0
    2.3379   -2.4456    4.3360 H   0  0  0  0  0  0  0  0  0  0  0  0
   -0.0404   -3.4980    4.3600 N   0  0  0  0  0  0  0  0  0  0  0  0
   -1.3105   -4.1749    4.4586 C   0  0  0  0  0  0  0  0  0  0  0  0
    1.8332   -3.1526    1.4041 H   0  0  0  0  0  0  0  0  0  0  0  0
    0.9236   -1.9966    2.3880 H   0  0  0  0  0  0  0  0  0  0  0  0
   -2.1445   -0.0421    3.0146 H   0  0  0  0  0  0  0  0  0  0  0  0
    0.2792   -0.2936    1.3398 H   0  0  0  0  0  0  0  0  0  0  0  0
   -1.2263    0.4057    0.7352 H   0  0  0  0  0  0  0  0  0  0  0  0
   -1.0692   -2.4403    1.9503 H   0  0  0  0  0  0  0  0  0  0  0  0
   -2.4028   -1.2874   -0.5743 H   0  0  0  0  0  0  0  0  0  0  0  0
   -6.4700   -0.7233   -0.9722 H   0  0  0  0  0  0  0  0  0  0  0  0
   -7.9755   -3.1308   -2.1332 H   0  0  0  0  0  0  0  0  0  0  0  0
   -6.8002   -2.0941   -2.9908 H   0  0  0  0  0  0  0  0  0  0  0  0
   -8.3682   -1.4179   -2.4778 H   0  0  0  0  0  0  0  0  0  0  0  0
   -8.4118   -2.6764    0.4031 H   0  0  0  0  0  0  0  0  0  0  0  0
   -8.7446   -0.9527    0.0702 H   0  0  0  0  0  0  0  0  0  0  0  0
   -7.4545   -1.4111    1.2162 H   0  0  0  0  0  0  0  0  0  0  0  0
   -5.5850   -6.1414   -1.5625 H   0  0  0  0  0  0  0  0  0  0  0  0
   -3.7525   -7.0861   -0.6782 H   0  0  0  0  0  0  0  0  0  0  0  0
    0.2185   -7.7777    1.0467 H   0  0  0  0  0  0  0  0  0  0  0  0
   -0.1717   -6.2511    1.8910 H   0  0  0  0  0  0  0  0  0  0  0  0
    0.4789   -6.2123    0.2208 H   0  0  0  0  0  0  0  0  0  0  0  0
   -0.7761   -4.3069    0.7178 H   0  0  0  0  0  0  0  0  0  0  0  0
    3.2803   -4.9364    3.0848 H   0  0  0  0  0  0  0  0  0  0  0  0
    4.6090   -1.6120    3.9475 H   0  0  0  0  0  0  0  0  0  0  0  0
    5.9367   -2.3534    4.9249 H   0  0  0  0  0  0  0  0  0  0  0  0
    4.2568   -2.3269    5.5443 H   0  0  0  0  0  0  0  0  0  0  0  0
   -0.0325   -2.5177    4.6433 H   0  0  0  0  0  0  0  0  0  0  0  0
   -1.6328   -4.5604    3.4770 H   0  0  0  0  0  0  0  0  0  0  0  0
   -2.0487   -3.4452    4.8135 H   0  0  0  0  0  0  0  0  0  0  0  0
   -1.2683   -5.0273    5.1557 H   0  0  0  0  0  0  0  0  0  0  0  0
    2.8152    0.8678    3.5655 H   0  0  0  0  0  0  0  0  0  0  0  0
    1.4604    1.1395    2.3571 H   0  0  0  0  0  0  0  0  0  0  0  0
    1.3710   -0.4494    5.0180 H   0  0  0  0  0  0  0  0  0  0  0  0
  1  2  2  0  0  0  0
  2 34  1  0  0  0  0
  3  2  1  0  0  0  0
  3 33  1  1  0  0  0
  4 37  1  0  0  0  0
  4  3  1  0  0  0  0
  5  4  1  0  0  0  0
  6 64  1  0  0  0  0
  6  7  1  0  0  0  0
  7 66  1  0  0  0  0
  8  7  1  0  0  0  0
  8 28  2  0  0  0  0
  9 38  1  0  0  0  0
  9  8  1  0  0  0  0
 10  9  1  0  0  0  0
 11 10  1  0  0  0  0
 11 41  1  0  0  0  0
 12 11  2  0  0  0  0
 13 12  1  0  0  0  0
 13 27  1  0  0  0  0
 14 13  2  0  0  0  0
 15 14  1  0  0  0  0
 15 16  1  0  0  0  0
 17 16  1  0  0  0  0
 17 19  1  0  0  0  0
 18 44  1  0  0  0  0
 18 17  1  0  0  0  0
 19 47  1  0  0  0  0
 19 49  1  0  0  0  0
 20 15  2  0  0  0  0
 21 14  1  0  0  0  0
 21 23  2  0  0  0  0
 22 21  1  0  0  0  0
 23 24  1  0  0  0  0
 24 27  2  0  0  0  0
 24 25  1  0  0  0  0
 25 26  1  0  0  0  0
 26 52  1  0  0  0  0
 26 53  1  0  0  0  0
 27 55  1  0  0  0  0
 29  3  1  0  0  0  0
 29 30  1  0  0  0  0
 30 31  1  0  0  0  0
 31 58  1  0  0  0  0
 31 59  1  0  0  0  0
 32 30  2  0  0  0  0
 34 35  1  0  0  0  0
 34 60  1  0  0  0  0
 35 62  1  0  0  0  0
 35 63  1  0  0  0  0
 36  4  1  0  0  0  0
 39 10  1  0  0  0  0
 40 10  1  0  0  0  0
 42 12  1  0  0  0  0
 43 17  1  0  0  0  0
 45 18  1  0  0  0  0
 46 18  1  0  0  0  0
 48 19  1  0  0  0  0
 50 22  1  0  0  0  0
 51 23  1  0  0  0  0
 54 26  1  0  0  0  0
 56 29  1  0  0  0  0
 57 31  1  0  0  0  0
 61 35  1  0  0  0  0
 65  6  1  0  0  0  0
M  END
