-1 1
 OpenBabel05192410563D

 66 66  0  0  1  0  0  0  0  0999 V2000
    2.1486   -2.2126    1.4954 O   0  0  0  0  0  0  0  0  0  0  0  0
    2.0414   -1.0657    1.9301 C   0  0  0  0  0  0  0  0  0  0  0  0
    3.2500   -0.1211    1.8927 C   0  0  2  0  0  0  0  0  0  0  0  0
    3.2358    0.6184    0.5384 C   0  0  0  0  0  0  0  0  0  0  0  0
    4.2287    2.1304    0.4310 S   0  0  0  0  0  0  0  0  0  0  0  0
    3.0931    3.4140    1.3273 C   0  0  0  0  0  0  0  0  0  0  0  0
    2.1259    2.8448    2.2678 C   0  0  0  0  0  3  0  0  0  0  0  0
    0.7672    2.6289    2.0761 C   0  0  0  0  0  0  0  0  0  0  0  0
    0.0868    3.1648    0.9222 N   0  0  0  0  0  0  0  0  0  0  0  0
    0.3463    2.6154   -0.3983 C   0  0  0  0  0  0  0  0  0  0  0  0
   -0.1738    1.2133   -0.5787 C   0  0  0  0  0  0  0  0  0  0  0  0
   -0.9815    0.8245   -1.5729 C   0  0  0  0  0  0  0  0  0  0  0  0
   -1.4939   -0.5526   -1.7449 C   0  0  0  0  0  0  0  0  0  0  0  0
   -2.7992   -0.7729   -2.2268 C   0  0  0  0  0  0  0  0  0  0  0  0
   -3.6992    0.3646   -2.5835 C   0  0  0  0  0  0  0  0  0  0  0  0
   -4.8570    0.3022   -1.9167 O   0  0  0  0  0  0  0  0  0  0  0  0
   -5.8659    1.2695   -2.2258 C   0  0  0  0  0  0  0  0  0  0  0  0
   -6.6162    0.8375   -3.4770 C   0  0  0  0  0  0  0  0  0  0  0  0
   -6.7490    1.3715   -0.9964 C   0  0  0  0  0  0  0  0  0  0  0  0
   -3.4337    1.2485   -3.3616 O   0  0  0  0  0  0  0  0  0  0  0  0
   -3.2663   -2.0926   -2.3651 C   0  0  0  0  0  0  0  0  0  0  0  0
   -4.5087   -2.2839   -2.8702 O   0  0  0  0  0  0  0  0  0  0  0  0
   -2.4574   -3.1698   -2.0280 C   0  0  0  0  0  0  0  0  0  0  0  0
   -1.1618   -2.9519   -1.5407 C   0  0  0  0  0  0  0  0  0  0  0  0
   -0.4556   -4.0565   -1.2591 O   0  0  0  0  0  0  0  0  0  0  0  0
    0.8917   -3.9296   -0.8510 C   0  0  0  0  0  0  0  0  0  0  0  0
   -0.6835   -1.6460   -1.4009 C   0  0  0  0  0  0  0  0  0  0  0  0
    0.0332    1.9973    2.8956 O   0  0  0  0  0  0  0  0  0  0  0  0
    4.4458   -0.8980    2.1059 N   0  0  0  0  0  0  0  0  0  0  0  0
    5.4850   -0.6489    2.9501 C   0  0  0  0  0  0  0  0  0  0  0  0
    5.4524    0.6684    3.7008 C   0  0  0  0  0  0  0  0  0  0  0  0
    6.3918   -1.4514    3.0931 O   0  0  0  0  0  0  0  0  0  0  0  0
    3.1342    0.6221    2.6850 H   0  0  0  0  0  0  0  0  0  0  0  0
    0.8967   -0.5529    2.3993 N   0  0  0  0  0  0  0  0  0  0  0  0
   -0.3282   -1.3153    2.3747 C   0  0  0  0  0  0  0  0  0  0  0  0
    3.6051   -0.0593   -0.2461 H   0  0  0  0  0  0  0  0  0  0  0  0
    2.2014    0.8738    0.2909 H   0  0  0  0  0  0  0  0  0  0  0  0
   -0.9012    3.0496    1.1378 H   0  0  0  0  0  0  0  0  0  0  0  0
    1.4305    2.6276   -0.5937 H   0  0  0  0  0  0  0  0  0  0  0  0
   -0.1030    3.2704   -1.1649 H   0  0  0  0  0  0  0  0  0  0  0  0
    0.1125    0.4992    0.2024 H   0  0  0  0  0  0  0  0  0  0  0  0
   -1.3214    1.5598   -2.3079 H   0  0  0  0  0  0  0  0  0  0  0  0
   -5.3665    2.2321   -2.4168 H   0  0  0  0  0  0  0  0  0  0  0  0
   -7.0549   -0.1609   -3.3302 H   0  0  0  0  0  0  0  0  0  0  0  0
   -5.9340    0.7989   -4.3371 H   0  0  0  0  0  0  0  0  0  0  0  0
   -7.4224    1.5510   -3.7055 H   0  0  0  0  0  0  0  0  0  0  0  0
   -7.2285    0.4038   -0.7839 H   0  0  0  0  0  0  0  0  0  0  0  0
   -7.5349    2.1251   -1.1532 H   0  0  0  0  0  0  0  0  0  0  0  0
   -6.1551    1.6623   -0.1186 H   0  0  0  0  0  0  0  0  0  0  0  0
   -4.6780   -3.2284   -2.9211 H   0  0  0  0  0  0  0  0  0  0  0  0
   -2.8018   -4.1993   -2.1534 H   0  0  0  0  0  0  0  0  0  0  0  0
    1.2634   -4.9515   -0.7079 H   0  0  0  0  0  0  0  0  0  0  0  0
    1.0031   -3.3698    0.0908 H   0  0  0  0  0  0  0  0  0  0  0  0
    1.4961   -3.4369   -1.6320 H   0  0  0  0  0  0  0  0  0  0  0  0
    0.3260   -1.4590   -1.0359 H   0  0  0  0  0  0  0  0  0  0  0  0
    4.4400   -1.8208    1.6799 H   0  0  0  0  0  0  0  0  0  0  0  0
    5.3405    1.5134    3.0054 H   0  0  0  0  0  0  0  0  0  0  0  0
    6.3890    0.7583    4.2628 H   0  0  0  0  0  0  0  0  0  0  0  0
    4.6056    0.6968    4.4044 H   0  0  0  0  0  0  0  0  0  0  0  0
    0.7860    0.4368    2.7127 H   0  0  0  0  0  0  0  0  0  0  0  0
   -0.5410   -1.7101    1.3682 H   0  0  0  0  0  0  0  0  0  0  0  0
   -1.1416   -0.6394    2.6672 H   0  0  0  0  0  0  0  0  0  0  0  0
   -0.2927   -2.1710    3.0690 H   0  0  0  0  0  0  0  0  0  0  0  0
    3.8534    4.0473    1.8096 H   0  0  0  0  0  0  0  0  0  0  0  0
    2.6148    4.0023    0.5328 H   0  0  0  0  0  0  0  0  0  0  0  0
    2.5064    2.4716    3.2227 H   0  0  0  0  0  0  0  0  0  0  0  0
  1  2  2  0  0  0  0
  2 34  1  0  0  0  0
  3  2  1  0  0  0  0
  3 29  1  0  0  0  0
  3 33  1  1  0  0  0
  4  3  1  0  0  0  0
  5  4  1  0  0  0  0
  5  6  1  0  0  0  0
  6 64  1  0  0  0  0
  6  7  1  0  0  0  0
  7 66  1  0  0  0  0
  8  7  1  0  0  0  0
  8 28  2  0  0  0  0
  9 38  1  0  0  0  0
  9  8  1  0  0  0  0
 10  9  1  0  0  0  0
 11 10  1  0  0  0  0
 11 41  1  0  0  0  0
 12 11  2  0  0  0  0
 13 12  1  0  0  0  0
 13 27  1  0  0  0  0
 14 13  2  0  0  0  0
 15 14  1  0  0  0  0
 15 16  1  0  0  0  0
 17 16  1  0  0  0  0
 17 19  1  0  0  0  0
 18 44  1  0  0  0  0
 18 17  1  0  0  0  0
 19 47  1  0  0  0  0
 19 49  1  0  0  0  0
 20 15  2  0  0  0  0
 21 14  1  0  0  0  0
 21 23  2  0  0  0  0
 22 21  1  0  0  0  0
 23 24  1  0  0  0  0
 24 27  2  0  0  0  0
 24 25  1  0  0  0  0
 25 26  1  0  0  0  0
 26 52  1  0  0  0  0
 26 53  1  0  0  0  0
 27 55  1  0  0  0  0
 29 30  1  0  0  0  0
 30 32  2  0  0  0  0
 30 31  1  0  0  0  0
 31 58  1  0  0  0  0
 31 59  1  0  0  0  0
 34 60  1  0  0  0  0
 35 34  1  0  0  0  0
 35 62  1  0  0  0  0
 35 63  1  0  0  0  0
 36  4  1  0  0  0  0
 37  4  1  0  0  0  0
 39 10  1  0  0  0  0
 40 10  1  0  0  0  0
 42 12  1  0  0  0  0
 43 17  1  0  0  0  0
 45 18  1  0  0  0  0
 46 18  1  0  0  0  0
 48 19  1  0  0  0  0
 50 22  1  0  0  0  0
 51 23  1  0  0  0  0
 54 26  1  0  0  0  0
 56 29  1  0  0  0  0
 57 31  1  0  0  0  0
 61 35  1  0  0  0  0
 65  6  1  0  0  0  0
M  END
