66
-1 1
O         1.029549   -5.258667    3.437553
C         1.034632   -4.086860    3.801763
C         2.244179   -3.183192    3.528884
C         1.923968   -2.420098    2.223719
S         3.007356   -1.067047    1.737852
C         1.837292    0.558347    3.199781
C         0.970767   -0.061867    4.076525
C        -0.448638   -0.279450    3.960653
N        -1.160314    0.123386    2.820130
C        -0.815113   -0.305183    1.470680
C        -1.330356   -1.690301    1.193981
C        -2.090305   -2.043146    0.151283
C        -2.566453   -3.423701   -0.087779
C        -3.830970   -3.658831   -0.662942
C        -4.729717   -2.531392   -1.051319
O        -5.941388   -2.654646   -0.497405
C        -6.950211   -1.708591   -0.866448
C        -7.561860   -2.113271   -2.199505
C        -7.950169   -1.685610    0.274407
O        -4.422247   -1.604171   -1.760691
C        -4.253525   -4.986109   -0.867884
O        -5.450215   -5.194779   -1.466546
C        -3.443817   -6.052921   -0.500901
C        -2.191409   -5.819326    0.083013
O        -1.476810   -6.912598    0.382761
C        -0.176411   -6.763068    0.916496
C        -1.757376   -4.507094    0.289133
O        -1.095781   -0.789473    4.891446
N         3.421015   -4.011649    3.480333
C         4.663785   -3.769439    3.978873
C         4.880310   -2.423475    4.640892
O         5.549870   -4.604417    3.902465
H         2.337912   -2.445552    4.336034
N        -0.040395   -3.498017    4.360039
C        -1.310474   -4.174940    4.458565
H         1.833234   -3.152607    1.404099
H         0.923570   -1.996561    2.387954
H        -2.144549   -0.042125    3.014636
H         0.279179   -0.293554    1.339763
H        -1.226337    0.405679    0.735194
H        -1.069220   -2.440278    1.950332
H        -2.402840   -1.287436   -0.574285
H        -6.469966   -0.723322   -0.972200
H        -7.975467   -3.130774   -2.133209
H        -6.800212   -2.094053   -2.990794
H        -8.368201   -1.417920   -2.477790
H        -8.411777   -2.676427    0.403083
H        -8.744631   -0.952685    0.070168
H        -7.454547   -1.411142    1.216199
H        -5.584968   -6.141368   -1.562542
H        -3.752540   -7.086079   -0.678210
H         0.218482   -7.777727    1.046715
H        -0.171742   -6.251109    1.890952
H         0.478906   -6.212345    0.220825
H        -0.776050   -4.306884    0.717777
H         3.280281   -4.936387    3.084809
H         4.608958   -1.611972    3.947537
H         5.936687   -2.353390    4.924932
H         4.256839   -2.326905    5.544318
H        -0.032507   -2.517729    4.643264
H        -1.632850   -4.560372    3.476960
H        -2.048700   -3.445160    4.813544
H        -1.268329   -5.027273    5.155741
H         2.815170    0.867842    3.565533
H         1.460435    1.139529    2.357085
H         1.371004   -0.449390    5.018014
