-1 1
 OpenBabel05232413493D

 77 78  0  0  1  0  0  0  0  0999 V2000
   -2.4422    1.9901    3.4779 O   0  0  0  0  0  0  0  0  0  0  0  0
   -2.4587    1.0484    2.7034 C   0  0  0  0  0  0  0  0  0  0  0  0
   -1.2082    0.6113    1.9388 C   0  0  2  0  0  0  0  0  0  0  0  0
   -0.1747    0.0260    2.9174 C   0  0  0  0  0  0  0  0  0  0  0  0
    1.4012   -0.3715    2.0911 S   0  0  0  0  0  1  0  0  0  0  0  0
    3.8702    1.8304    0.4731 C   0  0  0  0  0  3  0  0  0  0  0  0
    3.6899    0.6071   -0.3205 C   0  0  0  0  0  0  0  0  0  0  0  0
    4.0674   -0.6058    0.2678 C   0  0  0  0  0  0  0  0  0  0  0  0
    3.6440   -1.8167   -0.2719 C   0  0  0  0  0  0  0  0  0  0  0  0
    3.8371   -3.1122    0.4720 C   0  0  0  0  0  0  0  0  0  0  0  0
    3.5084   -3.0220    1.7856 N   0  0  0  0  0  0  0  0  0  0  0  0
    4.2283   -4.1323   -0.0702 O   0  0  0  0  0  0  0  0  0  0  0  0
    2.8828   -1.8235   -1.4412 C   0  0  0  0  0  0  0  0  0  0  0  0
    2.4940   -0.6264   -2.0410 C   0  0  0  0  0  0  0  0  0  0  0  0
    1.4620   -0.6140   -3.1418 C   0  0  0  0  0  0  0  0  0  0  0  0
    0.2446    0.0621   -2.7031 N   0  0  0  0  0  0  0  0  0  0  0  0
   -0.7970    0.0987   -3.7063 C   0  0  0  0  0  0  0  0  0  0  0  0
   -1.5465   -1.2327   -3.8912 C   0  0  0  0  0  0  0  0  0  0  0  0
   -2.0053   -1.7537   -2.6190 N   0  0  0  0  0  0  0  0  0  0  0  0
   -1.0039   -1.7619   -1.5536 C   0  0  0  0  0  0  0  0  0  0  0  0
   -0.3328   -0.4022   -1.4428 C   0  0  0  0  0  0  0  0  0  0  0  0
   -3.1707   -2.4612   -2.4898 C   0  0  0  0  0  0  0  0  0  0  0  0
   -3.4974   -2.8813   -1.2574 N   0  0  0  0  0  0  0  0  0  0  0  0
   -4.6369   -3.5322   -1.0654 C   0  0  0  0  0  0  0  0  0  0  0  0
   -5.5471   -3.8310   -2.0739 C   0  0  0  0  0  0  0  0  0  0  0  0
   -5.2047   -3.4274   -3.3667 C   0  0  0  0  0  0  0  0  0  0  0  0
   -4.0186   -2.7508   -3.5932 C   0  0  0  0  0  0  0  0  0  0  0  0
    2.9182    0.5804   -1.4851 C   0  0  0  0  0  0  0  0  0  0  0  0
    2.9672    2.8192    0.4897 C   0  0  0  0  0  3  0  0  0  0  0  0
    2.9185    3.7984    1.5923 C   0  0  0  0  0  0  0  0  0  0  0  0
    3.8209    4.1326    2.3185 O   0  0  0  0  0  0  0  0  0  0  0  0
    1.6492    4.2185    1.7435 O   0  0  0  0  0  0  0  0  0  0  0  0
    1.2997    4.9030    2.9418 C   0  0  0  0  0  0  0  0  0  0  0  0
   -0.2091    4.9017    3.0566 C   0  0  0  0  0  0  0  0  0  0  0  0
   -0.6512    1.7363    1.2249 N   0  0  0  0  0  0  0  0  0  0  0  0
   -1.3373    2.3093    0.2159 C   0  0  0  0  0  0  0  0  0  0  0  0
   -0.5571    3.2625   -0.6626 C   0  0  0  0  0  0  0  0  0  0  0  0
   -2.5113    2.0381   -0.0179 O   0  0  0  0  0  0  0  0  0  0  0  0
   -1.4615   -0.1743    1.2102 H   0  0  0  0  0  0  0  0  0  0  0  0
   -3.5729    0.2762    2.5492 N   0  0  0  0  0  0  0  0  0  0  0  0
   -3.8462   -0.6194    1.4418 C   0  0  0  0  0  0  0  0  0  0  0  0
   -0.0223    0.7592    3.7258 H   0  0  0  0  0  0  0  0  0  0  0  0
   -0.6327   -0.8674    3.3720 H   0  0  0  0  0  0  0  0  0  0  0  0
    4.6069   -0.5980    1.2173 H   0  0  0  0  0  0  0  0  0  0  0  0
    2.8734   -2.2743    2.1054 H   0  0  0  0  0  0  0  0  0  0  0  0
    3.5003   -3.8940    2.3003 H   0  0  0  0  0  0  0  0  0  0  0  0
    2.5276   -2.7802   -1.8333 H   0  0  0  0  0  0  0  0  0  0  0  0
    1.2920   -1.6600   -3.4751 H   0  0  0  0  0  0  0  0  0  0  0  0
    1.8408   -0.0657   -4.0225 H   0  0  0  0  0  0  0  0  0  0  0  0
   -0.3728    0.4071   -4.6763 H   0  0  0  0  0  0  0  0  0  0  0  0
   -1.5326    0.8637   -3.4037 H   0  0  0  0  0  0  0  0  0  0  0  0
   -0.9022   -1.9738   -4.4078 H   0  0  0  0  0  0  0  0  0  0  0  0
   -2.4030   -1.0376   -4.5491 H   0  0  0  0  0  0  0  0  0  0  0  0
   -0.2579   -2.5569   -1.7505 H   0  0  0  0  0  0  0  0  0  0  0  0
   -1.5005   -2.0115   -0.6108 H   0  0  0  0  0  0  0  0  0  0  0  0
    0.4159   -0.4174   -0.6348 H   0  0  0  0  0  0  0  0  0  0  0  0
   -1.1092    0.3230   -1.1586 H   0  0  0  0  0  0  0  0  0  0  0  0
   -4.8396   -3.8386   -0.0318 H   0  0  0  0  0  0  0  0  0  0  0  0
   -6.4725   -4.3668   -1.8597 H   0  0  0  0  0  0  0  0  0  0  0  0
   -5.8630   -3.6520   -4.2103 H   0  0  0  0  0  0  0  0  0  0  0  0
   -3.7471   -2.4672   -4.6085 H   0  0  0  0  0  0  0  0  0  0  0  0
    2.5646    1.5150   -1.9279 H   0  0  0  0  0  0  0  0  0  0  0  0
    1.7132    5.9253    2.9067 H   0  0  0  0  0  0  0  0  0  0  0  0
    1.7744    4.3895    3.7923 H   0  0  0  0  0  0  0  0  0  0  0  0
   -0.6663    5.4229    2.2019 H   0  0  0  0  0  0  0  0  0  0  0  0
   -0.5115    5.4241    3.9765 H   0  0  0  0  0  0  0  0  0  0  0  0
   -0.6143    3.8785    3.0915 H   0  0  0  0  0  0  0  0  0  0  0  0
    0.3653    1.8112    1.2825 H   0  0  0  0  0  0  0  0  0  0  0  0
    0.1523    3.8660   -0.0815 H   0  0  0  0  0  0  0  0  0  0  0  0
   -1.2631    3.9084   -1.1984 H   0  0  0  0  0  0  0  0  0  0  0  0
   -0.0007    2.6610   -1.4025 H   0  0  0  0  0  0  0  0  0  0  0  0
   -4.3658    0.6489    3.0575 H   0  0  0  0  0  0  0  0  0  0  0  0
   -3.6831   -0.1227    0.4730 H   0  0  0  0  0  0  0  0  0  0  0  0
   -4.8967   -0.9361    1.5003 H   0  0  0  0  0  0  0  0  0  0  0  0
   -3.2292   -1.5302    1.4767 H   0  0  0  0  0  0  0  0  0  0  0  0
    2.0913    2.7810   -0.1581 H   0  0  0  0  0  0  0  0  0  0  0  0
    4.6691    1.8436    1.2215 H   0  0  0  0  0  0  0  0  0  0  0  0
  2  1  2  0  0  0  0
  3 39  1  6  0  0  0
  3  2  1  0  0  0  0
  3  4  1  0  0  0  0
  4 43  1  0  0  0  0
  4 42  1  0  0  0  0
  5  4  1  0  0  0  0
  6 29  1  0  0  0  0
  6 77  1  0  0  0  0
  7  8  1  0  0  0  0
  7  6  1  0  0  0  0
  8 44  1  0  0  0  0
  9  8  2  0  0  0  0
  9 10  1  0  0  0  0
 10 11  1  0  0  0  0
 11 45  1  0  0  0  0
 11 46  1  0  0  0  0
 12 10  2  0  0  0  0
 13  9  1  0  0  0  0
 14 28  1  0  0  0  0
 14 13  2  0  0  0  0
 15 16  1  0  0  0  0
 15 14  1  0  0  0  0
 16 21  1  0  0  0  0
 17 51  1  0  0  0  0
 17 16  1  0  0  0  0
 18 17  1  0  0  0  0
 18 19  1  0  0  0  0
 19 22  1  0  0  0  0
 19 20  1  0  0  0  0
 20 21  1  0  0  0  0
 20 55  1  0  0  0  0
 21 57  1  0  0  0  0
 21 56  1  0  0  0  0
 22 23  1  0  0  0  0
 23 24  2  0  0  0  0
 24 58  1  0  0  0  0
 25 59  1  0  0  0  0
 25 24  1  0  0  0  0
 26 25  2  0  0  0  0
 27 26  1  0  0  0  0
 27 22  2  0  0  0  0
 28  7  2  0  0  0  0
 29 30  1  0  0  0  0
 30 32  1  0  0  0  0
 30 31  2  0  0  0  0
 32 33  1  0  0  0  0
 33 34  1  0  0  0  0
 33 64  1  0  0  0  0
 34 67  1  0  0  0  0
 34 66  1  0  0  0  0
 35 68  1  0  0  0  0
 35  3  1  0  0  0  0
 36 35  1  0  0  0  0
 37 69  1  0  0  0  0
 37 36  1  0  0  0  0
 38 36  2  0  0  0  0
 40  2  1  0  0  0  0
 40 72  1  0  0  0  0
 41 75  1  0  0  0  0
 41 74  1  0  0  0  0
 41 40  1  0  0  0  0
 47 13  1  0  0  0  0
 48 15  1  0  0  0  0
 49 15  1  0  0  0  0
 50 17  1  0  0  0  0
 52 18  1  0  0  0  0
 53 18  1  0  0  0  0
 54 20  1  0  0  0  0
 60 26  1  0  0  0  0
 61 27  1  0  0  0  0
 62 28  1  0  0  0  0
 63 33  1  0  0  0  0
 65 34  1  0  0  0  0
 70 37  1  0  0  0  0
 71 37  1  0  0  0  0
 73 41  1  0  0  0  0
 76 29  1  0  0  0  0
M  END
