-1 1
 OpenBabel05192410563D

 77 79  0  0  1  0  0  0  0  0999 V2000
   -2.1071    3.1982    3.2865 O   0  0  0  0  0  0  0  0  0  0  0  0
   -2.2778    2.0984    2.7932 C   0  0  0  0  0  0  0  0  0  0  0  0
   -1.1156    1.3034    2.1789 C   0  0  2  0  0  0  0  0  0  0  0  0
   -0.0506    1.0774    3.2633 C   0  0  0  0  0  0  0  0  0  0  0  0
    1.2038   -0.1640    2.8556 S   0  0  0  0  0  0  0  0  0  0  0  0
    2.6305    0.7832    1.9201 C   0  0  1  0  0  0  0  0  0  0  0  0
    2.8945   -0.1051    0.7294 C   0  0  0  0  0  0  0  0  0  0  0  0
    4.0275   -0.9044    0.6100 C   0  0  0  0  0  0  0  0  0  0  0  0
    4.1890   -1.7558   -0.4962 C   0  0  0  0  0  0  0  0  0  0  0  0
    5.3750   -2.6621   -0.6584 C   0  0  0  0  0  0  0  0  0  0  0  0
    6.0977   -2.9081    0.4763 N   0  0  0  0  0  0  0  0  0  0  0  0
    5.6845   -3.1571   -1.7270 O   0  0  0  0  0  0  0  0  0  0  0  0
    3.2117   -1.7931   -1.4911 C   0  0  0  0  0  0  0  0  0  0  0  0
    2.0710   -0.9906   -1.3910 C   0  0  0  0  0  0  0  0  0  0  0  0
    0.9880   -1.0221   -2.4542 C   0  0  0  0  0  0  0  0  0  0  0  0
   -0.2759   -0.5010   -1.9756 N   0  0  0  0  0  0  0  0  0  0  0  0
   -1.2185   -0.0640   -2.9791 C   0  0  0  0  0  0  0  0  0  0  0  0
   -1.9592   -1.2092   -3.6787 C   0  0  0  0  0  0  0  0  0  0  0  0
   -2.5409   -2.1257   -2.7142 N   0  0  0  0  0  0  0  0  0  0  0  0
   -1.6737   -2.5204   -1.6058 C   0  0  0  0  0  0  0  0  0  0  0  0
   -0.9728   -1.3143   -0.9904 C   0  0  0  0  0  0  0  0  0  0  0  0
   -3.6062   -2.9238   -3.0492 C   0  0  0  0  0  0  0  0  0  0  0  0
   -3.9994   -3.8307   -2.1420 N   0  0  0  0  0  0  0  0  0  0  0  0
   -5.0507   -4.5993   -2.3958 C   0  0  0  0  0  0  0  0  0  0  0  0
   -5.7944   -4.5449   -3.5696 C   0  0  0  0  0  0  0  0  0  0  0  0
   -5.3776   -3.6248   -4.5346 C   0  0  0  0  0  0  0  0  0  0  0  0
   -4.2823   -2.8134   -4.2941 C   0  0  0  0  0  0  0  0  0  0  0  0
    1.9360   -0.1580   -0.2879 C   0  0  0  0  0  0  0  0  0  0  0  0
    2.3712    2.1811    1.5192 C   0  0  0  0  0  3  0  0  0  0  0  0
    2.4072    3.2304    2.4509 C   0  0  0  0  0  0  0  0  0  0  0  0
    2.4706    3.1536    3.6793 O   0  0  0  0  0  0  0  0  0  0  0  0
    2.2898    4.4745    1.8349 O   0  0  0  0  0  0  0  0  0  0  0  0
    1.8428    5.5356    2.6446 C   0  0  0  0  0  0  0  0  0  0  0  0
    0.3313    5.6855    2.5631 C   0  0  0  0  0  0  0  0  0  0  0  0
   -0.5352    2.0302    1.0787 N   0  0  0  0  0  0  0  0  0  0  0  0
   -1.1517    2.1965   -0.1011 C   0  0  0  0  0  0  0  0  0  0  0  0
   -0.3262    2.9172   -1.1460 C   0  0  0  0  0  0  0  0  0  0  0  0
   -2.2852    1.7775   -0.3408 O   0  0  0  0  0  0  0  0  0  0  0  0
   -1.4688    0.3242    1.8222 H   0  0  0  0  0  0  0  0  0  0  0  0
   -3.4968    1.4893    2.8286 N   0  0  0  0  0  0  0  0  0  0  0  0
   -3.9245    0.3450    2.0484 C   0  0  0  0  0  0  0  0  0  0  0  0
    0.4437    2.0216    3.5333 H   0  0  0  0  0  0  0  0  0  0  0  0
   -0.5418    0.6978    4.1715 H   0  0  0  0  0  0  0  0  0  0  0  0
    4.7942   -0.8415    1.3872 H   0  0  0  0  0  0  0  0  0  0  0  0
    5.7223   -2.7052    1.3909 H   0  0  0  0  0  0  0  0  0  0  0  0
    6.8422   -3.5876    0.4014 H   0  0  0  0  0  0  0  0  0  0  0  0
    3.3583   -2.4716   -2.3355 H   0  0  0  0  0  0  0  0  0  0  0  0
    0.9249   -2.0544   -2.8634 H   0  0  0  0  0  0  0  0  0  0  0  0
    1.3062   -0.3870   -3.2996 H   0  0  0  0  0  0  0  0  0  0  0  0
   -0.7012    0.5442   -3.7385 H   0  0  0  0  0  0  0  0  0  0  0  0
   -1.9544    0.5857   -2.4752 H   0  0  0  0  0  0  0  0  0  0  0  0
   -1.2796   -1.7504   -4.3707 H   0  0  0  0  0  0  0  0  0  0  0  0
   -2.7542   -0.7601   -4.2885 H   0  0  0  0  0  0  0  0  0  0  0  0
   -0.9290   -3.2598   -1.9644 H   0  0  0  0  0  0  0  0  0  0  0  0
   -2.2883   -3.0291   -0.8561 H   0  0  0  0  0  0  0  0  0  0  0  0
   -0.2706   -1.6507   -0.2135 H   0  0  0  0  0  0  0  0  0  0  0  0
   -1.7172   -0.6662   -0.5002 H   0  0  0  0  0  0  0  0  0  0  0  0
   -5.3188   -5.3143   -1.6083 H   0  0  0  0  0  0  0  0  0  0  0  0
   -6.6511   -5.2013   -3.7268 H   0  0  0  0  0  0  0  0  0  0  0  0
   -5.9050   -3.5444   -5.4888 H   0  0  0  0  0  0  0  0  0  0  0  0
   -3.9520   -2.1155   -5.0606 H   0  0  0  0  0  0  0  0  0  0  0  0
    1.0334    0.4424   -0.1871 H   0  0  0  0  0  0  0  0  0  0  0  0
    2.3442    6.4476    2.2779 H   0  0  0  0  0  0  0  0  0  0  0  0
    2.1573    5.3589    3.6847 H   0  0  0  0  0  0  0  0  0  0  0  0
    0.0148    5.8769    1.5254 H   0  0  0  0  0  0  0  0  0  0  0  0
   -0.0118    6.5265    3.1879 H   0  0  0  0  0  0  0  0  0  0  0  0
   -0.1813    4.7740    2.9070 H   0  0  0  0  0  0  0  0  0  0  0  0
    0.4636    2.3037    1.1981 H   0  0  0  0  0  0  0  0  0  0  0  0
    0.4087    3.5978   -0.6941 H   0  0  0  0  0  0  0  0  0  0  0  0
   -0.9980    3.4683   -1.8165 H   0  0  0  0  0  0  0  0  0  0  0  0
    0.2110    2.1559   -1.7325 H   0  0  0  0  0  0  0  0  0  0  0  0
   -4.2106    2.0817    3.2357 H   0  0  0  0  0  0  0  0  0  0  0  0
   -3.6282    0.4617    0.9950 H   0  0  0  0  0  0  0  0  0  0  0  0
   -5.0198    0.2795    2.1002 H   0  0  0  0  0  0  0  0  0  0  0  0
   -3.5192   -0.6020    2.4410 H   0  0  0  0  0  0  0  0  0  0  0  0
    2.4234    2.4329    0.4584 H   0  0  0  0  0  0  0  0  0  0  0  0
    3.4385    0.6993    2.6622 H   0  0  0  0  0  0  0  0  0  0  0  0
  2 40  1  0  0  0  0
  2  1  2  0  0  0  0
  3 39  1  6  0  0  0
  3  2  1  0  0  0  0
  3  4  1  0  0  0  0
  4 42  1  0  0  0  0
  4 43  1  0  0  0  0
  5  4  1  0  0  0  0
  6 77  1  1  0  0  0
  6  5  1  0  0  0  0
  7  6  1  0  0  0  0
  8  7  1  0  0  0  0
  8 44  1  0  0  0  0
  9  8  2  0  0  0  0
 10  9  1  0  0  0  0
 10 11  1  0  0  0  0
 11 45  1  0  0  0  0
 12 10  2  0  0  0  0
 13 14  2  0  0  0  0
 13  9  1  0  0  0  0
 14 28  1  0  0  0  0
 15 16  1  0  0  0  0
 15 14  1  0  0  0  0
 16 21  1  0  0  0  0
 17 51  1  0  0  0  0
 17 16  1  0  0  0  0
 18 17  1  0  0  0  0
 18 19  1  0  0  0  0
 19 20  1  0  0  0  0
 20 21  1  0  0  0  0
 20 55  1  0  0  0  0
 21 57  1  0  0  0  0
 21 56  1  0  0  0  0
 22 19  1  0  0  0  0
 22 23  1  0  0  0  0
 24 23  2  0  0  0  0
 24 58  1  0  0  0  0
 25 24  1  0  0  0  0
 26 27  1  0  0  0  0
 26 25  2  0  0  0  0
 27 22  2  0  0  0  0
 28 62  1  0  0  0  0
 28  7  2  0  0  0  0
 29  6  1  0  0  0  0
 29 30  1  0  0  0  0
 30 31  2  0  0  0  0
 32 30  1  0  0  0  0
 32 33  1  0  0  0  0
 33 64  1  0  0  0  0
 34 33  1  0  0  0  0
 34 67  1  0  0  0  0
 34 66  1  0  0  0  0
 35 68  1  0  0  0  0
 35  3  1  0  0  0  0
 36 35  1  0  0  0  0
 37 69  1  0  0  0  0
 37 36  1  0  0  0  0
 38 36  2  0  0  0  0
 40 72  1  0  0  0  0
 41 74  1  0  0  0  0
 41 75  1  0  0  0  0
 41 40  1  0  0  0  0
 46 11  1  0  0  0  0
 47 13  1  0  0  0  0
 48 15  1  0  0  0  0
 49 15  1  0  0  0  0
 50 17  1  0  0  0  0
 52 18  1  0  0  0  0
 53 18  1  0  0  0  0
 54 20  1  0  0  0  0
 59 25  1  0  0  0  0
 60 26  1  0  0  0  0
 61 27  1  0  0  0  0
 63 33  1  0  0  0  0
 65 34  1  0  0  0  0
 70 37  1  0  0  0  0
 71 37  1  0  0  0  0
 73 41  1  0  0  0  0
 76 29  1  0  0  0  0
M  END
