-1 1
 OpenBabel05192410563D

 88 89  0  0  1  0  0  0  0  0999 V2000
    1.3717    3.7039    1.1286 O   0  0  0  0  0  0  0  0  0  0  0  0
    0.8901    3.6850   -0.0033 C   0  0  0  0  0  0  0  0  0  0  0  0
    1.7838    3.4605   -1.2228 C   0  0  2  0  0  0  0  0  0  0  0  0
    2.5639    2.1424   -1.1253 C   0  0  0  0  0  0  0  0  0  0  0  0
    1.5652    0.6384   -0.9392 S   0  0  0  0  0  0  0  0  0  0  0  0
    0.9098    0.3412   -2.7327 C   0  0  1  0  0  0  0  0  0  0  0  0
    0.3112    1.5369   -3.3576 C   0  0  0  0  0  3  0  0  0  0  0  0
   -0.8213    2.2312   -2.9266 C   0  0  0  0  0  0  0  0  0  0  0  0
   -1.8787    1.5809   -2.2557 N   0  0  0  0  0  0  0  0  0  0  0  0
   -2.2869    0.2157   -2.4775 C   0  0  0  0  0  0  0  0  0  0  0  0
   -1.8823   -0.7235   -1.3658 C   0  0  0  0  0  0  0  0  0  0  0  0
   -1.8569   -2.0593   -1.4438 C   0  0  0  0  0  0  0  0  0  0  0  0
   -1.3884   -2.9244   -0.3394 C   0  0  0  0  0  0  0  0  0  0  0  0
   -1.9527   -4.1956   -0.1034 C   0  0  0  0  0  0  0  0  0  0  0  0
   -3.0519   -4.7239   -0.9633 C   0  0  0  0  0  0  0  0  0  0  0  0
   -4.0852   -5.1490   -0.2289 O   0  0  0  0  0  0  0  0  0  0  0  0
   -5.1917   -5.8293   -0.8376 C   0  0  0  0  0  0  0  0  0  0  0  0
   -6.0018   -4.9094   -1.7420 C   0  0  0  0  0  0  0  0  0  0  0  0
   -4.7542   -7.1267   -1.5053 C   0  0  0  0  0  0  0  0  0  0  0  0
   -3.0328   -4.7519   -2.1713 O   0  0  0  0  0  0  0  0  0  0  0  0
   -1.4616   -4.9679    0.9670 C   0  0  0  0  0  0  0  0  0  0  0  0
   -1.9646   -6.2127    1.1508 O   0  0  0  0  0  0  0  0  0  0  0  0
   -0.4603   -4.4791    1.7983 C   0  0  0  0  0  0  0  0  0  0  0  0
    0.0841   -3.2079    1.5745 C   0  0  0  0  0  0  0  0  0  0  0  0
    1.0492   -2.8240    2.4239 O   0  0  0  0  0  0  0  0  0  0  0  0
    1.5568   -1.4951    2.3771 C   0  0  0  0  0  0  0  0  0  0  0  0
    0.5858   -0.4861    2.9725 C   0  0  0  0  0  0  0  0  0  0  0  0
    1.1433    0.9350    2.9578 C   0  0  0  0  0  0  0  0  0  0  0  0
    2.4489    1.0350    3.5947 N   0  0  0  0  0  0  0  0  0  0  0  0
    3.2411    2.1920    3.1969 C   0  0  0  0  0  0  0  0  0  0  0  0
    2.8293    3.4603    3.9366 C   0  0  0  0  0  0  0  0  0  0  0  0
    2.8738    3.2702    5.3395 O   0  0  0  0  0  0  0  0  0  0  0  0
    2.0491    2.2092    5.7430 C   0  0  0  0  0  0  0  0  0  0  0  0
    2.4457    0.9091    5.0427 C   0  0  0  0  0  0  0  0  0  0  0  0
   -0.3720   -2.4452    0.4974 C   0  0  0  0  0  0  0  0  0  0  0  0
   -0.9798    3.4902   -3.0277 O   0  0  0  0  0  0  0  0  0  0  0  0
    2.0420   -0.2579   -3.5594 C   0  0  0  0  0  0  0  0  0  0  0  0
    2.6839    4.5900   -1.3382 N   0  0  0  0  0  0  0  0  0  0  0  0
    2.8447    5.4161   -2.4136 C   0  0  0  0  0  0  0  0  0  0  0  0
    2.1122    5.0285   -3.6827 C   0  0  0  0  0  0  0  0  0  0  0  0
    3.5683    6.3954   -2.3509 O   0  0  0  0  0  0  0  0  0  0  0  0
    1.1520    3.4273   -2.1128 H   0  0  0  0  0  0  0  0  0  0  0  0
   -0.4017    3.8955   -0.2918 N   0  0  0  0  0  0  0  0  0  0  0  0
   -1.4101    4.0356    0.7221 C   0  0  0  0  0  0  0  0  0  0  0  0
    3.2034    2.0521   -2.0170 H   0  0  0  0  0  0  0  0  0  0  0  0
    3.2292    2.1734   -0.2487 H   0  0  0  0  0  0  0  0  0  0  0  0
   -2.6337    2.2439   -2.1319 H   0  0  0  0  0  0  0  0  0  0  0  0
   -1.8862   -0.1453   -3.4427 H   0  0  0  0  0  0  0  0  0  0  0  0
   -3.3874    0.1863   -2.5720 H   0  0  0  0  0  0  0  0  0  0  0  0
   -1.5835   -0.2172   -0.4405 H   0  0  0  0  0  0  0  0  0  0  0  0
   -2.1760   -2.5628   -2.3603 H   0  0  0  0  0  0  0  0  0  0  0  0
   -5.8088   -6.0846    0.0376 H   0  0  0  0  0  0  0  0  0  0  0  0
   -5.4386   -4.6537   -2.6483 H   0  0  0  0  0  0  0  0  0  0  0  0
   -6.2551   -3.9804   -1.2106 H   0  0  0  0  0  0  0  0  0  0  0  0
   -6.9398   -5.4082   -2.0302 H   0  0  0  0  0  0  0  0  0  0  0  0
   -4.1783   -6.9269   -2.4182 H   0  0  0  0  0  0  0  0  0  0  0  0
   -5.6400   -7.7253   -1.7668 H   0  0  0  0  0  0  0  0  0  0  0  0
   -4.1285   -7.7098   -0.8142 H   0  0  0  0  0  0  0  0  0  0  0  0
   -1.5059   -6.6204    1.8902 H   0  0  0  0  0  0  0  0  0  0  0  0
   -0.0699   -5.0774    2.6254 H   0  0  0  0  0  0  0  0  0  0  0  0
    1.8369   -1.2133    1.3481 H   0  0  0  0  0  0  0  0  0  0  0  0
    2.4796   -1.5171    2.9690 H   0  0  0  0  0  0  0  0  0  0  0  0
    0.3281   -0.8114    3.9951 H   0  0  0  0  0  0  0  0  0  0  0  0
   -0.3578   -0.4861    2.4043 H   0  0  0  0  0  0  0  0  0  0  0  0
    0.3853    1.6181    3.3957 H   0  0  0  0  0  0  0  0  0  0  0  0
    1.2555    1.2629    1.9139 H   0  0  0  0  0  0  0  0  0  0  0  0
    3.1292    2.3606    2.1178 H   0  0  0  0  0  0  0  0  0  0  0  0
    4.3028    1.9767    3.4176 H   0  0  0  0  0  0  0  0  0  0  0  0
    1.8158    3.7624    3.6125 H   0  0  0  0  0  0  0  0  0  0  0  0
    3.5131    4.2891    3.7033 H   0  0  0  0  0  0  0  0  0  0  0  0
    0.9855    2.4456    5.5276 H   0  0  0  0  0  0  0  0  0  0  0  0
    2.1531    2.1105    6.8352 H   0  0  0  0  0  0  0  0  0  0  0  0
    1.7776    0.0893    5.3506 H   0  0  0  0  0  0  0  0  0  0  0  0
    3.4653    0.6383    5.3724 H   0  0  0  0  0  0  0  0  0  0  0  0
    0.0765   -1.4785    0.2729 H   0  0  0  0  0  0  0  0  0  0  0  0
    2.8404    0.4833   -3.7287 H   0  0  0  0  0  0  0  0  0  0  0  0
    1.6551   -0.5510   -4.5483 H   0  0  0  0  0  0  0  0  0  0  0  0
    2.4879   -1.1362   -3.0710 H   0  0  0  0  0  0  0  0  0  0  0  0
    3.1674    4.8831   -0.4949 H   0  0  0  0  0  0  0  0  0  0  0  0
    2.5225    4.0854   -4.0771 H   0  0  0  0  0  0  0  0  0  0  0  0
    2.2746    5.8244   -4.4184 H   0  0  0  0  0  0  0  0  0  0  0  0
    1.0336    4.8560   -3.5326 H   0  0  0  0  0  0  0  0  0  0  0  0
   -0.6912    3.8460   -1.2864 H   0  0  0  0  0  0  0  0  0  0  0  0
   -2.1581    3.2310    0.6336 H   0  0  0  0  0  0  0  0  0  0  0  0
   -1.9305    5.0042    0.6420 H   0  0  0  0  0  0  0  0  0  0  0  0
   -0.9318    3.9729    1.7083 H   0  0  0  0  0  0  0  0  0  0  0  0
    0.1945   -0.4568   -2.4954 H   0  0  0  0  0  0  0  0  0  0  0  0
    1.0127    2.1664   -3.9151 H   0  0  0  0  0  0  0  0  0  0  0  0
  2  1  2  0  0  0  0
  3 42  1  6  0  0  0
  3  4  1  0  0  0  0
  3  2  1  0  0  0  0
  4  5  1  0  0  0  0
  4 46  1  0  0  0  0
  6 87  1  1  0  0  0
  6  5  1  0  0  0  0
  7  8  1  0  0  0  0
  7  6  1  0  0  0  0
  8  9  1  0  0  0  0
  9 47  1  0  0  0  0
 10  9  1  0  0  0  0
 10 11  1  0  0  0  0
 11 50  1  0  0  0  0
 12 11  2  0  0  0  0
 12 13  1  0  0  0  0
 13 14  2  0  0  0  0
 13 35  1  0  0  0  0
 14 21  1  0  0  0  0
 15 16  1  0  0  0  0
 15 14  1  0  0  0  0
 17 16  1  0  0  0  0
 17 52  1  0  0  0  0
 18 54  1  0  0  0  0
 18 17  1  0  0  0  0
 19 17  1  0  0  0  0
 19 58  1  0  0  0  0
 20 15  2  0  0  0  0
 21 22  1  0  0  0  0
 21 23  2  0  0  0  0
 22 59  1  0  0  0  0
 23 60  1  0  0  0  0
 24 23  1  0  0  0  0
 24 25  1  0  0  0  0
 26 25  1  0  0  0  0
 26 62  1  0  0  0  0
 26 27  1  0  0  0  0
 27 63  1  0  0  0  0
 28 27  1  0  0  0  0
 28 65  1  0  0  0  0
 28 29  1  0  0  0  0
 29 34  1  0  0  0  0
 30 68  1  0  0  0  0
 30 29  1  0  0  0  0
 30 31  1  0  0  0  0
 31 32  1  0  0  0  0
 32 33  1  0  0  0  0
 33 72  1  0  0  0  0
 34 73  1  0  0  0  0
 34 74  1  0  0  0  0
 34 33  1  0  0  0  0
 35 24  2  0  0  0  0
 36  8  2  0  0  0  0
 37 78  1  0  0  0  0
 37  6  1  0  0  0  0
 38  3  1  0  0  0  0
 38 79  1  0  0  0  0
 39 41  2  0  0  0  0
 39 38  1  0  0  0  0
 40 82  1  0  0  0  0
 40 39  1  0  0  0  0
 43  2  1  0  0  0  0
 43 44  1  0  0  0  0
 44 86  1  0  0  0  0
 45  4  1  0  0  0  0
 48 10  1  0  0  0  0
 49 10  1  0  0  0  0
 51 12  1  0  0  0  0
 53 18  1  0  0  0  0
 55 18  1  0  0  0  0
 56 19  1  0  0  0  0
 57 19  1  0  0  0  0
 61 26  1  0  0  0  0
 64 27  1  0  0  0  0
 66 28  1  0  0  0  0
 67 30  1  0  0  0  0
 69 31  1  0  0  0  0
 70 31  1  0  0  0  0
 71 33  1  0  0  0  0
 75 35  1  0  0  0  0
 76 37  1  0  0  0  0
 77 37  1  0  0  0  0
 80 40  1  0  0  0  0
 81 40  1  0  0  0  0
 83 43  1  0  0  0  0
 84 44  1  0  0  0  0
 85 44  1  0  0  0  0
 88  7  1  0  0  0  0
M  END
