83
-1 1
O         0.671066    0.421707    3.544839
C        -0.249623    0.273882    2.748741
C        -1.689349    0.575328    3.205932
C        -1.994609    2.100166    3.186037
S        -2.877394    2.724256    1.723239
C        -1.455246    2.763506    0.431346
C        -1.885546    2.471751   -0.944163
C        -2.185792    1.188423   -1.403945
N        -2.407623    0.193397   -0.358051
C        -2.879191   -1.108566   -0.806001
C        -1.774148   -2.132046   -0.910231
C        -0.585967   -1.864814   -1.466773
C         0.585011   -2.763313   -1.459366
C         1.696995   -2.513442   -2.294929
C         1.743314   -1.412896   -3.316587
O         1.616941   -0.201561   -2.771655
C         1.689309    0.948027   -3.647602
C         0.673916    1.964408   -3.174980
C         3.126737    1.445069   -3.642684
O         1.908501   -1.613251   -4.492472
C         2.813272   -3.357703   -2.219956
O         3.881550   -3.072013   -2.997404
C         2.844504   -4.448489   -1.345520
C         1.736215   -4.698210   -0.532184
O         1.669306   -5.722980    0.349000
C         2.768874   -6.572855    0.488375
C         0.627005   -3.857937   -0.588293
O        -2.272045    0.792690   -2.584545
C        -0.720535    4.096902    0.583239
N         0.626437    4.057564    0.030725
C         1.583538    3.459414    0.944012
C         2.788982    2.840505    0.249331
C         1.060942    5.330746   -0.508891
C         0.430956    5.659984   -1.855867
N        -1.792385    0.024473    4.540560
C        -2.920389   -0.364398    5.192001
C        -4.203174   -0.348536    4.378089
O        -2.901327   -0.729223    6.354361
H        -2.399149    0.065075    2.540060
N        -0.099065   -0.132783    1.480537
C         1.205970   -0.346719    0.900287
H        -2.640314    2.325174    4.046919
H        -1.063943    2.670158    3.341843
H        -3.006549    0.600820    0.360812
H        -3.349835   -0.996217   -1.800105
H        -3.641927   -1.476109   -0.101819
H        -1.975390   -3.123376   -0.487729
H        -0.459414   -0.883047   -1.931037
H         1.432028    0.597548   -4.656958
H         0.872683    2.317473   -2.150999
H        -0.347706    1.550991   -3.196935
H         0.706168    2.837266   -3.846720
H         3.421541    1.759178   -2.629877
H         3.226611    2.311250   -4.314160
H         3.814209    0.658254   -3.987201
H         4.574757   -3.715283   -2.830891
H         3.739133   -5.072419   -1.306647
H         2.502981   -7.311874    1.254779
H         3.671800   -6.029230    0.820054
H         3.002039   -7.105947   -0.451159
H        -0.194321   -4.060066    0.098075
H        -0.692385    4.402234    1.652129
H        -1.307271    4.868627    0.062815
H         1.072962    2.663680    1.507421
H         1.922717    4.195394    1.711172
H         2.464593    2.047554   -0.439376
H         3.472679    2.398469    0.990432
H         3.362152    3.579813   -0.331848
H         2.153606    5.294546   -0.640405
H         0.873513    6.161465    0.212785
H         0.676111    4.878087   -2.587844
H         0.797582    6.629310   -2.229246
H        -0.665578    5.717195   -1.792427
H        -0.926917    0.029705    5.074902
H        -4.152124   -1.088224    3.563882
H        -4.391465    0.631396    3.914663
H        -5.031971   -0.607777    5.046368
H        -0.910241   -0.119061    0.836939
H         1.194257   -0.042239   -0.155463
H         1.500593   -1.407989    0.944855
H         1.953390    0.241401    1.449946
H        -1.792908    3.257090   -1.696477
H        -0.808648    1.975080    0.831605
