83
-1 1
O         5.718265   -3.621356    4.342815
C         4.804160   -3.639690    3.528803
C         3.370372   -3.315801    3.975239
C         3.110472   -1.776088    3.933610
S         1.989272   -1.187987    2.628915
C         3.467028   -1.059486    0.997832
C         2.955755   -1.347025   -0.285421
C         2.631225   -2.667121   -0.701239
N         2.521316   -3.610200    0.367134
C         2.038337   -4.936294    0.043949
C         3.135160   -5.955052   -0.135202
C         4.361831   -5.652597   -0.575200
C         5.502100   -6.588115   -0.629507
C         6.591417   -6.372733   -1.504771
C         6.635554   -5.274990   -2.528509
O         6.518245   -4.059322   -1.987017
C         6.582460   -2.913364   -2.867661
C         5.544541   -1.910905   -2.413098
C         8.010359   -2.391278   -2.847683
O         6.788831   -5.477373   -3.705263
C         7.674754   -7.261956   -1.475003
O         8.726335   -7.015308   -2.286492
C         7.692293   -8.360623   -0.608956
C         6.605850   -8.574654    0.241931
O         6.530153   -9.601695    1.117713
C         7.599772  -10.495545    1.212899
C         5.529680   -7.688660    0.232827
O         2.454293   -3.060957   -1.860435
C         4.127424    0.291069    1.210814
N         5.503779    0.296351    0.718334
C         6.433877   -0.279662    1.672240
C         7.697515   -0.838207    1.032163
C         5.918221    1.585986    0.202440
C         5.366822    1.875069   -1.187795
N         3.234393   -3.875197    5.301375
C         2.081335   -4.163286    5.961874
C         0.800179   -4.025652    5.159454
O         2.080308   -4.536352    7.122514
H         2.658594   -3.805970    3.294968
N         4.975792   -3.896982    2.220380
C         6.286643   -4.119732    1.658020
H         2.688646   -1.487025    4.906938
H         4.072315   -1.239303    3.855040
H         2.070846   -3.177390    1.179490
H         1.445222   -4.894596   -0.888908
H         1.368173   -5.279118    0.848880
H         2.879707   -6.992857    0.109973
H         4.556543   -4.623754   -0.885785
H         6.343367   -3.272930   -3.878102
H         5.722270   -1.547065   -1.388822
H         4.531754   -2.338938   -2.453724
H         5.569295   -1.039403   -3.086282
H         8.289568   -2.069401   -1.833011
H         8.103284   -1.525544   -3.520588
H         8.714703   -3.167263   -3.182244
H         9.395046   -7.691283   -2.152172
H         8.562855   -9.018852   -0.605744
H         7.331603  -11.229090    1.983594
H         8.534159   -9.989879    1.515899
H         7.778072  -11.029839    0.262232
H         4.727231   -7.854059    0.951020
H         4.095829    0.580630    2.281023
H         3.544378    1.051018    0.670454
H         5.924542   -1.107839    2.188119
H         6.701620    0.451636    2.471091
H         7.439079   -1.629104    0.313583
H         8.358182   -1.269353    1.799936
H         8.271713   -0.067185    0.495037
H         7.017885    1.601310    0.147275
H         5.642012    2.410287    0.901404
H         5.709233    1.107467   -1.896131
H         5.698535    2.863878   -1.542233
H         4.266968    1.864091   -1.199673
H         4.100062   -3.938860    5.831491
H         0.776048   -4.769739    4.347533
H         0.705414   -3.035744    4.687614
H        -0.045072   -4.204194    5.833628
H         4.171053   -3.891628    1.582966
H         6.290662   -3.821774    0.601090
H         6.581197   -5.180797    1.715821
H         7.028782   -3.528736    2.211933
H         2.806831   -0.547540   -1.014224
H         4.054162   -1.858180    1.453699
