83
-1 1
O         1.507537    0.636384    3.344029
C         0.506744    0.106037    2.867935
C        -0.860628    0.222038    3.569758
C        -1.955599    0.801917    2.642068
S        -2.615446   -0.403559    1.440274
C        -1.611538    2.633949   -0.662942
C        -2.326809    2.642945   -1.790259
C        -2.814698    1.425299   -2.505576
N        -3.052713    0.337186   -1.740022
C        -3.306405   -0.957540   -2.307847
C        -2.141764   -1.905003   -2.180388
C        -0.887687   -1.529260   -1.917003
C         0.214267   -2.479988   -1.659774
C         1.502498   -2.313901   -2.218575
C         1.837853   -1.234609   -3.200634
O         1.522077   -0.015396   -2.749588
C         1.806208    1.109706   -3.605709
C         0.759711    2.168560   -3.330938
C         3.230213    1.573667   -3.342210
O         2.351829   -1.436186   -4.271189
C         2.509521   -3.226582   -1.880172
O         3.748315   -3.034453   -2.382764
C         2.257138   -4.296915   -1.012567
C         0.976377   -4.464008   -0.483370
O         0.638581   -5.461737    0.360371
C         1.624722   -6.351745    0.793990
C        -0.034228   -3.554752   -0.805382
O        -2.943150    1.444370   -3.725452
C        -1.010990    3.869835   -0.059324
N         0.448572    3.851156   -0.056242
C         0.976978    2.997970    0.999926
C         2.440419    2.621472    0.836307
C         1.006339    5.192095   -0.069649
C         1.001997    5.820753   -1.457889
N        -0.646391    1.009123    4.763328
C        -1.345894    0.963692    5.925376
C        -2.532810    0.016077    5.968185
O        -1.025881    1.626569    6.899067
H        -1.175531   -0.801813    3.835715
N         0.495411   -0.601049    1.726064
C         1.670494   -0.801961    0.917402
H        -2.768111    1.165625    3.288695
H        -1.548563    1.700252    2.144697
H        -2.920444    0.360511   -0.714686
H        -3.571396   -0.815489   -3.368265
H        -4.179840   -1.413080   -1.810826
H        -2.373550   -2.970138   -2.299604
H        -0.652419   -0.465430   -1.832885
H         1.729639    0.754282   -4.643727
H         0.790464    2.513364   -2.285124
H        -0.249433    1.794003   -3.552792
H         0.942927    3.038891   -3.980089
H         3.341368    1.894778   -2.295479
H         3.475466    2.426472   -3.992989
H         3.945324    0.764466   -3.547844
H         4.336381   -3.711552   -2.039209
H         3.074707   -4.974015   -0.758912
H         1.138337   -7.048929    1.487582
H         2.440799   -5.832750    1.327694
H         2.057979   -6.929079   -0.042827
H        -1.008034   -3.662802   -0.327611
H        -1.403017    4.005795    0.975044
H        -1.352774    4.739924   -0.638847
H         0.393885    2.066126    0.996085
H         0.813183    3.451271    2.003835
H         2.596920    2.097828   -0.118785
H         2.719168    1.949906    1.660055
H         3.112589    3.492983    0.865441
H         2.046918    5.138448    0.280070
H         0.480243    5.856395    0.653826
H         1.594277    5.206796   -2.152209
H         1.429294    6.835357   -1.428948
H        -0.014959    5.899437   -1.871461
H         0.241110    1.506106    4.791061
H        -2.177264   -1.026538    5.976203
H        -3.197310    0.121721    5.099531
H        -3.088175    0.209219    6.893276
H        -0.437770   -0.872439    1.367488
H         1.602576   -0.265986   -0.043171
H         1.810119   -1.871519    0.696807
H         2.545343   -0.434568    1.467920
H        -2.489490    3.571523   -2.347508
H        -1.432127    1.681492   -0.146880
