67
-1 1
O        -5.730621    2.392063    3.386761
C        -5.959311    1.651862    2.444503
C        -5.629812    2.061781    0.986813
C        -5.121115    3.518311    0.974243
S        -5.058065    4.330271   -0.654249
C        -2.795486    4.596096   -0.959170
C        -2.442449    5.649563   -1.793358
S        -2.182942    5.408602   -3.459440
O        -1.414859    4.189835   -3.752979
N        -3.705789    5.050552   -4.128460
C        -3.795285    4.200117   -5.298793
C        -4.132479    2.766638   -4.974771
C        -4.453540    2.357921   -3.746207
C        -4.712062    0.975956   -3.312471
C        -5.392168    0.018496   -4.089299
C        -6.087193    0.378419   -5.364710
O        -5.441685   -0.077471   -6.445480
C        -6.049824    0.137521   -7.725053
C        -5.725633    1.535436   -8.229849
C        -5.535635   -0.967368   -8.629146
O        -7.124726    0.988446   -5.420370
C        -5.580857   -1.267431   -3.577237
O        -6.260672   -2.154081   -4.349201
C        -5.131615   -1.613641   -2.300952
C        -4.482413   -0.650850   -1.523311
O        -4.048534   -0.869905   -0.265264
C        -4.484521   -2.016508    0.413291
C        -4.266893    0.627278   -2.037008
O        -1.717234    6.679407   -4.042478
N        -6.748989    1.950870    0.052963
C        -7.281894    0.823106   -0.457212
C        -8.096553    1.008293   -1.715882
O        -7.136532   -0.298827    0.035880
H        -4.831724    1.374895    0.652519
N        -6.442825    0.394736    2.586752
C        -6.813219   -0.140244    3.868053
H        -5.760918    4.106450    1.646071
H        -4.120163    3.526460    1.434243
H        -4.311058    5.863449   -4.108232
H        -2.855059    4.218455   -5.877009
H        -4.570246    4.609675   -5.970937
H        -4.056465    2.055758   -5.804916
H        -4.463589    3.100398   -2.940875
H        -7.139982    0.048715   -7.596433
H        -4.637831    1.665513   -8.339568
H        -6.105436    2.291986   -7.529703
H        -6.196190    1.703467   -9.210478
H        -4.442562   -0.899137   -8.738024
H        -5.991906   -0.888378   -9.627139
H        -5.779474   -1.951760   -8.205367
H        -6.434404   -2.947417   -3.836196
H        -5.333986   -2.614166   -1.915837
H        -4.159590   -1.904025    1.455337
H        -4.030388   -2.934225   -0.003559
H        -5.582877   -2.094091    0.383826
H        -3.764144    1.371902   -1.419271
H        -6.773345    2.770291   -0.563318
H        -7.443139    0.879798   -2.592747
H        -8.549463    2.006603   -1.780676
H        -8.875651    0.237364   -1.753809
H        -6.676511   -0.108378    1.722971
H        -6.508117    0.577807    4.640535
H        -6.312222   -1.103571    4.060972
H        -7.902345   -0.300056    3.947521
H        -2.478697    6.699048   -1.504490
H        -2.587362    3.582871   -1.312872
H        -2.665129    4.737743    0.116334
