67
-1 1
O        -0.928400    0.275178    5.970598
C        -1.180029   -0.363503    4.962549
C        -0.654160    0.053250    3.569393
C         0.079251    1.405505    3.658458
S         0.467114    2.176218    2.045868
C         3.308715    3.047343    0.323270
C         3.299881    4.197918   -0.339772
S         2.134911    4.595010   -1.610361
O         2.850939    4.624591   -2.888059
N         1.085129    3.333763   -1.671095
C         1.013124    2.411686   -2.785421
C         0.803278    0.975742   -2.404078
C         0.558353    0.522920   -1.171954
C         0.303058   -0.879710   -0.794543
C        -0.361183   -1.804790   -1.625817
C        -1.017720   -1.413565   -2.912428
O        -0.355596   -1.873178   -3.983011
C        -0.942354   -1.658025   -5.272792
C        -0.597774   -0.265892   -5.779962
C        -0.425922   -2.772724   -6.163426
O        -2.039337   -0.779899   -2.989261
C        -0.590283   -3.099151   -1.154345
O        -1.253644   -3.955890   -1.974010
C        -0.198679   -3.481909    0.129783
C         0.434482   -2.551334    0.956892
O         0.801646   -2.815557    2.226928
C         0.206996   -3.900372    2.889757
C         0.699390   -1.264365    0.486201
O         1.420608    5.788308   -1.166413
N        -1.687242    0.164705    2.543494
C        -2.318173   -0.839551    1.915385
C        -3.030789   -0.461764    0.637020
O        -2.347186   -2.009056    2.319871
H         0.055856   -0.736068    3.262548
N        -1.874929   -1.530198    4.979393
C        -2.455801   -2.056026    6.183034
H        -0.542393    2.087202    4.257679
H         0.994988    1.239334    4.241837
H         0.341605    3.367931   -0.976065
H         1.945818    2.516754   -3.358983
H         0.203976    2.707007   -3.481486
H         0.842668    0.281526   -3.250468
H         0.556144    1.202941   -0.307994
H        -2.035027   -1.735631   -5.159996
H         0.493266   -0.143508   -5.865622
H        -0.990665    0.498518   -5.095713
H        -1.043526   -0.101457   -6.772559
H         0.668980   -2.714398   -6.259591
H        -0.869340   -2.697024   -7.167399
H        -0.683112   -3.751746   -5.735306
H        -1.492582   -4.742219   -1.476593
H        -0.433625   -4.487326    0.483080
H         0.460523   -3.793510    3.952082
H         0.600836   -4.867385    2.525899
H        -0.888200   -3.869949    2.776292
H         1.153953   -0.524264    1.150251
H        -1.518122    1.023667    1.995344
H        -2.438896   -0.807988   -0.223181
H        -3.178224    0.621317    0.536025
H        -3.999459   -0.977434    0.604394
H        -2.090687   -1.949810    4.067795
H        -2.127974   -1.429213    7.022901
H        -2.131782   -3.094297    6.368704
H        -3.559161   -2.045744    6.147412
H         3.977687    5.032705   -0.144622
H         2.585233    2.252339    0.134188
H         4.032799    2.879764    1.122952
