-1 1
 OpenBabel05192410563D

 67 67  0  0  1  0  0  0  0  0999 V2000
   -0.9413    0.7152    5.6656 O   0  0  0  0  0  0  0  0  0  0  0  0
   -1.0344   -0.0399    4.7123 C   0  0  0  0  0  0  0  0  0  0  0  0
   -0.6460    0.4116    3.2776 C   0  0  2  0  0  0  0  0  0  0  0  0
   -0.1835    1.8773    3.3490 C   0  0  0  0  0  0  0  0  0  0  0  0
    0.0452    2.7582    1.7748 S   0  0  0  0  0  0  0  0  0  0  0  0
    1.9612    2.7026    1.5165 C   0  0  0  0  0  0  0  0  0  0  0  0
    2.4721    3.7547    0.6466 C   0  0  0  0  0  3  0  0  0  0  0  0
    2.7249    3.4675   -0.9712 S   0  0  0  0  0  0  0  0  0  0  0  0
    3.3511    2.1574   -1.2371 O   0  0  0  0  0  0  0  0  0  0  0  0
    1.1762    3.2449   -1.7497 N   0  0  0  0  0  0  0  0  0  0  0  0
    1.1188    2.4065   -2.9298 C   0  0  0  0  0  0  0  0  0  0  0  0
    0.7953    0.9692   -2.6111 C   0  0  0  0  0  0  0  0  0  0  0  0
    0.4629    0.5610   -1.3852 C   0  0  0  0  0  0  0  0  0  0  0  0
    0.2519   -0.8244   -0.9414 C   0  0  0  0  0  0  0  0  0  0  0  0
   -0.4130   -1.8036   -1.7034 C   0  0  0  0  0  0  0  0  0  0  0  0
   -1.1315   -1.4618   -2.9708 C   0  0  0  0  0  0  0  0  0  0  0  0
   -0.4836   -1.8852   -4.0612 O   0  0  0  0  0  0  0  0  0  0  0  0
   -1.1055   -1.6653   -5.3340 C   0  0  0  0  0  0  0  0  0  0  0  0
   -0.8286   -0.2483   -5.8130 C   0  0  0  0  0  0  0  0  0  0  0  0
   -0.5609   -2.7356   -6.2615 C   0  0  0  0  0  0  0  0  0  0  0  0
   -2.1910   -0.8876   -3.0091 O   0  0  0  0  0  0  0  0  0  0  0  0
   -0.5658   -3.0902   -1.1817 C   0  0  0  0  0  0  0  0  0  0  0  0
   -1.2277   -3.9986   -1.9434 O   0  0  0  0  0  0  0  0  0  0  0  0
   -0.1023   -3.4148    0.0955 C   0  0  0  0  0  0  0  0  0  0  0  0
    0.5277   -2.4295    0.8603 C   0  0  0  0  0  0  0  0  0  0  0  0
    0.9594   -2.6218    2.1249 O   0  0  0  0  0  0  0  0  0  0  0  0
    0.5279   -3.7579    2.8208 C   0  0  0  0  0  0  0  0  0  0  0  0
    0.7208   -1.1555    0.3305 C   0  0  0  0  0  0  0  0  0  0  0  0
    3.3106    4.6637   -1.6143 O   0  0  0  0  0  0  0  0  0  0  0  0
   -1.7266    0.3096    2.2977 N   0  0  0  0  0  0  0  0  0  0  0  0
   -2.2706   -0.8160    1.7824 C   0  0  0  0  0  0  0  0  0  0  0  0
   -3.1012   -0.6171    0.5372 C   0  0  0  0  0  0  0  0  0  0  0  0
   -2.1271   -1.9379    2.2692 O   0  0  0  0  0  0  0  0  0  0  0  0
    0.1828   -0.2451    2.9586 H   0  0  0  0  0  0  0  0  0  0  0  0
   -1.4012   -1.3374    4.8212 N   0  0  0  0  0  0  0  0  0  0  0  0
   -1.8246   -1.9065    6.0720 C   0  0  0  0  0  0  0  0  0  0  0  0
   -0.9227    2.4374    3.9373 H   0  0  0  0  0  0  0  0  0  0  0  0
    0.7532    1.9227    3.9229 H   0  0  0  0  0  0  0  0  0  0  0  0
    0.7633    4.1635   -1.8781 H   0  0  0  0  0  0  0  0  0  0  0  0
    2.0608    2.4293   -3.5097 H   0  0  0  0  0  0  0  0  0  0  0  0
    0.3376    2.8021   -3.6050 H   0  0  0  0  0  0  0  0  0  0  0  0
    0.9038    0.2507   -3.4310 H   0  0  0  0  0  0  0  0  0  0  0  0
    0.4356    1.3170   -0.5945 H   0  0  0  0  0  0  0  0  0  0  0  0
   -2.1915   -1.7918   -5.2014 H   0  0  0  0  0  0  0  0  0  0  0  0
    0.2534   -0.0825   -5.9302 H   0  0  0  0  0  0  0  0  0  0  0  0
   -1.2232    0.4825   -5.0940 H   0  0  0  0  0  0  0  0  0  0  0  0
   -1.3142   -0.0756   -6.7855 H   0  0  0  0  0  0  0  0  0  0  0  0
    0.5290   -2.6306   -6.3729 H   0  0  0  0  0  0  0  0  0  0  0  0
   -1.0236   -2.6507   -7.2560 H   0  0  0  0  0  0  0  0  0  0  0  0
   -0.7719   -3.7357   -5.8573 H   0  0  0  0  0  0  0  0  0  0  0  0
   -1.3707   -4.7962   -1.4275 H   0  0  0  0  0  0  0  0  0  0  0  0
   -0.2809   -4.4162    0.4904 H   0  0  0  0  0  0  0  0  0  0  0  0
    0.8420   -3.6243    3.8637 H   0  0  0  0  0  0  0  0  0  0  0  0
    0.9907   -4.6810    2.4263 H   0  0  0  0  0  0  0  0  0  0  0  0
   -0.5700   -3.8497    2.7823 H   0  0  0  0  0  0  0  0  0  0  0  0
    1.2335   -0.4026    0.9298 H   0  0  0  0  0  0  0  0  0  0  0  0
   -1.7515    1.1239    1.6835 H   0  0  0  0  0  0  0  0  0  0  0  0
   -2.4797   -0.7977   -0.3532 H   0  0  0  0  0  0  0  0  0  0  0  0
   -3.5136    0.3977    0.4606 H   0  0  0  0  0  0  0  0  0  0  0  0
   -3.9146   -1.3529    0.5349 H   0  0  0  0  0  0  0  0  0  0  0  0
   -1.5940   -1.8266    3.9395 H   0  0  0  0  0  0  0  0  0  0  0  0
   -1.5350   -1.2231    6.8807 H   0  0  0  0  0  0  0  0  0  0  0  0
   -1.3457   -2.8843    6.2406 H   0  0  0  0  0  0  0  0  0  0  0  0
   -2.9186   -2.0489    6.1133 H   0  0  0  0  0  0  0  0  0  0  0  0
    2.4083    4.8113    0.9048 H   0  0  0  0  0  0  0  0  0  0  0  0
    2.2055    1.7029    1.1297 H   0  0  0  0  0  0  0  0  0  0  0  0
    2.3208    2.7833    2.5546 H   0  0  0  0  0  0  0  0  0  0  0  0
  2 35  1  0  0  0  0
  2  1  2  0  0  0  0
  3 34  1  6  0  0  0
  3  4  1  0  0  0  0
  3  2  1  0  0  0  0
  4 38  1  0  0  0  0
  4 37  1  0  0  0  0
  5  4  1  0  0  0  0
  6  5  1  0  0  0  0
  6 67  1  0  0  0  0
  7 65  1  0  0  0  0
  7  6  1  0  0  0  0
  8  7  1  0  0  0  0
  9  8  2  0  0  0  0
 10  8  1  0  0  0  0
 11 12  1  0  0  0  0
 11 10  1  0  0  0  0
 12 13  2  0  0  0  0
 13 14  1  0  0  0  0
 13 43  1  0  0  0  0
 14 28  1  0  0  0  0
 15 22  1  0  0  0  0
 15 14  2  0  0  0  0
 16 15  1  0  0  0  0
 17 16  1  0  0  0  0
 18 44  1  0  0  0  0
 18 17  1  0  0  0  0
 19 18  1  0  0  0  0
 19 46  1  0  0  0  0
 20 50  1  0  0  0  0
 20 18  1  0  0  0  0
 21 16  2  0  0  0  0
 22 24  2  0  0  0  0
 23 51  1  0  0  0  0
 23 22  1  0  0  0  0
 24 52  1  0  0  0  0
 24 25  1  0  0  0  0
 25 26  1  0  0  0  0
 26 27  1  0  0  0  0
 27 53  1  0  0  0  0
 28 25  2  0  0  0  0
 28 56  1  0  0  0  0
 29  8  2  0  0  0  0
 30  3  1  0  0  0  0
 31 33  2  0  0  0  0
 31 30  1  0  0  0  0
 32 31  1  0  0  0  0
 35 36  1  0  0  0  0
 36 64  1  0  0  0  0
 36 63  1  0  0  0  0
 36 62  1  0  0  0  0
 39 10  1  0  0  0  0
 40 11  1  0  0  0  0
 41 11  1  0  0  0  0
 42 12  1  0  0  0  0
 45 19  1  0  0  0  0
 47 19  1  0  0  0  0
 48 20  1  0  0  0  0
 49 20  1  0  0  0  0
 54 27  1  0  0  0  0
 55 27  1  0  0  0  0
 57 30  1  0  0  0  0
 58 32  1  0  0  0  0
 59 32  1  0  0  0  0
 60 32  1  0  0  0  0
 61 35  1  0  0  0  0
 66  6  1  0  0  0  0
M  END
