-1 1
 OpenBabel05232413493D

 67 66  0  0  1  0  0  0  0  0999 V2000
   -0.9284    0.2752    5.9706 O   0  0  0  0  0  0  0  0  0  0  0  0
   -1.1800   -0.3635    4.9625 C   0  0  0  0  0  0  0  0  0  0  0  0
   -0.6542    0.0532    3.5694 C   0  0  2  0  0  0  0  0  0  0  0  0
    0.0793    1.4055    3.6585 C   0  0  0  0  0  0  0  0  0  0  0  0
    0.4671    2.1762    2.0459 S   0  0  0  0  0  1  0  0  0  0  0  0
    3.3087    3.0473    0.3233 C   0  0  0  0  0  0  0  0  0  0  0  0
    3.2999    4.1979   -0.3398 C   0  0  0  0  0  0  0  0  0  0  0  0
    2.1349    4.5950   -1.6104 S   0  0  0  0  0  0  0  0  0  0  0  0
    2.8509    4.6246   -2.8881 O   0  0  0  0  0  0  0  0  0  0  0  0
    1.0851    3.3338   -1.6711 N   0  0  0  0  0  0  0  0  0  0  0  0
    1.0131    2.4117   -2.7854 C   0  0  0  0  0  0  0  0  0  0  0  0
    0.8033    0.9757   -2.4041 C   0  0  0  0  0  0  0  0  0  0  0  0
    0.5584    0.5229   -1.1720 C   0  0  0  0  0  0  0  0  0  0  0  0
    0.3031   -0.8797   -0.7945 C   0  0  0  0  0  0  0  0  0  0  0  0
   -0.3612   -1.8048   -1.6258 C   0  0  0  0  0  0  0  0  0  0  0  0
   -1.0177   -1.4136   -2.9124 C   0  0  0  0  0  0  0  0  0  0  0  0
   -0.3556   -1.8732   -3.9830 O   0  0  0  0  0  0  0  0  0  0  0  0
   -0.9424   -1.6580   -5.2728 C   0  0  0  0  0  0  0  0  0  0  0  0
   -0.5978   -0.2659   -5.7800 C   0  0  0  0  0  0  0  0  0  0  0  0
   -0.4259   -2.7727   -6.1634 C   0  0  0  0  0  0  0  0  0  0  0  0
   -2.0393   -0.7799   -2.9893 O   0  0  0  0  0  0  0  0  0  0  0  0
   -0.5903   -3.0992   -1.1543 C   0  0  0  0  0  0  0  0  0  0  0  0
   -1.2536   -3.9559   -1.9740 O   0  0  0  0  0  0  0  0  0  0  0  0
   -0.1987   -3.4819    0.1298 C   0  0  0  0  0  0  0  0  0  0  0  0
    0.4345   -2.5513    0.9569 C   0  0  0  0  0  0  0  0  0  0  0  0
    0.8016   -2.8156    2.2269 O   0  0  0  0  0  0  0  0  0  0  0  0
    0.2070   -3.9004    2.8898 C   0  0  0  0  0  0  0  0  0  0  0  0
    0.6994   -1.2644    0.4862 C   0  0  0  0  0  0  0  0  0  0  0  0
    1.4206    5.7883   -1.1664 O   0  0  0  0  0  0  0  0  0  0  0  0
   -1.6872    0.1647    2.5435 N   0  0  0  0  0  0  0  0  0  0  0  0
   -2.3182   -0.8396    1.9154 C   0  0  0  0  0  0  0  0  0  0  0  0
   -3.0308   -0.4618    0.6370 C   0  0  0  0  0  0  0  0  0  0  0  0
   -2.3472   -2.0091    2.3199 O   0  0  0  0  0  0  0  0  0  0  0  0
    0.0559   -0.7361    3.2625 H   0  0  0  0  0  0  0  0  0  0  0  0
   -1.8749   -1.5302    4.9794 N   0  0  0  0  0  0  0  0  0  0  0  0
   -2.4558   -2.0560    6.1830 C   0  0  0  0  0  0  0  0  0  0  0  0
   -0.5424    2.0872    4.2577 H   0  0  0  0  0  0  0  0  0  0  0  0
    0.9950    1.2393    4.2418 H   0  0  0  0  0  0  0  0  0  0  0  0
    0.3416    3.3679   -0.9761 H   0  0  0  0  0  0  0  0  0  0  0  0
    1.9458    2.5168   -3.3590 H   0  0  0  0  0  0  0  0  0  0  0  0
    0.2040    2.7070   -3.4815 H   0  0  0  0  0  0  0  0  0  0  0  0
    0.8427    0.2815   -3.2505 H   0  0  0  0  0  0  0  0  0  0  0  0
    0.5561    1.2029   -0.3080 H   0  0  0  0  0  0  0  0  0  0  0  0
   -2.0350   -1.7356   -5.1600 H   0  0  0  0  0  0  0  0  0  0  0  0
    0.4933   -0.1435   -5.8656 H   0  0  0  0  0  0  0  0  0  0  0  0
   -0.9907    0.4985   -5.0957 H   0  0  0  0  0  0  0  0  0  0  0  0
   -1.0435   -0.1015   -6.7726 H   0  0  0  0  0  0  0  0  0  0  0  0
    0.6690   -2.7144   -6.2596 H   0  0  0  0  0  0  0  0  0  0  0  0
   -0.8693   -2.6970   -7.1674 H   0  0  0  0  0  0  0  0  0  0  0  0
   -0.6831   -3.7517   -5.7353 H   0  0  0  0  0  0  0  0  0  0  0  0
   -1.4926   -4.7422   -1.4766 H   0  0  0  0  0  0  0  0  0  0  0  0
   -0.4336   -4.4873    0.4831 H   0  0  0  0  0  0  0  0  0  0  0  0
    0.4605   -3.7935    3.9521 H   0  0  0  0  0  0  0  0  0  0  0  0
    0.6008   -4.8674    2.5259 H   0  0  0  0  0  0  0  0  0  0  0  0
   -0.8882   -3.8699    2.7763 H   0  0  0  0  0  0  0  0  0  0  0  0
    1.1540   -0.5243    1.1503 H   0  0  0  0  0  0  0  0  0  0  0  0
   -1.5181    1.0237    1.9953 H   0  0  0  0  0  0  0  0  0  0  0  0
   -2.4389   -0.8080   -0.2232 H   0  0  0  0  0  0  0  0  0  0  0  0
   -3.1782    0.6213    0.5360 H   0  0  0  0  0  0  0  0  0  0  0  0
   -3.9995   -0.9774    0.6044 H   0  0  0  0  0  0  0  0  0  0  0  0
   -2.0907   -1.9498    4.0678 H   0  0  0  0  0  0  0  0  0  0  0  0
   -2.1280   -1.4292    7.0229 H   0  0  0  0  0  0  0  0  0  0  0  0
   -2.1318   -3.0943    6.3687 H   0  0  0  0  0  0  0  0  0  0  0  0
   -3.5592   -2.0457    6.1474 H   0  0  0  0  0  0  0  0  0  0  0  0
    3.9777    5.0327   -0.1446 H   0  0  0  0  0  0  0  0  0  0  0  0
    2.5852    2.2523    0.1342 H   0  0  0  0  0  0  0  0  0  0  0  0
    4.0328    2.8798    1.1230 H   0  0  0  0  0  0  0  0  0  0  0  0
  2 35  1  0  0  0  0
  2  1  2  0  0  0  0
  3 34  1  6  0  0  0
  3  4  1  0  0  0  0
  3  2  1  0  0  0  0
  4 38  1  0  0  0  0
  4 37  1  0  0  0  0
  5  4  1  0  0  0  0
  6 67  1  0  0  0  0
  7 65  1  0  0  0  0
  7  6  2  0  0  0  0
  8 29  2  0  0  0  0
  8  7  1  0  0  0  0
  9  8  2  0  0  0  0
 10  8  1  0  0  0  0
 10 39  1  0  0  0  0
 11 12  1  0  0  0  0
 11 10  1  0  0  0  0
 12 13  2  0  0  0  0
 13 14  1  0  0  0  0
 13 43  1  0  0  0  0
 14 28  1  0  0  0  0
 15 22  1  0  0  0  0
 15 14  2  0  0  0  0
 16 15  1  0  0  0  0
 17 16  1  0  0  0  0
 18 44  1  0  0  0  0
 18 17  1  0  0  0  0
 19 18  1  0  0  0  0
 19 46  1  0  0  0  0
 20 50  1  0  0  0  0
 20 18  1  0  0  0  0
 21 16  2  0  0  0  0
 22 24  2  0  0  0  0
 23 51  1  0  0  0  0
 23 22  1  0  0  0  0
 24 52  1  0  0  0  0
 24 25  1  0  0  0  0
 25 26  1  0  0  0  0
 26 27  1  0  0  0  0
 27 53  1  0  0  0  0
 28 25  2  0  0  0  0
 28 56  1  0  0  0  0
 30  3  1  0  0  0  0
 31 33  2  0  0  0  0
 31 30  1  0  0  0  0
 32 31  1  0  0  0  0
 35 36  1  0  0  0  0
 36 63  1  0  0  0  0
 36 62  1  0  0  0  0
 40 11  1  0  0  0  0
 41 11  1  0  0  0  0
 42 12  1  0  0  0  0
 45 19  1  0  0  0  0
 47 19  1  0  0  0  0
 48 20  1  0  0  0  0
 49 20  1  0  0  0  0
 54 27  1  0  0  0  0
 55 27  1  0  0  0  0
 57 30  1  0  0  0  0
 58 32  1  0  0  0  0
 59 32  1  0  0  0  0
 60 32  1  0  0  0  0
 61 35  1  0  0  0  0
 64 36  1  0  0  0  0
 66  6  1  0  0  0  0
M  END
