85
-1 1
O         2.012252   -6.193575    2.238432
C         0.938124   -5.780340    2.639133
C        -0.092088   -5.100371    1.694905
C         0.267534   -5.478415    0.260189
S        -0.795081   -4.843898   -1.073139
C         0.488764   -3.879492   -2.093585
C         0.130799   -3.672050   -3.501509
S        -0.208736   -2.170544   -4.101664
O        -1.218800   -1.375995   -3.358386
N         1.206082   -1.207601   -3.801840
C         1.129836    0.219050   -4.089352
C         0.550607    1.029137   -2.929250
C         1.311064    0.821930   -1.614203
C         0.632936    1.523824   -0.465463
C        -0.495371    0.963484    0.167541
C        -0.966765   -0.425652   -0.161419
O        -2.218541   -0.446124   -0.551184
C        -2.843750   -1.712621   -0.888185
C        -3.308142   -2.398518    0.382908
C        -3.961615   -1.376271   -1.850669
O        -0.252747   -1.397797   -0.033372
C        -1.145237    1.687318    1.172988
O        -2.211308    1.122979    1.786589
C        -0.693663    2.955330    1.561765
C         0.420630    3.503315    0.926820
O         0.933813    4.721233    1.229267
C         0.325534    5.501248    2.229245
C         1.061596    6.822995    2.356433
N         0.674350    7.812893    1.367592
C         1.114831    9.164397    1.679276
C         2.582706    9.400985    1.324070
O         2.826213    9.098354   -0.025695
C         2.467254    7.771944   -0.346236
C         1.000316    7.504190   -0.023740
C         1.071254    2.789947   -0.082091
O        -0.395420   -2.229689   -5.569273
N        -0.105188   -3.658088    1.906269
C        -0.692355   -3.091172    2.984836
C        -0.687294   -1.580925    3.038243
O        -1.204146   -3.746641    3.891991
H        -1.092528   -5.491031    1.951554
N         0.522096   -5.892429    3.924824
C         1.386983   -6.388355    4.961867
H         1.299549   -5.150482    0.063807
H         0.289707   -6.575671    0.211116
H         1.958737   -1.664625   -4.310193
H         0.541293    0.426553   -5.003444
H         2.159886    0.563169   -4.290872
H        -0.498591    0.730167   -2.795667
H         0.557427    2.099434   -3.200570
H         2.341391    1.202139   -1.712455
H         1.378261   -0.256882   -1.421673
H        -2.089827   -2.324035   -1.399086
H        -3.970713   -1.741326    0.968474
H        -2.448466   -2.697683    0.994552
H        -3.853335   -3.317050    0.122711
H        -4.708167   -0.717336   -1.377884
H        -4.458652   -2.304292   -2.168546
H        -3.540781   -0.893522   -2.741758
H        -2.517759    1.697816    2.492384
H        -1.223077    3.486899    2.354052
H         0.367503    4.965130    3.195648
H        -0.734720    5.698176    1.986559
H         2.148901    6.594858    2.382417
H         0.809166    7.239625    3.344862
H         0.937421    9.378314    2.745807
H         0.499844    9.870975    1.094348
H         3.236928    8.787919    1.979566
H         2.856652   10.456152    1.474823
H         3.113646    7.057323    0.203228
H         2.661282    7.637045   -1.419922
H         0.747545    6.460511   -0.247461
H         0.375634    8.148492   -0.666233
H         1.935614    3.246252   -0.567827
H         0.099330   -3.053336    1.108200
H        -0.615063   -1.280367    4.091199
H        -1.634568   -1.191906    2.637376
H         0.128611   -1.139160    2.453472
H        -0.300708   -5.335539    4.169433
H         2.236941   -6.895849    4.487623
H         0.855600   -7.104516    5.608283
H         1.779252   -5.575534    5.597552
H         0.237802   -4.437448   -4.267615
H         0.629626   -2.925553   -1.567408
H         1.399234   -4.489292   -1.970794
