85
-1 1
O        -2.252655   -2.966191    0.926748
C        -3.258679   -2.488201    1.422447
C        -4.393405   -1.855854    0.574650
C        -4.268398   -2.329082   -0.874276
S        -5.475456   -1.656342   -2.049258
C        -3.560492   -0.624591   -3.516834
C        -3.706818   -0.462682   -4.861389
S        -4.126565    1.050674   -5.573174
O        -5.312936    1.709477   -5.010803
N        -2.842928    2.050155   -5.087806
C        -2.966959    3.473340   -5.400022
C        -3.606845    4.263499   -4.262531
C        -2.797496    4.196948   -2.963154
C        -3.499057    4.895141   -1.825449
C        -4.631328    4.316418   -1.220264
C        -5.083159    2.929578   -1.585722
O        -6.325560    2.913023   -2.008475
C        -6.971343    1.636247   -2.275587
C        -7.536284    1.103030   -0.973259
C        -8.019652    1.910092   -3.331765
O        -4.359688    1.963789   -1.474745
C        -5.300809    5.017119   -0.211528
O        -6.372529    4.435850    0.370290
C        -4.859937    6.280407    0.205859
C        -3.740644    6.846480   -0.403226
O        -3.238320    8.060422   -0.071866
C        -3.857575    8.814710    0.942217
C        -3.126021   10.134574    1.107792
N        -3.509082   11.148243    0.141592
C        -3.066838   12.491196    0.486686
C        -1.597639   12.733240    0.140873
O        -1.351028   12.461689   -1.215267
C        -1.711601   11.144236   -1.567742
C        -3.180101   10.872406   -1.255651
C        -3.072020    6.156484   -1.418218
O        -4.092217    0.885695   -7.036070
N        -4.346442   -0.399397    0.668961
C        -4.763032    0.280836    1.756922
C        -4.735268    1.790494    1.656529
O        -5.142192   -0.265127    2.793835
H        -5.358029   -2.192000    0.992705
N        -3.502183   -2.486790    2.759647
C        -2.514807   -2.919607    3.710434
H        -3.237324   -2.094624   -1.198175
H        -4.319665   -3.427953   -0.850181
H        -1.982332    1.628836   -5.426348
H        -3.535852    3.634633   -6.333167
H        -1.947591    3.850372   -5.585385
H        -4.620830    3.869189   -4.098964
H        -3.719265    5.314851   -4.578051
H        -1.809138    4.660150   -3.117326
H        -2.631118    3.141143   -2.708006
H        -6.210057    0.942149   -2.657717
H        -8.218871    1.836022   -0.513814
H        -6.725716    0.857188   -0.276004
H        -8.071763    0.163573   -1.165678
H        -8.774106    2.624392   -2.963722
H        -8.522821    0.967620   -3.591267
H        -7.545739    2.304077   -4.239694
H        -6.677522    4.975014    1.104427
H        -5.403256    6.795450    0.999519
H        -3.822106    8.254648    1.894919
H        -4.916140    9.014562    0.694910
H        -2.038376    9.908464    1.135818
H        -3.386428   10.525346    2.104604
H        -3.246432   12.679680    1.557569
H        -3.679225   13.212721   -0.082441
H        -0.946036   12.103930    0.783316
H        -1.322209   13.784041    0.316756
H        -1.068540   10.415223   -1.033414
H        -1.514772   11.034315   -2.643855
H        -3.434932    9.835052   -1.505173
H        -3.801308   11.533782   -1.884064
H        -2.202678    6.626395   -1.881404
H        -4.259924    0.107751   -0.213871
H        -4.562178    2.194009    2.662205
H        -5.709107    2.159693    1.302584
H        -3.968794    2.149803    0.958928
H        -4.266685   -1.877693    3.062307
H        -1.744935   -3.486899    3.171140
H        -2.963827   -3.566832    4.480970
H        -2.025603   -2.069760    4.218752
H        -3.646298   -1.264188   -5.597233
H        -3.582281    0.235894   -2.845514
H        -3.102792   -1.539884   -3.147281
