-1 1
 OpenBabel05232414493D

 85 85  0  0  1  0  0  0  0  0999 V2000
   -2.2527   -2.9662    0.9267 O   0  0  0  0  0  0  0  0  0  0  0  0
   -3.2587   -2.4882    1.4224 C   0  0  0  0  0  0  0  0  0  0  0  0
   -4.3934   -1.8559    0.5746 C   0  0  2  0  0  0  0  0  0  0  0  0
   -4.2684   -2.3291   -0.8743 C   0  0  0  0  0  0  0  0  0  0  0  0
   -5.4755   -1.6563   -2.0493 S   0  0  0  0  0  1  0  0  0  0  0  0
   -3.5605   -0.6246   -3.5168 C   0  0  0  0  0  3  0  0  0  0  0  0
   -3.7068   -0.4627   -4.8614 C   0  0  0  0  0  3  0  0  0  0  0  0
   -4.1266    1.0507   -5.5732 S   0  0  0  0  0  0  0  0  0  0  0  0
   -5.3129    1.7095   -5.0108 O   0  0  0  0  0  0  0  0  0  0  0  0
   -2.8429    2.0502   -5.0878 N   0  0  0  0  0  0  0  0  0  0  0  0
   -2.9670    3.4733   -5.4000 C   0  0  0  0  0  0  0  0  0  0  0  0
   -3.6068    4.2635   -4.2625 C   0  0  0  0  0  0  0  0  0  0  0  0
   -2.7975    4.1969   -2.9632 C   0  0  0  0  0  0  0  0  0  0  0  0
   -3.4991    4.8951   -1.8254 C   0  0  0  0  0  0  0  0  0  0  0  0
   -4.6313    4.3164   -1.2203 C   0  0  0  0  0  0  0  0  0  0  0  0
   -5.0832    2.9296   -1.5857 C   0  0  0  0  0  0  0  0  0  0  0  0
   -6.3256    2.9130   -2.0085 O   0  0  0  0  0  0  0  0  0  0  0  0
   -6.9713    1.6362   -2.2756 C   0  0  0  0  0  0  0  0  0  0  0  0
   -7.5363    1.1030   -0.9733 C   0  0  0  0  0  0  0  0  0  0  0  0
   -8.0197    1.9101   -3.3318 C   0  0  0  0  0  0  0  0  0  0  0  0
   -4.3597    1.9638   -1.4747 O   0  0  0  0  0  0  0  0  0  0  0  0
   -5.3008    5.0171   -0.2115 C   0  0  0  0  0  0  0  0  0  0  0  0
   -6.3725    4.4359    0.3703 O   0  0  0  0  0  0  0  0  0  0  0  0
   -4.8599    6.2804    0.2059 C   0  0  0  0  0  0  0  0  0  0  0  0
   -3.7406    6.8465   -0.4032 C   0  0  0  0  0  0  0  0  0  0  0  0
   -3.2383    8.0604   -0.0719 O   0  0  0  0  0  0  0  0  0  0  0  0
   -3.8576    8.8147    0.9422 C   0  0  0  0  0  0  0  0  0  0  0  0
   -3.1260   10.1346    1.1078 C   0  0  0  0  0  0  0  0  0  0  0  0
   -3.5091   11.1482    0.1416 N   0  0  0  0  0  0  0  0  0  0  0  0
   -3.0668   12.4912    0.4867 C   0  0  0  0  0  0  0  0  0  0  0  0
   -1.5976   12.7332    0.1409 C   0  0  0  0  0  0  0  0  0  0  0  0
   -1.3510   12.4617   -1.2153 O   0  0  0  0  0  0  0  0  0  0  0  0
   -1.7116   11.1442   -1.5677 C   0  0  0  0  0  0  0  0  0  0  0  0
   -3.1801   10.8724   -1.2557 C   0  0  0  0  0  0  0  0  0  0  0  0
   -3.0720    6.1565   -1.4182 C   0  0  0  0  0  0  0  0  0  0  0  0
   -4.0922    0.8857   -7.0361 O   0  0  0  0  0  0  0  0  0  0  0  0
   -4.3464   -0.3994    0.6690 N   0  0  0  0  0  0  0  0  0  0  0  0
   -4.7630    0.2808    1.7569 C   0  0  0  0  0  0  0  0  0  0  0  0
   -4.7353    1.7905    1.6565 C   0  0  0  0  0  0  0  0  0  0  0  0
   -5.1422   -0.2651    2.7938 O   0  0  0  0  0  0  0  0  0  0  0  0
   -5.3580   -2.1920    0.9927 H   0  0  0  0  0  0  0  0  0  0  0  0
   -3.5022   -2.4868    2.7596 N   0  0  0  0  0  0  0  0  0  0  0  0
   -2.5148   -2.9196    3.7104 C   0  0  0  0  0  0  0  0  0  0  0  0
   -3.2373   -2.0946   -1.1982 H   0  0  0  0  0  0  0  0  0  0  0  0
   -4.3197   -3.4280   -0.8502 H   0  0  0  0  0  0  0  0  0  0  0  0
   -1.9823    1.6288   -5.4263 H   0  0  0  0  0  0  0  0  0  0  0  0
   -3.5359    3.6346   -6.3332 H   0  0  0  0  0  0  0  0  0  0  0  0
   -1.9476    3.8504   -5.5854 H   0  0  0  0  0  0  0  0  0  0  0  0
   -4.6208    3.8692   -4.0990 H   0  0  0  0  0  0  0  0  0  0  0  0
   -3.7193    5.3149   -4.5781 H   0  0  0  0  0  0  0  0  0  0  0  0
   -1.8091    4.6601   -3.1173 H   0  0  0  0  0  0  0  0  0  0  0  0
   -2.6311    3.1411   -2.7080 H   0  0  0  0  0  0  0  0  0  0  0  0
   -6.2101    0.9421   -2.6577 H   0  0  0  0  0  0  0  0  0  0  0  0
   -8.2189    1.8360   -0.5138 H   0  0  0  0  0  0  0  0  0  0  0  0
   -6.7257    0.8572   -0.2760 H   0  0  0  0  0  0  0  0  0  0  0  0
   -8.0718    0.1636   -1.1657 H   0  0  0  0  0  0  0  0  0  0  0  0
   -8.7741    2.6244   -2.9637 H   0  0  0  0  0  0  0  0  0  0  0  0
   -8.5228    0.9676   -3.5913 H   0  0  0  0  0  0  0  0  0  0  0  0
   -7.5457    2.3041   -4.2397 H   0  0  0  0  0  0  0  0  0  0  0  0
   -6.6775    4.9750    1.1044 H   0  0  0  0  0  0  0  0  0  0  0  0
   -5.4033    6.7954    0.9995 H   0  0  0  0  0  0  0  0  0  0  0  0
   -3.8221    8.2546    1.8949 H   0  0  0  0  0  0  0  0  0  0  0  0
   -4.9161    9.0146    0.6949 H   0  0  0  0  0  0  0  0  0  0  0  0
   -2.0384    9.9085    1.1358 H   0  0  0  0  0  0  0  0  0  0  0  0
   -3.3864   10.5253    2.1046 H   0  0  0  0  0  0  0  0  0  0  0  0
   -3.2464   12.6797    1.5576 H   0  0  0  0  0  0  0  0  0  0  0  0
   -3.6792   13.2127   -0.0824 H   0  0  0  0  0  0  0  0  0  0  0  0
   -0.9460   12.1039    0.7833 H   0  0  0  0  0  0  0  0  0  0  0  0
   -1.3222   13.7840    0.3168 H   0  0  0  0  0  0  0  0  0  0  0  0
   -1.0685   10.4152   -1.0334 H   0  0  0  0  0  0  0  0  0  0  0  0
   -1.5148   11.0343   -2.6439 H   0  0  0  0  0  0  0  0  0  0  0  0
   -3.4349    9.8351   -1.5052 H   0  0  0  0  0  0  0  0  0  0  0  0
   -3.8013   11.5338   -1.8841 H   0  0  0  0  0  0  0  0  0  0  0  0
   -2.2027    6.6264   -1.8814 H   0  0  0  0  0  0  0  0  0  0  0  0
   -4.2599    0.1078   -0.2139 H   0  0  0  0  0  0  0  0  0  0  0  0
   -4.5622    2.1940    2.6622 H   0  0  0  0  0  0  0  0  0  0  0  0
   -5.7091    2.1597    1.3026 H   0  0  0  0  0  0  0  0  0  0  0  0
   -3.9688    2.1498    0.9589 H   0  0  0  0  0  0  0  0  0  0  0  0
   -4.2667   -1.8777    3.0623 H   0  0  0  0  0  0  0  0  0  0  0  0
   -1.7449   -3.4869    3.1711 H   0  0  0  0  0  0  0  0  0  0  0  0
   -2.9638   -3.5668    4.4810 H   0  0  0  0  0  0  0  0  0  0  0  0
   -2.0256   -2.0698    4.2188 H   0  0  0  0  0  0  0  0  0  0  0  0
   -3.6463   -1.2642   -5.5972 H   0  0  0  0  0  0  0  0  0  0  0  0
   -3.5823    0.2359   -2.8455 H   0  0  0  0  0  0  0  0  0  0  0  0
   -3.1028   -1.5399   -3.1473 H   0  0  0  0  0  0  0  0  0  0  0  0
  1  2  2  0  0  0  0
  2 42  1  0  0  0  0
  3 37  1  0  0  0  0
  3 41  1  1  0  0  0
  3  2  1  0  0  0  0
  4 45  1  0  0  0  0
  4  3  1  0  0  0  0
  5  4  1  0  0  0  0
  6 85  1  0  0  0  0
  6 84  1  0  0  0  0
  7  6  1  0  0  0  0
  8 10  1  0  0  0  0
  8  9  2  0  0  0  0
  8  7  1  0  0  0  0
 11 10  1  0  0  0  0
 11 12  1  0  0  0  0
 12 49  1  0  0  0  0
 12 13  1  0  0  0  0
 13 52  1  0  0  0  0
 13 14  1  0  0  0  0
 14 35  2  0  0  0  0
 14 15  1  0  0  0  0
 15 22  2  0  0  0  0
 16 21  2  0  0  0  0
 16 15  1  0  0  0  0
 17 16  1  0  0  0  0
 18 17  1  0  0  0  0
 18 19  1  0  0  0  0
 19 54  1  0  0  0  0
 19 55  1  0  0  0  0
 20 57  1  0  0  0  0
 20 18  1  0  0  0  0
 22 24  1  0  0  0  0
 22 23  1  0  0  0  0
 23 60  1  0  0  0  0
 24 61  1  0  0  0  0
 25 26  1  0  0  0  0
 25 24  2  0  0  0  0
 26 27  1  0  0  0  0
 27 28  1  0  0  0  0
 27 62  1  0  0  0  0
 28 64  1  0  0  0  0
 28 65  1  0  0  0  0
 29 30  1  0  0  0  0
 29 28  1  0  0  0  0
 30 66  1  0  0  0  0
 31 69  1  0  0  0  0
 31 30  1  0  0  0  0
 31 68  1  0  0  0  0
 32 31  1  0  0  0  0
 33 34  1  0  0  0  0
 33 32  1  0  0  0  0
 33 70  1  0  0  0  0
 34 29  1  0  0  0  0
 35 25  1  0  0  0  0
 36  8  2  0  0  0  0
 37 38  1  0  0  0  0
 38 40  2  0  0  0  0
 39 38  1  0  0  0  0
 39 76  1  0  0  0  0
 42 79  1  0  0  0  0
 42 43  1  0  0  0  0
 43 82  1  0  0  0  0
 43 81  1  0  0  0  0
 44  4  1  0  0  0  0
 46 10  1  0  0  0  0
 47 11  1  0  0  0  0
 48 11  1  0  0  0  0
 50 12  1  0  0  0  0
 51 13  1  0  0  0  0
 53 18  1  0  0  0  0
 56 19  1  0  0  0  0
 58 20  1  0  0  0  0
 59 20  1  0  0  0  0
 63 27  1  0  0  0  0
 67 30  1  0  0  0  0
 71 33  1  0  0  0  0
 72 34  1  0  0  0  0
 73 34  1  0  0  0  0
 74 35  1  0  0  0  0
 75 37  1  0  0  0  0
 77 39  1  0  0  0  0
 78 39  1  0  0  0  0
 80 43  1  0  0  0  0
 83  7  1  0  0  0  0
M  END
