85
-1 1
O         1.910934   -6.107641    1.529777
C         1.046541   -5.703619    2.287675
C        -0.341569   -5.216368    1.815065
C        -0.606029   -5.578360    0.355884
S        -2.276643   -5.148651   -0.238218
C        -0.204192   -3.388383   -2.505499
C         0.149554   -3.599801   -3.768651
S         1.267129   -2.573133   -4.673456
O         0.547737   -2.034519   -5.829295
N         1.630924   -1.303466   -3.672321
C         1.132235    0.045270   -3.878086
C         0.380068    0.619103   -2.681635
C         1.242557    0.737805   -1.420135
C         0.561164    1.501496   -0.308046
C        -0.560110    0.972040    0.362086
C        -1.049329   -0.410371    0.050950
O        -2.333070   -0.433055   -0.228205
C        -2.985471   -1.703700   -0.515533
C        -4.244941   -1.759554    0.321798
C        -3.241020   -1.777243   -2.007091
O        -0.311519   -1.373135    0.048932
C        -1.180078    1.730559    1.363365
O        -2.229280    1.194931    2.017564
C        -0.705096    3.005723    1.699621
C         0.395891    3.525687    1.020961
O         0.925337    4.744697    1.269907
C         0.368394    5.552551    2.280921
C         1.125308    6.866716    2.355474
N         0.720346    7.837297    1.355393
C         1.112196    9.206617    1.655840
C         2.574082    9.488717    1.311277
O         2.838978    9.180036   -0.033544
C         2.530156    7.839206   -0.341320
C         1.070366    7.522617   -0.028540
C         1.018197    2.774718    0.018437
O         2.508172   -3.317989   -4.881393
N        -0.465528   -3.777994    2.026032
C        -0.821326   -3.228002    3.200220
C        -1.127560   -1.744152    3.160732
O        -0.891260   -3.861315    4.253830
H        -1.100515   -5.704405    2.449858
N         1.201808   -5.650726    3.639304
C         2.448240   -5.962376    4.280572
H         0.181415   -5.098024   -0.254944
H        -0.425684   -6.658947    0.259293
H         2.513187   -1.440495   -3.192122
H         0.471973    0.015667   -4.755978
H         1.975568    0.708024   -4.142836
H        -0.508142   -0.001724   -2.483349
H         0.007700    1.618784   -2.962135
H         2.181065    1.256384   -1.675348
H         1.506004   -0.267708   -1.060884
H        -2.325949   -2.537871   -0.226418
H        -4.950746   -0.959799    0.045268
H        -4.005318   -1.664891    1.390395
H        -4.720851   -2.739103    0.174048
H        -3.932112   -0.985237   -2.337962
H        -3.669034   -2.761664   -2.244089
H        -2.301466   -1.688258   -2.571795
H        -2.497908    1.774113    2.735388
H        -1.209525    3.566360    2.487833
H         0.443269    5.030680    3.252739
H        -0.697140    5.760053    2.075065
H         2.210333    6.627301    2.356407
H         0.905246    7.306166    3.341372
H         0.916657    9.426712    2.717711
H         0.479088    9.884837    1.057016
H         3.242536    8.904344    1.978557
H         2.811539   10.553805    1.452597
H         3.197544    7.154901    0.222042
H         2.738627    7.698665   -1.411689
H         0.856493    6.467251   -0.238254
H         0.429264    8.134508   -0.686336
H         1.878442    3.207926   -0.494464
H        -0.505800   -3.199498    1.188655
H        -1.311012   -1.396618    4.183939
H        -2.016739   -1.547374    2.544996
H        -0.291008   -1.184659    2.718583
H         0.451685   -5.191715    4.161843
H         3.124908   -6.376970    3.521475
H         2.315406   -6.707905    5.082443
H         2.923258   -5.068021    4.721172
H        -0.200845   -4.438855   -4.375929
H         0.180401   -2.533945   -1.941904
H        -0.922185   -4.052141   -1.985185
