-1 1
 OpenBabel05232414493D

 71 72  0  0  1  0  0  0  0  0999 V2000
   -5.8100    5.0886    7.6650 O   0  0  0  0  0  0  0  0  0  0  0  0
   -4.7709    4.4444    7.7607 C   0  0  0  0  0  0  0  0  0  0  0  0
   -3.4623    5.1621    8.1387 C   0  0  2  0  0  0  0  0  0  0  0  0
   -2.5206    5.2769    6.9337 C   0  0  0  0  0  0  0  0  0  0  0  0
   -1.0670    6.3235    7.2414 S   0  0  0  0  0  0  0  0  0  0  0  0
    0.5625    4.8365    7.3816 C   0  0  0  0  0  0  0  0  0  0  0  0
    1.4626    4.7896    6.3038 C   0  0  0  0  0  3  0  0  0  0  0  0
    1.1084    3.8911    4.9036 S   0  0  0  0  0  0  0  0  0  0  0  0
    1.0513    2.4283    5.0734 O   0  0  0  0  0  0  0  0  0  0  0  0
   -0.5102    4.3022    4.6275 N   0  0  0  0  0  0  0  0  0  0  0  0
   -1.2294    3.7164    3.5173 C   0  0  0  0  0  0  0  0  0  0  0  0
   -2.6752    3.5344    3.8867 C   0  0  0  0  0  0  0  0  0  0  0  0
   -3.6617    4.3115    3.4323 C   0  0  0  0  0  0  0  0  0  0  0  0
   -5.0898    4.1948    3.8145 C   0  0  0  0  0  0  0  0  0  0  0  0
   -5.7969    2.9908    3.6721 C   0  0  0  0  0  0  0  0  0  0  0  0
   -5.1348    1.7456    3.1906 C   0  0  0  0  0  0  0  0  0  0  0  0
   -4.6532    1.8746    1.9483 O   0  0  0  0  0  0  0  0  0  0  0  0
   -3.7967    0.8454    1.4611 C   0  0  0  0  0  0  0  0  0  0  0  0
   -4.5507   -0.1752    0.6441 C   0  0  0  0  0  0  0  0  0  0  0  0
   -4.4473   -0.1893   -0.7485 C   0  0  0  0  0  0  0  0  0  0  0  0
   -5.1457   -1.1213   -1.5151 C   0  0  0  0  0  0  0  0  0  0  0  0
   -5.9614   -2.0463   -0.8704 C   0  0  0  0  0  0  0  0  0  0  0  0
   -6.9219   -3.3219   -1.9007 Br  0  0  0  0  0  0  0  0  0  0  0  0
   -6.0851   -2.0529    0.5181 C   0  0  0  0  0  0  0  0  0  0  0  0
   -5.3771   -1.1184    1.2680 C   0  0  0  0  0  0  0  0  0  0  0  0
   -5.0310    0.7328    3.8393 O   0  0  0  0  0  0  0  0  0  0  0  0
   -7.1498    2.9405    4.0504 C   0  0  0  0  0  0  0  0  0  0  0  0
   -7.8046    1.7689    3.8902 O   0  0  0  0  0  0  0  0  0  0  0  0
   -7.7829    4.0650    4.5619 C   0  0  0  0  0  0  0  0  0  0  0  0
   -7.0655    5.2539    4.7412 C   0  0  0  0  0  0  0  0  0  0  0  0
   -7.7462    6.2747    5.2840 O   0  0  0  0  0  0  0  0  0  0  0  0
   -7.0246    7.3824    5.7712 C   0  0  0  0  0  0  0  0  0  0  0  0
   -5.7273    5.3211    4.3477 C   0  0  0  0  0  0  0  0  0  0  0  0
    1.9646    4.3638    3.7972 O   0  0  0  0  0  0  0  0  0  0  0  0
   -2.7901    4.6464    9.3329 N   0  0  0  0  0  0  0  0  0  0  0  0
   -2.0797    3.4916    9.4016 C   0  0  0  0  0  0  0  0  0  0  0  0
   -1.0817    3.4086   10.5358 C   0  0  0  0  0  0  0  0  0  0  0  0
   -2.2009    2.5675    8.6087 O   0  0  0  0  0  0  0  0  0  0  0  0
   -3.7965    6.1709    8.4114 H   0  0  0  0  0  0  0  0  0  0  0  0
   -4.6664    3.1315    7.4849 N   0  0  0  0  0  0  0  0  0  0  0  0
   -5.7923    2.3114    7.1164 C   0  0  0  0  0  0  0  0  0  0  0  0
   -2.1743    4.2808    6.6211 H   0  0  0  0  0  0  0  0  0  0  0  0
   -3.1017    5.6800    6.0896 H   0  0  0  0  0  0  0  0  0  0  0  0
   -0.6668    5.2960    4.7969 H   0  0  0  0  0  0  0  0  0  0  0  0
   -0.7759    2.7331    3.3173 H   0  0  0  0  0  0  0  0  0  0  0  0
   -1.1442    4.3162    2.5914 H   0  0  0  0  0  0  0  0  0  0  0  0
   -2.8923    2.7514    4.6237 H   0  0  0  0  0  0  0  0  0  0  0  0
   -3.4164    5.1363    2.7514 H   0  0  0  0  0  0  0  0  0  0  0  0
   -3.2909    0.3636    2.3099 H   0  0  0  0  0  0  0  0  0  0  0  0
   -3.0483    1.3577    0.8425 H   0  0  0  0  0  0  0  0  0  0  0  0
   -3.8083    0.5414   -1.2508 H   0  0  0  0  0  0  0  0  0  0  0  0
   -5.0565   -1.1247   -2.6024 H   0  0  0  0  0  0  0  0  0  0  0  0
   -6.7275   -2.7839    1.0114 H   0  0  0  0  0  0  0  0  0  0  0  0
   -5.4671   -1.1041    2.3563 H   0  0  0  0  0  0  0  0  0  0  0  0
   -8.7101    1.8711    4.1949 H   0  0  0  0  0  0  0  0  0  0  0  0
   -8.8301    4.0346    4.8717 H   0  0  0  0  0  0  0  0  0  0  0  0
   -7.7548    8.0265    6.2770 H   0  0  0  0  0  0  0  0  0  0  0  0
   -6.5573    7.9567    4.9522 H   0  0  0  0  0  0  0  0  0  0  0  0
   -6.2626    7.0528    6.4946 H   0  0  0  0  0  0  0  0  0  0  0  0
   -5.1463    6.2318    4.4877 H   0  0  0  0  0  0  0  0  0  0  0  0
   -2.4666    5.3797    9.9499 H   0  0  0  0  0  0  0  0  0  0  0  0
   -0.1044    3.7319   10.1460 H   0  0  0  0  0  0  0  0  0  0  0  0
   -0.9924    2.3636   10.8555 H   0  0  0  0  0  0  0  0  0  0  0  0
   -1.3467    4.0447   11.3919 H   0  0  0  0  0  0  0  0  0  0  0  0
   -3.7593    2.6958    7.6770 H   0  0  0  0  0  0  0  0  0  0  0  0
   -6.6412    2.9693    6.8927 H   0  0  0  0  0  0  0  0  0  0  0  0
   -6.0785    1.6299    7.9359 H   0  0  0  0  0  0  0  0  0  0  0  0
   -5.5633    1.7090    6.2245 H   0  0  0  0  0  0  0  0  0  0  0  0
    2.2268    5.5462    6.1300 H   0  0  0  0  0  0  0  0  0  0  0  0
   -0.0831    3.9625    7.5288 H   0  0  0  0  0  0  0  0  0  0  0  0
    0.9593    5.2437    8.3164 H   0  0  0  0  0  0  0  0  0  0  0  0
  1  2  2  0  0  0  0
  2  3  1  0  0  0  0
  3 39  1  1  0  0  0
  3 35  1  0  0  0  0
  4  5  1  0  0  0  0
  4  3  1  0  0  0  0
  5  6  1  0  0  0  0
  6 70  1  0  0  0  0
  6 71  1  0  0  0  0
  7  6  1  0  0  0  0
  8  9  2  0  0  0  0
  8  7  1  0  0  0  0
 10 44  1  0  0  0  0
 10  8  1  0  0  0  0
 11 12  1  0  0  0  0
 11 10  1  0  0  0  0
 12 47  1  0  0  0  0
 13 14  1  0  0  0  0
 13 12  2  0  0  0  0
 14 33  1  0  0  0  0
 15 14  2  0  0  0  0
 15 27  1  0  0  0  0
 16 15  1  0  0  0  0
 16 26  2  0  0  0  0
 17 16  1  0  0  0  0
 18 17  1  0  0  0  0
 18 49  1  0  0  0  0
 19 25  1  0  0  0  0
 19 18  1  0  0  0  0
 20 19  2  0  0  0  0
 21 22  2  0  0  0  0
 21 20  1  0  0  0  0
 22 24  1  0  0  0  0
 23 22  1  0  0  0  0
 24 53  1  0  0  0  0
 24 25  2  0  0  0  0
 25 54  1  0  0  0  0
 27 29  2  0  0  0  0
 28 27  1  0  0  0  0
 28 55  1  0  0  0  0
 29 30  1  0  0  0  0
 29 56  1  0  0  0  0
 30 31  1  0  0  0  0
 31 32  1  0  0  0  0
 32 57  1  0  0  0  0
 32 59  1  0  0  0  0
 33 60  1  0  0  0  0
 33 30  2  0  0  0  0
 34  8  2  0  0  0  0
 35 36  1  0  0  0  0
 35 61  1  0  0  0  0
 36 37  1  0  0  0  0
 37 63  1  0  0  0  0
 37 64  1  0  0  0  0
 38 36  2  0  0  0  0
 40 65  1  0  0  0  0
 40  2  1  0  0  0  0
 41 40  1  0  0  0  0
 41 67  1  0  0  0  0
 42  4  1  0  0  0  0
 43  4  1  0  0  0  0
 45 11  1  0  0  0  0
 46 11  1  0  0  0  0
 48 13  1  0  0  0  0
 50 18  1  0  0  0  0
 51 20  1  0  0  0  0
 52 21  1  0  0  0  0
 58 32  1  0  0  0  0
 62 37  1  0  0  0  0
 66 41  1  0  0  0  0
 68 41  1  0  0  0  0
 69  7  1  0  0  0  0
M  END
