-1 1
 OpenBabel05192410563D

 71 72  0  0  1  0  0  0  0  0999 V2000
   -1.2116    3.5781    4.1892 O   0  0  0  0  0  0  0  0  0  0  0  0
   -0.3858    2.6722    4.2567 C   0  0  0  0  0  0  0  0  0  0  0  0
    1.0502    3.0779    4.6417 C   0  0  2  0  0  0  0  0  0  0  0  0
    1.7214    3.8557    3.4958 C   0  0  0  0  0  0  0  0  0  0  0  0
    3.1134    4.8795    4.0655 S   0  0  0  0  0  0  0  0  0  0  0  0
    4.6698    3.8560    3.6673 C   0  0  0  0  0  0  0  0  0  0  0  0
    5.0286    3.5876    2.2713 C   0  0  0  0  0  3  0  0  0  0  0  0
    4.7798    2.1069    1.5817 S   0  0  0  0  0  0  0  0  0  0  0  0
    4.8888    0.9881    2.5489 O   0  0  0  0  0  0  0  0  0  0  0  0
    3.0931    1.9885    1.1545 N   0  0  0  0  0  0  0  0  0  0  0  0
    2.5317    0.6895    0.8248 C   0  0  0  0  0  0  0  0  0  0  0  0
    1.0407    0.8290    0.8298 C   0  0  0  0  0  0  0  0  0  0  0  0
    0.2289    0.5489   -0.1956 C   0  0  0  0  0  0  0  0  0  0  0  0
   -1.2361    0.7673   -0.1510 C   0  0  0  0  0  0  0  0  0  0  0  0
   -2.1493   -0.2057   -0.6080 C   0  0  0  0  0  0  0  0  0  0  0  0
   -1.7175   -1.5369   -1.1181 C   0  0  0  0  0  0  0  0  0  0  0  0
   -0.7933   -1.4363   -2.0917 O   0  0  0  0  0  0  0  0  0  0  0  0
   -0.2048   -2.6418   -2.5708 C   0  0  0  0  0  0  0  0  0  0  0  0
   -0.9186   -3.1669   -3.7927 C   0  0  0  0  0  0  0  0  0  0  0  0
   -0.3654   -3.0041   -5.0649 C   0  0  0  0  0  0  0  0  0  0  0  0
   -1.0195   -3.4762   -6.2021 C   0  0  0  0  0  0  0  0  0  0  0  0
   -2.2473   -4.1148   -6.0557 C   0  0  0  0  0  0  0  0  0  0  0  0
   -3.1519   -4.7638   -7.5952 Br  0  0  0  0  0  0  0  0  0  0  0  0
   -2.8242   -4.2864   -4.7983 C   0  0  0  0  0  0  0  0  0  0  0  0
   -2.1554   -3.8131   -3.6732 C   0  0  0  0  0  0  0  0  0  0  0  0
   -2.1353   -2.5973   -0.7266 O   0  0  0  0  0  0  0  0  0  0  0  0
   -3.5314    0.0456   -0.4930 C   0  0  0  0  0  0  0  0  0  0  0  0
   -4.3907   -0.8856   -0.9594 O   0  0  0  0  0  0  0  0  0  0  0  0
   -3.9933    1.2361    0.0546 C   0  0  0  0  0  0  0  0  0  0  0  0
   -3.0856    2.1994    0.5112 C   0  0  0  0  0  0  0  0  0  0  0  0
   -3.6281    3.3150    1.0206 O   0  0  0  0  0  0  0  0  0  0  0  0
   -2.7835    4.3632    1.4532 C   0  0  0  0  0  0  0  0  0  0  0  0
   -1.7130    1.9621    0.4075 C   0  0  0  0  0  0  0  0  0  0  0  0
    5.5115    1.9824    0.3036 O   0  0  0  0  0  0  0  0  0  0  0  0
    1.9650    2.1041    5.2412 N   0  0  0  0  0  0  0  0  0  0  0  0
    2.3710    0.8866    4.7911 C   0  0  0  0  0  0  0  0  0  0  0  0
    3.6731    0.3822    5.3538 C   0  0  0  0  0  0  0  0  0  0  0  0
    1.7395    0.2089    3.9860 O   0  0  0  0  0  0  0  0  0  0  0  0
    0.8569    3.8045    5.4442 H   0  0  0  0  0  0  0  0  0  0  0  0
   -0.6640    1.3851    4.0000 N   0  0  0  0  0  0  0  0  0  0  0  0
   -1.9836    0.9268    3.6431 C   0  0  0  0  0  0  0  0  0  0  0  0
    2.0890    3.1728    2.7108 H   0  0  0  0  0  0  0  0  0  0  0  0
    0.9769    4.5337    3.0561 H   0  0  0  0  0  0  0  0  0  0  0  0
    2.9353    2.6742    0.4168 H   0  0  0  0  0  0  0  0  0  0  0  0
    2.8315    0.0014    1.6303 H   0  0  0  0  0  0  0  0  0  0  0  0
    2.8921    0.2775   -0.1376 H   0  0  0  0  0  0  0  0  0  0  0  0
    0.6246    1.2146    1.7663 H   0  0  0  0  0  0  0  0  0  0  0  0
    0.6419    0.1278   -1.1154 H   0  0  0  0  0  0  0  0  0  0  0  0
   -0.2125   -3.3922   -1.7681 H   0  0  0  0  0  0  0  0  0  0  0  0
    0.8342   -2.3840   -2.8148 H   0  0  0  0  0  0  0  0  0  0  0  0
    0.5967   -2.4976   -5.1760 H   0  0  0  0  0  0  0  0  0  0  0  0
   -0.5779   -3.3452   -7.1910 H   0  0  0  0  0  0  0  0  0  0  0  0
   -3.7880   -4.7875   -4.6974 H   0  0  0  0  0  0  0  0  0  0  0  0
   -2.5970   -3.9309   -2.6813 H   0  0  0  0  0  0  0  0  0  0  0  0
   -5.2898   -0.5764   -0.8202 H   0  0  0  0  0  0  0  0  0  0  0  0
   -5.0627    1.4479    0.1274 H   0  0  0  0  0  0  0  0  0  0  0  0
   -3.4483    5.1858    1.7439 H   0  0  0  0  0  0  0  0  0  0  0  0
   -2.1280    4.7074    0.6353 H   0  0  0  0  0  0  0  0  0  0  0  0
   -2.1799    4.0690    2.3274 H   0  0  0  0  0  0  0  0  0  0  0  0
   -0.9895    2.6937    0.7639 H   0  0  0  0  0  0  0  0  0  0  0  0
    2.6382    2.5722    5.8371 H   0  0  0  0  0  0  0  0  0  0  0  0
    4.4189    0.5273    4.5522 H   0  0  0  0  0  0  0  0  0  0  0  0
    3.5838   -0.6941    5.5476 H   0  0  0  0  0  0  0  0  0  0  0  0
    3.9929    0.9074    6.2645 H   0  0  0  0  0  0  0  0  0  0  0  0
    0.1359    0.7363    3.9669 H   0  0  0  0  0  0  0  0  0  0  0  0
   -2.6210    1.7916    3.4202 H   0  0  0  0  0  0  0  0  0  0  0  0
   -2.4459    0.3547    4.4652 H   0  0  0  0  0  0  0  0  0  0  0  0
   -1.9376    0.2828    2.7524 H   0  0  0  0  0  0  0  0  0  0  0  0
    5.3569    4.3596    1.5772 H   0  0  0  0  0  0  0  0  0  0  0  0
    4.5850    2.9215    4.2382 H   0  0  0  0  0  0  0  0  0  0  0  0
    5.4161    4.4850    4.1808 H   0  0  0  0  0  0  0  0  0  0  0  0
  1  2  2  0  0  0  0
  2  3  1  0  0  0  0
  3 35  1  0  0  0  0
  3 39  1  1  0  0  0
  4  5  1  0  0  0  0
  4  3  1  0  0  0  0
  6  5  1  0  0  0  0
  6 71  1  0  0  0  0
  6 70  1  0  0  0  0
  7  6  1  0  0  0  0
  8  7  1  0  0  0  0
  8  9  2  0  0  0  0
 10  8  1  0  0  0  0
 11 12  1  0  0  0  0
 11 10  1  0  0  0  0
 11 45  1  0  0  0  0
 12 47  1  0  0  0  0
 13 14  1  0  0  0  0
 13 12  2  0  0  0  0
 14 33  1  0  0  0  0
 15 27  1  0  0  0  0
 15 14  2  0  0  0  0
 16 26  2  0  0  0  0
 16 15  1  0  0  0  0
 17 16  1  0  0  0  0
 18 17  1  0  0  0  0
 18 49  1  0  0  0  0
 19 25  1  0  0  0  0
 19 18  1  0  0  0  0
 20 19  2  0  0  0  0
 21 22  2  0  0  0  0
 21 20  1  0  0  0  0
 22 24  1  0  0  0  0
 23 22  1  0  0  0  0
 24 53  1  0  0  0  0
 24 25  2  0  0  0  0
 25 54  1  0  0  0  0
 27 29  2  0  0  0  0
 28 55  1  0  0  0  0
 28 27  1  0  0  0  0
 29 56  1  0  0  0  0
 29 30  1  0  0  0  0
 30 31  1  0  0  0  0
 31 32  1  0  0  0  0
 32 57  1  0  0  0  0
 32 59  1  0  0  0  0
 33 30  2  0  0  0  0
 33 60  1  0  0  0  0
 34  8  2  0  0  0  0
 35 61  1  0  0  0  0
 36 35  1  0  0  0  0
 36 37  1  0  0  0  0
 37 63  1  0  0  0  0
 37 64  1  0  0  0  0
 38 36  2  0  0  0  0
 40  2  1  0  0  0  0
 41 40  1  0  0  0  0
 41 67  1  0  0  0  0
 42  4  1  0  0  0  0
 43  4  1  0  0  0  0
 44 10  1  0  0  0  0
 46 11  1  0  0  0  0
 48 13  1  0  0  0  0
 50 18  1  0  0  0  0
 51 20  1  0  0  0  0
 52 21  1  0  0  0  0
 58 32  1  0  0  0  0
 62 37  1  0  0  0  0
 65 40  1  0  0  0  0
 66 41  1  0  0  0  0
 68 41  1  0  0  0  0
 69  7  1  0  0  0  0
M  END
