71
-1 1
O         2.833380   -2.077499    3.228355
C         2.553867   -0.893312    3.195776
C         1.183769   -0.343444    3.591869
C         1.003583   -0.359215    5.120328
S        -0.651195    0.227221    5.626665
C         0.573844    3.077659    5.202900
C         0.313902    3.947701    4.223141
S         1.250055    3.957743    2.743320
O         2.306973    2.941873    2.839008
N         0.110973    3.529936    1.597286
C        -0.303857    2.123921    1.532808
C        -1.354920    1.968965    0.476275
C        -1.193219    1.139875   -0.562485
C        -2.144212    0.909543   -1.667930
C        -1.974370   -0.203121   -2.506835
C        -0.900097   -1.227237   -2.277921
O         0.321502   -0.722833   -2.490775
C         1.426871   -1.552919   -2.144073
C         1.677279   -2.660932   -3.136724
C         1.241307   -2.575714   -4.461252
C         1.522727   -3.590074   -5.374253
C         2.254418   -4.691365   -4.951199
F         2.530477   -5.668784   -5.825234
C         2.700344   -4.806322   -3.641002
C         2.402336   -3.787882   -2.738587
O        -1.107877   -2.363528   -1.951244
C        -2.880847   -0.420039   -3.560071
O        -2.656002   -1.480174   -4.365348
C        -3.943854    0.448647   -3.771801
C        -4.118288    1.552461   -2.927012
O        -5.177994    2.341667   -3.208626
C        -5.421370    3.461044   -2.401478
C        -3.222793    1.784737   -1.887048
O         1.636815    5.323562    2.387744
N         0.105584   -1.098643    3.004296
C        -0.035623   -1.324316    1.692024
C        -1.320198   -2.007911    1.279250
O         0.803486   -0.976305    0.857094
H         1.127971    0.705521    3.263603
N         3.445584    0.089060    2.894189
C         4.802585   -0.196520    2.521173
H         1.181552   -1.388765    5.471543
H         1.807660    0.261898    5.552126
H         0.415880    3.912072    0.701993
H        -0.708874    1.844284    2.522718
H         0.540234    1.449317    1.317175
H        -2.258678    2.576026    0.601256
H        -0.277621    0.543134   -0.579699
H         1.282418   -1.932503   -1.121984
H         2.283998   -0.864697   -2.120916
H         0.654695   -1.711418   -4.778980
H         1.178885   -3.538853   -6.408711
H         3.262138   -5.691517   -3.338520
H         2.733080   -3.875803   -1.700507
H        -3.354182   -1.538892   -5.022862
H        -4.647929    0.297543   -4.593242
H        -6.324603    3.942570   -2.796353
H        -4.587090    4.183009   -2.438041
H        -5.598313    3.177480   -1.349544
H        -3.335970    2.650589   -1.237728
H        -0.691494   -1.195327    3.639690
H        -1.847432   -2.467977    2.125520
H        -1.102271   -2.760291    0.511217
H        -1.979295   -1.257853    0.815067
H         3.103120    1.043181    2.819214
H         5.517355    0.388392    3.122745
H         4.990517    0.019137    1.455225
H         4.979068   -1.266382    2.694237
H        -0.482799    4.693221    4.229536
H         1.396497    2.366407    5.122636
H         0.002721    3.076450    6.130092
