-1 1
 OpenBabel05232413493D

 71 71  0  0  1  0  0  0  0  0999 V2000
    2.8334   -2.0775    3.2284 O   0  0  0  0  0  0  0  0  0  0  0  0
    2.5539   -0.8933    3.1958 C   0  0  0  0  0  0  0  0  0  0  0  0
    1.1838   -0.3434    3.5919 C   0  0  2  0  0  0  0  0  0  0  0  0
    1.0036   -0.3592    5.1203 C   0  0  0  0  0  0  0  0  0  0  0  0
   -0.6512    0.2272    5.6267 S   0  0  0  0  0  1  0  0  0  0  0  0
    0.5738    3.0777    5.2029 C   0  0  0  0  0  0  0  0  0  0  0  0
    0.3139    3.9477    4.2231 C   0  0  0  0  0  0  0  0  0  0  0  0
    1.2501    3.9577    2.7433 S   0  0  0  0  0  0  0  0  0  0  0  0
    2.3070    2.9419    2.8390 O   0  0  0  0  0  0  0  0  0  0  0  0
    0.1110    3.5299    1.5973 N   0  0  0  0  0  0  0  0  0  0  0  0
   -0.3039    2.1239    1.5328 C   0  0  0  0  0  0  0  0  0  0  0  0
   -1.3549    1.9690    0.4763 C   0  0  0  0  0  0  0  0  0  0  0  0
   -1.1932    1.1399   -0.5625 C   0  0  0  0  0  0  0  0  0  0  0  0
   -2.1442    0.9095   -1.6679 C   0  0  0  0  0  0  0  0  0  0  0  0
   -1.9744   -0.2031   -2.5068 C   0  0  0  0  0  0  0  0  0  0  0  0
   -0.9001   -1.2272   -2.2779 C   0  0  0  0  0  0  0  0  0  0  0  0
    0.3215   -0.7228   -2.4908 O   0  0  0  0  0  0  0  0  0  0  0  0
    1.4269   -1.5529   -2.1441 C   0  0  0  0  0  0  0  0  0  0  0  0
    1.6773   -2.6609   -3.1367 C   0  0  0  0  0  0  0  0  0  0  0  0
    1.2413   -2.5757   -4.4613 C   0  0  0  0  0  0  0  0  0  0  0  0
    1.5227   -3.5901   -5.3743 C   0  0  0  0  0  0  0  0  0  0  0  0
    2.2544   -4.6914   -4.9512 C   0  0  0  0  0  0  0  0  0  0  0  0
    2.5305   -5.6688   -5.8252 F   0  0  0  0  0  0  0  0  0  0  0  0
    2.7003   -4.8063   -3.6410 C   0  0  0  0  0  0  0  0  0  0  0  0
    2.4023   -3.7879   -2.7386 C   0  0  0  0  0  0  0  0  0  0  0  0
   -1.1079   -2.3635   -1.9512 O   0  0  0  0  0  0  0  0  0  0  0  0
   -2.8808   -0.4200   -3.5601 C   0  0  0  0  0  0  0  0  0  0  0  0
   -2.6560   -1.4802   -4.3653 O   0  0  0  0  0  0  0  0  0  0  0  0
   -3.9439    0.4486   -3.7718 C   0  0  0  0  0  0  0  0  0  0  0  0
   -4.1183    1.5525   -2.9270 C   0  0  0  0  0  0  0  0  0  0  0  0
   -5.1780    2.3417   -3.2086 O   0  0  0  0  0  0  0  0  0  0  0  0
   -5.4214    3.4610   -2.4015 C   0  0  0  0  0  0  0  0  0  0  0  0
   -3.2228    1.7847   -1.8870 C   0  0  0  0  0  0  0  0  0  0  0  0
    1.6368    5.3236    2.3877 O   0  0  0  0  0  0  0  0  0  0  0  0
    0.1056   -1.0986    3.0043 N   0  0  0  0  0  0  0  0  0  0  0  0
   -0.0356   -1.3243    1.6920 C   0  0  0  0  0  0  0  0  0  0  0  0
   -1.3202   -2.0079    1.2792 C   0  0  0  0  0  0  0  0  0  0  0  0
    0.8035   -0.9763    0.8571 O   0  0  0  0  0  0  0  0  0  0  0  0
    1.1280    0.7055    3.2636 H   0  0  0  0  0  0  0  0  0  0  0  0
    3.4456    0.0891    2.8942 N   0  0  0  0  0  0  0  0  0  0  0  0
    4.8026   -0.1965    2.5212 C   0  0  0  0  0  0  0  0  0  0  0  0
    1.1816   -1.3888    5.4715 H   0  0  0  0  0  0  0  0  0  0  0  0
    1.8077    0.2619    5.5521 H   0  0  0  0  0  0  0  0  0  0  0  0
    0.4159    3.9121    0.7020 H   0  0  0  0  0  0  0  0  0  0  0  0
   -0.7089    1.8443    2.5227 H   0  0  0  0  0  0  0  0  0  0  0  0
    0.5402    1.4493    1.3172 H   0  0  0  0  0  0  0  0  0  0  0  0
   -2.2587    2.5760    0.6013 H   0  0  0  0  0  0  0  0  0  0  0  0
   -0.2776    0.5431   -0.5797 H   0  0  0  0  0  0  0  0  0  0  0  0
    1.2824   -1.9325   -1.1220 H   0  0  0  0  0  0  0  0  0  0  0  0
    2.2840   -0.8647   -2.1209 H   0  0  0  0  0  0  0  0  0  0  0  0
    0.6547   -1.7114   -4.7790 H   0  0  0  0  0  0  0  0  0  0  0  0
    1.1789   -3.5389   -6.4087 H   0  0  0  0  0  0  0  0  0  0  0  0
    3.2621   -5.6915   -3.3385 H   0  0  0  0  0  0  0  0  0  0  0  0
    2.7331   -3.8758   -1.7005 H   0  0  0  0  0  0  0  0  0  0  0  0
   -3.3542   -1.5389   -5.0229 H   0  0  0  0  0  0  0  0  0  0  0  0
   -4.6479    0.2975   -4.5932 H   0  0  0  0  0  0  0  0  0  0  0  0
   -6.3246    3.9426   -2.7964 H   0  0  0  0  0  0  0  0  0  0  0  0
   -4.5871    4.1830   -2.4380 H   0  0  0  0  0  0  0  0  0  0  0  0
   -5.5983    3.1775   -1.3495 H   0  0  0  0  0  0  0  0  0  0  0  0
   -3.3360    2.6506   -1.2377 H   0  0  0  0  0  0  0  0  0  0  0  0
   -0.6915   -1.1953    3.6397 H   0  0  0  0  0  0  0  0  0  0  0  0
   -1.8474   -2.4680    2.1255 H   0  0  0  0  0  0  0  0  0  0  0  0
   -1.1023   -2.7603    0.5112 H   0  0  0  0  0  0  0  0  0  0  0  0
   -1.9793   -1.2579    0.8151 H   0  0  0  0  0  0  0  0  0  0  0  0
    3.1031    1.0432    2.8192 H   0  0  0  0  0  0  0  0  0  0  0  0
    5.5174    0.3884    3.1227 H   0  0  0  0  0  0  0  0  0  0  0  0
    4.9905    0.0191    1.4552 H   0  0  0  0  0  0  0  0  0  0  0  0
    4.9791   -1.2664    2.6942 H   0  0  0  0  0  0  0  0  0  0  0  0
   -0.4828    4.6932    4.2295 H   0  0  0  0  0  0  0  0  0  0  0  0
    1.3965    2.3664    5.1226 H   0  0  0  0  0  0  0  0  0  0  0  0
    0.0027    3.0764    6.1301 H   0  0  0  0  0  0  0  0  0  0  0  0
  2  1  2  0  0  0  0
  2  3  1  0  0  0  0
  3 39  1  6  0  0  0
  3  4  1  0  0  0  0
  4 42  1  0  0  0  0
  4 43  1  0  0  0  0
  4  5  1  0  0  0  0
  6 71  1  0  0  0  0
  7 69  1  0  0  0  0
  7  6  2  0  0  0  0
  8  9  2  0  0  0  0
  8  7  1  0  0  0  0
 10  8  1  0  0  0  0
 11 10  1  0  0  0  0
 11 45  1  0  0  0  0
 12 47  1  0  0  0  0
 12 11  1  0  0  0  0
 13 12  2  0  0  0  0
 14 13  1  0  0  0  0
 15 16  1  0  0  0  0
 15 14  2  0  0  0  0
 16 26  2  0  0  0  0
 17 16  1  0  0  0  0
 17 18  1  0  0  0  0
 18 50  1  0  0  0  0
 18 49  1  0  0  0  0
 19 25  1  0  0  0  0
 19 18  1  0  0  0  0
 20 19  2  0  0  0  0
 21 22  2  0  0  0  0
 21 20  1  0  0  0  0
 22 24  1  0  0  0  0
 23 22  1  0  0  0  0
 24 53  1  0  0  0  0
 24 25  2  0  0  0  0
 25 54  1  0  0  0  0
 27 15  1  0  0  0  0
 28 27  1  0  0  0  0
 29 27  2  0  0  0  0
 29 30  1  0  0  0  0
 30 33  2  0  0  0  0
 31 30  1  0  0  0  0
 31 32  1  0  0  0  0
 32 59  1  0  0  0  0
 33 14  1  0  0  0  0
 33 60  1  0  0  0  0
 34  8  2  0  0  0  0
 35  3  1  0  0  0  0
 35 61  1  0  0  0  0
 36 35  1  0  0  0  0
 37 36  1  0  0  0  0
 37 62  1  0  0  0  0
 38 36  2  0  0  0  0
 40  2  1  0  0  0  0
 41 68  1  0  0  0  0
 41 40  1  0  0  0  0
 41 66  1  0  0  0  0
 44 10  1  0  0  0  0
 46 11  1  0  0  0  0
 48 13  1  0  0  0  0
 51 20  1  0  0  0  0
 52 21  1  0  0  0  0
 55 28  1  0  0  0  0
 56 29  1  0  0  0  0
 57 32  1  0  0  0  0
 58 32  1  0  0  0  0
 63 37  1  0  0  0  0
 64 37  1  0  0  0  0
 65 40  1  0  0  0  0
 67 41  1  0  0  0  0
 70  6  1  0  0  0  0
M  END
