69
-1 1
O        -1.417565   -2.517154    4.850207
C        -0.658469   -2.198153    3.956352
C        -0.921788   -1.001665    3.026534
C        -2.388124   -0.565439    2.995209
S        -2.653850    1.044755    2.163224
C        -3.353018   -0.743011   -1.041349
C        -3.435508   -0.625131   -2.374884
C        -2.685189    0.286291   -3.280711
N        -2.408851    1.572406   -2.913061
C        -2.561836    2.241457   -1.645797
C        -1.348810    2.197088   -0.761829
C        -0.252289    1.479215   -1.036013
C         0.920118    1.363662   -0.147802
C         2.129822    0.733065   -0.544324
C         2.320966    0.002216   -1.834526
O         1.667747    0.543645   -2.872012
C         1.668210   -0.175781   -4.119112
C         0.816961   -1.434639   -4.034240
C         1.145660    0.796050   -5.161754
O         2.980301   -1.003458   -1.945174
C         3.187324    0.671513    0.398743
O         4.374919    0.158634    0.017195
C         3.031357    1.154821    1.693554
C         1.810072    1.705442    2.094131
O         1.709994    2.077620    3.378771
C         0.520668    2.714451    3.810130
C         0.774570    1.825403    1.170935
O        -2.345049   -0.104561   -4.393729
C        -4.087948   -1.769532   -0.245862
N        -0.334545   -1.216476    1.711105
C        -0.693618   -2.256831    0.907444
C        -0.187559   -2.158562   -0.518261
O        -1.330857   -3.215536    1.312265
H        -0.338012   -0.175781    3.469739
N         0.556166   -2.793230    3.768026
C         0.921650   -4.006063    4.445415
H        -2.968762   -1.364790    2.508861
H        -2.730100   -0.523535    4.038529
H        -1.830574    2.040307   -3.602636
H        -3.414941    1.817763   -1.092969
H        -2.830165    3.294880   -1.838520
H        -1.435072    2.790858    0.149893
H        -0.223269    0.925243   -1.970725
H         2.713687   -0.452009   -4.332064
H        -0.237920   -1.180626   -3.851949
H         1.186677   -2.107479   -3.250755
H         0.864799   -1.967991   -4.995935
H         0.071566    0.979338   -5.004347
H         1.264056    0.363745   -6.166358
H         1.695130    1.747543   -5.120966
H         4.973892    0.191963    0.767790
H         3.847230    1.092558    2.418099
H         0.633938    2.870475    4.889720
H        -0.382155    2.109855    3.610273
H         0.399443    3.691484    3.311428
H        -0.210377    2.152012    1.504901
H        -4.793644   -2.348745   -0.860177
H        -4.627372   -1.269394    0.574165
H        -3.376631   -2.461935    0.233381
H        -0.015603   -0.371106    1.250130
H         0.909634   -2.074623   -0.540813
H        -0.602906   -1.269583   -1.014987
H        -0.499875   -3.052947   -1.069130
H         1.050383   -2.529677    2.925577
H         0.798167   -4.893875    3.801000
H         0.257545   -4.116945    5.312528
H         1.965336   -3.968385    4.796983
H        -4.034726   -1.345364   -2.943039
H        -2.720843   -0.084109   -0.428975
