-1 1
 OpenBabel05232413493D

 69 68  0  0  1  0  0  0  0  0999 V2000
   -1.4176   -2.5172    4.8502 O   0  0  0  0  0  0  0  0  0  0  0  0
   -0.6585   -2.1982    3.9564 C   0  0  0  0  0  0  0  0  0  0  0  0
   -0.9218   -1.0017    3.0265 C   0  0  2  0  0  0  0  0  0  0  0  0
   -2.3881   -0.5654    2.9952 C   0  0  0  0  0  0  0  0  0  0  0  0
   -2.6538    1.0448    2.1632 S   0  0  0  0  0  1  0  0  0  0  0  0
   -3.3530   -0.7430   -1.0413 C   0  0  0  0  0  0  0  0  0  0  0  0
   -3.4355   -0.6251   -2.3749 C   0  0  0  0  0  0  0  0  0  0  0  0
   -2.6852    0.2863   -3.2807 C   0  0  0  0  0  0  0  0  0  0  0  0
   -2.4089    1.5724   -2.9131 N   0  0  0  0  0  0  0  0  0  0  0  0
   -2.5618    2.2415   -1.6458 C   0  0  0  0  0  0  0  0  0  0  0  0
   -1.3488    2.1971   -0.7618 C   0  0  0  0  0  0  0  0  0  0  0  0
   -0.2523    1.4792   -1.0360 C   0  0  0  0  0  0  0  0  0  0  0  0
    0.9201    1.3637   -0.1478 C   0  0  0  0  0  0  0  0  0  0  0  0
    2.1298    0.7331   -0.5443 C   0  0  0  0  0  0  0  0  0  0  0  0
    2.3210    0.0022   -1.8345 C   0  0  0  0  0  0  0  0  0  0  0  0
    1.6677    0.5436   -2.8720 O   0  0  0  0  0  0  0  0  0  0  0  0
    1.6682   -0.1758   -4.1191 C   0  0  0  0  0  0  0  0  0  0  0  0
    0.8170   -1.4346   -4.0342 C   0  0  0  0  0  0  0  0  0  0  0  0
    1.1457    0.7961   -5.1618 C   0  0  0  0  0  0  0  0  0  0  0  0
    2.9803   -1.0035   -1.9452 O   0  0  0  0  0  0  0  0  0  0  0  0
    3.1873    0.6715    0.3987 C   0  0  0  0  0  0  0  0  0  0  0  0
    4.3749    0.1586    0.0172 O   0  0  0  0  0  0  0  0  0  0  0  0
    3.0314    1.1548    1.6936 C   0  0  0  0  0  0  0  0  0  0  0  0
    1.8101    1.7054    2.0941 C   0  0  0  0  0  0  0  0  0  0  0  0
    1.7100    2.0776    3.3788 O   0  0  0  0  0  0  0  0  0  0  0  0
    0.5207    2.7145    3.8101 C   0  0  0  0  0  0  0  0  0  0  0  0
    0.7746    1.8254    1.1709 C   0  0  0  0  0  0  0  0  0  0  0  0
   -2.3450   -0.1046   -4.3937 O   0  0  0  0  0  0  0  0  0  0  0  0
   -4.0879   -1.7695   -0.2459 C   0  0  0  0  0  0  0  0  0  0  0  0
   -0.3345   -1.2165    1.7111 N   0  0  0  0  0  0  0  0  0  0  0  0
   -0.6936   -2.2568    0.9074 C   0  0  0  0  0  0  0  0  0  0  0  0
   -0.1876   -2.1586   -0.5183 C   0  0  0  0  0  0  0  0  0  0  0  0
   -1.3309   -3.2155    1.3123 O   0  0  0  0  0  0  0  0  0  0  0  0
   -0.3380   -0.1758    3.4697 H   0  0  0  0  0  0  0  0  0  0  0  0
    0.5562   -2.7932    3.7680 N   0  0  0  0  0  0  0  0  0  0  0  0
    0.9216   -4.0061    4.4454 C   0  0  0  0  0  0  0  0  0  0  0  0
   -2.9688   -1.3648    2.5089 H   0  0  0  0  0  0  0  0  0  0  0  0
   -2.7301   -0.5235    4.0385 H   0  0  0  0  0  0  0  0  0  0  0  0
   -1.8306    2.0403   -3.6026 H   0  0  0  0  0  0  0  0  0  0  0  0
   -3.4149    1.8178   -1.0930 H   0  0  0  0  0  0  0  0  0  0  0  0
   -2.8302    3.2949   -1.8385 H   0  0  0  0  0  0  0  0  0  0  0  0
   -1.4351    2.7909    0.1499 H   0  0  0  0  0  0  0  0  0  0  0  0
   -0.2233    0.9252   -1.9707 H   0  0  0  0  0  0  0  0  0  0  0  0
    2.7137   -0.4520   -4.3321 H   0  0  0  0  0  0  0  0  0  0  0  0
   -0.2379   -1.1806   -3.8519 H   0  0  0  0  0  0  0  0  0  0  0  0
    1.1867   -2.1075   -3.2508 H   0  0  0  0  0  0  0  0  0  0  0  0
    0.8648   -1.9680   -4.9959 H   0  0  0  0  0  0  0  0  0  0  0  0
    0.0716    0.9793   -5.0043 H   0  0  0  0  0  0  0  0  0  0  0  0
    1.2641    0.3637   -6.1664 H   0  0  0  0  0  0  0  0  0  0  0  0
    1.6951    1.7475   -5.1210 H   0  0  0  0  0  0  0  0  0  0  0  0
    4.9739    0.1920    0.7678 H   0  0  0  0  0  0  0  0  0  0  0  0
    3.8472    1.0926    2.4181 H   0  0  0  0  0  0  0  0  0  0  0  0
    0.6339    2.8705    4.8897 H   0  0  0  0  0  0  0  0  0  0  0  0
   -0.3822    2.1099    3.6103 H   0  0  0  0  0  0  0  0  0  0  0  0
    0.3994    3.6915    3.3114 H   0  0  0  0  0  0  0  0  0  0  0  0
   -0.2104    2.1520    1.5049 H   0  0  0  0  0  0  0  0  0  0  0  0
   -4.7936   -2.3487   -0.8602 H   0  0  0  0  0  0  0  0  0  0  0  0
   -4.6274   -1.2694    0.5742 H   0  0  0  0  0  0  0  0  0  0  0  0
   -3.3766   -2.4619    0.2334 H   0  0  0  0  0  0  0  0  0  0  0  0
   -0.0156   -0.3711    1.2501 H   0  0  0  0  0  0  0  0  0  0  0  0
    0.9096   -2.0746   -0.5408 H   0  0  0  0  0  0  0  0  0  0  0  0
   -0.6029   -1.2696   -1.0150 H   0  0  0  0  0  0  0  0  0  0  0  0
   -0.4999   -3.0529   -1.0691 H   0  0  0  0  0  0  0  0  0  0  0  0
    1.0504   -2.5297    2.9256 H   0  0  0  0  0  0  0  0  0  0  0  0
    0.7982   -4.8939    3.8010 H   0  0  0  0  0  0  0  0  0  0  0  0
    0.2575   -4.1169    5.3125 H   0  0  0  0  0  0  0  0  0  0  0  0
    1.9653   -3.9684    4.7970 H   0  0  0  0  0  0  0  0  0  0  0  0
   -4.0347   -1.3454   -2.9430 H   0  0  0  0  0  0  0  0  0  0  0  0
   -2.7208   -0.0841   -0.4290 H   0  0  0  0  0  0  0  0  0  0  0  0
  2  1  2  0  0  0  0
  3 34  1  1  0  0  0
  3  2  1  0  0  0  0
  4  3  1  0  0  0  0
  4 38  1  0  0  0  0
  5  4  1  0  0  0  0
  6 69  1  0  0  0  0
  6 29  1  0  0  0  0
  7  6  2  0  0  0  0
  8  9  1  0  0  0  0
  8  7  1  0  0  0  0
  9 10  1  0  0  0  0
 10 40  1  0  0  0  0
 10 11  1  0  0  0  0
 11 42  1  0  0  0  0
 12 11  2  0  0  0  0
 12 13  1  0  0  0  0
 13 27  1  0  0  0  0
 14 13  2  0  0  0  0
 14 21  1  0  0  0  0
 15 14  1  0  0  0  0
 16 15  1  0  0  0  0
 17 18  1  0  0  0  0
 17 16  1  0  0  0  0
 18 45  1  0  0  0  0
 18 46  1  0  0  0  0
 19 50  1  0  0  0  0
 19 48  1  0  0  0  0
 19 17  1  0  0  0  0
 20 15  2  0  0  0  0
 21 23  2  0  0  0  0
 22 21  1  0  0  0  0
 22 51  1  0  0  0  0
 23 24  1  0  0  0  0
 23 52  1  0  0  0  0
 24 25  1  0  0  0  0
 25 26  1  0  0  0  0
 26 53  1  0  0  0  0
 27 56  1  0  0  0  0
 27 24  2  0  0  0  0
 28  8  2  0  0  0  0
 29 59  1  0  0  0  0
 29 58  1  0  0  0  0
 30  3  1  0  0  0  0
 31 33  2  0  0  0  0
 31 30  1  0  0  0  0
 32 31  1  0  0  0  0
 35  2  1  0  0  0  0
 35 36  1  0  0  0  0
 36 67  1  0  0  0  0
 36 66  1  0  0  0  0
 37  4  1  0  0  0  0
 39  9  1  0  0  0  0
 41 10  1  0  0  0  0
 43 12  1  0  0  0  0
 44 17  1  0  0  0  0
 47 18  1  0  0  0  0
 49 19  1  0  0  0  0
 54 26  1  0  0  0  0
 55 26  1  0  0  0  0
 57 29  1  0  0  0  0
 60 30  1  0  0  0  0
 61 32  1  0  0  0  0
 62 32  1  0  0  0  0
 63 32  1  0  0  0  0
 64 35  1  0  0  0  0
 65 36  1  0  0  0  0
 68  7  1  0  0  0  0
M  END
