74
-1 1
O        -1.923468   -0.821647   -3.050122
C        -0.906873   -1.160704   -2.456885
C        -0.208215   -0.228702   -1.437796
C        -0.880082    1.159368   -1.511134
S         0.106929    2.644170   -1.201601
C         0.662114    2.752293    0.616769
C         0.597480    1.398329    1.303073
C         1.750564    0.696669    1.669957
C         1.656537   -0.589785    2.199966
C         2.907928   -1.368393    2.502061
N         2.916617   -2.619895    1.943171
O         3.815241   -0.940207    3.187126
C         0.404412   -1.179088    2.395850
C        -0.759833   -0.478883    2.086365
C        -2.112377   -1.144123    2.154093
N        -2.455004   -1.821425    0.905408
C        -3.879445   -2.017673    0.740050
C        -4.601412   -0.726870    0.423030
C        -4.283414   -0.004848   -0.731527
C        -4.959016    1.186653   -0.982935
N        -5.905846    1.689009   -0.186223
C        -6.206650    0.998662    0.909047
C        -5.588744   -0.203578    1.257324
C        -1.647311   -2.983810    0.569574
C        -1.785946   -4.196390    1.493207
C        -0.644870    0.813362    1.568936
C         1.942159    3.503025    0.604416
C         3.032945    3.087707   -0.141775
O         3.154539    2.037435   -0.817502
O         4.103282    3.972018   -0.111129
C         5.225803    3.638663   -0.882705
C         5.041992    3.968936   -2.357416
N         1.247098   -0.175178   -1.536693
C         2.037403   -1.154679   -1.066928
C         3.518820   -0.889745   -1.070377
O         1.592747   -2.256769   -0.690666
H        -0.455285   -0.675553   -0.462990
N        -0.366366   -2.391250   -2.589082
C        -0.980589   -3.401467   -3.406813
H        -1.238075    1.321566   -2.537446
H        -1.780602    1.132749   -0.885269
H         2.726238    1.152256    1.499858
H         2.380306   -2.759835    1.082720
H         3.797456   -3.114379    2.022132
H         0.344824   -2.200131    2.782449
H        -2.878201   -0.373229    2.327555
H        -2.160265   -1.834279    3.024504
H        -4.359262   -2.495236    1.623594
H        -4.027426   -2.707748   -0.106495
H        -3.521249   -0.359874   -1.431694
H        -4.716262    1.766448   -1.879947
H        -6.982314    1.422850    1.557807
H        -5.872671   -0.722129    2.177180
H        -0.592217   -2.675101    0.519409
H        -1.911494   -3.275507   -0.459895
H        -1.470907   -3.966660    2.522723
H        -1.149663   -5.018615    1.132473
H        -2.823065   -4.566800    1.533236
H        -1.556884    1.361998    1.313740
H         5.468528    2.568737   -0.772533
H         6.060150    4.224248   -0.461482
H         4.231829    3.351725   -2.769529
H         5.966813    3.767008   -2.922803
H         4.777516    5.029991   -2.485898
H         1.673223    0.768452   -1.564701
H         3.999440   -1.558010   -0.346325
H         3.731707    0.168003   -0.853349
H         3.907447   -1.126923   -2.073656
H         0.375652   -2.636045   -1.925697
H        -1.554161   -2.916408   -4.207294
H        -1.679238   -4.038355   -2.832841
H        -0.211715   -4.049773   -3.852128
H         1.980315    4.480347    1.085260
H        -0.112799    3.376122    1.084901
