-1 1
 OpenBabel05232414493D

 74 74  0  0  1  0  0  0  0  0999 V2000
   -2.2041   -4.5892   -2.9414 O   0  0  0  0  0  0  0  0  0  0  0  0
   -1.3432   -4.5845   -2.0734 C   0  0  0  0  0  0  0  0  0  0  0  0
   -0.8665   -3.2773   -1.4006 C   0  0  2  0  0  0  0  0  0  0  0  0
   -1.5297   -2.0635   -2.0868 C   0  0  0  0  0  0  0  0  0  0  0  0
   -0.7020   -0.4625   -1.8430 S   0  0  0  0  0  1  0  0  0  0  0  0
   -0.8222    0.3752    0.3124 C   0  0  0  0  0  3  0  0  0  0  0  0
   -0.9194   -0.8747    1.1234 C   0  0  0  0  0  0  0  0  0  0  0  0
    0.1583   -1.4148    1.8374 C   0  0  0  0  0  0  0  0  0  0  0  0
    0.0090   -2.5982    2.5569 C   0  0  0  0  0  0  0  0  0  0  0  0
    1.1882   -3.1456    3.3213 C   0  0  0  0  0  0  0  0  0  0  0  0
    1.5147   -4.4327    3.0043 N   0  0  0  0  0  0  0  0  0  0  0  0
    1.7720   -2.4971    4.1679 O   0  0  0  0  0  0  0  0  0  0  0  0
   -1.2289   -3.2431    2.6030 C   0  0  0  0  0  0  0  0  0  0  0  0
   -2.3441   -2.6700    1.9873 C   0  0  0  0  0  0  0  0  0  0  0  0
   -3.7094   -3.2807    2.2237 C   0  0  0  0  0  0  0  0  0  0  0  0
   -4.6436   -3.1767    1.1186 N   0  0  0  0  0  0  0  0  0  0  0  0
   -6.0002   -3.4528    1.5203 C   0  0  0  0  0  0  0  0  0  0  0  0
   -6.6223   -2.3530    2.3552 C   0  0  0  0  0  0  0  0  0  0  0  0
   -6.2492   -1.0169    2.1967 C   0  0  0  0  0  0  0  0  0  0  0  0
   -6.8888   -0.0413    2.9584 C   0  0  0  0  0  0  0  0  0  0  0  0
   -7.8538   -0.3017    3.8407 N   0  0  0  0  0  0  0  0  0  0  0  0
   -8.2057   -1.5764    3.9933 C   0  0  0  0  0  0  0  0  0  0  0  0
   -7.6251   -2.6284    3.2873 C   0  0  0  0  0  0  0  0  0  0  0  0
   -4.2331   -3.8471   -0.1073 C   0  0  0  0  0  0  0  0  0  0  0  0
   -4.0358   -5.3613   -0.0368 C   0  0  0  0  0  0  0  0  0  0  0  0
   -2.1727   -1.4988    1.2459 C   0  0  0  0  0  0  0  0  0  0  0  0
    0.1665    1.3753    0.3715 C   0  0  0  0  0  3  0  0  0  0  0  0
    1.5788    1.2054    0.4005 C   0  0  0  0  0  0  0  0  0  0  0  0
    2.2460    0.1723    0.4538 O   0  0  0  0  0  0  0  0  0  0  0  0
    2.2283    2.4161    0.3377 O   0  0  0  0  0  0  0  0  0  0  0  0
    3.6360    2.3815    0.2861 C   0  0  0  0  0  0  0  0  0  0  0  0
    4.1512    2.1326   -1.1227 C   0  0  0  0  0  0  0  0  0  0  0  0
    0.5772   -3.0898   -1.3521 N   0  0  0  0  0  0  0  0  0  0  0  0
    1.3729   -3.6593   -0.4316 C   0  0  0  0  0  0  0  0  0  0  0  0
    2.6999   -2.9830   -0.2050 C   0  0  0  0  0  0  0  0  0  0  0  0
    1.0456   -4.6812    0.1918 O   0  0  0  0  0  0  0  0  0  0  0  0
   -1.2159   -3.3469   -0.3556 H   0  0  0  0  0  0  0  0  0  0  0  0
   -0.7958   -5.7115   -1.5661 N   0  0  0  0  0  0  0  0  0  0  0  0
   -1.1694   -7.0210   -2.0239 C   0  0  0  0  0  0  0  0  0  0  0  0
   -1.5741   -2.2555   -3.1682 H   0  0  0  0  0  0  0  0  0  0  0  0
   -2.5753   -2.0091   -1.7541 H   0  0  0  0  0  0  0  0  0  0  0  0
    1.1290   -0.9223    1.7955 H   0  0  0  0  0  0  0  0  0  0  0  0
    1.2989   -4.7561    2.0568 H   0  0  0  0  0  0  0  0  0  0  0  0
    2.3730   -4.7680    3.4259 H   0  0  0  0  0  0  0  0  0  0  0  0
   -1.3304   -4.1789    3.1599 H   0  0  0  0  0  0  0  0  0  0  0  0
   -4.1627   -2.7582    3.0841 H   0  0  0  0  0  0  0  0  0  0  0  0
   -3.5772   -4.3341    2.5555 H   0  0  0  0  0  0  0  0  0  0  0  0
   -6.1093   -4.4155    2.0695 H   0  0  0  0  0  0  0  0  0  0  0  0
   -6.6115   -3.5578    0.6074 H   0  0  0  0  0  0  0  0  0  0  0  0
   -5.4559   -0.7575    1.4936 H   0  0  0  0  0  0  0  0  0  0  0  0
   -6.6013    1.0101    2.8473 H   0  0  0  0  0  0  0  0  0  0  0  0
   -8.9947   -1.7805    4.7267 H   0  0  0  0  0  0  0  0  0  0  0  0
   -7.9511   -3.6563    3.4678 H   0  0  0  0  0  0  0  0  0  0  0  0
   -3.2995   -3.3835   -0.4439 H   0  0  0  0  0  0  0  0  0  0  0  0
   -4.9765   -3.6059   -0.8837 H   0  0  0  0  0  0  0  0  0  0  0  0
   -3.1915   -5.6295    0.6170 H   0  0  0  0  0  0  0  0  0  0  0  0
   -3.8042   -5.7361   -1.0444 H   0  0  0  0  0  0  0  0  0  0  0  0
   -4.9366   -5.8814    0.3280 H   0  0  0  0  0  0  0  0  0  0  0  0
   -3.0374   -1.0691    0.7320 H   0  0  0  0  0  0  0  0  0  0  0  0
    4.0191    1.6065    0.9682 H   0  0  0  0  0  0  0  0  0  0  0  0
    3.9687    3.3661    0.6511 H   0  0  0  0  0  0  0  0  0  0  0  0
    3.8359    1.1369   -1.4641 H   0  0  0  0  0  0  0  0  0  0  0  0
    5.2517    2.1801   -1.1470 H   0  0  0  0  0  0  0  0  0  0  0  0
    3.7524    2.8845   -1.8204 H   0  0  0  0  0  0  0  0  0  0  0  0
    0.8205   -2.1267   -1.6292 H   0  0  0  0  0  0  0  0  0  0  0  0
    3.2277   -3.4895    0.6112 H   0  0  0  0  0  0  0  0  0  0  0  0
    2.5534   -1.9163    0.0377 H   0  0  0  0  0  0  0  0  0  0  0  0
    3.3081   -3.0378   -1.1208 H   0  0  0  0  0  0  0  0  0  0  0  0
   -0.1238   -5.5900   -0.8013 H   0  0  0  0  0  0  0  0  0  0  0  0
   -1.7571   -6.9117   -2.9449 H   0  0  0  0  0  0  0  0  0  0  0  0
   -1.7879   -7.5568   -1.2823 H   0  0  0  0  0  0  0  0  0  0  0  0
   -0.2791   -7.6343   -2.2357 H   0  0  0  0  0  0  0  0  0  0  0  0
   -0.1545    2.3884    0.1226 H   0  0  0  0  0  0  0  0  0  0  0  0
   -1.8190    0.7974    0.1587 H   0  0  0  0  0  0  0  0  0  0  0  0
  1  2  2  0  0  0  0
  2 38  1  0  0  0  0
  2  3  1  0  0  0  0
  3 33  1  0  0  0  0
  3 37  1  1  0  0  0
  4  5  1  0  0  0  0
  4 41  1  0  0  0  0
  4  3  1  0  0  0  0
  6 27  1  0  0  0  0
  6  7  1  0  0  0  0
  7 26  2  0  0  0  0
  7  8  1  0  0  0  0
  8  9  2  0  0  0  0
  9 13  1  0  0  0  0
  9 10  1  0  0  0  0
 10 12  2  0  0  0  0
 11 10  1  0  0  0  0
 11 44  1  0  0  0  0
 13 45  1  0  0  0  0
 14 15  1  0  0  0  0
 14 13  2  0  0  0  0
 15 47  1  0  0  0  0
 15 46  1  0  0  0  0
 16 17  1  0  0  0  0
 16 15  1  0  0  0  0
 17 48  1  0  0  0  0
 17 18  1  0  0  0  0
 18 23  1  0  0  0  0
 19 18  2  0  0  0  0
 19 20  1  0  0  0  0
 20 21  2  0  0  0  0
 21 22  1  0  0  0  0
 22 52  1  0  0  0  0
 23 53  1  0  0  0  0
 23 22  2  0  0  0  0
 24 25  1  0  0  0  0
 24 16  1  0  0  0  0
 25 58  1  0  0  0  0
 25 56  1  0  0  0  0
 26 14  1  0  0  0  0
 27 28  1  0  0  0  0
 28 29  2  0  0  0  0
 30 28  1  0  0  0  0
 31 30  1  0  0  0  0
 31 61  1  0  0  0  0
 31 60  1  0  0  0  0
 32 31  1  0  0  0  0
 33 34  1  0  0  0  0
 34 35  1  0  0  0  0
 34 36  2  0  0  0  0
 35 67  1  0  0  0  0
 35 66  1  0  0  0  0
 38 69  1  0  0  0  0
 39 38  1  0  0  0  0
 39 71  1  0  0  0  0
 40  4  1  0  0  0  0
 42  8  1  0  0  0  0
 43 11  1  0  0  0  0
 49 17  1  0  0  0  0
 50 19  1  0  0  0  0
 51 20  1  0  0  0  0
 54 24  1  0  0  0  0
 55 24  1  0  0  0  0
 57 25  1  0  0  0  0
 59 26  1  0  0  0  0
 62 32  1  0  0  0  0
 63 32  1  0  0  0  0
 64 32  1  0  0  0  0
 65 33  1  0  0  0  0
 68 35  1  0  0  0  0
 70 39  1  0  0  0  0
 72 39  1  0  0  0  0
 73 27  1  0  0  0  0
 74  6  1  0  0  0  0
M  END
