-1 1
 OpenBabel05232413493D

 99102  0  0  1  0  0  0  0  0999 V2000
    0.3573    0.4081   -2.9066 C   0  0  0  0  0  0  0  0  0  0  0  0
    0.9661    1.1346   -1.8594 O   0  0  0  0  0  0  0  0  0  0  0  0
    2.2918    1.0047   -1.6309 C   0  0  0  0  0  0  0  0  0  0  0  0
    2.7472    1.5904   -0.4248 C   0  0  0  0  0  0  0  0  0  0  0  0
    1.7581    2.1745    0.3796 N   0  0  0  0  0  0  0  0  0  0  0  0
    1.6905    2.2899    1.7345 C   0  0  0  0  0  0  0  0  0  0  0  0
    0.4539    2.5490    2.1943 N   0  0  0  0  0  0  0  0  0  0  0  0
    0.2594    2.5967    3.4860 C   0  0  0  0  0  0  0  0  0  0  0  0
   -0.9517    2.7777    4.0149 O   0  0  0  0  0  0  0  0  0  0  0  0
   -2.1624    2.6828    3.3576 C   0  0  0  0  0  0  0  0  0  0  0  0
   -2.3424    2.8592    1.9907 C   0  0  0  0  0  0  0  0  0  0  0  0
   -3.6210    2.7329    1.4387 C   0  0  0  0  0  0  0  0  0  0  0  0
   -3.7277    2.8834    0.0415 N   0  0  0  0  0  0  0  0  0  0  0  0
   -4.3453    2.1032   -0.9108 C   0  0  0  0  0  0  0  0  0  0  0  0
   -4.2587    2.3980   -2.0839 O   0  0  0  0  0  0  0  0  0  0  0  0
   -5.1412    0.9068   -0.4565 C   0  0  0  0  0  0  0  0  0  0  0  0
   -4.6748   -0.1461    0.2549 C   0  0  0  0  0  0  0  0  0  0  0  0
   -4.3119   -3.1502   -1.0231 S   0  0  0  0  0  1  0  0  0  0  0  0
   -2.5590   -3.3823   -0.5726 C   0  0  0  0  0  0  0  0  0  0  0  0
   -1.5873   -2.9070   -1.6702 C   0  0  2  0  0  0  0  0  0  0  0  0
   -1.5962   -1.8009   -1.6826 H   0  0  0  0  0  0  0  0  0  0  0  0
   -2.0914   -3.3772   -2.9547 N   0  0  0  0  0  0  0  0  0  0  0  0
   -1.7881   -2.8628   -4.1557 C   0  0  0  0  0  0  0  0  0  0  0  0
   -2.8034   -3.1277   -5.2456 C   0  0  0  0  0  0  0  0  0  0  0  0
   -0.7700   -2.2024   -4.3954 O   0  0  0  0  0  0  0  0  0  0  0  0
   -0.1396   -3.2914   -1.3299 C   0  0  0  0  0  0  0  0  0  0  0  0
    0.7571   -3.1992   -2.3414 N   0  0  0  0  0  0  0  0  0  0  0  0
    2.1628   -3.3965   -2.1137 C   0  0  0  0  0  0  0  0  0  0  0  0
    0.1920   -3.5896   -0.1907 O   0  0  0  0  0  0  0  0  0  0  0  0
   -3.3269   -0.3037    0.8167 C   0  0  0  0  0  0  0  0  0  0  0  0
   -3.1992   -0.8220    2.1112 C   0  0  0  0  0  0  0  0  0  0  0  0
   -1.9504   -1.0018    2.6910 C   0  0  0  0  0  0  0  0  0  0  0  0
   -0.7871   -0.6946    1.9762 C   0  0  0  0  0  0  0  0  0  0  0  0
    0.7659   -0.9356    2.7966 S   0  0  0  0  0  0  0  0  0  0  0  0
    1.8834   -1.3961    1.4495 C   0  0  0  0  0  0  0  0  0  0  0  0
   -0.9040   -0.1902    0.6765 C   0  0  0  0  0  0  0  0  0  0  0  0
   -2.1594    0.0103    0.1119 C   0  0  0  0  0  0  0  0  0  0  0  0
   -6.4986    0.9025   -0.9202 C   0  0  0  0  0  0  0  0  0  0  0  0
   -7.6064    0.9387   -1.2586 N   0  0  0  0  0  0  0  0  0  0  0  0
   -4.7225    2.4824    2.2572 C   0  0  0  0  0  0  0  0  0  0  0  0
   -4.5210    2.3082    3.6257 C   0  0  0  0  0  0  0  0  0  0  0  0
   -3.2511    2.4012    4.1849 C   0  0  0  0  0  0  0  0  0  0  0  0
    1.3452    2.4602    4.3802 C   0  0  0  0  0  0  0  0  0  0  0  0
    1.1340    2.5256    6.1000 Cl  0  0  0  0  0  0  0  0  0  0  0  0
    2.5855    2.2480    3.8067 C   0  0  0  0  0  0  0  0  0  0  0  0
    2.7785    2.1597    2.4914 N   0  0  0  0  0  0  0  0  0  0  0  0
    4.1005    1.5142   -0.1280 C   0  0  0  0  0  0  0  0  0  0  0  0
    4.9888    0.8561   -0.9837 C   0  0  0  0  0  0  0  0  0  0  0  0
    4.5501    0.2682   -2.1769 C   0  0  0  0  0  0  0  0  0  0  0  0
    5.4189   -0.3525   -3.0845 N   0  0  0  0  0  0  0  0  0  0  0  0
    6.8556   -0.2752   -2.8911 C   0  0  0  0  0  0  0  0  0  0  0  0
    7.3804   -1.4600   -2.0685 C   0  0  0  0  0  0  0  0  0  0  0  0
    7.0009   -2.7426   -2.6428 N   0  0  0  0  0  0  0  0  0  0  0  0
    5.5651   -2.7979   -2.8744 C   0  0  0  0  0  0  0  0  0  0  0  0
    5.0388   -1.6166   -3.7020 C   0  0  0  0  0  0  0  0  0  0  0  0
    7.8069   -3.1615   -3.7658 C   0  0  0  0  0  0  0  0  0  0  0  0
    3.1743    0.3601   -2.4852 C   0  0  0  0  0  0  0  0  0  0  0  0
   -0.7167    0.6193   -2.8551 H   0  0  0  0  0  0  0  0  0  0  0  0
    0.5126   -0.6733   -2.7867 H   0  0  0  0  0  0  0  0  0  0  0  0
    0.7323    0.7268   -3.8925 H   0  0  0  0  0  0  0  0  0  0  0  0
    0.8492    2.2161   -0.0676 H   0  0  0  0  0  0  0  0  0  0  0  0
   -1.4891    3.0367    1.3465 H   0  0  0  0  0  0  0  0  0  0  0  0
   -3.0954    3.5526   -0.3850 H   0  0  0  0  0  0  0  0  0  0  0  0
   -5.3673   -0.9608    0.4779 H   0  0  0  0  0  0  0  0  0  0  0  0
   -2.3507   -4.4447   -0.3674 H   0  0  0  0  0  0  0  0  0  0  0  0
   -2.2994   -2.8399    0.3465 H   0  0  0  0  0  0  0  0  0  0  0  0
   -3.0800   -3.6617   -2.8142 H   0  0  0  0  0  0  0  0  0  0  0  0
   -3.5287   -2.2993   -5.2475 H   0  0  0  0  0  0  0  0  0  0  0  0
   -3.3583   -4.0607   -5.0805 H   0  0  0  0  0  0  0  0  0  0  0  0
   -2.2947   -3.1498   -6.2172 H   0  0  0  0  0  0  0  0  0  0  0  0
    0.4142   -2.8336   -3.2375 H   0  0  0  0  0  0  0  0  0  0  0  0
    2.6465   -3.7453   -3.0382 H   0  0  0  0  0  0  0  0  0  0  0  0
    2.3079   -4.1510   -1.3283 H   0  0  0  0  0  0  0  0  0  0  0  0
    2.6670   -2.4693   -1.7828 H   0  0  0  0  0  0  0  0  0  0  0  0
   -4.0963   -1.1054    2.6654 H   0  0  0  0  0  0  0  0  0  0  0  0
   -1.8711   -1.4235    3.6952 H   0  0  0  0  0  0  0  0  0  0  0  0
    2.8154   -1.7103    1.9378 H   0  0  0  0  0  0  0  0  0  0  0  0
    2.1120   -0.5465    0.7941 H   0  0  0  0  0  0  0  0  0  0  0  0
    1.4558   -2.2347    0.8811 H   0  0  0  0  0  0  0  0  0  0  0  0
   -0.0161    0.0409    0.0886 H   0  0  0  0  0  0  0  0  0  0  0  0
   -2.2368    0.3761   -0.9146 H   0  0  0  0  0  0  0  0  0  0  0  0
   -5.7212    2.4117    1.8264 H   0  0  0  0  0  0  0  0  0  0  0  0
   -5.3763    2.0968    4.2707 H   0  0  0  0  0  0  0  0  0  0  0  0
   -3.0821    2.2589    5.2527 H   0  0  0  0  0  0  0  0  0  0  0  0
    3.4640    2.1350    4.4498 H   0  0  0  0  0  0  0  0  0  0  0  0
    4.4540    1.9383    0.8096 H   0  0  0  0  0  0  0  0  0  0  0  0
    6.0336    0.7943   -0.6820 H   0  0  0  0  0  0  0  0  0  0  0  0
    7.1232    0.6870   -2.4343 H   0  0  0  0  0  0  0  0  0  0  0  0
    7.3291   -0.2862   -3.8897 H   0  0  0  0  0  0  0  0  0  0  0  0
    6.9625   -1.4023   -1.0485 H   0  0  0  0  0  0  0  0  0  0  0  0
    8.4777   -1.4142   -1.9757 H   0  0  0  0  0  0  0  0  0  0  0  0
    5.0555   -2.7850   -1.8950 H   0  0  0  0  0  0  0  0  0  0  0  0
    5.3113   -3.7542   -3.3594 H   0  0  0  0  0  0  0  0  0  0  0  0
    3.9492   -1.6868   -3.7998 H   0  0  0  0  0  0  0  0  0  0  0  0
    5.4525   -1.6498   -4.7257 H   0  0  0  0  0  0  0  0  0  0  0  0
    8.8669   -3.1950   -3.4681 H   0  0  0  0  0  0  0  0  0  0  0  0
    7.7386   -2.5184   -4.6704 H   0  0  0  0  0  0  0  0  0  0  0  0
    7.5166   -4.1800   -4.0678 H   0  0  0  0  0  0  0  0  0  0  0  0
    2.7996   -0.0533   -3.4197 H   0  0  0  0  0  0  0  0  0  0  0  0
  1 58  1  0  0  0  0
  1 59  1  0  0  0  0
  1  2  1  0  0  0  0
  2  3  1  0  0  0  0
  3  4  1  0  0  0  0
  4 47  2  0  0  0  0
  4  5  1  0  0  0  0
  5  6  1  0  0  0  0
  6  7  1  0  0  0  0
  6 46  2  0  0  0  0
  7  8  2  0  0  0  0
  8  9  1  0  0  0  0
  8 43  1  0  0  0  0
 10  9  1  0  0  0  0
 10 42  1  0  0  0  0
 11 10  2  0  0  0  0
 12 11  1  0  0  0  0
 12 40  2  0  0  0  0
 13 12  1  0  0  0  0
 14 16  1  0  0  0  0
 14 13  1  0  0  0  0
 15 14  2  0  0  0  0
 16 17  2  0  0  0  0
 17 64  1  0  0  0  0
 17 30  1  0  0  0  0
 18 19  1  0  0  0  0
 19 65  1  0  0  0  0
 19 66  1  0  0  0  0
 20 21  1  6  0  0  0
 20 26  1  0  0  0  0
 20 19  1  0  0  0  0
 22 67  1  0  0  0  0
 22 20  1  0  0  0  0
 23 22  1  0  0  0  0
 24 69  1  0  0  0  0
 24 23  1  0  0  0  0
 25 23  2  0  0  0  0
 26 29  2  0  0  0  0
 27 28  1  0  0  0  0
 27 26  1  0  0  0  0
 28 74  1  0  0  0  0
 28 73  1  0  0  0  0
 30 31  1  0  0  0  0
 31 75  1  0  0  0  0
 31 32  2  0  0  0  0
 32 76  1  0  0  0  0
 33 32  1  0  0  0  0
 33 34  1  0  0  0  0
 35 77  1  0  0  0  0
 35 34  1  0  0  0  0
 36 33  2  0  0  0  0
 37 36  1  0  0  0  0
 37 30  2  0  0  0  0
 38 16  1  0  0  0  0
 39 38  3  0  0  0  0
 40 41  1  0  0  0  0
 41 42  2  0  0  0  0
 41 83  1  0  0  0  0
 42 84  1  0  0  0  0
 43 44  1  0  0  0  0
 45 43  2  0  0  0  0
 45 85  1  0  0  0  0
 46 45  1  0  0  0  0
 47 86  1  0  0  0  0
 48 87  1  0  0  0  0
 48 47  1  0  0  0  0
 49 48  2  0  0  0  0
 50 51  1  0  0  0  0
 50 49  1  0  0  0  0
 51 88  1  0  0  0  0
 51 52  1  0  0  0  0
 52 91  1  0  0  0  0
 52 90  1  0  0  0  0
 53 52  1  0  0  0  0
 54 53  1  0  0  0  0
 54 92  1  0  0  0  0
 55 50  1  0  0  0  0
 55 54  1  0  0  0  0
 56 96  1  0  0  0  0
 56 53  1  0  0  0  0
 57 49  1  0  0  0  0
 57  3  2  0  0  0  0
 60  1  1  0  0  0  0
 61  5  1  0  0  0  0
 62 11  1  0  0  0  0
 63 13  1  0  0  0  0
 68 24  1  0  0  0  0
 70 24  1  0  0  0  0
 71 27  1  0  0  0  0
 72 28  1  0  0  0  0
 78 35  1  0  0  0  0
 79 35  1  0  0  0  0
 80 36  1  0  0  0  0
 81 37  1  0  0  0  0
 82 40  1  0  0  0  0
 89 51  1  0  0  0  0
 93 54  1  0  0  0  0
 94 55  1  0  0  0  0
 95 55  1  0  0  0  0
 97 56  1  0  0  0  0
 98 56  1  0  0  0  0
 99 57  1  0  0  0  0
M  END
