-1 1
 OpenBabel05192410563D

 99103  0  0  1  0  0  0  0  0999 V2000
    0.4252    0.6233   -2.9265 C   0  0  0  0  0  0  0  0  0  0  0  0
    1.0731    1.4538   -1.9911 O   0  0  0  0  0  0  0  0  0  0  0  0
    2.3666    1.2090   -1.6734 C   0  0  0  0  0  0  0  0  0  0  0  0
    2.8063    1.7906   -0.4600 C   0  0  0  0  0  0  0  0  0  0  0  0
    1.8357    2.4731    0.2827 N   0  0  0  0  0  0  0  0  0  0  0  0
    1.7883    2.6976    1.6286 C   0  0  0  0  0  0  0  0  0  0  0  0
    0.5484    2.8788    2.1137 N   0  0  0  0  0  0  0  0  0  0  0  0
    0.3989    3.0375    3.4060 C   0  0  0  0  0  0  0  0  0  0  0  0
   -0.7931    3.1712    3.9743 O   0  0  0  0  0  0  0  0  0  0  0  0
   -1.9967    2.6889    3.4681 C   0  0  0  0  0  0  0  0  0  0  0  0
   -2.3652    2.7780    2.1333 C   0  0  0  0  0  0  0  0  0  0  0  0
   -3.6059    2.2596    1.7152 C   0  0  0  0  0  0  0  0  0  0  0  0
   -3.9089    2.3163    0.3633 N   0  0  0  0  0  0  0  0  0  0  0  0
   -5.0827    1.8115   -0.2907 C   0  0  0  0  0  0  0  0  0  0  0  0
   -5.7279    2.6229   -0.9479 O   0  0  0  0  0  0  0  0  0  0  0  0
   -5.4028    0.4272   -0.1226 C   0  0  2  0  0  3  0  0  0  0  0  0
   -4.5069   -0.7394    0.1710 C   0  0  1  0  0  0  0  0  0  0  0  0
   -4.3380   -1.7494   -1.4634 S   0  0  0  0  0  0  0  0  0  0  0  0
   -2.9704   -2.9171   -1.1343 C   0  0  0  0  0  0  0  0  0  0  0  0
   -1.7963   -2.6644   -2.0708 C   0  0  2  0  0  0  0  0  0  0  0  0
   -1.5843   -1.5832   -2.0734 H   0  0  0  0  0  0  0  0  0  0  0  0
   -2.1813   -3.0320   -3.4310 N   0  0  0  0  0  0  0  0  0  0  0  0
   -1.7112   -2.4304   -4.5456 C   0  0  0  0  0  0  0  0  0  0  0  0
   -2.5094   -2.6621   -5.8076 C   0  0  0  0  0  0  0  0  0  0  0  0
   -0.7090   -1.7219   -4.5428 O   0  0  0  0  0  0  0  0  0  0  0  0
   -0.4953   -3.3388   -1.5895 C   0  0  0  0  0  0  0  0  0  0  0  0
    0.5644   -3.1187   -2.4089 N   0  0  0  0  0  0  0  0  0  0  0  0
    1.8961   -3.5586   -2.0883 C   0  0  0  0  0  0  0  0  0  0  0  0
   -0.4240   -3.9539   -0.5412 O   0  0  0  0  0  0  0  0  0  0  0  0
   -3.1166   -0.5466    0.7248 C   0  0  0  0  0  0  0  0  0  0  0  0
   -2.8039   -1.0438    1.9897 C   0  0  0  0  0  0  0  0  0  0  0  0
   -1.4946   -1.0349    2.4741 C   0  0  0  0  0  0  0  0  0  0  0  0
   -0.4671   -0.5212    1.6878 C   0  0  0  0  0  0  0  0  0  0  0  0
    1.2156   -0.5883    2.2707 S   0  0  0  0  0  0  0  0  0  0  0  0
    1.9844   -1.5390    0.9277 C   0  0  0  0  0  0  0  0  0  0  0  0
   -0.7775    0.0307    0.4383 C   0  0  0  0  0  0  0  0  0  0  0  0
   -2.0811    0.0144   -0.0337 C   0  0  0  0  0  0  0  0  0  0  0  0
   -6.7288    0.0595   -0.4683 C   0  0  0  0  0  0  0  0  0  0  0  0
   -7.8092   -0.3084   -0.7098 N   0  0  0  0  0  0  0  0  0  0  0  0
   -4.4681    1.7036    2.6753 C   0  0  0  0  0  0  0  0  0  0  0  0
   -4.0772    1.6445    4.0082 C   0  0  0  0  0  0  0  0  0  0  0  0
   -2.8392    2.1255    4.4254 C   0  0  0  0  0  0  0  0  0  0  0  0
    1.5297    3.0823    4.2575 C   0  0  0  0  0  0  0  0  0  0  0  0
    1.3765    3.2923    5.9732 Cl  0  0  0  0  0  0  0  0  0  0  0  0
    2.7622    2.9275    3.6541 C   0  0  0  0  0  0  0  0  0  0  0  0
    2.9108    2.7390    2.3440 N   0  0  0  0  0  0  0  0  0  0  0  0
    4.1329    1.5999   -0.0935 C   0  0  0  0  0  0  0  0  0  0  0  0
    4.9957    0.8267   -0.8770 C   0  0  0  0  0  0  0  0  0  0  0  0
    4.5649    0.2324   -2.0673 C   0  0  0  0  0  0  0  0  0  0  0  0
    5.4132   -0.5073   -2.9089 N   0  0  0  0  0  0  0  0  0  0  0  0
    6.8454   -0.5164   -2.6715 C   0  0  0  0  0  0  0  0  0  0  0  0
    7.2676   -1.6738   -1.7559 C   0  0  0  0  0  0  0  0  0  0  0  0
    6.8086   -2.9652   -2.2477 N   0  0  0  0  0  0  0  0  0  0  0  0
    5.3777   -2.9346   -2.5091 C   0  0  0  0  0  0  0  0  0  0  0  0
    4.9565   -1.7858   -3.4365 C   0  0  0  0  0  0  0  0  0  0  0  0
    7.6031   -3.5194   -3.3191 C   0  0  0  0  0  0  0  0  0  0  0  0
    3.2239    0.4456   -2.4535 C   0  0  0  0  0  0  0  0  0  0  0  0
   -0.6380    0.8889   -2.9074 H   0  0  0  0  0  0  0  0  0  0  0  0
    0.5352   -0.4362   -2.6511 H   0  0  0  0  0  0  0  0  0  0  0  0
    0.8077    0.7719   -3.9488 H   0  0  0  0  0  0  0  0  0  0  0  0
    0.9186    2.4702   -0.1491 H   0  0  0  0  0  0  0  0  0  0  0  0
   -1.6791    3.1956    1.4020 H   0  0  0  0  0  0  0  0  0  0  0  0
   -3.5871    3.1582   -0.1011 H   0  0  0  0  0  0  0  0  0  0  0  0
   -5.0315   -1.4439    0.8321 H   0  0  0  0  0  0  0  0  0  0  0  0
   -3.3187   -3.9579   -1.2365 H   0  0  0  0  0  0  0  0  0  0  0  0
   -2.6248   -2.8111   -0.0990 H   0  0  0  0  0  0  0  0  0  0  0  0
   -3.0338   -3.5720   -3.5145 H   0  0  0  0  0  0  0  0  0  0  0  0
   -3.2291   -1.8362   -5.9142 H   0  0  0  0  0  0  0  0  0  0  0  0
   -3.0701   -3.6068   -5.7926 H   0  0  0  0  0  0  0  0  0  0  0  0
   -1.8317   -2.6421   -6.6693 H   0  0  0  0  0  0  0  0  0  0  0  0
    0.3987   -2.5505   -3.2413 H   0  0  0  0  0  0  0  0  0  0  0  0
    2.3748   -4.0308   -2.9604 H   0  0  0  0  0  0  0  0  0  0  0  0
    1.8368   -4.2917   -1.2737 H   0  0  0  0  0  0  0  0  0  0  0  0
    2.5293   -2.7205   -1.7514 H   0  0  0  0  0  0  0  0  0  0  0  0
   -3.5974   -1.4766    2.6035 H   0  0  0  0  0  0  0  0  0  0  0  0
   -1.2673   -1.4661    3.4508 H   0  0  0  0  0  0  0  0  0  0  0  0
    3.0072   -1.7745    1.2525 H   0  0  0  0  0  0  0  0  0  0  0  0
    2.0431   -0.9479    0.0027 H   0  0  0  0  0  0  0  0  0  0  0  0
    1.4215   -2.4667    0.7527 H   0  0  0  0  0  0  0  0  0  0  0  0
    0.0127    0.4630   -0.1742 H   0  0  0  0  0  0  0  0  0  0  0  0
   -2.3164    0.4264   -1.0167 H   0  0  0  0  0  0  0  0  0  0  0  0
   -5.4304    1.3034    2.3552 H   0  0  0  0  0  0  0  0  0  0  0  0
   -4.7574    1.2067    4.7429 H   0  0  0  0  0  0  0  0  0  0  0  0
   -2.5135    2.0756    5.4647 H   0  0  0  0  0  0  0  0  0  0  0  0
    3.6711    2.9519    4.2638 H   0  0  0  0  0  0  0  0  0  0  0  0
    4.4780    2.0338    0.8422 H   0  0  0  0  0  0  0  0  0  0  0  0
    6.0150    0.6848   -0.5189 H   0  0  0  0  0  0  0  0  0  0  0  0
    7.1639    0.4545   -2.2684 H   0  0  0  0  0  0  0  0  0  0  0  0
    7.3473   -0.6258   -3.6505 H   0  0  0  0  0  0  0  0  0  0  0  0
    6.8365   -1.5164   -0.7522 H   0  0  0  0  0  0  0  0  0  0  0  0
    8.3634   -1.6984   -1.6404 H   0  0  0  0  0  0  0  0  0  0  0  0
    4.8546   -2.8081   -1.5444 H   0  0  0  0  0  0  0  0  0  0  0  0
    5.0628   -3.9056   -2.9249 H   0  0  0  0  0  0  0  0  0  0  0  0
    3.8663   -1.7824   -3.5579 H   0  0  0  0  0  0  0  0  0  0  0  0
    5.3871   -1.9304   -4.4437 H   0  0  0  0  0  0  0  0  0  0  0  0
    8.6520   -3.6064   -2.9942 H   0  0  0  0  0  0  0  0  0  0  0  0
    7.5990   -2.9392   -4.2677 H   0  0  0  0  0  0  0  0  0  0  0  0
    7.2459   -4.5339   -3.5560 H   0  0  0  0  0  0  0  0  0  0  0  0
    2.8646    0.0411   -3.3987 H   0  0  0  0  0  0  0  0  0  0  0  0
  1 58  1  0  0  0  0
  1 59  1  0  0  0  0
  1  2  1  0  0  0  0
  2  3  1  0  0  0  0
  3  4  1  0  0  0  0
  4 47  2  0  0  0  0
  4  5  1  0  0  0  0
  5  6  1  0  0  0  0
  6  7  1  0  0  0  0
  6 46  2  0  0  0  0
  7  8  2  0  0  0  0
  8  9  1  0  0  0  0
  8 43  1  0  0  0  0
 10  9  1  0  0  0  0
 10 42  1  0  0  0  0
 11 10  2  0  0  0  0
 12 11  1  0  0  0  0
 12 40  2  0  0  0  0
 13 12  1  0  0  0  0
 14 16  1  0  0  0  0
 14 13  1  0  0  0  0
 15 14  2  0  0  0  0
 16 38  1  6  0  0  0
 16 17  1  0  0  0  0
 17 30  1  0  0  0  0
 17 64  1  1  0  0  0
 18 19  1  0  0  0  0
 18 17  1  0  0  0  0
 19 66  1  0  0  0  0
 20 21  1  6  0  0  0
 20 26  1  0  0  0  0
 20 19  1  0  0  0  0
 22 20  1  0  0  0  0
 23 25  2  0  0  0  0
 23 22  1  0  0  0  0
 24 69  1  0  0  0  0
 24 23  1  0  0  0  0
 26 29  2  0  0  0  0
 27 28  1  0  0  0  0
 27 26  1  0  0  0  0
 28 74  1  0  0  0  0
 28 73  1  0  0  0  0
 30 31  1  0  0  0  0
 31 32  2  0  0  0  0
 31 75  1  0  0  0  0
 32 76  1  0  0  0  0
 33 34  1  0  0  0  0
 33 32  1  0  0  0  0
 35 77  1  0  0  0  0
 35 34  1  0  0  0  0
 36 33  2  0  0  0  0
 37 36  1  0  0  0  0
 37 30  2  0  0  0  0
 39 38  3  0  0  0  0
 40 41  1  0  0  0  0
 41 42  2  0  0  0  0
 41 83  1  0  0  0  0
 42 84  1  0  0  0  0
 43 44  1  0  0  0  0
 45 43  2  0  0  0  0
 45 85  1  0  0  0  0
 46 45  1  0  0  0  0
 47 86  1  0  0  0  0
 48 87  1  0  0  0  0
 48 47  1  0  0  0  0
 49 48  2  0  0  0  0
 50 51  1  0  0  0  0
 50 49  1  0  0  0  0
 51 88  1  0  0  0  0
 51 52  1  0  0  0  0
 52 91  1  0  0  0  0
 52 90  1  0  0  0  0
 53 52  1  0  0  0  0
 54 53  1  0  0  0  0
 54 92  1  0  0  0  0
 55 50  1  0  0  0  0
 55 54  1  0  0  0  0
 56 96  1  0  0  0  0
 56 53  1  0  0  0  0
 57 49  1  0  0  0  0
 57  3  2  0  0  0  0
 60  1  1  0  0  0  0
 61  5  1  0  0  0  0
 62 11  1  0  0  0  0
 63 13  1  0  0  0  0
 65 19  1  0  0  0  0
 67 22  1  0  0  0  0
 68 24  1  0  0  0  0
 70 24  1  0  0  0  0
 71 27  1  0  0  0  0
 72 28  1  0  0  0  0
 78 35  1  0  0  0  0
 79 35  1  0  0  0  0
 80 36  1  0  0  0  0
 81 37  1  0  0  0  0
 82 40  1  0  0  0  0
 89 51  1  0  0  0  0
 93 54  1  0  0  0  0
 94 55  1  0  0  0  0
 95 55  1  0  0  0  0
 97 56  1  0  0  0  0
 98 56  1  0  0  0  0
 99 57  1  0  0  0  0
M  END
