99
-1 1
C         0.357349    0.408082   -2.906551
O         0.966081    1.134643   -1.859390
C         2.291817    1.004743   -1.630860
C         2.747218    1.590410   -0.424778
N         1.758053    2.174503    0.379640
C         1.690517    2.289905    1.734543
N         0.453902    2.548950    2.194252
C         0.259406    2.596683    3.486013
O        -0.951746    2.777682    4.014944
C        -2.162389    2.682812    3.357599
C        -2.342448    2.859182    1.990680
C        -3.620983    2.732889    1.438726
N        -3.727695    2.883378    0.041546
C        -4.345321    2.103206   -0.910814
O        -4.258711    2.398008   -2.083898
C        -5.141200    0.906821   -0.456549
C        -4.674829   -0.146087    0.254859
S        -4.311901   -3.150199   -1.023124
C        -2.559034   -3.382257   -0.572608
C        -1.587298   -2.907037   -1.670178
H        -1.596224   -1.800937   -1.682610
N        -2.091387   -3.377174   -2.954680
C        -1.788138   -2.862803   -4.155671
C        -2.803383   -3.127651   -5.245640
O        -0.770029   -2.202352   -4.395434
C        -0.139564   -3.291353   -1.329924
N         0.757096   -3.199220   -2.341420
C         2.162824   -3.396540   -2.113691
O         0.192005   -3.589612   -0.190683
C        -3.326909   -0.303653    0.816711
C        -3.199204   -0.822009    2.111194
C        -1.950397   -1.001764    2.690989
C        -0.787054   -0.694564    1.976163
S         0.765859   -0.935602    2.796589
C         1.883385   -1.396050    1.449501
C        -0.904015   -0.190170    0.676546
C        -2.159359    0.010335    0.111856
C        -6.498618    0.902541   -0.920179
N        -7.606403    0.938715   -1.258607
C        -4.722522    2.482414    2.257189
C        -4.521019    2.308188    3.625735
C        -3.251094    2.401197    4.184877
C         1.345209    2.460185    4.380174
Cl         1.134022    2.525568    6.099952
C         2.585497    2.248030    3.806746
N         2.778483    2.159717    2.491445
C         4.100482    1.514249   -0.127988
C         4.988822    0.856122   -0.983721
C         4.550064    0.268171   -2.176874
N         5.418865   -0.352500   -3.084466
C         6.855558   -0.275172   -2.891077
C         7.380449   -1.460036   -2.068506
N         7.000865   -2.742601   -2.642838
C         5.565122   -2.797908   -2.874445
C         5.038769   -1.616649   -3.702037
C         7.806877   -3.161533   -3.765822
C         3.174318    0.360107   -2.485205
H        -0.716669    0.619266   -2.855140
H         0.512559   -0.673284   -2.786691
H         0.732259    0.726823   -3.892507
H         0.849173    2.216091   -0.067633
H        -1.489080    3.036711    1.346532
H        -3.095383    3.552619   -0.384964
H        -5.367336   -0.960839    0.477948
H        -2.350737   -4.444665   -0.367380
H        -2.299442   -2.839925    0.346500
H        -3.080012   -3.661740   -2.814192
H        -3.528691   -2.299330   -5.247514
H        -3.358252   -4.060660   -5.080538
H        -2.294662   -3.149776   -6.217246
H         0.414214   -2.833615   -3.237543
H         2.646523   -3.745298   -3.038212
H         2.307867   -4.151023   -1.328348
H         2.666969   -2.469262   -1.782814
H        -4.096342   -1.105428    2.665377
H        -1.871099   -1.423456    3.695193
H         2.815443   -1.710347    1.937809
H         2.111973   -0.546478    0.794130
H         1.455786   -2.234749    0.881105
H        -0.016069    0.040876    0.088644
H        -2.236843    0.376119   -0.914586
H        -5.721212    2.411651    1.826443
H        -5.376349    2.096757    4.270724
H        -3.082079    2.258876    5.252735
H         3.464013    2.134984    4.449785
H         4.454047    1.938348    0.809557
H         6.033632    0.794316   -0.681956
H         7.123219    0.687009   -2.434320
H         7.329137   -0.286155   -3.889711
H         6.962514   -1.402254   -1.048526
H         8.477747   -1.414230   -1.975729
H         5.055543   -2.785028   -1.894972
H         5.311349   -3.754244   -3.359448
H         3.949211   -1.686760   -3.799825
H         5.452525   -1.649802   -4.725721
H         8.866867   -3.194987   -3.468075
H         7.738618   -2.518404   -4.670428
H         7.516589   -4.179963   -4.067830
H         2.799604   -0.053327   -3.419739
