92
-1 1
C        10.512565   13.853845   17.539898
O         9.249346   13.244203   17.644457
C         8.138030   13.993107   17.796273
C         6.929623   13.264482   17.856219
N         7.039016   11.879726   17.683404
C         6.105746   10.901820   17.797991
N         6.518149    9.678798   17.411438
C         5.671220    8.680374   17.493606
O         6.007503    7.458061   17.089791
C         7.004889    7.244735   16.147039
C         7.066290    8.019391   14.997233
C         8.033908    7.746462   14.012157
N         8.079654    8.605807   12.926565
C         8.856592    8.477017   11.768292
O         9.461791    7.442040   11.534092
C         8.876194    9.628061   10.858123
C         8.313680   10.890284   11.116301
S         9.854702   12.371419   12.176365
C        10.131408   11.270796   13.581400
C         9.317285   11.622608   14.838053
H         9.793916   12.480671   15.328150
N         9.267872   10.539867   15.803316
C        10.320213   10.209465   16.601838
C        10.132239    8.912320   17.356608
O        11.320493   10.901086   16.700471
C         7.866009   11.975805   14.520043
N         7.522372   13.265518   14.677075
C         6.188257   13.748927   14.425912
O         7.049174   11.112831   14.202791
C         7.870939   11.789776   10.040342
N         7.588313   13.114429   10.278989
H         7.858526   13.582663   11.139095
C         7.115284   13.645949    9.123902
N         7.049281   12.753154    8.166160
C         7.521427   11.592600    8.720631
C         9.624170    9.416700    9.660506
N        10.216901    9.268975    8.672486
C         8.902544    6.652904   14.206262
C         8.799623    5.890006   15.365083
C         7.861058    6.172295   16.358958
C         4.378277    8.863994   18.030988
Cl         3.252419    7.553668   18.180346
C         4.048905   10.156942   18.394660
N         4.888489   11.180640   18.274810
C         5.744801   13.980328   18.018458
C         5.748496   15.372497   18.091914
C         6.940026   16.101689   18.019555
N         6.921213   17.509701   18.072760
C         8.132920   18.223201   17.721668
C         7.819352   19.700274   17.466052
N         7.128059   20.349859   18.564107
C         5.937015   19.594918   18.908852
C         6.215057   18.118768   19.192402
C         7.968988   20.698044   19.687113
C         8.142016   15.383675   17.877363
H        11.219794   13.035729   17.358068
H        10.771790   14.394198   18.466766
H        10.547711   14.559285   16.690578
H         7.939261   11.555353   17.331421
H         6.382476    8.856482   14.854822
H         7.577204    9.476372   13.078008
H         7.674214   10.965069   11.997333
H        11.193369   11.269614   13.864161
H         9.891018   10.243437   13.268946
H         8.522141    9.856586   15.682817
H        10.902736    8.831666   18.131814
H        10.224688    8.066489   16.657254
H         9.126947    8.857096   17.799331
H         8.266393   13.933193   14.825168
H         5.469316   12.973257   14.719971
H         6.025590   13.978867   13.359283
H         6.007613   14.648784   15.029322
H         6.838029   14.696616    9.037947
H         7.592516   10.665473    8.156115
H         9.630296    6.420680   13.433052
H         9.480619    5.046108   15.499895
H         7.776689    5.577626   17.268746
H         3.051137   10.370415   18.792085
H         4.808857   13.429917   18.071876
H         4.794147   15.894342   18.177256
H         8.554120   17.788147   16.803292
H         8.911874   18.131797   18.511893
H         7.179242   19.763602   16.569279
H         8.750617   20.245204   17.245744
H         5.231386   19.656783   18.062167
H         5.449616   20.058531   19.781087
H         5.263843   17.598375   19.360537
H         6.805058   18.012655   20.129515
H         8.792311   21.343857   19.344087
H         8.423934   19.838668   20.224236
H         7.382937   21.271544   20.422338
H         9.094010   15.908456   17.851777
