-1 1
 OpenBabel05232413493D

 92 95  0  0  1  0  0  0  0  0999 V2000
    3.1275    1.7833    3.3073 C   0  0  0  0  0  0  0  0  0  0  0  0
    1.8870    1.2085    3.6428 O   0  0  0  0  0  0  0  0  0  0  0  0
    0.7404    1.8005    3.2579 C   0  0  0  0  0  0  0  0  0  0  0  0
   -0.3968    0.9644    3.2514 C   0  0  0  0  0  0  0  0  0  0  0  0
   -0.1508   -0.4154    3.4054 N   0  0  0  0  0  0  0  0  0  0  0  0
   -1.0097   -1.4385    3.1751 C   0  0  2  0  0  3  0  0  0  0  0  0
   -0.4510   -2.6115    2.8101 N   0  0  0  0  0  0  0  0  0  0  0  0
   -1.2462   -3.6064    2.5103 C   0  0  0  0  0  0  0  0  0  0  0  0
   -0.6973   -4.7635    2.0675 O   0  0  0  0  0  0  0  0  0  0  0  0
   -0.3034   -4.8294    0.7499 C   0  0  0  0  0  0  0  0  0  0  0  0
   -0.4201   -3.7447   -0.1076 C   0  0  0  0  0  0  0  0  0  0  0  0
    0.0429   -3.8435   -1.4297 C   0  0  0  0  0  0  0  0  0  0  0  0
   -0.0478   -2.6720   -2.2005 N   0  0  0  0  0  0  0  0  0  0  0  0
    0.0872   -2.5616   -3.5600 C   0  0  0  0  0  0  0  0  0  0  0  0
    0.3014   -3.4922   -4.3104 O   0  0  0  0  0  0  0  0  0  0  0  0
   -0.0734   -1.1618   -4.0974 C   0  0  0  0  0  0  0  0  0  0  0  0
    0.3832   -0.0509   -3.4579 C   0  0  0  0  0  0  0  0  0  0  0  0
    2.7570    2.4817   -0.5538 S   0  0  0  0  0  1  0  0  0  0  0  0
    2.7312    0.6554   -0.4635 C   0  0  0  0  0  0  0  0  0  0  0  0
    1.6254   -0.0067    0.3966 C   0  0  2  0  0  0  0  0  0  0  0  0
    1.7261    0.3811    1.4170 H   0  0  0  0  0  0  0  0  0  0  0  0
    1.8577   -1.4298    0.4798 N   0  0  0  0  0  0  0  0  0  0  0  0
    2.3855   -2.0318    1.5734 C   0  0  0  0  0  0  0  0  0  0  0  0
    2.6470   -3.5143    1.4566 C   0  0  0  0  0  0  0  0  0  0  0  0
    2.6394   -1.4246    2.6049 O   0  0  0  0  0  0  0  0  0  0  0  0
    0.1847    0.2670   -0.0586 C   0  0  0  0  0  0  0  0  0  0  0  0
   -0.1504    1.5514   -0.1547 N   0  0  0  0  0  0  0  0  0  0  0  0
   -1.4404    1.9852   -0.6283 C   0  0  0  0  0  0  0  0  0  0  0  0
   -0.6074   -0.6477   -0.3233 O   0  0  0  0  0  0  0  0  0  0  0  0
    0.3120    1.3238   -3.8671 C   0  0  0  0  0  0  0  0  0  0  0  0
    0.9464    2.3355   -3.1706 N   0  0  0  0  0  0  0  0  0  0  0  0
    1.5635    2.3011   -2.3148 H   0  0  0  0  0  0  0  0  0  0  0  0
    0.6428    3.4844   -3.7892 C   0  0  0  0  0  0  0  0  0  0  0  0
   -0.1461    3.3142   -4.8400 N   0  0  0  0  0  0  0  0  0  0  0  0
   -0.3570    1.9803   -4.9035 C   0  0  0  0  0  0  0  0  0  0  0  0
   -0.6754   -1.0936   -5.3945 C   0  0  0  0  0  0  0  0  0  0  0  0
   -1.1750   -1.0181   -6.4373 N   0  0  0  0  0  0  0  0  0  0  0  0
    0.5935   -5.0482   -1.8860 C   0  0  0  0  0  0  0  0  0  0  0  0
    0.6777   -6.1262   -1.0031 C   0  0  0  0  0  0  0  0  0  0  0  0
    0.2396   -6.0373    0.3141 C   0  0  0  0  0  0  0  0  0  0  0  0
   -2.6411   -3.5028    2.6143 C   0  0  2  0  0  3  0  0  0  0  0  0
   -3.6984   -4.8152    2.2061 Cl  0  0  0  0  0  0  0  0  0  0  0  0
   -3.1252   -2.2702    3.0325 C   0  0  0  0  0  0  0  0  0  0  0  0
   -2.3322   -1.2483    3.3084 N   0  0  0  0  0  0  0  0  0  0  0  0
   -1.6308    1.5512    2.9668 C   0  0  0  0  0  0  0  0  0  0  0  0
   -1.7155    2.8775    2.5526 C   0  0  0  0  0  0  0  0  0  0  0  0
   -0.5660    3.6595    2.3991 C   0  0  0  0  0  0  0  0  0  0  0  0
   -0.6284    4.9133    1.7634 N   0  0  0  0  0  0  0  0  0  0  0  0
    0.6083    5.5012    1.2820 C   0  0  0  0  0  0  0  0  0  0  0  0
    0.2956    6.5667    0.2301 C   0  0  0  0  0  0  0  0  0  0  0  0
   -0.6404    7.5826    0.6844 N   0  0  0  0  0  0  0  0  0  0  0  0
   -1.8469    6.9539    1.1905 C   0  0  0  0  0  0  0  0  0  0  0  0
   -1.5778    5.8936    2.2600 C   0  0  0  0  0  0  0  0  0  0  0  0
   -0.0685    8.5789    1.5603 C   0  0  0  0  0  0  0  0  0  0  0  0
    0.6575    3.1194    2.8242 C   0  0  0  0  0  0  0  0  0  0  0  0
    3.8755    0.9998    3.4742 H   0  0  0  0  0  0  0  0  0  0  0  0
    3.3498    2.6527    3.9513 H   0  0  0  0  0  0  0  0  0  0  0  0
    3.1554    2.0970    2.2484 H   0  0  0  0  0  0  0  0  0  0  0  0
    0.8418   -0.6721    3.3461 H   0  0  0  0  0  0  0  0  0  0  0  0
   -0.8072   -2.7853    0.2347 H   0  0  0  0  0  0  0  0  0  0  0  0
   -0.3815   -1.8531   -1.6768 H   0  0  0  0  0  0  0  0  0  0  0  0
    0.8877   -0.2188   -2.5041 H   0  0  0  0  0  0  0  0  0  0  0  0
    3.6796    0.3067   -0.0285 H   0  0  0  0  0  0  0  0  0  0  0  0
    2.6937    0.2185   -1.4791 H   0  0  0  0  0  0  0  0  0  0  0  0
    1.6299   -1.9987   -0.3250 H   0  0  0  0  0  0  0  0  0  0  0  0
    3.6743   -3.7103    1.7927 H   0  0  0  0  0  0  0  0  0  0  0  0
    2.5008   -3.9160    0.4448 H   0  0  0  0  0  0  0  0  0  0  0  0
    1.9603   -4.0229    2.1474 H   0  0  0  0  0  0  0  0  0  0  0  0
    0.6223    2.2298   -0.0573 H   0  0  0  0  0  0  0  0  0  0  0  0
   -2.2345    1.4108   -0.1321 H   0  0  0  0  0  0  0  0  0  0  0  0
   -1.5419    1.8506   -1.7192 H   0  0  0  0  0  0  0  0  0  0  0  0
   -1.5595    3.0484   -0.3815 H   0  0  0  0  0  0  0  0  0  0  0  0
    1.0284    4.4402   -3.4351 H   0  0  0  0  0  0  0  0  0  0  0  0
   -0.9786    1.5299   -5.6750 H   0  0  0  0  0  0  0  0  0  0  0  0
    0.9334   -5.1312   -2.9150 H   0  0  0  0  0  0  0  0  0  0  0  0
    1.1048   -7.0665   -1.3596 H   0  0  0  0  0  0  0  0  0  0  0  0
    0.3163   -6.8745    1.0086 H   0  0  0  0  0  0  0  0  0  0  0  0
   -4.2044   -2.1137    3.1349 H   0  0  0  0  0  0  0  0  0  0  0  0
   -2.5250    0.9353    3.0045 H   0  0  0  0  0  0  0  0  0  0  0  0
   -2.6887    3.2684    2.2502 H   0  0  0  0  0  0  0  0  0  0  0  0
    1.2292    4.7156    0.8232 H   0  0  0  0  0  0  0  0  0  0  0  0
    1.2019    5.9479    2.1110 H   0  0  0  0  0  0  0  0  0  0  0  0
   -0.1415    6.0626   -0.6491 H   0  0  0  0  0  0  0  0  0  0  0  0
    1.2283    7.0501   -0.0995 H   0  0  0  0  0  0  0  0  0  0  0  0
   -2.3618    6.4651    0.3450 H   0  0  0  0  0  0  0  0  0  0  0  0
   -2.5229    7.7279    1.5885 H   0  0  0  0  0  0  0  0  0  0  0  0
   -2.5208    5.3982    2.5268 H   0  0  0  0  0  0  0  0  0  0  0  0
   -1.1970    6.3744    3.1887 H   0  0  0  0  0  0  0  0  0  0  0  0
    0.7825    9.0653    1.0580 H   0  0  0  0  0  0  0  0  0  0  0  0
    0.2993    8.1983    2.5374 H   0  0  0  0  0  0  0  0  0  0  0  0
   -0.8178    9.3583    1.7726 H   0  0  0  0  0  0  0  0  0  0  0  0
    1.5683    3.7107    2.7688 H   0  0  0  0  0  0  0  0  0  0  0  0
  1 56  1  0  0  0  0
  1  2  1  0  0  0  0
  1 57  1  0  0  0  0
  3  2  1  0  0  0  0
  4  3  1  0  0  0  0
  4  5  1  0  0  0  0
  6 44  1  0  0  0  0
  6  5  1  6  0  0  0
  7  6  1  0  0  0  0
  8 41  1  0  0  0  0
  8  7  2  0  0  0  0
  9  8  1  0  0  0  0
 10  9  1  0  0  0  0
 11 60  1  0  0  0  0
 11 10  2  0  0  0  0
 12 11  1  0  0  0  0
 13 61  1  0  0  0  0
 13 12  1  0  0  0  0
 14 13  1  0  0  0  0
 15 14  2  0  0  0  0
 16 14  1  0  0  0  0
 16 17  2  0  0  0  0
 17 62  1  0  0  0  0
 18 19  1  0  0  0  0
 19 63  1  0  0  0  0
 19 20  1  0  0  0  0
 20 22  1  0  0  0  0
 20 21  1  1  0  0  0
 22 23  1  0  0  0  0
 23 25  2  0  0  0  0
 24 23  1  0  0  0  0
 24 66  1  0  0  0  0
 24 68  1  0  0  0  0
 26 20  1  0  0  0  0
 27 26  1  0  0  0  0
 27 69  1  0  0  0  0
 28 72  1  0  0  0  0
 28 27  1  0  0  0  0
 28 70  1  0  0  0  0
 29 26  2  0  0  0  0
 30 17  1  0  0  0  0
 30 31  1  0  0  0  0
 31 32  1  0  0  0  0
 33 73  1  0  0  0  0
 33 31  1  0  0  0  0
 34 33  2  0  0  0  0
 35 34  1  0  0  0  0
 35 30  2  0  0  0  0
 36 16  1  0  0  0  0
 37 36  3  0  0  0  0
 38 12  2  0  0  0  0
 38 39  1  0  0  0  0
 39 40  2  0  0  0  0
 40 10  1  0  0  0  0
 40 77  1  0  0  0  0
 41 42  1  6  0  0  0
 41 43  1  0  0  0  0
 43 78  1  0  0  0  0
 43 44  2  0  0  0  0
 45 79  1  0  0  0  0
 45  4  2  0  0  0  0
 46 45  1  0  0  0  0
 47 46  2  0  0  0  0
 47 55  1  0  0  0  0
 48 53  1  0  0  0  0
 48 47  1  0  0  0  0
 49 48  1  0  0  0  0
 49 82  1  0  0  0  0
 50 51  1  0  0  0  0
 50 49  1  0  0  0  0
 51 52  1  0  0  0  0
 51 54  1  0  0  0  0
 52 86  1  0  0  0  0
 52 53  1  0  0  0  0
 53 87  1  0  0  0  0
 53 88  1  0  0  0  0
 54 91  1  0  0  0  0
 54 90  1  0  0  0  0
 55  3  2  0  0  0  0
 58  1  1  0  0  0  0
 59  5  1  0  0  0  0
 64 19  1  0  0  0  0
 65 22  1  0  0  0  0
 67 24  1  0  0  0  0
 71 28  1  0  0  0  0
 74 35  1  0  0  0  0
 75 38  1  0  0  0  0
 76 39  1  0  0  0  0
 80 46  1  0  0  0  0
 81 49  1  0  0  0  0
 83 50  1  0  0  0  0
 84 50  1  0  0  0  0
 85 52  1  0  0  0  0
 89 54  1  0  0  0  0
 92 55  1  0  0  0  0
M  END
