92
-1 1
C         2.875673    2.044846    2.186306
O         1.609743    1.436870    2.257347
C         0.499736    2.184434    2.435436
C        -0.708247    1.455139    2.500123
N        -0.603242    0.073088    2.312259
C        -1.541565   -0.905051    2.411142
N        -1.124076   -2.125843    2.026400
C        -1.972364   -3.125622    2.094632
O        -1.635151   -4.345384    1.694366
C        -0.612470   -4.563200    0.775155
C        -0.541815   -3.803534   -0.383892
C         0.446624   -4.075446   -1.352824
N         0.507078   -3.239307   -2.444329
C         1.363296   -3.345959   -3.578869
O         1.962994   -4.400137   -3.773817
C         1.461482   -2.181914   -4.414386
C         0.861485   -0.863665   -4.134527
S         2.094387    0.404386   -3.298475
C         2.454874   -0.545963   -1.805963
C         1.632045   -0.176950   -0.556308
H         2.107881    0.683951   -0.069230
N         1.596761   -1.254249    0.412190
C         2.671204   -1.575526    1.186715
C         2.510406   -2.866873    1.953491
O         3.668027   -0.874205    1.250322
C         0.175234    0.172511   -0.860021
N        -0.170606    1.461816   -0.686462
C        -1.523944    1.927207   -0.864045
O        -0.639377   -0.684622   -1.184035
C         0.278110   -0.122652   -5.294295
N        -0.172726    1.173810   -5.173414
H        -0.039618    1.747189   -4.349816
C        -0.712518    1.532506   -6.369489
N        -0.650436    0.558003   -7.240307
C        -0.032428   -0.478560   -6.585891
C         2.357096   -2.285319   -5.509872
N         3.079780   -2.318156   -6.423102
C         1.326078   -5.158109   -1.120530
C         1.211843   -5.902953    0.047170
C         0.251629   -5.620338    1.022815
C        -3.272744   -2.939618    2.616620
Cl        -4.400933   -4.249273    2.750419
C        -3.606404   -1.648134    2.977527
N        -2.763570   -0.624154    2.871141
C        -1.889841    2.171433    2.686622
C        -1.883231    3.562457    2.777516
C        -0.692204    4.292000    2.700829
N        -0.708541    5.699045    2.773305
C         0.500927    6.415751    2.421121
C         0.187753    7.896988    2.189626
N        -0.492238    8.531745    3.302964
C        -1.681658    7.774199    3.647391
C        -1.403907    6.293751    3.907686
C         0.359366    8.862689    4.423211
C         0.506949    3.573919    2.535167
H         3.583300    1.229820    1.993022
H         3.123453    2.560552    3.130069
H         2.925272    2.772852    1.356641
H         0.298393   -0.253092    1.966677
H        -1.238426   -2.980456   -0.547544
H        -0.053683   -2.400949   -2.344116
H         0.075329   -0.933371   -3.373729
H         3.518626   -0.431019   -1.560482
H         2.302883   -1.604329   -2.060404
H         0.858174   -1.948234    0.297076
H         3.296997   -2.936350    2.713377
H         2.595448   -3.715558    1.256454
H         1.513981   -2.929327    2.414662
H         0.551629    2.125934   -0.447335
H        -2.220238    1.166043   -0.486476
H        -1.761931    2.109831   -1.925176
H        -1.665842    2.852334   -0.290158
H        -1.132876    2.523261   -6.543484
H         0.176693   -1.431742   -7.065688
H         2.065947   -5.390081   -1.883075
H         1.901055   -6.736338    0.205811
H         0.157313   -6.203677    1.938858
H        -4.609268   -1.434374    3.361475
H        -2.825333    1.620716    2.744510
H        -2.836005    4.083684    2.881943
H         0.912653    5.993460    1.492464
H         1.287229    6.311682    3.202441
H        -0.460324    7.974278    1.299660
H         1.118066    8.443310    1.968711
H        -2.394650    7.849402    2.807994
H        -2.160504    8.226141    4.530355
H        -2.354650    5.772902    4.076806
H        -0.805907    6.173266    4.837848
H         1.180492    9.512233    4.082028
H         0.817746    7.995029    4.943849
H        -0.219143    9.426427    5.171762
H         1.459498    4.097643    2.507514
