-1 1
 OpenBabel05232414493D

 92 95  0  0  1  0  0  0  0  0999 V2000
   10.5126   13.8538   17.5399 C   0  0  0  0  0  0  0  0  0  0  0  0
    9.2493   13.2442   17.6445 O   0  0  0  0  0  0  0  0  0  0  0  0
    8.1380   13.9931   17.7963 C   0  0  0  0  0  0  0  0  0  0  0  0
    6.9296   13.2645   17.8562 C   0  0  0  0  0  0  0  0  0  0  0  0
    7.0390   11.8797   17.6834 N   0  0  0  0  0  0  0  0  0  0  0  0
    6.1057   10.9018   17.7980 C   0  0  1  0  0  3  0  0  0  0  0  0
    6.5181    9.6788   17.4114 N   0  0  0  0  0  0  0  0  0  0  0  0
    5.6712    8.6804   17.4936 C   0  0  0  0  0  0  0  0  0  0  0  0
    6.0075    7.4581   17.0898 O   0  0  0  0  0  0  0  0  0  0  0  0
    7.0049    7.2447   16.1470 C   0  0  0  0  0  0  0  0  0  0  0  0
    7.0663    8.0194   14.9972 C   0  0  0  0  0  0  0  0  0  0  0  0
    8.0339    7.7465   14.0122 C   0  0  0  0  0  0  0  0  0  0  0  0
    8.0797    8.6058   12.9266 N   0  0  0  0  0  0  0  0  0  0  0  0
    8.8566    8.4770   11.7683 C   0  0  0  0  0  0  0  0  0  0  0  0
    9.4618    7.4420   11.5341 O   0  0  0  0  0  0  0  0  0  0  0  0
    8.8762    9.6281   10.8581 C   0  0  1  0  0  3  0  0  0  0  0  0
    8.3137   10.8903   11.1163 C   0  0  0  0  0  3  0  0  0  0  0  0
    9.8547   12.3714   12.1764 S   0  0  0  0  0  1  0  0  0  0  0  0
   10.1314   11.2708   13.5814 C   0  0  0  0  0  0  0  0  0  0  0  0
    9.3173   11.6226   14.8381 C   0  0  2  0  0  0  0  0  0  0  0  0
    9.7939   12.4807   15.3282 H   0  0  0  0  0  0  0  0  0  0  0  0
    9.2679   10.5399   15.8033 N   0  0  0  0  0  0  0  0  0  0  0  0
   10.3202   10.2095   16.6018 C   0  0  0  0  0  0  0  0  0  0  0  0
   10.1322    8.9123   17.3566 C   0  0  0  0  0  0  0  0  0  0  0  0
   11.3205   10.9011   16.7005 O   0  0  0  0  0  0  0  0  0  0  0  0
    7.8660   11.9758   14.5200 C   0  0  0  0  0  0  0  0  0  0  0  0
    7.5224   13.2655   14.6771 N   0  0  0  0  0  0  0  0  0  0  0  0
    6.1883   13.7489   14.4259 C   0  0  0  0  0  0  0  0  0  0  0  0
    7.0492   11.1128   14.2028 O   0  0  0  0  0  0  0  0  0  0  0  0
    7.8709   11.7898   10.0403 C   0  0  0  0  0  0  0  0  0  0  0  0
    7.5883   13.1144   10.2790 N   0  0  0  0  0  0  0  0  0  0  0  0
    7.8585   13.5827   11.1391 H   0  0  0  0  0  0  0  0  0  0  0  0
    7.1153   13.6459    9.1239 C   0  0  0  0  0  0  0  0  0  0  0  0
    7.0493   12.7532    8.1662 N   0  0  0  0  0  0  0  0  0  0  0  0
    7.5214   11.5926    8.7206 C   0  0  0  0  0  0  0  0  0  0  0  0
    9.6242    9.4167    9.6605 C   0  0  0  0  0  0  0  0  0  0  0  0
   10.2169    9.2690    8.6725 N   0  0  0  0  0  0  0  0  0  0  0  0
    8.9025    6.6529   14.2063 C   0  0  0  0  0  0  0  0  0  0  0  0
    8.7996    5.8900   15.3651 C   0  0  0  0  0  0  0  0  0  0  0  0
    7.8611    6.1723   16.3590 C   0  0  0  0  0  0  0  0  0  0  0  0
    4.3783    8.8640   18.0310 C   0  0  2  0  0  3  0  0  0  0  0  0
    3.2524    7.5537   18.1803 Cl  0  0  0  0  0  0  0  0  0  0  0  0
    4.0489   10.1569   18.3947 C   0  0  0  0  0  0  0  0  0  0  0  0
    4.8885   11.1806   18.2748 N   0  0  0  0  0  0  0  0  0  0  0  0
    5.7448   13.9803   18.0185 C   0  0  0  0  0  0  0  0  0  0  0  0
    5.7485   15.3725   18.0919 C   0  0  0  0  0  0  0  0  0  0  0  0
    6.9400   16.1017   18.0196 C   0  0  0  0  0  0  0  0  0  0  0  0
    6.9212   17.5097   18.0728 N   0  0  0  0  0  0  0  0  0  0  0  0
    8.1329   18.2232   17.7217 C   0  0  0  0  0  0  0  0  0  0  0  0
    7.8194   19.7003   17.4661 C   0  0  0  0  0  0  0  0  0  0  0  0
    7.1281   20.3499   18.5641 N   0  0  0  0  0  0  0  0  0  0  0  0
    5.9370   19.5949   18.9089 C   0  0  0  0  0  0  0  0  0  0  0  0
    6.2151   18.1188   19.1924 C   0  0  0  0  0  0  0  0  0  0  0  0
    7.9690   20.6980   19.6871 C   0  0  0  0  0  0  0  0  0  0  0  0
    8.1420   15.3837   17.8774 C   0  0  0  0  0  0  0  0  0  0  0  0
   11.2198   13.0357   17.3581 H   0  0  0  0  0  0  0  0  0  0  0  0
   10.7718   14.3942   18.4668 H   0  0  0  0  0  0  0  0  0  0  0  0
   10.5477   14.5593   16.6906 H   0  0  0  0  0  0  0  0  0  0  0  0
    7.9393   11.5554   17.3314 H   0  0  0  0  0  0  0  0  0  0  0  0
    6.3825    8.8565   14.8548 H   0  0  0  0  0  0  0  0  0  0  0  0
    7.5772    9.4764   13.0780 H   0  0  0  0  0  0  0  0  0  0  0  0
    7.6742   10.9651   11.9973 H   0  0  0  0  0  0  0  0  0  0  0  0
   11.1934   11.2696   13.8642 H   0  0  0  0  0  0  0  0  0  0  0  0
    9.8910   10.2434   13.2689 H   0  0  0  0  0  0  0  0  0  0  0  0
    8.5221    9.8566   15.6828 H   0  0  0  0  0  0  0  0  0  0  0  0
   10.9027    8.8317   18.1318 H   0  0  0  0  0  0  0  0  0  0  0  0
   10.2247    8.0665   16.6573 H   0  0  0  0  0  0  0  0  0  0  0  0
    9.1269    8.8571   17.7993 H   0  0  0  0  0  0  0  0  0  0  0  0
    8.2664   13.9332   14.8252 H   0  0  0  0  0  0  0  0  0  0  0  0
    5.4693   12.9733   14.7200 H   0  0  0  0  0  0  0  0  0  0  0  0
    6.0256   13.9789   13.3593 H   0  0  0  0  0  0  0  0  0  0  0  0
    6.0076   14.6488   15.0293 H   0  0  0  0  0  0  0  0  0  0  0  0
    6.8380   14.6966    9.0379 H   0  0  0  0  0  0  0  0  0  0  0  0
    7.5925   10.6655    8.1561 H   0  0  0  0  0  0  0  0  0  0  0  0
    9.6303    6.4207   13.4331 H   0  0  0  0  0  0  0  0  0  0  0  0
    9.4806    5.0461   15.4999 H   0  0  0  0  0  0  0  0  0  0  0  0
    7.7767    5.5776   17.2687 H   0  0  0  0  0  0  0  0  0  0  0  0
    3.0511   10.3704   18.7921 H   0  0  0  0  0  0  0  0  0  0  0  0
    4.8089   13.4299   18.0719 H   0  0  0  0  0  0  0  0  0  0  0  0
    4.7941   15.8943   18.1773 H   0  0  0  0  0  0  0  0  0  0  0  0
    8.5541   17.7881   16.8033 H   0  0  0  0  0  0  0  0  0  0  0  0
    8.9119   18.1318   18.5119 H   0  0  0  0  0  0  0  0  0  0  0  0
    7.1792   19.7636   16.5693 H   0  0  0  0  0  0  0  0  0  0  0  0
    8.7506   20.2452   17.2457 H   0  0  0  0  0  0  0  0  0  0  0  0
    5.2314   19.6568   18.0622 H   0  0  0  0  0  0  0  0  0  0  0  0
    5.4496   20.0585   19.7811 H   0  0  0  0  0  0  0  0  0  0  0  0
    5.2638   17.5984   19.3605 H   0  0  0  0  0  0  0  0  0  0  0  0
    6.8051   18.0127   20.1295 H   0  0  0  0  0  0  0  0  0  0  0  0
    8.7923   21.3439   19.3441 H   0  0  0  0  0  0  0  0  0  0  0  0
    8.4239   19.8387   20.2242 H   0  0  0  0  0  0  0  0  0  0  0  0
    7.3829   21.2715   20.4223 H   0  0  0  0  0  0  0  0  0  0  0  0
    9.0940   15.9085   17.8518 H   0  0  0  0  0  0  0  0  0  0  0  0
  1  2  1  0  0  0  0
  1 57  1  0  0  0  0
  2  3  1  0  0  0  0
  3  4  2  0  0  0  0
  3 55  1  0  0  0  0
  4 45  1  0  0  0  0
  5  4  1  0  0  0  0
  6  5  1  1  0  0  0
  6 44  1  0  0  0  0
  7  8  2  0  0  0  0
  7  6  1  0  0  0  0
  8 41  1  0  0  0  0
  9  8  1  0  0  0  0
 10 40  1  0  0  0  0
 10  9  1  0  0  0  0
 11 10  2  0  0  0  0
 12 38  2  0  0  0  0
 12 11  1  0  0  0  0
 13 61  1  0  0  0  0
 13 12  1  0  0  0  0
 14 13  1  0  0  0  0
 15 14  2  0  0  0  0
 16 36  1  1  0  0  0
 16 17  1  0  0  0  0
 16 14  1  0  0  0  0
 17 62  1  0  0  0  0
 18 19  1  0  0  0  0
 19 63  1  0  0  0  0
 19 20  1  0  0  0  0
 20 21  1  1  0  0  0
 20 22  1  0  0  0  0
 22 23  1  0  0  0  0
 23 25  2  0  0  0  0
 23 24  1  0  0  0  0
 24 68  1  0  0  0  0
 24 66  1  0  0  0  0
 26 27  1  0  0  0  0
 26 20  1  0  0  0  0
 27 69  1  0  0  0  0
 28 27  1  0  0  0  0
 28 70  1  0  0  0  0
 28 72  1  0  0  0  0
 29 26  2  0  0  0  0
 30 31  1  0  0  0  0
 30 17  1  0  0  0  0
 31 32  1  0  0  0  0
 33 31  1  0  0  0  0
 34 35  1  0  0  0  0
 34 33  2  0  0  0  0
 35 30  2  0  0  0  0
 37 36  3  0  0  0  0
 38 39  1  0  0  0  0
 39 76  1  0  0  0  0
 39 40  2  0  0  0  0
 40 77  1  0  0  0  0
 41 42  1  6  0  0  0
 41 43  1  0  0  0  0
 43 78  1  0  0  0  0
 44 43  2  0  0  0  0
 45 79  1  0  0  0  0
 45 46  2  0  0  0  0
 46 80  1  0  0  0  0
 47 48  1  0  0  0  0
 47 46  1  0  0  0  0
 48 53  1  0  0  0  0
 49 48  1  0  0  0  0
 49 82  1  0  0  0  0
 50 49  1  0  0  0  0
 50 51  1  0  0  0  0
 51 52  1  0  0  0  0
 51 54  1  0  0  0  0
 52 53  1  0  0  0  0
 52 86  1  0  0  0  0
 53 87  1  0  0  0  0
 53 88  1  0  0  0  0
 54 90  1  0  0  0  0
 54 91  1  0  0  0  0
 55 47  2  0  0  0  0
 56  1  1  0  0  0  0
 58  1  1  0  0  0  0
 59  5  1  0  0  0  0
 60 11  1  0  0  0  0
 64 19  1  0  0  0  0
 65 22  1  0  0  0  0
 67 24  1  0  0  0  0
 71 28  1  0  0  0  0
 73 33  1  0  0  0  0
 74 35  1  0  0  0  0
 75 38  1  0  0  0  0
 81 49  1  0  0  0  0
 83 50  1  0  0  0  0
 84 50  1  0  0  0  0
 85 52  1  0  0  0  0
 89 54  1  0  0  0  0
 92 55  1  0  0  0  0
M  END
