-1 1
 OpenBabel05232414493D

 94 96  0  0  1  0  0  0  0  0999 V2000
  -22.6562    0.8244    5.8226 C   0  0  0  0  0  0  0  0  0  0  0  0
  -22.4003    2.1985    5.8313 O   0  0  0  0  0  0  0  0  0  0  0  0
  -21.8983    2.7874    4.7107 C   0  0  0  0  0  0  0  0  0  0  0  0
  -21.5719    4.1534    4.8489 C   0  0  0  0  0  0  0  0  0  0  0  0
  -21.7511    4.7024    6.1306 N   0  0  0  0  0  0  0  0  0  0  0  0
  -21.1082    5.7427    6.7171 C   0  0  1  0  0  3  0  0  0  0  0  0
  -20.3032    6.5055    5.9743 N   0  0  0  0  0  0  0  0  0  0  0  0
  -19.6771    7.5078    6.5482 C   0  0  0  0  0  0  0  0  0  0  0  0
  -18.8744    8.2847    5.8272 O   0  0  0  0  0  0  0  0  0  0  0  0
  -18.8221    8.0941    4.4467 C   0  0  0  0  0  0  0  0  0  0  0  0
  -17.6799    7.5165    3.9159 C   0  0  0  0  0  0  0  0  0  0  0  0
  -17.5662    7.3734    2.5197 C   0  0  0  0  0  0  0  0  0  0  0  0
  -16.4459    6.8672    1.9047 N   0  0  0  0  0  0  0  0  0  0  0  0
  -15.2561    6.3205    2.4610 C   0  0  0  0  0  0  0  0  0  0  0  0
  -14.1878    6.7589    2.0776 O   0  0  0  0  0  0  0  0  0  0  0  0
  -15.3923    5.1907    3.3765 C   0  0  1  0  0  3  0  0  0  0  0  0
  -16.5637    4.4317    3.5353 C   0  0  0  0  0  3  0  0  0  0  0  0
  -16.9404    2.9390    1.6363 S   0  0  0  0  0  1  0  0  0  0  0  0
  -15.7878    3.8286    0.5509 C   0  0  0  0  0  0  0  0  0  0  0  0
  -16.0309    3.6847   -0.9528 C   0  0  2  0  0  0  0  0  0  0  0  0
  -15.2866    4.3266   -1.4577 H   0  0  0  0  0  0  0  0  0  0  0  0
  -17.3440    4.1449   -1.3634 N   0  0  0  0  0  0  0  0  0  0  0  0
  -17.7449    5.4300   -1.2826 C   0  0  0  0  0  0  0  0  0  0  0  0
  -19.2099    5.6767   -1.5816 C   0  0  0  0  0  0  0  0  0  0  0  0
  -17.0022    6.3509   -0.9670 O   0  0  0  0  0  0  0  0  0  0  0  0
  -15.8174    2.2895   -1.5604 C   0  0  0  0  0  0  0  0  0  0  0  0
  -15.3712    1.3413   -0.7042 N   0  0  0  0  0  0  0  0  0  0  0  0
  -15.1659   -0.0210   -1.1206 C   0  0  0  0  0  0  0  0  0  0  0  0
  -16.0222    2.0926   -2.7482 O   0  0  0  0  0  0  0  0  0  0  0  0
  -16.7613    3.4944    4.7217 C   0  0  0  0  0  0  0  0  0  0  0  0
  -18.2479    3.2372    4.9592 C   0  0  0  0  0  0  0  0  0  0  0  0
  -15.9681    2.1853    4.6944 C   0  0  0  0  0  0  0  0  0  0  0  0
  -14.1767    4.7787    4.0021 C   0  0  0  0  0  0  0  0  0  0  0  0
  -13.2112    4.4266    4.5451 N   0  0  0  0  0  0  0  0  0  0  0  0
  -18.6358    7.8114    1.7106 C   0  0  0  0  0  0  0  0  0  0  0  0
  -19.7656    8.3848    2.2791 C   0  0  0  0  0  0  0  0  0  0  0  0
  -19.8781    8.5418    3.6601 C   0  0  0  0  0  0  0  0  0  0  0  0
  -19.8439    7.7746    7.9193 C   0  0  1  0  0  3  0  0  0  0  0  0
  -19.0364    9.0929    8.7080 Cl  0  0  0  0  0  0  0  0  0  0  0  0
  -20.7083    6.9283    8.6031 C   0  0  0  0  0  0  0  0  0  0  0  0
  -21.3470    5.9186    8.0285 N   0  0  0  0  0  0  0  0  0  0  0  0
  -21.0808    4.8232    3.7322 C   0  0  0  0  0  0  0  0  0  0  0  0
  -20.8625    4.1534    2.5276 C   0  0  0  0  0  0  0  0  0  0  0  0
  -21.1651    2.7947    2.3894 C   0  0  0  0  0  0  0  0  0  0  0  0
  -20.9764    2.0887    1.1953 N   0  0  0  0  0  0  0  0  0  0  0  0
  -20.2986    0.7961    1.2736 C   0  0  0  0  0  0  0  0  0  0  0  0
  -20.5572   -0.0066   -0.0008 C   0  0  0  0  0  0  0  0  0  0  0  0
  -20.1735    0.6971   -1.2108 N   0  0  0  0  0  0  0  0  0  0  0  0
  -20.8144    1.9979   -1.2397 C   0  0  0  0  0  0  0  0  0  0  0  0
  -20.5832    2.8429    0.0170 C   0  0  0  0  0  0  0  0  0  0  0  0
  -18.7418    0.7362   -1.4296 C   0  0  0  0  0  0  0  0  0  0  0  0
  -21.7155    2.1288    3.5048 C   0  0  0  0  0  0  0  0  0  0  0  0
  -23.4511    0.5582    5.1034 H   0  0  0  0  0  0  0  0  0  0  0  0
  -22.9903    0.5576    6.8333 H   0  0  0  0  0  0  0  0  0  0  0  0
  -21.7493    0.2435    5.5795 H   0  0  0  0  0  0  0  0  0  0  0  0
  -22.2549    4.1119    6.7811 H   0  0  0  0  0  0  0  0  0  0  0  0
  -16.8771    7.1950    4.5795 H   0  0  0  0  0  0  0  0  0  0  0  0
  -16.3576    7.0754    0.9119 H   0  0  0  0  0  0  0  0  0  0  0  0
  -17.4795    4.9136    3.1958 H   0  0  0  0  0  0  0  0  0  0  0  0
  -14.7428    3.5573    0.7685 H   0  0  0  0  0  0  0  0  0  0  0  0
  -15.8744    4.8953    0.7633 H   0  0  0  0  0  0  0  0  0  0  0  0
  -18.0204    3.4421   -1.6276 H   0  0  0  0  0  0  0  0  0  0  0  0
  -19.3035    6.6167   -2.1402 H   0  0  0  0  0  0  0  0  0  0  0  0
  -19.7370    5.7960   -0.6226 H   0  0  0  0  0  0  0  0  0  0  0  0
  -19.6865    4.8616   -2.1436 H   0  0  0  0  0  0  0  0  0  0  0  0
  -15.5025    1.5244    0.2925 H   0  0  0  0  0  0  0  0  0  0  0  0
  -15.1865   -0.0530   -2.2173 H   0  0  0  0  0  0  0  0  0  0  0  0
  -15.9595   -0.6838   -0.7362 H   0  0  0  0  0  0  0  0  0  0  0  0
  -14.1958   -0.3991   -0.7634 H   0  0  0  0  0  0  0  0  0  0  0  0
  -16.3836    4.0743    5.5847 H   0  0  0  0  0  0  0  0  0  0  0  0
  -18.7079    2.7476    4.0853 H   0  0  0  0  0  0  0  0  0  0  0  0
  -18.7888    4.1784    5.1334 H   0  0  0  0  0  0  0  0  0  0  0  0
  -18.4011    2.5885    5.8361 H   0  0  0  0  0  0  0  0  0  0  0  0
  -16.3634    1.5140    3.9198 H   0  0  0  0  0  0  0  0  0  0  0  0
  -16.0484    1.6883    5.6748 H   0  0  0  0  0  0  0  0  0  0  0  0
  -14.9035    2.3547    4.4873 H   0  0  0  0  0  0  0  0  0  0  0  0
  -18.5406    7.7021    0.6280 H   0  0  0  0  0  0  0  0  0  0  0  0
  -20.5781    8.7219    1.6308 H   0  0  0  0  0  0  0  0  0  0  0  0
  -20.7584    8.9895    4.1219 H   0  0  0  0  0  0  0  0  0  0  0  0
  -20.8833    7.0910    9.6722 H   0  0  0  0  0  0  0  0  0  0  0  0
  -20.7973    5.8699    3.8149 H   0  0  0  0  0  0  0  0  0  0  0  0
  -20.3956    4.7079    1.7154 H   0  0  0  0  0  0  0  0  0  0  0  0
  -20.6724    0.2264    2.1338 H   0  0  0  0  0  0  0  0  0  0  0  0
  -19.2108    0.9464    1.4282 H   0  0  0  0  0  0  0  0  0  0  0  0
  -21.6372   -0.2330   -0.0573 H   0  0  0  0  0  0  0  0  0  0  0  0
  -20.0173   -0.9657    0.0469 H   0  0  0  0  0  0  0  0  0  0  0  0
  -21.9022    1.8441   -1.3548 H   0  0  0  0  0  0  0  0  0  0  0  0
  -20.4686    2.5502   -2.1294 H   0  0  0  0  0  0  0  0  0  0  0  0
  -21.2090    3.7450   -0.0539 H   0  0  0  0  0  0  0  0  0  0  0  0
  -19.5263    3.1717    0.0949 H   0  0  0  0  0  0  0  0  0  0  0  0
  -18.3528   -0.2913   -1.5056 H   0  0  0  0  0  0  0  0  0  0  0  0
  -18.1655    1.2485   -0.6310 H   0  0  0  0  0  0  0  0  0  0  0  0
  -18.5135    1.2306   -2.3864 H   0  0  0  0  0  0  0  0  0  0  0  0
  -22.0065    1.0846    3.4090 H   0  0  0  0  0  0  0  0  0  0  0  0
  1  2  1  0  0  0  0
  1 54  1  0  0  0  0
  3  4  1  0  0  0  0
  3  2  1  0  0  0  0
  4  5  1  0  0  0  0
  5 56  1  0  0  0  0
  6  5  1  6  0  0  0
  6 41  1  0  0  0  0
  7  8  2  0  0  0  0
  7  6  1  0  0  0  0
  8 38  1  0  0  0  0
  9  8  1  0  0  0  0
 10  9  1  0  0  0  0
 11 10  1  0  0  0  0
 11 57  1  0  0  0  0
 12 11  2  0  0  0  0
 13 14  1  0  0  0  0
 13 12  1  0  0  0  0
 14 16  1  0  0  0  0
 15 14  2  0  0  0  0
 16 17  1  0  0  0  0
 16 33  1  6  0  0  0
 17 30  1  0  0  0  0
 19 61  1  0  0  0  0
 19 60  1  0  0  0  0
 19 18  1  0  0  0  0
 20 21  1  6  0  0  0
 20 19  1  0  0  0  0
 22 23  1  0  0  0  0
 22 20  1  0  0  0  0
 23 25  2  0  0  0  0
 24 23  1  0  0  0  0
 24 64  1  0  0  0  0
 26 20  1  0  0  0  0
 26 27  1  0  0  0  0
 27 66  1  0  0  0  0
 28 69  1  0  0  0  0
 28 68  1  0  0  0  0
 28 27  1  0  0  0  0
 29 26  2  0  0  0  0
 30 31  1  0  0  0  0
 30 70  1  0  0  0  0
 31 72  1  0  0  0  0
 31 73  1  0  0  0  0
 32 30  1  0  0  0  0
 32 75  1  0  0  0  0
 33 34  3  0  0  0  0
 35 36  2  0  0  0  0
 35 12  1  0  0  0  0
 36 37  1  0  0  0  0
 37 79  1  0  0  0  0
 37 10  2  0  0  0  0
 38 40  1  0  0  0  0
 38 39  1  6  0  0  0
 40 80  1  0  0  0  0
 41 40  2  0  0  0  0
 42 81  1  0  0  0  0
 42  4  2  0  0  0  0
 43 42  1  0  0  0  0
 44 43  2  0  0  0  0
 44 52  1  0  0  0  0
 45 46  1  0  0  0  0
 45 44  1  0  0  0  0
 46 84  1  0  0  0  0
 46 83  1  0  0  0  0
 47 86  1  0  0  0  0
 47 46  1  0  0  0  0
 48 47  1  0  0  0  0
 49 48  1  0  0  0  0
 49 50  1  0  0  0  0
 50 90  1  0  0  0  0
 50 45  1  0  0  0  0
 51 48  1  0  0  0  0
 51 92  1  0  0  0  0
 52  3  2  0  0  0  0
 53  1  1  0  0  0  0
 55  1  1  0  0  0  0
 58 13  1  0  0  0  0
 59 17  1  0  0  0  0
 62 22  1  0  0  0  0
 63 24  1  0  0  0  0
 65 24  1  0  0  0  0
 67 28  1  0  0  0  0
 71 31  1  0  0  0  0
 74 32  1  0  0  0  0
 76 32  1  0  0  0  0
 77 35  1  0  0  0  0
 78 36  1  0  0  0  0
 82 43  1  0  0  0  0
 85 47  1  0  0  0  0
 87 49  1  0  0  0  0
 88 49  1  0  0  0  0
 89 50  1  0  0  0  0
 91 51  1  0  0  0  0
 93 51  1  0  0  0  0
 94 52  1  0  0  0  0
M  END
