-1 1
 OpenBabel05232413493D

 94 96  0  0  1  0  0  0  0  0999 V2000
   -3.8324   -3.7856    3.0460 C   0  0  0  0  0  0  0  0  0  0  0  0
   -3.5270   -2.4216    3.0548 O   0  0  0  0  0  0  0  0  0  0  0  0
   -3.0970   -1.8286    1.9050 C   0  0  0  0  0  0  0  0  0  0  0  0
   -2.7121   -0.4781    2.0402 C   0  0  0  0  0  0  0  0  0  0  0  0
   -2.8020    0.0573    3.3377 N   0  0  0  0  0  0  0  0  0  0  0  0
   -2.3128    1.2083    3.8506 C   0  0  2  0  0  3  0  0  0  0  0  0
   -1.6570    2.0529    3.0478 N   0  0  0  0  0  0  0  0  0  0  0  0
   -1.1869    3.1697    3.5531 C   0  0  0  0  0  0  0  0  0  0  0  0
   -0.5326    4.0228    2.7621 O   0  0  0  0  0  0  0  0  0  0  0  0
   -0.3913    3.6875    1.4187 C   0  0  0  0  0  0  0  0  0  0  0  0
    0.8191    3.1467    1.0084 C   0  0  0  0  0  0  0  0  0  0  0  0
    0.9992    2.8076   -0.3418 C   0  0  0  0  0  0  0  0  0  0  0  0
    2.1893    2.2934   -0.8569 N   0  0  0  0  0  0  0  0  0  0  0  0
    3.3060    1.7994   -0.2135 C   0  0  0  0  0  0  0  0  0  0  0  0
    4.4028    1.8545   -0.7212 O   0  0  0  0  0  0  0  0  0  0  0  0
    3.1037    1.0650    1.0863 C   0  0  0  0  0  0  0  0  0  0  0  0
    2.1564    0.1161    1.2224 C   0  0  0  0  0  0  0  0  0  0  0  0
    1.2838   -2.2493   -1.5051 S   0  0  0  0  0  1  0  0  0  0  0  0
    2.6647   -1.1684   -2.0354 C   0  0  0  0  0  0  0  0  0  0  0  0
    2.7388   -0.8692   -3.5432 C   0  0  2  0  0  0  0  0  0  0  0  0
    3.4281   -0.0307   -3.7115 H   0  0  0  0  0  0  0  0  0  0  0  0
    1.4453   -0.4595   -4.0688 N   0  0  0  0  0  0  0  0  0  0  0  0
    0.9933    0.8067   -4.0161 C   0  0  0  0  0  0  0  0  0  0  0  0
   -0.4651    0.9912   -4.3869 C   0  0  0  0  0  0  0  0  0  0  0  0
    1.6812    1.7705   -3.6883 O   0  0  0  0  0  0  0  0  0  0  0  0
    3.2685   -2.0143   -4.4231 C   0  0  0  0  0  0  0  0  0  0  0  0
    2.8241   -3.2445   -4.0698 N   0  0  0  0  0  0  0  0  0  0  0  0
    3.2100   -4.4346   -4.7765 C   0  0  0  0  0  0  0  0  0  0  0  0
    3.9974   -1.7986   -5.3773 O   0  0  0  0  0  0  0  0  0  0  0  0
    2.0210   -0.8301    2.3762 C   0  0  0  0  0  0  0  0  0  0  0  0
    0.5413   -1.0738    2.6742 C   0  0  0  0  0  0  0  0  0  0  0  0
    2.7539   -2.1379    2.0353 C   0  0  0  0  0  0  0  0  0  0  0  0
    4.0981    1.2787    2.1013 C   0  0  0  0  0  0  0  0  0  0  0  0
    4.8744    1.4635    2.9409 N   0  0  0  0  0  0  0  0  0  0  0  0
   -0.0470    3.0641   -1.2448 C   0  0  0  0  0  0  0  0  0  0  0  0
   -1.2415    3.6215   -0.8048 C   0  0  0  0  0  0  0  0  0  0  0  0
   -1.4357    3.9380    0.5382 C   0  0  0  0  0  0  0  0  0  0  0  0
   -1.3616    3.4826    4.9111 C   0  0  1  0  0  3  0  0  0  0  0  0
   -0.7577    4.9527    5.6080 Cl  0  0  0  0  0  0  0  0  0  0  0  0
   -2.0521    2.5390    5.6656 C   0  0  0  0  0  0  0  0  0  0  0  0
   -2.5320    1.4116    5.1637 N   0  0  0  0  0  0  0  0  0  0  0  0
   -2.2594    0.1839    0.9023 C   0  0  0  0  0  0  0  0  0  0  0  0
   -2.1776   -0.4678   -0.3270 C   0  0  0  0  0  0  0  0  0  0  0  0
   -2.5746   -1.8027   -0.4757 C   0  0  0  0  0  0  0  0  0  0  0  0
   -2.5650   -2.4592   -1.7098 N   0  0  0  0  0  0  0  0  0  0  0  0
   -2.0249   -3.8182   -1.7628 C   0  0  0  0  0  0  0  0  0  0  0  0
   -2.4270   -4.5038   -3.0697 C   0  0  0  0  0  0  0  0  0  0  0  0
   -2.0688   -3.7539   -4.2599 N   0  0  0  0  0  0  0  0  0  0  0  0
   -2.6165   -2.4155   -4.1581 C   0  0  0  0  0  0  0  0  0  0  0  0
   -2.2175   -1.6721   -2.8821 C   0  0  0  0  0  0  0  0  0  0  0  0
   -0.6509   -3.7868   -4.5728 C   0  0  0  0  0  0  0  0  0  0  0  0
   -3.0409   -2.4713    0.6768 C   0  0  0  0  0  0  0  0  0  0  0  0
   -4.6939   -4.0101    2.3923 H   0  0  0  0  0  0  0  0  0  0  0  0
   -4.0905   -4.0594    4.0769 H   0  0  0  0  0  0  0  0  0  0  0  0
   -2.9711   -4.3932    2.7177 H   0  0  0  0  0  0  0  0  0  0  0  0
   -3.2275   -0.5570    4.0216 H   0  0  0  0  0  0  0  0  0  0  0  0
    1.6027    3.0062    1.7499 H   0  0  0  0  0  0  0  0  0  0  0  0
    2.2881    2.3316   -1.8769 H   0  0  0  0  0  0  0  0  0  0  0  0
    1.4510   -0.0409    0.3953 H   0  0  0  0  0  0  0  0  0  0  0  0
    3.6383   -1.5746   -1.7155 H   0  0  0  0  0  0  0  0  0  0  0  0
    2.5575   -0.1934   -1.5447 H   0  0  0  0  0  0  0  0  0  0  0  0
    0.7486   -1.1977   -4.0900 H   0  0  0  0  0  0  0  0  0  0  0  0
   -0.5672    1.9182   -4.9658 H   0  0  0  0  0  0  0  0  0  0  0  0
   -1.0485    1.0998   -3.4598 H   0  0  0  0  0  0  0  0  0  0  0  0
   -0.8749    0.1478   -4.9586 H   0  0  0  0  0  0  0  0  0  0  0  0
    2.2577   -3.3070   -3.2070 H   0  0  0  0  0  0  0  0  0  0  0  0
    3.7598   -4.1362   -5.6790 H   0  0  0  0  0  0  0  0  0  0  0  0
    2.3270   -5.0245   -5.0722 H   0  0  0  0  0  0  0  0  0  0  0  0
    3.8636   -5.0802   -4.1657 H   0  0  0  0  0  0  0  0  0  0  0  0
    2.5037   -0.3800    3.2606 H   0  0  0  0  0  0  0  0  0  0  0  0
    0.0465   -1.5362    1.8051 H   0  0  0  0  0  0  0  0  0  0  0  0
    0.0212   -0.1304    2.8943 H   0  0  0  0  0  0  0  0  0  0  0  0
    0.4223   -1.7438    3.5396 H   0  0  0  0  0  0  0  0  0  0  0  0
    2.3574   -2.5622    1.0981 H   0  0  0  0  0  0  0  0  0  0  0  0
    2.6185   -2.8667    2.8502 H   0  0  0  0  0  0  0  0  0  0  0  0
    3.8322   -1.9597    1.9068 H   0  0  0  0  0  0  0  0  0  0  0  0
    0.1179    2.8406   -2.2996 H   0  0  0  0  0  0  0  0  0  0  0  0
   -2.0394    3.8120   -1.5260 H   0  0  0  0  0  0  0  0  0  0  0  0
   -2.3719    4.3602    0.9043 H   0  0  0  0  0  0  0  0  0  0  0  0
   -2.2166    2.7244    6.7327 H   0  0  0  0  0  0  0  0  0  0  0  0
   -1.9201    1.2128    0.9809 H   0  0  0  0  0  0  0  0  0  0  0  0
   -1.7483    0.0824   -1.1615 H   0  0  0  0  0  0  0  0  0  0  0  0
   -2.4177   -4.4111   -0.9265 H   0  0  0  0  0  0  0  0  0  0  0  0
   -0.9227   -3.7923   -1.6615 H   0  0  0  0  0  0  0  0  0  0  0  0
   -3.5232   -4.6453   -3.0714 H   0  0  0  0  0  0  0  0  0  0  0  0
   -1.9633   -5.5022   -3.1156 H   0  0  0  0  0  0  0  0  0  0  0  0
   -3.7184   -2.4912   -4.1866 H   0  0  0  0  0  0  0  0  0  0  0  0
   -2.3077   -1.8277   -5.0382 H   0  0  0  0  0  0  0  0  0  0  0  0
   -2.7724   -0.7223   -2.8502 H   0  0  0  0  0  0  0  0  0  0  0  0
   -1.1343   -1.4359   -2.8756 H   0  0  0  0  0  0  0  0  0  0  0  0
   -0.3373   -4.8298   -4.7395 H   0  0  0  0  0  0  0  0  0  0  0  0
    0.0075   -3.3611   -3.7886 H   0  0  0  0  0  0  0  0  0  0  0  0
   -0.4697   -3.2384   -5.5115 H   0  0  0  0  0  0  0  0  0  0  0  0
   -3.3804   -3.5016    0.5940 H   0  0  0  0  0  0  0  0  0  0  0  0
  1  2  1  0  0  0  0
  1 54  1  0  0  0  0
  3  4  1  0  0  0  0
  3  2  1  0  0  0  0
  4  5  1  0  0  0  0
  5 56  1  0  0  0  0
  6  5  1  1  0  0  0
  6 41  1  0  0  0  0
  7  8  2  0  0  0  0
  7  6  1  0  0  0  0
  8 38  1  0  0  0  0
  9  8  1  0  0  0  0
 10  9  1  0  0  0  0
 11 10  1  0  0  0  0
 11 57  1  0  0  0  0
 12 11  2  0  0  0  0
 13 12  1  0  0  0  0
 13 14  1  0  0  0  0
 14 16  1  0  0  0  0
 15 14  2  0  0  0  0
 16 17  2  0  0  0  0
 16 33  1  0  0  0  0
 17 30  1  0  0  0  0
 19 60  1  0  0  0  0
 19 61  1  0  0  0  0
 19 18  1  0  0  0  0
 20 21  1  6  0  0  0
 20 19  1  0  0  0  0
 22 23  1  0  0  0  0
 22 20  1  0  0  0  0
 23 25  2  0  0  0  0
 24 23  1  0  0  0  0
 24 64  1  0  0  0  0
 26 27  1  0  0  0  0
 26 20  1  0  0  0  0
 27 66  1  0  0  0  0
 28 69  1  0  0  0  0
 28 27  1  0  0  0  0
 29 26  2  0  0  0  0
 30 31  1  0  0  0  0
 30 70  1  0  0  0  0
 31 72  1  0  0  0  0
 31 73  1  0  0  0  0
 32 30  1  0  0  0  0
 32 75  1  0  0  0  0
 33 34  3  0  0  0  0
 35 36  2  0  0  0  0
 35 12  1  0  0  0  0
 36 37  1  0  0  0  0
 37 79  1  0  0  0  0
 37 10  2  0  0  0  0
 38 39  1  6  0  0  0
 38 40  1  0  0  0  0
 40 80  1  0  0  0  0
 41 40  2  0  0  0  0
 42 81  1  0  0  0  0
 42  4  2  0  0  0  0
 43 42  1  0  0  0  0
 44 43  2  0  0  0  0
 44 52  1  0  0  0  0
 45 44  1  0  0  0  0
 46 45  1  0  0  0  0
 46 84  1  0  0  0  0
 46 83  1  0  0  0  0
 47 46  1  0  0  0  0
 48 49  1  0  0  0  0
 48 47  1  0  0  0  0
 49 50  1  0  0  0  0
 50 90  1  0  0  0  0
 50 89  1  0  0  0  0
 50 45  1  0  0  0  0
 51 48  1  0  0  0  0
 51 92  1  0  0  0  0
 52  3  2  0  0  0  0
 53  1  1  0  0  0  0
 55  1  1  0  0  0  0
 58 13  1  0  0  0  0
 59 17  1  0  0  0  0
 62 22  1  0  0  0  0
 63 24  1  0  0  0  0
 65 24  1  0  0  0  0
 67 28  1  0  0  0  0
 68 28  1  0  0  0  0
 71 31  1  0  0  0  0
 74 32  1  0  0  0  0
 76 32  1  0  0  0  0
 77 35  1  0  0  0  0
 78 36  1  0  0  0  0
 82 43  1  0  0  0  0
 85 47  1  0  0  0  0
 86 47  1  0  0  0  0
 87 49  1  0  0  0  0
 88 49  1  0  0  0  0
 91 51  1  0  0  0  0
 93 51  1  0  0  0  0
 94 52  1  0  0  0  0
M  END
