-1 1
 OpenBabel05232413493D

 98 99  0  0  1  0  0  0  0  0999 V2000
    5.2536    1.9773    2.1025 C   0  0  0  0  0  0  0  0  0  0  0  0
    5.4742    0.4816    1.9740 C   0  0  0  0  0  0  0  0  0  0  0  0
    4.3447   -0.2553    2.4318 O   0  0  0  0  0  0  0  0  0  0  0  0
    3.3294   -0.4242    1.5774 C   0  0  0  0  0  0  0  0  0  0  0  0
    3.3904   -0.0359    0.4235 O   0  0  0  0  0  0  0  0  0  0  0  0
    2.1763   -1.0560    2.2277 C   0  0  0  0  0  0  0  0  0  0  0  0
    1.0147   -1.3677    1.6366 C   0  0  0  0  0  0  0  0  0  0  0  0
   -0.9347   -1.1887    4.4805 S   0  0  0  0  0  1  0  0  0  0  0  0
   -1.8549    0.0953    3.5530 C   0  0  0  0  0  0  0  0  0  0  0  0
   -1.7094    1.5321    4.0987 C   0  0  2  0  0  0  0  0  0  0  0  0
   -1.8722    1.4786    5.1907 H   0  0  0  0  0  0  0  0  0  0  0  0
   -2.6390    2.4727    3.5044 N   0  0  0  0  0  0  0  0  0  0  0  0
   -3.9792    2.4869    3.6943 C   0  0  0  0  0  0  0  0  0  0  0  0
   -4.6957    3.6657    3.0526 C   0  0  0  0  0  0  0  0  0  0  0  0
   -4.5954    1.6215    4.2929 O   0  0  0  0  0  0  0  0  0  0  0  0
   -0.3226    2.1494    3.8433 C   0  0  0  0  0  0  0  0  0  0  0  0
    0.7288    1.3927    4.1849 N   0  0  0  0  0  0  0  0  0  0  0  0
    2.0651    1.8494    3.9231 C   0  0  0  0  0  0  0  0  0  0  0  0
   -0.2039    3.2676    3.3421 O   0  0  0  0  0  0  0  0  0  0  0  0
    0.6237   -1.2499    0.1849 C   0  0  1  0  0  0  0  0  0  0  0  0
    1.5230   -1.0946   -0.4177 H   0  0  0  0  0  0  0  0  0  0  0  0
    0.0078   -2.5313   -0.1755 N   0  0  0  0  0  0  0  0  0  0  0  0
    0.4205   -3.4997   -1.0375 C   0  0  0  0  0  0  0  0  0  0  0  0
    1.1319   -3.1495   -2.3601 C   0  0  1  0  0  0  0  0  0  0  0  0
    0.5879   -3.8089   -3.0477 H   0  0  0  0  0  0  0  0  0  0  0  0
    0.8548   -1.8096   -2.8760 N   0  0  0  0  0  0  0  0  0  0  0  0
    1.7361   -0.7620   -2.7804 C   0  0  0  0  0  0  0  0  0  0  0  0
    1.4025    0.4747   -3.2285 C   0  0  0  0  0  0  0  0  0  0  0  0
    0.1157    0.7098   -3.7910 C   0  0  0  0  0  0  0  0  0  0  0  0
   -0.7622   -0.3281   -3.9110 C   0  0  0  0  0  0  0  0  0  0  0  0
   -2.0497   -0.2956   -4.4470 N   0  0  0  0  0  0  0  0  0  0  0  0
   -3.0128    0.6758   -4.3472 C   0  0  0  0  0  0  0  0  0  0  0  0
   -2.5263    1.8211   -3.8554 O   0  0  0  0  0  0  0  0  0  0  0  0
   -3.4884    2.7263   -3.3058 C   0  0  0  0  0  0  0  0  0  0  0  0
   -4.0342    2.2010   -2.0016 C   0  0  0  0  0  0  0  0  0  0  0  0
   -3.1798    2.1000   -0.8971 C   0  0  0  0  0  0  0  0  0  0  0  0
   -3.6451    1.5600    0.2988 C   0  0  0  0  0  0  0  0  0  0  0  0
   -4.9671    1.1241    0.4085 C   0  0  0  0  0  0  0  0  0  0  0  0
   -5.8205    1.2240   -0.6894 C   0  0  0  0  0  0  0  0  0  0  0  0
   -5.3526    1.7525   -1.8934 C   0  0  0  0  0  0  0  0  0  0  0  0
   -4.1614    0.5016   -4.6747 O   0  0  0  0  0  0  0  0  0  0  0  0
   -0.3950   -1.6771   -3.4797 C   0  0  0  0  0  0  0  0  0  0  0  0
   -1.1428   -2.6370   -3.6271 O   0  0  0  0  0  0  0  0  0  0  0  0
    2.5964   -3.6145   -2.4143 C   0  0  0  0  0  0  0  0  0  0  0  0
    3.5675   -3.2364   -1.3158 C   0  0  0  0  0  0  0  0  0  0  0  0
    4.7259   -2.5069   -1.6046 C   0  0  0  0  0  0  0  0  0  0  0  0
    5.6831   -2.2592   -0.6223 C   0  0  0  0  0  0  0  0  0  0  0  0
    5.4933   -2.7355    0.6723 C   0  0  0  0  0  0  0  0  0  0  0  0
    4.3365   -3.4512    0.9779 C   0  0  0  0  0  0  0  0  0  0  0  0
    3.3861   -3.7055   -0.0075 C   0  0  0  0  0  0  0  0  0  0  0  0
    0.1846   -4.6773   -0.8396 O   0  0  0  0  0  0  0  0  0  0  0  0
   -0.3683   -0.0876   -0.0300 C   0  0  0  0  0  0  0  0  0  0  0  0
    0.0945    1.2789    0.5061 C   0  0  0  0  0  0  0  0  0  0  0  0
    0.7014    2.2078   -0.5318 C   0  0  0  0  0  0  0  0  0  0  0  0
    2.0573    2.3056   -0.5251 N   0  0  0  0  0  0  0  0  0  0  0  0
    0.0139    2.8561   -1.3055 O   0  0  0  0  0  0  0  0  0  0  0  0
    5.0271    2.2542    3.1420 H   0  0  0  0  0  0  0  0  0  0  0  0
    4.4202    2.3086    1.4668 H   0  0  0  0  0  0  0  0  0  0  0  0
    6.1597    2.5171    1.7889 H   0  0  0  0  0  0  0  0  0  0  0  0
    6.3057    0.1483    2.6103 H   0  0  0  0  0  0  0  0  0  0  0  0
    5.6892    0.2020    0.9328 H   0  0  0  0  0  0  0  0  0  0  0  0
    2.2595   -1.2217    3.3044 H   0  0  0  0  0  0  0  0  0  0  0  0
    0.2303   -1.7191    2.3353 H   0  0  0  0  0  0  0  0  0  0  0  0
   -2.9282   -0.1352    3.5827 H   0  0  0  0  0  0  0  0  0  0  0  0
   -1.5524    0.1061    2.4909 H   0  0  0  0  0  0  0  0  0  0  0  0
   -2.1677    3.2826    3.1057 H   0  0  0  0  0  0  0  0  0  0  0  0
   -4.0316    4.5150    2.8390 H   0  0  0  0  0  0  0  0  0  0  0  0
   -5.5070    3.9849    3.7197 H   0  0  0  0  0  0  0  0  0  0  0  0
   -5.1452    3.3320    2.1055 H   0  0  0  0  0  0  0  0  0  0  0  0
    0.5158    0.4074    4.4569 H   0  0  0  0  0  0  0  0  0  0  0  0
    2.2253    2.0561    2.8489 H   0  0  0  0  0  0  0  0  0  0  0  0
    2.7822    1.0827    4.2433 H   0  0  0  0  0  0  0  0  0  0  0  0
    2.2808    2.7882    4.4591 H   0  0  0  0  0  0  0  0  0  0  0  0
   -0.5693   -2.9320    0.5617 H   0  0  0  0  0  0  0  0  0  0  0  0
    2.6875   -0.9710   -2.2933 H   0  0  0  0  0  0  0  0  0  0  0  0
    2.1128    1.2905   -3.1203 H   0  0  0  0  0  0  0  0  0  0  0  0
   -0.1756    1.7151   -4.0873 H   0  0  0  0  0  0  0  0  0  0  0  0
   -2.4279   -1.2257   -4.6135 H   0  0  0  0  0  0  0  0  0  0  0  0
   -4.2921    2.8976   -4.0362 H   0  0  0  0  0  0  0  0  0  0  0  0
   -2.9239    3.6544   -3.1519 H   0  0  0  0  0  0  0  0  0  0  0  0
   -2.1420    2.4380   -0.9901 H   0  0  0  0  0  0  0  0  0  0  0  0
   -2.9857    1.4910    1.1664 H   0  0  0  0  0  0  0  0  0  0  0  0
   -5.3214    0.7132    1.3574 H   0  0  0  0  0  0  0  0  0  0  0  0
   -6.8532    0.8755   -0.6136 H   0  0  0  0  0  0  0  0  0  0  0  0
   -6.0085    1.7979   -2.7661 H   0  0  0  0  0  0  0  0  0  0  0  0
    3.0054   -3.3195   -3.3929 H   0  0  0  0  0  0  0  0  0  0  0  0
    2.5332   -4.7130   -2.4254 H   0  0  0  0  0  0  0  0  0  0  0  0
    4.8895   -2.1392   -2.6220 H   0  0  0  0  0  0  0  0  0  0  0  0
    6.5830   -1.6926   -0.8734 H   0  0  0  0  0  0  0  0  0  0  0  0
    6.2391   -2.5437    1.4466 H   0  0  0  0  0  0  0  0  0  0  0  0
    4.1709   -3.8188    1.9926 H   0  0  0  0  0  0  0  0  0  0  0  0
    2.5031   -4.3001    0.2371 H   0  0  0  0  0  0  0  0  0  0  0  0
   -1.3076   -0.3660    0.4723 H   0  0  0  0  0  0  0  0  0  0  0  0
   -0.6118   -0.0205   -1.1011 H   0  0  0  0  0  0  0  0  0  0  0  0
    0.7814    1.1452    1.3525 H   0  0  0  0  0  0  0  0  0  0  0  0
   -0.7667    1.8265    0.9116 H   0  0  0  0  0  0  0  0  0  0  0  0
    2.6176    1.5495   -0.1353 H   0  0  0  0  0  0  0  0  0  0  0  0
    2.4625    2.8659   -1.2643 H   0  0  0  0  0  0  0  0  0  0  0  0
  1 57  1  0  0  0  0
  2  1  1  0  0  0  0
  2  3  1  0  0  0  0
  2 60  1  0  0  0  0
  4  6  1  0  0  0  0
  4  3  1  0  0  0  0
  5  4  2  0  0  0  0
  6 62  1  0  0  0  0
  7  6  2  0  0  0  0
  7 63  1  0  0  0  0
  9 64  1  0  0  0  0
  9 10  1  0  0  0  0
  9  8  1  0  0  0  0
 10 11  1  1  0  0  0
 12 13  1  0  0  0  0
 12 10  1  0  0  0  0
 13 15  2  0  0  0  0
 14 13  1  0  0  0  0
 14 68  1  0  0  0  0
 16 10  1  0  0  0  0
 16 17  1  0  0  0  0
 17 70  1  0  0  0  0
 18 17  1  0  0  0  0
 18 72  1  0  0  0  0
 18 73  1  0  0  0  0
 19 16  2  0  0  0  0
 20 21  1  6  0  0  0
 20  7  1  0  0  0  0
 22 20  1  0  0  0  0
 22 74  1  0  0  0  0
 23 51  2  0  0  0  0
 23 22  1  0  0  0  0
 24 25  1  6  0  0  0
 24 23  1  0  0  0  0
 26 27  1  0  0  0  0
 26 24  1  0  0  0  0
 27 75  1  0  0  0  0
 28 76  1  0  0  0  0
 28 27  2  0  0  0  0
 29 28  1  0  0  0  0
 30 29  2  0  0  0  0
 30 42  1  0  0  0  0
 31 32  1  0  0  0  0
 31 30  1  0  0  0  0
 32 33  1  0  0  0  0
 33 34  1  0  0  0  0
 34 80  1  0  0  0  0
 34 35  1  0  0  0  0
 35 40  2  0  0  0  0
 35 36  1  0  0  0  0
 36 37  2  0  0  0  0
 37 38  1  0  0  0  0
 37 82  1  0  0  0  0
 38 83  1  0  0  0  0
 39 84  1  0  0  0  0
 39 38  2  0  0  0  0
 40 39  1  0  0  0  0
 41 32  2  0  0  0  0
 42 26  1  0  0  0  0
 43 42  2  0  0  0  0
 44 24  1  0  0  0  0
 44 45  1  0  0  0  0
 45 50  1  0  0  0  0
 46 45  2  0  0  0  0
 46 47  1  0  0  0  0
 47 48  2  0  0  0  0
 48 49  1  0  0  0  0
 48 90  1  0  0  0  0
 49 91  1  0  0  0  0
 50 92  1  0  0  0  0
 50 49  2  0  0  0  0
 52 20  1  0  0  0  0
 52 93  1  0  0  0  0
 52 53  1  0  0  0  0
 53 96  1  0  0  0  0
 53 95  1  0  0  0  0
 54 55  1  0  0  0  0
 54 53  1  0  0  0  0
 55 97  1  0  0  0  0
 56 54  2  0  0  0  0
 58  1  1  0  0  0  0
 59  1  1  0  0  0  0
 61  2  1  0  0  0  0
 65  9  1  0  0  0  0
 66 12  1  0  0  0  0
 67 14  1  0  0  0  0
 69 14  1  0  0  0  0
 71 18  1  0  0  0  0
 77 29  1  0  0  0  0
 78 31  1  0  0  0  0
 79 34  1  0  0  0  0
 81 36  1  0  0  0  0
 85 40  1  0  0  0  0
 86 44  1  0  0  0  0
 87 44  1  0  0  0  0
 88 46  1  0  0  0  0
 89 47  1  0  0  0  0
 94 52  1  0  0  0  0
 98 55  1  0  0  0  0
M  END
