-1 1
 OpenBabel05192410563D

 98100  0  0  1  0  0  0  0  0999 V2000
    4.9926    2.3514    1.4777 C   0  0  0  0  0  0  0  0  0  0  0  0
    5.0382    0.8582    1.7661 C   0  0  0  0  0  0  0  0  0  0  0  0
    3.8519    0.3866    2.3560 O   0  0  0  0  0  0  0  0  0  0  0  0
    2.8527   -0.0688    1.5028 C   0  0  0  0  0  0  0  0  0  0  0  0
    3.0767   -0.0357    0.2692 O   0  0  0  0  0  0  0  0  0  0  0  0
    1.7025   -0.4629    2.1771 C   0  0  0  0  0  3  0  0  0  0  0  0
    0.6068   -1.2875    1.5591 C   0  0  1  0  0  0  0  0  0  0  0  0
   -0.9425   -1.3526    2.5757 S   0  0  0  0  0  0  0  0  0  0  0  0
   -1.7604    0.2706    2.5358 C   0  0  0  0  0  0  0  0  0  0  0  0
   -1.5935    1.1713    3.7863 C   0  0  2  0  0  0  0  0  0  0  0  0
   -1.1280    0.5718    4.5870 H   0  0  0  0  0  0  0  0  0  0  0  0
   -2.8571    1.6976    4.2408 N   0  0  0  0  0  0  0  0  0  0  0  0
   -3.8167    0.9358    4.8134 C   0  0  0  0  0  0  0  0  0  0  0  0
   -5.0802    1.6802    5.2083 C   0  0  0  0  0  0  0  0  0  0  0  0
   -3.7063   -0.2677    4.9714 O   0  0  0  0  0  0  0  0  0  0  0  0
   -0.7158    2.4042    3.5013 C   0  0  0  0  0  0  0  0  0  0  0  0
    0.5508    2.1530    3.1610 N   0  0  0  0  0  0  0  0  0  0  0  0
    1.4410    3.2085    2.7453 C   0  0  0  0  0  0  0  0  0  0  0  0
   -1.1840    3.5385    3.5873 O   0  0  0  0  0  0  0  0  0  0  0  0
    0.3506   -1.1821    0.0227 C   0  0  1  0  0  0  0  0  0  0  0  0
    1.3543   -1.2502   -0.4142 H   0  0  0  0  0  0  0  0  0  0  0  0
   -0.4345   -2.3637   -0.3511 N   0  0  0  0  0  0  0  0  0  0  0  0
   -0.0429   -3.5032   -0.9769 C   0  0  0  0  0  0  0  0  0  0  0  0
    0.9083   -3.4502   -2.1925 C   0  0  1  0  0  0  0  0  0  0  0  0
    0.3862   -4.1309   -2.8769 H   0  0  0  0  0  0  0  0  0  0  0  0
    0.8999   -2.1662   -2.8952 N   0  0  0  0  0  0  0  0  0  0  0  0
    1.9252   -1.2634   -2.8370 C   0  0  0  0  0  0  0  0  0  0  0  0
    1.8448   -0.0601   -3.4645 C   0  0  0  0  0  0  0  0  0  0  0  0
    0.6440    0.3057   -4.1295 C   0  0  0  0  0  0  0  0  0  0  0  0
   -0.3973   -0.5739   -4.1678 C   0  0  0  0  0  0  0  0  0  0  0  0
   -1.6668   -0.3060   -4.7046 N   0  0  0  0  0  0  0  0  0  0  0  0
   -2.4961    0.7241   -4.3262 C   0  0  0  0  0  0  0  0  0  0  0  0
   -1.8500    1.6273   -3.5920 O   0  0  0  0  0  0  0  0  0  0  0  0
   -2.5644    2.7615   -3.1051 C   0  0  0  0  0  0  0  0  0  0  0  0
   -3.1144    2.5430   -1.7156 C   0  0  0  0  0  0  0  0  0  0  0  0
   -2.6127    3.2832   -0.6414 C   0  0  0  0  0  0  0  0  0  0  0  0
   -3.1022    3.0903    0.6509 C   0  0  0  0  0  0  0  0  0  0  0  0
   -4.1032    2.1474    0.8781 C   0  0  0  0  0  0  0  0  0  0  0  0
   -4.6128    1.4041   -0.1875 C   0  0  0  0  0  0  0  0  0  0  0  0
   -4.1261    1.6035   -1.4781 C   0  0  0  0  0  0  0  0  0  0  0  0
   -3.6630    0.7837   -4.6420 O   0  0  0  0  0  0  0  0  0  0  0  0
   -0.2797   -1.9119   -3.6025 C   0  0  0  0  0  0  0  0  0  0  0  0
   -1.1585   -2.7586   -3.7115 O   0  0  0  0  0  0  0  0  0  0  0  0
    2.2830   -4.0923   -1.9365 C   0  0  0  0  0  0  0  0  0  0  0  0
    3.1327   -3.6112   -0.7797 C   0  0  0  0  0  0  0  0  0  0  0  0
    4.3701   -2.9980   -0.9953 C   0  0  0  0  0  0  0  0  0  0  0  0
    5.1542   -2.5685    0.0736 C   0  0  0  0  0  0  0  0  0  0  0  0
    4.7149   -2.7524    1.3807 C   0  0  0  0  0  0  0  0  0  0  0  0
    3.4938   -3.3831    1.6105 C   0  0  0  0  0  0  0  0  0  0  0  0
    2.7171   -3.8217    0.5415 C   0  0  0  0  0  0  0  0  0  0  0  0
   -0.4810   -4.6003   -0.6753 O   0  0  0  0  0  0  0  0  0  0  0  0
   -0.3484    0.0787   -0.5243 C   0  0  0  0  0  0  0  0  0  0  0  0
    0.2332    1.4426   -0.0951 C   0  0  0  0  0  0  0  0  0  0  0  0
    0.9386    2.2515   -1.1718 C   0  0  0  0  0  0  0  0  0  0  0  0
    2.2891    2.1560   -1.1594 N   0  0  0  0  0  0  0  0  0  0  0  0
    0.3394    2.9784   -1.9549 O   0  0  0  0  0  0  0  0  0  0  0  0
    4.8277    2.9267    2.4019 H   0  0  0  0  0  0  0  0  0  0  0  0
    4.1785    2.5838    0.7752 H   0  0  0  0  0  0  0  0  0  0  0  0
    5.9417    2.6882    1.0304 H   0  0  0  0  0  0  0  0  0  0  0  0
    5.8443    0.6367    2.4852 H   0  0  0  0  0  0  0  0  0  0  0  0
    5.2383    0.3047    0.8363 H   0  0  0  0  0  0  0  0  0  0  0  0
    1.8223   -0.6026    3.2555 H   0  0  0  0  0  0  0  0  0  0  0  0
    0.8598   -2.3574    1.6866 H   0  0  0  0  0  0  0  0  0  0  0  0
   -2.8252    0.0290    2.4381 H   0  0  0  0  0  0  0  0  0  0  0  0
   -1.4826    0.8124    1.6285 H   0  0  0  0  0  0  0  0  0  0  0  0
   -2.9159    2.7124    4.1889 H   0  0  0  0  0  0  0  0  0  0  0  0
   -4.9461    2.7696    5.2609 H   0  0  0  0  0  0  0  0  0  0  0  0
   -5.4246    1.3003    6.1788 H   0  0  0  0  0  0  0  0  0  0  0  0
   -5.8626    1.4571    4.4672 H   0  0  0  0  0  0  0  0  0  0  0  0
    0.8660    1.1906    2.9379 H   0  0  0  0  0  0  0  0  0  0  0  0
    1.1135    3.6735    1.8001 H   0  0  0  0  0  0  0  0  0  0  0  0
    2.4345    2.7694    2.5962 H   0  0  0  0  0  0  0  0  0  0  0  0
    1.4973    3.9978    3.5094 H   0  0  0  0  0  0  0  0  0  0  0  0
   -1.1744   -2.5562    0.3257 H   0  0  0  0  0  0  0  0  0  0  0  0
    2.7796   -1.5336   -2.2198 H   0  0  0  0  0  0  0  0  0  0  0  0
    2.6745    0.6367   -3.3833 H   0  0  0  0  0  0  0  0  0  0  0  0
    0.5281    1.3074   -4.5426 H   0  0  0  0  0  0  0  0  0  0  0  0
   -2.1801   -1.1441   -4.9631 H   0  0  0  0  0  0  0  0  0  0  0  0
   -3.3760    2.9931   -3.8107 H   0  0  0  0  0  0  0  0  0  0  0  0
   -1.8235    3.5677   -3.0880 H   0  0  0  0  0  0  0  0  0  0  0  0
   -1.7937    3.9832   -0.8205 H   0  0  0  0  0  0  0  0  0  0  0  0
   -2.6697    3.6440    1.4888 H   0  0  0  0  0  0  0  0  0  0  0  0
   -4.4636    1.9765    1.8952 H   0  0  0  0  0  0  0  0  0  0  0  0
   -5.3920    0.6587   -0.0114 H   0  0  0  0  0  0  0  0  0  0  0  0
   -4.5252    1.0267   -2.3158 H   0  0  0  0  0  0  0  0  0  0  0  0
    2.8596   -4.0426   -2.8735 H   0  0  0  0  0  0  0  0  0  0  0  0
    2.0538   -5.1554   -1.7681 H   0  0  0  0  0  0  0  0  0  0  0  0
    4.7241   -2.8440   -2.0193 H   0  0  0  0  0  0  0  0  0  0  0  0
    6.1083   -2.0725   -0.1193 H   0  0  0  0  0  0  0  0  0  0  0  0
    5.3082   -2.3861    2.2206 H   0  0  0  0  0  0  0  0  0  0  0  0
    3.1356   -3.5244    2.6323 H   0  0  0  0  0  0  0  0  0  0  0  0
    1.7723   -4.3373    0.7308 H   0  0  0  0  0  0  0  0  0  0  0  0
   -1.4105    0.0276   -0.2374 H   0  0  0  0  0  0  0  0  0  0  0  0
   -0.3642    0.0074   -1.6193 H   0  0  0  0  0  0  0  0  0  0  0  0
    0.9105    1.2986    0.7504 H   0  0  0  0  0  0  0  0  0  0  0  0
   -0.5837    2.0869    0.2512 H   0  0  0  0  0  0  0  0  0  0  0  0
    2.7337    1.3717   -0.6516 H   0  0  0  0  0  0  0  0  0  0  0  0
    2.7801    2.6315   -1.9054 H   0  0  0  0  0  0  0  0  0  0  0  0
  1  2  1  0  0  0  0
  1 57  1  0  0  0  0
  2  3  1  0  0  0  0
  2 60  1  0  0  0  0
  4  6  1  0  0  0  0
  4  3  1  0  0  0  0
  5  4  2  0  0  0  0
  6 62  1  0  0  0  0
  7 63  1  1  0  0  0
  7  6  1  0  0  0  0
  7  8  1  0  0  0  0
  9  8  1  0  0  0  0
  9 10  1  0  0  0  0
 10 12  1  0  0  0  0
 10 11  1  1  0  0  0
 12 13  1  0  0  0  0
 13 15  2  0  0  0  0
 13 14  1  0  0  0  0
 14 67  1  0  0  0  0
 14 68  1  0  0  0  0
 16 19  2  0  0  0  0
 16 10  1  0  0  0  0
 17 16  1  0  0  0  0
 18 17  1  0  0  0  0
 18 73  1  0  0  0  0
 20 21  1  6  0  0  0
 20  7  1  0  0  0  0
 22 20  1  0  0  0  0
 22 74  1  0  0  0  0
 23 51  2  0  0  0  0
 23 22  1  0  0  0  0
 24 25  1  6  0  0  0
 24 44  1  0  0  0  0
 24 23  1  0  0  0  0
 26 27  1  0  0  0  0
 26 24  1  0  0  0  0
 27 75  1  0  0  0  0
 28 76  1  0  0  0  0
 28 27  2  0  0  0  0
 29 28  1  0  0  0  0
 30 29  2  0  0  0  0
 30 42  1  0  0  0  0
 31 32  1  0  0  0  0
 31 30  1  0  0  0  0
 32 33  1  0  0  0  0
 33 34  1  0  0  0  0
 34 80  1  0  0  0  0
 34 35  1  0  0  0  0
 35 40  2  0  0  0  0
 35 36  1  0  0  0  0
 36 37  2  0  0  0  0
 37 38  1  0  0  0  0
 37 82  1  0  0  0  0
 38 83  1  0  0  0  0
 39 84  1  0  0  0  0
 39 38  2  0  0  0  0
 40 39  1  0  0  0  0
 41 32  2  0  0  0  0
 42 26  1  0  0  0  0
 43 42  2  0  0  0  0
 44 87  1  0  0  0  0
 44 45  1  0  0  0  0
 45 50  1  0  0  0  0
 46 45  2  0  0  0  0
 46 47  1  0  0  0  0
 47 48  2  0  0  0  0
 48 49  1  0  0  0  0
 48 90  1  0  0  0  0
 49 91  1  0  0  0  0
 50 92  1  0  0  0  0
 50 49  2  0  0  0  0
 52 93  1  0  0  0  0
 52 53  1  0  0  0  0
 52 20  1  0  0  0  0
 53 96  1  0  0  0  0
 53 95  1  0  0  0  0
 54 55  1  0  0  0  0
 54 53  1  0  0  0  0
 55 97  1  0  0  0  0
 56 54  2  0  0  0  0
 58  1  1  0  0  0  0
 59  1  1  0  0  0  0
 61  2  1  0  0  0  0
 64  9  1  0  0  0  0
 65  9  1  0  0  0  0
 66 12  1  0  0  0  0
 69 14  1  0  0  0  0
 70 17  1  0  0  0  0
 71 18  1  0  0  0  0
 72 18  1  0  0  0  0
 77 29  1  0  0  0  0
 78 31  1  0  0  0  0
 79 34  1  0  0  0  0
 81 36  1  0  0  0  0
 85 40  1  0  0  0  0
 86 44  1  0  0  0  0
 88 46  1  0  0  0  0
 89 47  1  0  0  0  0
 94 52  1  0  0  0  0
 98 55  1  0  0  0  0
M  END
