-1 1
 OpenBabel05232413493D

101104  0  0  1  0  0  0  0  0999 V2000
    4.8896    7.8861   -1.7263 C   0  0  0  0  0  0  0  0  0  0  0  0
    3.6695    8.1670   -2.3492 O   0  0  0  0  0  0  0  0  0  0  0  0
    2.6026    7.3784   -2.0748 C   0  0  0  0  0  0  0  0  0  0  0  0
    2.6355    6.2798   -1.2116 C   0  0  0  0  0  0  0  0  0  0  0  0
    1.4744    5.5406   -0.9943 C   0  0  0  0  0  0  0  0  0  0  0  0
    0.2732    5.8517   -1.6453 C   0  0  0  0  0  0  0  0  0  0  0  0
   -0.8744    4.9853   -1.3476 C   0  0  0  0  0  0  0  0  0  0  0  0
   -0.0079    3.9439    2.0178 S   0  0  0  0  0  1  0  0  0  0  0  0
   -1.7795    3.7537    2.4302 C   0  0  0  0  0  0  0  0  0  0  0  0
   -2.1438    2.4820    3.2309 C   0  0  2  0  0  0  0  0  0  0  0  0
   -1.7154    1.6141    2.7019 H   0  0  0  0  0  0  0  0  0  0  0  0
   -3.5777    2.3157    3.3631 N   0  0  0  0  0  0  0  0  0  0  0  0
   -4.3974    1.8369    2.4202 C   0  0  0  0  0  0  0  0  0  0  0  0
   -5.8637    1.7579    2.7946 C   0  0  0  0  0  0  0  0  0  0  0  0
   -4.0271    1.4837    1.3019 O   0  0  0  0  0  0  0  0  0  0  0  0
   -1.6113    2.4924    4.6755 C   0  0  0  0  0  0  0  0  0  0  0  0
   -0.2793    2.6034    4.7895 N   0  0  0  0  0  0  0  0  0  0  0  0
    0.3556    2.7495    6.0719 C   0  0  0  0  0  0  0  0  0  0  0  0
   -2.3795    2.3987    5.6311 O   0  0  0  0  0  0  0  0  0  0  0  0
   -1.9786    4.6862   -2.0542 C   0  0  0  0  0  0  0  0  0  0  0  0
   -2.3090    5.1720   -3.4379 C   0  0  0  0  0  0  0  0  0  0  0  0
   -2.7776    6.4307   -3.4807 F   0  0  0  0  0  0  0  0  0  0  0  0
   -1.2391    5.1363   -4.2527 F   0  0  0  0  0  0  0  0  0  0  0  0
   -3.2377    4.3970   -4.0129 F   0  0  0  0  0  0  0  0  0  0  0  0
   -3.0490    3.8513   -1.4004 C   0  0  0  0  0  0  0  0  0  0  0  0
   -2.7221    2.5980   -0.9544 N   0  0  0  0  0  0  0  0  0  0  0  0
   -1.6431    1.7528   -1.2390 C   0  0  0  0  0  0  0  0  0  0  0  0
   -1.4229    0.6919   -0.3496 C   0  0  0  0  0  0  0  0  0  0  0  0
   -0.3905   -0.2012   -0.5832 C   0  0  0  0  0  0  0  0  0  0  0  0
   -0.2477   -1.2623    0.2961 O   0  0  0  0  0  0  0  0  0  0  0  0
    0.9720   -1.6044    0.7390 C   0  0  0  0  0  0  0  0  0  0  0  0
    1.8192   -0.6997    1.4015 C   0  0  1  0  0  3  0  0  0  0  0  0
    1.3535    0.9370    1.7199 Cl  0  0  0  0  0  0  0  0  0  0  0  0
    3.0365   -1.2195    1.8328 C   0  0  0  0  0  0  0  0  0  0  0  0
    3.3908   -2.4849    1.6581 N   0  0  0  0  0  0  0  0  0  0  0  0
    2.4953   -3.2689    1.0401 C   0  0  2  0  0  3  0  0  0  0  0  0
    2.8820   -4.5724    0.8972 N   0  0  0  0  0  0  0  0  0  0  0  0
    2.2453   -5.6654    0.3097 C   0  0  0  0  0  0  0  0  0  0  0  0
    2.9592   -6.8834    0.3260 C   0  0  0  0  0  0  0  0  0  0  0  0
    4.1850   -6.8224    0.9144 O   0  0  0  0  0  0  0  0  0  0  0  0
    4.9683   -7.9766    0.9948 C   0  0  0  0  0  0  0  0  0  0  0  0
    2.4268   -8.0403   -0.2369 C   0  0  0  0  0  0  0  0  0  0  0  0
    1.1472   -8.0316   -0.8203 C   0  0  0  0  0  0  0  0  0  0  0  0
    0.5738   -9.1966   -1.3746 N   0  0  0  0  0  0  0  0  0  0  0  0
    1.2016  -10.4687   -1.0854 C   0  0  0  0  0  0  0  0  0  0  0  0
    0.2538  -11.6171   -1.4446 C   0  0  0  0  0  0  0  0  0  0  0  0
   -0.2280  -11.5710   -2.8123 N   0  0  0  0  0  0  0  0  0  0  0  0
   -0.8205  -10.2721   -3.0808 C   0  0  0  0  0  0  0  0  0  0  0  0
    0.1074   -9.1029   -2.7522 C   0  0  0  0  0  0  0  0  0  0  0  0
    0.7240  -12.0169   -3.8042 C   0  0  0  0  0  0  0  0  0  0  0  0
    0.4396   -6.8259   -0.8231 C   0  0  0  0  0  0  0  0  0  0  0  0
    0.9785   -5.6626   -0.2786 C   0  0  0  0  0  0  0  0  0  0  0  0
    1.3123   -2.8710    0.5724 N   0  0  0  0  0  0  0  0  0  0  0  0
    0.4542   -0.0806   -1.6836 C   0  0  0  0  0  0  0  0  0  0  0  0
    0.2207    0.9690   -2.5686 C   0  0  0  0  0  0  0  0  0  0  0  0
   -0.8207    1.8702   -2.3714 C   0  0  0  0  0  0  0  0  0  0  0  0
   -4.1569    4.3156   -1.2174 O   0  0  0  0  0  0  0  0  0  0  0  0
    0.2537    6.9756   -2.4908 C   0  0  0  0  0  0  0  0  0  0  0  0
    1.3985    7.7260   -2.7035 C   0  0  0  0  0  0  0  0  0  0  0  0
    5.6063    8.6384   -2.0804 H   0  0  0  0  0  0  0  0  0  0  0  0
    5.2675    6.8825   -1.9917 H   0  0  0  0  0  0  0  0  0  0  0  0
    4.8167    7.9533   -0.6263 H   0  0  0  0  0  0  0  0  0  0  0  0
    3.5467    5.9958   -0.6852 H   0  0  0  0  0  0  0  0  0  0  0  0
    1.4843    4.7069   -0.2871 H   0  0  0  0  0  0  0  0  0  0  0  0
   -0.7714    4.4801   -0.3716 H   0  0  0  0  0  0  0  0  0  0  0  0
   -2.3693    3.7048    1.5025 H   0  0  0  0  0  0  0  0  0  0  0  0
   -2.1457    4.6273    2.9964 H   0  0  0  0  0  0  0  0  0  0  0  0
   -3.8994    2.4440    4.3211 H   0  0  0  0  0  0  0  0  0  0  0  0
   -6.2310    0.7487    2.5636 H   0  0  0  0  0  0  0  0  0  0  0  0
   -6.4157    2.4642    2.1576 H   0  0  0  0  0  0  0  0  0  0  0  0
   -6.0607    1.9926    3.8493 H   0  0  0  0  0  0  0  0  0  0  0  0
    0.2053    2.9370    3.9317 H   0  0  0  0  0  0  0  0  0  0  0  0
   -0.1940    2.1646    6.8219 H   0  0  0  0  0  0  0  0  0  0  0  0
    0.3764    3.8002    6.4110 H   0  0  0  0  0  0  0  0  0  0  0  0
    1.3908    2.3837    6.0156 H   0  0  0  0  0  0  0  0  0  0  0  0
   -3.3815    2.2323   -0.2566 H   0  0  0  0  0  0  0  0  0  0  0  0
   -2.0566    0.5840    0.5309 H   0  0  0  0  0  0  0  0  0  0  0  0
    3.7427   -0.5653    2.3549 H   0  0  0  0  0  0  0  0  0  0  0  0
    3.7996   -4.7650    1.2793 H   0  0  0  0  0  0  0  0  0  0  0  0
    5.8919   -7.6969    1.5168 H   0  0  0  0  0  0  0  0  0  0  0  0
    5.2288   -8.3664   -0.0052 H   0  0  0  0  0  0  0  0  0  0  0  0
    4.4633   -8.7755    1.5663 H   0  0  0  0  0  0  0  0  0  0  0  0
    3.0180   -8.9532   -0.2348 H   0  0  0  0  0  0  0  0  0  0  0  0
    1.4300  -10.5210   -0.0102 H   0  0  0  0  0  0  0  0  0  0  0  0
    2.1659  -10.5914   -1.6300 H   0  0  0  0  0  0  0  0  0  0  0  0
   -0.6177  -11.5636   -0.7696 H   0  0  0  0  0  0  0  0  0  0  0  0
    0.7528  -12.5826   -1.2650 H   0  0  0  0  0  0  0  0  0  0  0  0
   -1.7311  -10.1738   -2.4647 H   0  0  0  0  0  0  0  0  0  0  0  0
   -1.1282  -10.2219   -4.1371 H   0  0  0  0  0  0  0  0  0  0  0  0
   -0.4340   -8.1597   -2.8980 H   0  0  0  0  0  0  0  0  0  0  0  0
    0.9690   -9.0866   -3.4561 H   0  0  0  0  0  0  0  0  0  0  0  0
    1.0477  -13.0431   -3.5689 H   0  0  0  0  0  0  0  0  0  0  0  0
    1.6391  -11.3941   -3.8984 H   0  0  0  0  0  0  0  0  0  0  0  0
    0.2410  -12.0411   -4.7936 H   0  0  0  0  0  0  0  0  0  0  0  0
   -0.5692   -6.7893   -1.2373 H   0  0  0  0  0  0  0  0  0  0  0  0
    0.4116   -4.7343   -0.2871 H   0  0  0  0  0  0  0  0  0  0  0  0
    1.2572   -0.8008   -1.8499 H   0  0  0  0  0  0  0  0  0  0  0  0
    0.8561    1.0804   -3.4500 H   0  0  0  0  0  0  0  0  0  0  0  0
   -0.9842    2.6581   -3.1019 H   0  0  0  0  0  0  0  0  0  0  0  0
   -0.6738    7.2854   -2.9708 H   0  0  0  0  0  0  0  0  0  0  0  0
    1.3863    8.6036   -3.3523 H   0  0  0  0  0  0  0  0  0  0  0  0
  1 62  1  0  0  0  0
  2  3  1  0  0  0  0
  2  1  1  0  0  0  0
  3  4  1  0  0  0  0
  4  5  2  0  0  0  0
  4 63  1  0  0  0  0
  5 64  1  0  0  0  0
  6  7  1  0  0  0  0
  6  5  1  0  0  0  0
  7 65  1  0  0  0  0
  8  9  1  0  0  0  0
  9 67  1  0  0  0  0
  9 10  1  0  0  0  0
 10 11  1  6  0  0  0
 10 12  1  0  0  0  0
 10 16  1  0  0  0  0
 12 68  1  0  0  0  0
 13 14  1  0  0  0  0
 13 12  1  0  0  0  0
 14 71  1  0  0  0  0
 15 13  2  0  0  0  0
 16 17  1  0  0  0  0
 16 19  2  0  0  0  0
 17 18  1  0  0  0  0
 18 74  1  0  0  0  0
 18 73  1  0  0  0  0
 20 25  1  0  0  0  0
 20  7  2  0  0  0  0
 21 20  1  0  0  0  0
 22 21  1  0  0  0  0
 23 21  1  0  0  0  0
 24 21  1  0  0  0  0
 25 57  2  0  0  0  0
 25 26  1  0  0  0  0
 26 76  1  0  0  0  0
 27 26  1  0  0  0  0
 27 28  1  0  0  0  0
 28 77  1  0  0  0  0
 29 28  2  0  0  0  0
 29 30  1  0  0  0  0
 30 31  1  0  0  0  0
 31 32  1  0  0  0  0
 32 33  1  1  0  0  0
 32 34  1  0  0  0  0
 34 78  1  0  0  0  0
 35 34  2  0  0  0  0
 36 37  1  6  0  0  0
 36 35  1  0  0  0  0
 37 79  1  0  0  0  0
 38 39  1  0  0  0  0
 38 37  1  0  0  0  0
 39 40  1  0  0  0  0
 40 41  1  0  0  0  0
 41 80  1  0  0  0  0
 41 82  1  0  0  0  0
 42 83  1  0  0  0  0
 42 39  2  0  0  0  0
 43 42  1  0  0  0  0
 44 45  1  0  0  0  0
 44 43  1  0  0  0  0
 45 84  1  0  0  0  0
 46 87  1  0  0  0  0
 46 45  1  0  0  0  0
 46 86  1  0  0  0  0
 47 46  1  0  0  0  0
 48 47  1  0  0  0  0
 48 49  1  0  0  0  0
 48 88  1  0  0  0  0
 49 44  1  0  0  0  0
 50 92  1  0  0  0  0
 50 47  1  0  0  0  0
 51 43  2  0  0  0  0
 51 52  1  0  0  0  0
 52 38  2  0  0  0  0
 53 31  2  0  0  0  0
 53 36  1  0  0  0  0
 54 29  1  0  0  0  0
 55 56  1  0  0  0  0
 55 54  2  0  0  0  0
 56 27  2  0  0  0  0
 58  6  2  0  0  0  0
 59 58  1  0  0  0  0
 59  3  2  0  0  0  0
 60  1  1  0  0  0  0
 61  1  1  0  0  0  0
 66  9  1  0  0  0  0
 69 14  1  0  0  0  0
 70 14  1  0  0  0  0
 72 17  1  0  0  0  0
 75 18  1  0  0  0  0
 81 41  1  0  0  0  0
 85 45  1  0  0  0  0
 89 48  1  0  0  0  0
 90 49  1  0  0  0  0
 91 49  1  0  0  0  0
 93 50  1  0  0  0  0
 94 50  1  0  0  0  0
 95 51  1  0  0  0  0
 96 52  1  0  0  0  0
 97 54  1  0  0  0  0
 98 55  1  0  0  0  0
 99 56  1  0  0  0  0
100 58  1  0  0  0  0
101 59  1  0  0  0  0
M  END
