-1 1
 OpenBabel05192410563D

101105  0  0  1  0  0  0  0  0999 V2000
    5.1122    4.3880   -1.8775 C   0  0  0  0  0  0  0  0  0  0  0  0
    4.1931    5.4378   -1.8525 O   0  0  0  0  0  0  0  0  0  0  0  0
    2.9473    5.1937   -1.3632 C   0  0  0  0  0  0  0  0  0  0  0  0
    2.5234    3.9591   -0.8698 C   0  0  0  0  0  0  0  0  0  0  0  0
    1.2188    3.8221   -0.3903 C   0  0  0  0  0  0  0  0  0  0  0  0
    0.3048    4.8772   -0.4034 C   0  0  0  0  0  0  0  0  0  0  0  0
   -1.0965    4.6284    0.1339 C   0  0  1  0  0  0  0  0  0  0  0  0
   -1.3606    5.9627    1.4862 S   0  0  0  0  0  0  0  0  0  0  0  0
   -3.0722    5.5996    1.9474 C   0  0  0  0  0  0  0  0  0  0  0  0
   -3.3094    4.3075    2.7564 C   0  0  2  0  0  0  0  0  0  0  0  0
   -2.6597    3.5076    2.3694 H   0  0  0  0  0  0  0  0  0  0  0  0
   -4.6625    3.8610    2.5481 N   0  0  0  0  0  0  0  0  0  0  0  0
   -4.9784    2.5746    2.2678 C   0  0  0  0  0  0  0  0  0  0  0  0
   -6.3688    2.3536    1.7261 C   0  0  0  0  0  0  0  0  0  0  0  0
   -4.1687    1.6616    2.3634 O   0  0  0  0  0  0  0  0  0  0  0  0
   -3.0018    4.4880    4.2513 C   0  0  0  0  0  0  0  0  0  0  0  0
   -1.6917    4.7449    4.5080 N   0  0  0  0  0  0  0  0  0  0  0  0
   -1.2034    5.0165    5.8340 C   0  0  0  0  0  0  0  0  0  0  0  0
   -3.8591    4.4145    5.1112 O   0  0  0  0  0  0  0  0  0  0  0  0
   -2.2726    4.4377   -0.7630 C   0  0  2  0  0  3  0  0  0  0  0  0
   -2.7967    5.5177   -1.6179 C   0  0  0  0  0  0  0  0  0  0  0  0
   -3.7773    6.3052   -1.0630 F   0  0  0  0  0  0  0  0  0  0  0  0
   -1.8408    6.4063   -1.9804 F   0  0  0  0  0  0  0  0  0  0  0  0
   -3.3407    5.0757   -2.7685 F   0  0  0  0  0  0  0  0  0  0  0  0
   -3.1535    3.3368   -0.5518 C   0  0  0  0  0  0  0  0  0  0  0  0
   -2.5585    2.1517   -0.0048 N   0  0  0  0  0  0  0  0  0  0  0  0
   -1.4835    1.4567   -0.5050 C   0  0  0  0  0  0  0  0  0  0  0  0
   -0.9222    0.4219    0.2686 C   0  0  0  0  0  0  0  0  0  0  0  0
    0.1677   -0.2881   -0.2120 C   0  0  0  0  0  0  0  0  0  0  0  0
    0.6422   -1.3205    0.5883 O   0  0  0  0  0  0  0  0  0  0  0  0
    1.9390   -1.6395    0.5902 C   0  0  0  0  0  0  0  0  0  0  0  0
    2.9573   -0.7337    0.9394 C   0  0  1  0  0  3  0  0  0  0  0  0
    2.6456    0.9003    1.4205 Cl  0  0  0  0  0  0  0  0  0  0  0  0
    4.2564   -1.2339    0.9317 C   0  0  0  0  0  0  0  0  0  0  0  0
    4.5475   -2.4889    0.6315 N   0  0  0  0  0  0  0  0  0  0  0  0
    3.5032   -3.2829    0.3396 C   0  0  2  0  0  3  0  0  0  0  0  0
    3.8319   -4.5742    0.0567 N   0  0  0  0  0  0  0  0  0  0  0  0
    3.0461   -5.6696   -0.3122 C   0  0  0  0  0  0  0  0  0  0  0  0
    3.7413   -6.8701   -0.5694 C   0  0  0  0  0  0  0  0  0  0  0  0
    5.0924   -6.7935   -0.4264 O   0  0  0  0  0  0  0  0  0  0  0  0
    5.8752   -7.9288   -0.6549 C   0  0  0  0  0  0  0  0  0  0  0  0
    3.0670   -8.0264   -0.9526 C   0  0  0  0  0  0  0  0  0  0  0  0
    1.6653   -8.0342   -1.0731 C   0  0  0  0  0  0  0  0  0  0  0  0
    0.9584   -9.1991   -1.4333 N   0  0  0  0  0  0  0  0  0  0  0  0
    1.6733  -10.4584   -1.4375 C   0  0  0  0  0  0  0  0  0  0  0  0
    0.6841  -11.6275   -1.4782 C   0  0  0  0  0  0  0  0  0  0  0  0
   -0.2603  -11.5571   -2.5764 N   0  0  0  0  0  0  0  0  0  0  0  0
   -0.9396  -10.2735   -2.5571 C   0  0  0  0  0  0  0  0  0  0  0  0
    0.0171   -9.0818   -2.5404 C   0  0  0  0  0  0  0  0  0  0  0  0
    0.2776  -11.9369   -3.8631 C   0  0  0  0  0  0  0  0  0  0  0  0
    0.9814   -6.8435   -0.8055 C   0  0  0  0  0  0  0  0  0  0  0  0
    1.6559   -5.6813   -0.4406 C   0  0  0  0  0  0  0  0  0  0  0  0
    2.2273   -2.8972    0.3044 N   0  0  0  0  0  0  0  0  0  0  0  0
    0.7418   -0.0223   -1.4521 C   0  0  0  0  0  0  0  0  0  0  0  0
    0.1786    1.0054   -2.2133 C   0  0  0  0  0  0  0  0  0  0  0  0
   -0.9127    1.7342   -1.7665 C   0  0  0  0  0  0  0  0  0  0  0  0
   -4.3715    3.3135   -0.7534 O   0  0  0  0  0  0  0  0  0  0  0  0
    0.7602    6.1149   -0.8832 C   0  0  0  0  0  0  0  0  0  0  0  0
    2.0556    6.2728   -1.3573 C   0  0  0  0  0  0  0  0  0  0  0  0
    6.0405    4.7866   -2.3080 H   0  0  0  0  0  0  0  0  0  0  0  0
    4.7641    3.5457   -2.5029 H   0  0  0  0  0  0  0  0  0  0  0  0
    5.3287    4.0003   -0.8652 H   0  0  0  0  0  0  0  0  0  0  0  0
    3.1836    3.0916   -0.8420 H   0  0  0  0  0  0  0  0  0  0  0  0
    0.9112    2.8482   -0.0037 H   0  0  0  0  0  0  0  0  0  0  0  0
   -1.0246    3.7057    0.7179 H   0  0  0  0  0  0  0  0  0  0  0  0
   -3.6441    5.5268    1.0133 H   0  0  0  0  0  0  0  0  0  0  0  0
   -3.4359    6.4791    2.5023 H   0  0  0  0  0  0  0  0  0  0  0  0
   -5.3800    4.5651    2.4478 H   0  0  0  0  0  0  0  0  0  0  0  0
   -6.6982    1.3367    1.9700 H   0  0  0  0  0  0  0  0  0  0  0  0
   -6.2724    2.4568    0.6328 H   0  0  0  0  0  0  0  0  0  0  0  0
   -7.0995    3.0875    2.0951 H   0  0  0  0  0  0  0  0  0  0  0  0
   -1.0851    4.9175    3.7073 H   0  0  0  0  0  0  0  0  0  0  0  0
   -2.0202    4.8186    6.5400 H   0  0  0  0  0  0  0  0  0  0  0  0
   -0.8863    6.0667    5.9485 H   0  0  0  0  0  0  0  0  0  0  0  0
   -0.3497    4.3670    6.0850 H   0  0  0  0  0  0  0  0  0  0  0  0
   -3.1436    1.6707    0.6771 H   0  0  0  0  0  0  0  0  0  0  0  0
   -1.3263    0.1901    1.2553 H   0  0  0  0  0  0  0  0  0  0  0  0
    5.0880   -0.5711    1.1939 H   0  0  0  0  0  0  0  0  0  0  0  0
    4.8266   -4.7593    0.1004 H   0  0  0  0  0  0  0  0  0  0  0  0
    6.9166   -7.6375   -0.4702 H   0  0  0  0  0  0  0  0  0  0  0  0
    5.7846   -8.2863   -1.6958 H   0  0  0  0  0  0  0  0  0  0  0  0
    5.6088   -8.7541    0.0287 H   0  0  0  0  0  0  0  0  0  0  0  0
    3.6376   -8.9250   -1.1753 H   0  0  0  0  0  0  0  0  0  0  0  0
    2.2719  -10.5355   -0.5174 H   0  0  0  0  0  0  0  0  0  0  0  0
    2.3814  -10.5318   -2.2944 H   0  0  0  0  0  0  0  0  0  0  0  0
    0.1149  -11.6252   -0.5326 H   0  0  0  0  0  0  0  0  0  0  0  0
    1.2358  -12.5795   -1.5298 H   0  0  0  0  0  0  0  0  0  0  0  0
   -1.5657  -10.2274   -1.6493 H   0  0  0  0  0  0  0  0  0  0  0  0
   -1.6117  -10.2018   -3.4264 H   0  0  0  0  0  0  0  0  0  0  0  0
   -0.5626   -8.1560   -2.4401 H   0  0  0  0  0  0  0  0  0  0  0  0
    0.5612   -9.0124   -3.5081 H   0  0  0  0  0  0  0  0  0  0  0  0
    0.6882  -12.9572   -3.8041 H   0  0  0  0  0  0  0  0  0  0  0  0
    1.0815  -11.2780   -4.2553 H   0  0  0  0  0  0  0  0  0  0  0  0
   -0.5305  -11.9484   -4.6111 H   0  0  0  0  0  0  0  0  0  0  0  0
   -0.1079   -6.8173   -0.8564 H   0  0  0  0  0  0  0  0  0  0  0  0
    1.1049   -4.7664   -0.2350 H   0  0  0  0  0  0  0  0  0  0  0  0
    1.5880   -0.6056   -1.8187 H   0  0  0  0  0  0  0  0  0  0  0  0
    0.6071    1.2410   -3.1903 H   0  0  0  0  0  0  0  0  0  0  0  0
   -1.3242    2.5467   -2.3643 H   0  0  0  0  0  0  0  0  0  0  0  0
    0.0837    6.9690   -0.8854 H   0  0  0  0  0  0  0  0  0  0  0  0
    2.4037    7.2369   -1.7333 H   0  0  0  0  0  0  0  0  0  0  0  0
  1  2  1  0  0  0  0
  1 62  1  0  0  0  0
  2  3  1  0  0  0  0
  3 59  2  0  0  0  0
  3  4  1  0  0  0  0
  4 63  1  0  0  0  0
  4  5  2  0  0  0  0
  5 64  1  0  0  0  0
  6  5  1  0  0  0  0
  6  7  1  0  0  0  0
  7 65  1  1  0  0  0
  7  8  1  0  0  0  0
  8  9  1  0  0  0  0
  9 67  1  0  0  0  0
  9 10  1  0  0  0  0
 10 11  1  6  0  0  0
 10 16  1  0  0  0  0
 12 10  1  0  0  0  0
 13 15  2  0  0  0  0
 13 12  1  0  0  0  0
 14 69  1  0  0  0  0
 14 71  1  0  0  0  0
 14 13  1  0  0  0  0
 16 17  1  0  0  0  0
 16 19  2  0  0  0  0
 17 18  1  0  0  0  0
 18 74  1  0  0  0  0
 18 75  1  0  0  0  0
 18 73  1  0  0  0  0
 20 25  1  1  0  0  0
 20  7  1  0  0  0  0
 21 22  1  0  0  0  0
 21 20  1  0  0  0  0
 23 21  1  0  0  0  0
 24 21  1  0  0  0  0
 25 26  1  0  0  0  0
 26 76  1  0  0  0  0
 27 26  1  0  0  0  0
 27 28  1  0  0  0  0
 28 77  1  0  0  0  0
 29 28  2  0  0  0  0
 29 30  1  0  0  0  0
 30 31  1  0  0  0  0
 31 32  1  0  0  0  0
 32 33  1  1  0  0  0
 34 32  1  0  0  0  0
 34 78  1  0  0  0  0
 35 34  2  0  0  0  0
 36 37  1  6  0  0  0
 36 35  1  0  0  0  0
 37 79  1  0  0  0  0
 38 37  1  0  0  0  0
 39 40  1  0  0  0  0
 39 38  2  0  0  0  0
 41 80  1  0  0  0  0
 41 40  1  0  0  0  0
 41 82  1  0  0  0  0
 42 39  1  0  0  0  0
 43 42  2  0  0  0  0
 43 51  1  0  0  0  0
 44 43  1  0  0  0  0
 45 44  1  0  0  0  0
 45 84  1  0  0  0  0
 46 45  1  0  0  0  0
 46 86  1  0  0  0  0
 47 48  1  0  0  0  0
 47 46  1  0  0  0  0
 48 49  1  0  0  0  0
 48 88  1  0  0  0  0
 49 90  1  0  0  0  0
 49 44  1  0  0  0  0
 50 92  1  0  0  0  0
 50 47  1  0  0  0  0
 51 52  2  0  0  0  0
 52 38  1  0  0  0  0
 52 96  1  0  0  0  0
 53 36  1  0  0  0  0
 53 31  2  0  0  0  0
 54 29  1  0  0  0  0
 55 56  1  0  0  0  0
 55 54  2  0  0  0  0
 56 27  2  0  0  0  0
 57 25  2  0  0  0  0
 58  6  2  0  0  0  0
 59 58  1  0  0  0  0
 60  1  1  0  0  0  0
 61  1  1  0  0  0  0
 66  9  1  0  0  0  0
 68 12  1  0  0  0  0
 70 14  1  0  0  0  0
 72 17  1  0  0  0  0
 81 41  1  0  0  0  0
 83 42  1  0  0  0  0
 85 45  1  0  0  0  0
 87 46  1  0  0  0  0
 89 48  1  0  0  0  0
 91 49  1  0  0  0  0
 93 50  1  0  0  0  0
 94 50  1  0  0  0  0
 95 51  1  0  0  0  0
 97 54  1  0  0  0  0
 98 55  1  0  0  0  0
 99 56  1  0  0  0  0
100 58  1  0  0  0  0
101 59  1  0  0  0  0
M  END
