101
-1 1
C         5.112168    4.387997   -1.877464
O         4.193081    5.437817   -1.852482
C         2.947348    5.193701   -1.363199
C         2.523433    3.959093   -0.869787
C         1.218838    3.822056   -0.390343
C         0.304759    4.877193   -0.403405
C        -1.096507    4.628378    0.133908
S        -1.360629    5.962723    1.486248
C        -3.072176    5.599647    1.947369
C        -3.309401    4.307480    2.756433
H        -2.659666    3.507569    2.369361
N        -4.662543    3.861014    2.548102
C        -4.978426    2.574587    2.267759
C        -6.368800    2.353632    1.726066
O        -4.168739    1.661601    2.363404
C        -3.001834    4.488025    4.251346
N        -1.691652    4.744884    4.508014
C        -1.203399    5.016462    5.833956
O        -3.859056    4.414461    5.111158
C        -2.272647    4.437742   -0.763022
C        -2.796707    5.517727   -1.617942
F        -3.777304    6.305227   -1.062993
F        -1.840796    6.406251   -1.980404
F        -3.340681    5.075713   -2.768481
C        -3.153482    3.336771   -0.551843
N        -2.558507    2.151731   -0.004842
C        -1.483535    1.456711   -0.505004
C        -0.922194    0.421872    0.268551
C         0.167656   -0.288135   -0.212022
O         0.642191   -1.320496    0.588293
C         1.939002   -1.639463    0.590211
C         2.957317   -0.733677    0.939421
Cl         2.645644    0.900286    1.420458
C         4.256401   -1.233884    0.931701
N         4.547503   -2.488929    0.631474
C         3.503246   -3.282900    0.339614
N         3.831862   -4.574248    0.056706
C         3.046126   -5.669644   -0.312157
C         3.741335   -6.870130   -0.569448
O         5.092369   -6.793467   -0.426358
C         5.875227   -7.928833   -0.654943
C         3.066960   -8.026445   -0.952645
C         1.665311   -8.034221   -1.073133
N         0.958409   -9.199072   -1.433255
C         1.673309  -10.458445   -1.437505
C         0.684147  -11.627459   -1.478182
N        -0.260267  -11.557090   -2.576430
C        -0.939627  -10.273489   -2.557054
C         0.017103   -9.081838   -2.540381
C         0.277590  -11.936946   -3.863132
C         0.981449   -6.843517   -0.805510
C         1.655944   -5.681326   -0.440557
N         2.227337   -2.897241    0.304444
C         0.741766   -0.022331   -1.452062
C         0.178576    1.005402   -2.213263
C        -0.912707    1.734166   -1.766521
O        -4.371478    3.313461   -0.753447
C         0.760217    6.114879   -0.883232
C         2.055572    6.272756   -1.357346
H         6.040487    4.786562   -2.308028
H         4.764065    3.545737   -2.502892
H         5.328671    4.000259   -0.865172
H         3.183554    3.091594   -0.841970
H         0.911197    2.848152   -0.003746
H        -1.024561    3.705688    0.717919
H        -3.644064    5.526850    1.013259
H        -3.435911    6.479079    2.502284
H        -5.379957    4.565090    2.447774
H        -6.698157    1.336690    1.969953
H        -6.272426    2.456795    0.632756
H        -7.099493    3.087545    2.095071
H        -1.085089    4.917487    3.707319
H        -2.020208    4.818598    6.539962
H        -0.886258    6.066661    5.948519
H        -0.349710    4.367005    6.084997
H        -3.143647    1.670681    0.677056
H        -1.326274    0.190102    1.255319
H         5.088046   -0.571092    1.193857
H         4.826642   -4.759315    0.100446
H         6.916643   -7.637523   -0.470239
H         5.784637   -8.286280   -1.695838
H         5.608753   -8.754120    0.028675
H         3.637586   -8.924960   -1.175252
H         2.271883  -10.535547   -0.517448
H         2.381379  -10.531752   -2.294447
H         0.114909  -11.625226   -0.532648
H         1.235826  -12.579527   -1.529764
H        -1.565679  -10.227354   -1.649266
H        -1.611716  -10.201793   -3.426432
H        -0.562640   -8.155960   -2.440074
H         0.561207   -9.012368   -3.508056
H         0.688184  -12.957189   -3.804055
H         1.081450  -11.277992   -4.255286
H        -0.530487  -11.948414   -4.611100
H        -0.107878   -6.817300   -0.856408
H         1.104896   -4.766401   -0.235043
H         1.588048   -0.605630   -1.818691
H         0.607087    1.241016   -3.190275
H        -1.324159    2.546749   -2.364334
H         0.083703    6.969026   -0.885393
H         2.403697    7.236868   -1.733346
