-1 1
 OpenBabel05232413493D

 68 69  0  0  1  0  0  0  0  0999 V2000
   -0.0178    1.0827    4.0042 O   0  0  0  0  0  0  0  0  0  0  0  0
   -0.7082    0.3812    3.2844 C   0  0  0  0  0  0  0  0  0  0  0  0
   -0.1968   -0.9823    2.7832 C   0  0  2  0  0  0  0  0  0  0  0  0
    1.3567   -0.9532    2.6973 C   0  0  0  0  0  0  0  0  0  0  0  0
    2.1040   -2.2270    1.6148 S   0  0  0  0  0  1  0  0  0  0  0  0
    4.9569    0.2138    2.0185 C   0  0  0  0  0  0  0  0  0  0  0  0
    5.5998    0.8123    1.0145 C   0  0  0  0  0  0  0  0  0  0  0  0
    5.1904    0.6831   -0.4166 C   0  0  0  0  0  0  0  0  0  0  0  0
    3.8540    0.7837   -0.7303 N   0  0  0  0  0  0  0  0  0  0  0  0
    2.8014    1.4333   -0.0635 C   0  0  0  0  0  0  0  0  0  0  0  0
    1.4987    0.9135   -0.2007 C   0  0  0  0  0  0  0  0  0  0  0  0
    1.3873   -0.3107   -0.8970 N   0  0  0  0  0  0  0  0  0  0  0  0
    0.3663   -0.6926   -1.6990 C   0  0  0  0  0  0  0  0  0  0  0  0
    0.4163   -1.9290   -2.4024 C   0  0  0  0  0  0  0  0  0  0  0  0
    1.7947   -2.9836   -2.2920 Cl  0  0  0  0  0  0  0  0  0  0  0  0
   -0.6554   -2.2425   -3.2154 C   0  0  0  0  0  0  0  0  0  0  0  0
   -1.7348   -1.4712   -3.3372 N   0  0  0  0  0  0  0  0  0  0  0  0
   -1.6978   -0.3311   -2.6334 C   0  0  0  0  0  0  0  0  0  0  0  0
   -2.8060    0.4620   -2.6982 N   0  0  0  0  0  0  0  0  0  0  0  0
   -3.0582    1.5345   -1.7500 C   0  0  0  0  0  0  0  0  0  0  0  0
   -4.2922    2.3290   -2.1876 C   0  0  0  0  0  0  0  0  0  0  0  0
   -5.5816    1.5486   -1.9290 C   0  0  0  0  0  0  0  0  0  0  0  0
   -5.6910    1.1329   -0.5971 O   0  0  0  0  0  0  0  0  0  0  0  0
   -4.6191    0.3033   -0.1962 C   0  0  0  0  0  0  0  0  0  0  0  0
   -3.2845    1.0195   -0.3185 C   0  0  0  0  0  0  0  0  0  0  0  0
   -0.6959    0.0938   -1.8654 N   0  0  0  0  0  0  0  0  0  0  0  0
    0.4265    1.5741    0.4038 C   0  0  0  0  0  0  0  0  0  0  0  0
    0.6369    2.7298    1.1461 C   0  0  0  0  0  0  0  0  0  0  0  0
    1.9240    3.2434    1.2851 C   0  0  0  0  0  0  0  0  0  0  0  0
    2.9972    2.6063    0.6729 C   0  0  0  0  0  0  0  0  0  0  0  0
    6.0127    0.4303   -1.2769 O   0  0  0  0  0  0  0  0  0  0  0  0
   -0.7260   -1.4593    1.5129 N   0  0  0  0  0  0  0  0  0  0  0  0
   -1.9634   -1.9186    1.2644 C   0  0  0  0  0  0  0  0  0  0  0  0
   -2.1082   -2.7604    0.0159 C   0  0  0  0  0  0  0  0  0  0  0  0
   -2.9552   -1.6588    1.9535 O   0  0  0  0  0  0  0  0  0  0  0  0
   -0.4919   -1.7071    3.5668 H   0  0  0  0  0  0  0  0  0  0  0  0
   -1.9677    0.7263    2.9117 N   0  0  0  0  0  0  0  0  0  0  0  0
   -2.5817    1.9179    3.4322 C   0  0  0  0  0  0  0  0  0  0  0  0
    1.6560    0.0511    2.3652 H   0  0  0  0  0  0  0  0  0  0  0  0
    1.7344   -1.0540    3.7232 H   0  0  0  0  0  0  0  0  0  0  0  0
    5.3616    0.2436    3.0338 H   0  0  0  0  0  0  0  0  0  0  0  0
    4.0364   -0.3662    1.8623 H   0  0  0  0  0  0  0  0  0  0  0  0
    6.5613    1.3135    1.1625 H   0  0  0  0  0  0  0  0  0  0  0  0
    3.6255    0.3951   -1.6407 H   0  0  0  0  0  0  0  0  0  0  0  0
    1.9165   -1.0763   -0.4238 H   0  0  0  0  0  0  0  0  0  0  0  0
   -0.6381   -3.1757   -3.7886 H   0  0  0  0  0  0  0  0  0  0  0  0
   -3.5831    0.0350   -3.1843 H   0  0  0  0  0  0  0  0  0  0  0  0
   -2.1715    2.1853   -1.7530 H   0  0  0  0  0  0  0  0  0  0  0  0
   -4.2161    2.6027   -3.2524 H   0  0  0  0  0  0  0  0  0  0  0  0
   -4.3283    3.2625   -1.6048 H   0  0  0  0  0  0  0  0  0  0  0  0
   -5.6429    0.6704   -2.6099 H   0  0  0  0  0  0  0  0  0  0  0  0
   -6.4601    2.1755   -2.1441 H   0  0  0  0  0  0  0  0  0  0  0  0
   -4.6084   -0.6210   -0.8107 H   0  0  0  0  0  0  0  0  0  0  0  0
   -4.8082   -0.0067    0.8393 H   0  0  0  0  0  0  0  0  0  0  0  0
   -2.4634    0.3542   -0.0219 H   0  0  0  0  0  0  0  0  0  0  0  0
   -3.2650    1.8752    0.3756 H   0  0  0  0  0  0  0  0  0  0  0  0
   -0.5663    1.1424    0.3305 H   0  0  0  0  0  0  0  0  0  0  0  0
   -0.2085    3.2080    1.6430 H   0  0  0  0  0  0  0  0  0  0  0  0
    2.0970    4.1470    1.8734 H   0  0  0  0  0  0  0  0  0  0  0  0
    4.0036    3.0164    0.7628 H   0  0  0  0  0  0  0  0  0  0  0  0
    0.0579   -1.9041    0.9961 H   0  0  0  0  0  0  0  0  0  0  0  0
   -2.7969   -3.5861    0.2369 H   0  0  0  0  0  0  0  0  0  0  0  0
   -1.1509   -3.1578   -0.3462 H   0  0  0  0  0  0  0  0  0  0  0  0
   -2.5648   -2.1566   -0.7829 H   0  0  0  0  0  0  0  0  0  0  0  0
   -2.5598   -0.0364    2.5640 H   0  0  0  0  0  0  0  0  0  0  0  0
   -1.8274    2.7131    3.5083 H   0  0  0  0  0  0  0  0  0  0  0  0
   -3.0076    1.7736    4.4421 H   0  0  0  0  0  0  0  0  0  0  0  0
   -3.3888    2.2463    2.7607 H   0  0  0  0  0  0  0  0  0  0  0  0
  2  1  2  0  0  0  0
  3  2  1  0  0  0  0
  3 36  1  1  0  0  0
  4  3  1  0  0  0  0
  4 40  1  0  0  0  0
  5  4  1  0  0  0  0
  6 41  1  0  0  0  0
  7 43  1  0  0  0  0
  7  6  2  0  0  0  0
  8  7  1  0  0  0  0
  9  8  1  0  0  0  0
  9 10  1  0  0  0  0
 10 30  1  0  0  0  0
 11 10  2  0  0  0  0
 11 27  1  0  0  0  0
 12 45  1  0  0  0  0
 12 11  1  0  0  0  0
 13 12  1  0  0  0  0
 14 15  1  0  0  0  0
 14 13  1  0  0  0  0
 16 14  2  0  0  0  0
 17 16  1  0  0  0  0
 17 18  2  0  0  0  0
 18 26  1  0  0  0  0
 19 18  1  0  0  0  0
 19 20  1  0  0  0  0
 20 25  1  0  0  0  0
 21 22  1  0  0  0  0
 21 20  1  0  0  0  0
 21 50  1  0  0  0  0
 22 23  1  0  0  0  0
 23 24  1  0  0  0  0
 24 54  1  0  0  0  0
 25 24  1  0  0  0  0
 25 55  1  0  0  0  0
 25 56  1  0  0  0  0
 26 13  2  0  0  0  0
 27 28  2  0  0  0  0
 28 29  1  0  0  0  0
 28 58  1  0  0  0  0
 29 59  1  0  0  0  0
 30 60  1  0  0  0  0
 30 29  2  0  0  0  0
 31  8  2  0  0  0  0
 32  3  1  0  0  0  0
 33 32  1  0  0  0  0
 33 35  2  0  0  0  0
 34 62  1  0  0  0  0
 34 33  1  0  0  0  0
 37  2  1  0  0  0  0
 37 38  1  0  0  0  0
 38 66  1  0  0  0  0
 38 67  1  0  0  0  0
 39  4  1  0  0  0  0
 42  6  1  0  0  0  0
 44  9  1  0  0  0  0
 46 16  1  0  0  0  0
 47 19  1  0  0  0  0
 48 20  1  0  0  0  0
 49 21  1  0  0  0  0
 51 22  1  0  0  0  0
 52 22  1  0  0  0  0
 53 24  1  0  0  0  0
 57 27  1  0  0  0  0
 61 32  1  0  0  0  0
 63 34  1  0  0  0  0
 64 34  1  0  0  0  0
 65 37  1  0  0  0  0
 68 38  1  0  0  0  0
M  END
