68
-1 1
O        -0.860087    1.942682    2.985667
C        -1.234390    0.784558    2.959516
C        -0.272750   -0.403468    2.703792
C         1.177770    0.044990    2.832349
S         2.363323   -1.222392    2.271655
C         3.978159   -0.175723    2.406492
C         5.059379   -0.498810    1.472275
C         5.113084   -0.366063    0.074791
N         3.971171    0.181727   -0.649134
C         3.098608    1.207254   -0.249173
C         1.734974    1.088173   -0.621626
N         1.448427   -0.081668   -1.346281
C         0.376448   -0.435264   -2.080922
C         0.415377   -1.594067   -2.908635
Cl         1.854348   -2.568885   -3.010133
C        -0.728217   -1.915390   -3.610329
N        -1.859295   -1.215264   -3.525360
C        -1.807985   -0.144662   -2.719776
N        -2.958911    0.569780   -2.582012
C        -3.166091    1.551757   -1.528754
C        -4.542779    2.202403   -1.695583
C        -5.670709    1.248153   -1.297957
O        -5.495402    0.718491   -0.013350
C        -4.274730    0.018736    0.120255
C        -3.086161    0.931825   -0.124637
N        -0.747241    0.278886   -2.030532
C         0.805981    2.057207   -0.237389
C         1.225407    3.151180    0.519799
C         2.560269    3.281658    0.889682
C         3.489318    2.315537    0.502443
O         6.035810   -0.723002   -0.673081
N        -0.511448   -1.017897    1.403514
C        -1.469094   -1.950389    1.207501
C        -1.418841   -2.687140   -0.109159
O        -2.356014   -2.171785    2.030130
H        -0.496781   -1.171365    3.464589
N        -2.517632    0.400767    3.180624
C        -3.575985    1.344610    3.428855
H         1.325365    0.959686    2.239565
H         1.360714    0.310387    3.883915
H         4.310363   -0.331276    3.442142
H         3.558262    0.839853    2.345239
H         5.921321   -1.034608    1.876826
H         4.247763    0.221325   -1.628236
H         2.269139   -0.696858   -1.353124
H        -0.729527   -2.794260   -4.263989
H        -3.757367    0.150443   -3.039050
H        -2.380831    2.316865   -1.628186
H        -4.685367    2.550264   -2.731795
H        -4.584931    3.085938   -1.040345
H        -5.755766    0.423066   -2.039349
H        -6.636447    1.775125   -1.299955
H        -4.250467   -0.833847   -0.590113
H        -4.249602   -0.409569    1.129710
H        -2.140507    0.388426   -0.004303
H        -3.079673    1.739458    0.624515
H        -0.238260    1.933525   -0.508398
H         0.485934    3.882802    0.848974
H         2.882574    4.132404    1.494401
H         4.538151    2.382181    0.800069
H         0.265263   -0.964481    0.746908
H        -1.861270   -3.680258    0.032313
H        -0.397179   -2.784886   -0.499506
H        -2.025552   -2.149896   -0.854504
H        -2.724599   -0.589176    3.031925
H        -3.129401    2.345357    3.491130
H        -4.089926    1.126489    4.379050
H        -4.329032    1.345312    2.622826
