-1 1
 OpenBabel05232413493D

 69 70  0  0  1  0  0  0  0  0999 V2000
   -0.9213   -3.4932   -3.6871 O   0  0  0  0  0  0  0  0  0  0  0  0
   -0.8531   -2.4542   -3.0570 C   0  0  0  0  0  0  0  0  0  0  0  0
   -0.7352   -2.4172   -1.5327 C   0  0  2  0  0  0  0  0  0  0  0  0
    0.5938   -3.0329   -1.0706 C   0  0  0  0  0  0  0  0  0  0  0  0
    0.8201   -2.9173    0.7367 S   0  0  0  0  0  1  0  0  0  0  0  0
   -4.0267    1.3084    0.3891 C   0  0  0  0  0  0  0  0  0  0  0  0
   -3.2747    0.6888   -0.5198 C   0  0  0  0  0  0  0  0  0  0  0  0
   -1.7948    0.8633   -0.6193 C   0  0  0  0  0  0  0  0  0  0  0  0
   -1.0274    0.7993    0.5083 N   0  0  0  0  0  0  0  0  0  0  0  0
   -1.3018    0.1835    1.7479 C   0  0  0  0  0  0  0  0  0  0  0  0
   -0.7855    0.7388    2.9307 C   0  0  0  0  0  0  0  0  0  0  0  0
   -0.0177    1.9237    2.9214 N   0  0  0  0  0  0  0  0  0  0  0  0
    1.1923    2.1239    2.3111 C   0  0  0  0  0  0  0  0  0  0  0  0
    1.8542    3.3654    2.4738 C   0  0  0  0  0  0  0  0  0  0  0  0
    1.1405    4.6214    3.4726 Cl  0  0  0  0  0  0  0  0  0  0  0  0
    3.0740    3.5791    1.8575 C   0  0  0  0  0  0  0  0  0  0  0  0
    3.6602    2.6959    1.0633 N   0  0  0  0  0  0  0  0  0  0  0  0
    3.0461    1.5134    0.8747 C   0  0  0  0  0  0  0  0  0  0  0  0
    3.6872    0.6587    0.0292 N   0  0  0  0  0  0  0  0  0  0  0  0
    3.0194   -0.3652   -0.7673 C   0  0  0  0  0  0  0  0  0  0  0  0
    2.1281    0.2486   -1.8617 C   0  0  0  0  0  0  0  0  0  0  0  0
    2.9689    0.9085   -2.9449 C   0  0  0  0  0  0  0  0  0  0  0  0
    3.8955    0.0104   -3.5129 O   0  0  0  0  0  0  0  0  0  0  0  0
    4.7884   -0.5218   -2.5702 C   0  0  0  0  0  0  0  0  0  0  0  0
    4.0714   -1.2523   -1.4375 C   0  0  0  0  0  0  0  0  0  0  0  0
    1.8339    1.1692    1.5123 C   0  0  0  0  0  0  0  0  0  0  0  0
   -1.0774    0.1353    4.1598 C   0  0  0  0  0  0  0  0  0  0  0  0
   -1.8743   -1.0005    4.2257 C   0  0  0  0  0  0  0  0  0  0  0  0
   -2.3462   -1.5760    3.0469 C   0  0  0  0  0  0  0  0  0  0  0  0
   -2.0383   -1.0014    1.8229 C   0  0  0  0  0  0  0  0  0  0  0  0
   -1.2834    1.1125   -1.7030 O   0  0  0  0  0  0  0  0  0  0  0  0
   -1.8104   -3.1386   -0.8911 N   0  0  0  0  0  0  0  0  0  0  0  0
   -3.1122   -2.8987   -1.1246 C   0  0  0  0  0  0  0  0  0  0  0  0
   -4.0855   -3.6387   -0.2242 C   0  0  0  0  0  0  0  0  0  0  0  0
   -3.5122   -2.1165   -1.9795 O   0  0  0  0  0  0  0  0  0  0  0  0
   -0.7454   -1.3665   -1.2015 H   0  0  0  0  0  0  0  0  0  0  0  0
   -0.7626   -1.2241   -3.6348 N   0  0  0  0  0  0  0  0  0  0  0  0
   -0.8722   -1.0562   -5.0582 C   0  0  0  0  0  0  0  0  0  0  0  0
    0.6100   -4.0796   -1.4161 H   0  0  0  0  0  0  0  0  0  0  0  0
    1.4013   -2.5171   -1.6123 H   0  0  0  0  0  0  0  0  0  0  0  0
   -3.5849    1.9245    1.1780 H   0  0  0  0  0  0  0  0  0  0  0  0
   -5.1158    1.2187    0.3741 H   0  0  0  0  0  0  0  0  0  0  0  0
   -3.6986    0.0604   -1.3095 H   0  0  0  0  0  0  0  0  0  0  0  0
   -0.0492    1.0213    0.3244 H   0  0  0  0  0  0  0  0  0  0  0  0
   -0.2613    2.6138    3.6209 H   0  0  0  0  0  0  0  0  0  0  0  0
    3.5894    4.5340    2.0115 H   0  0  0  0  0  0  0  0  0  0  0  0
    4.5016    1.1004   -0.3816 H   0  0  0  0  0  0  0  0  0  0  0  0
    2.4122   -1.0009   -0.0990 H   0  0  0  0  0  0  0  0  0  0  0  0
    1.4159    0.9761   -1.4431 H   0  0  0  0  0  0  0  0  0  0  0  0
    1.5210   -0.5434   -2.3240 H   0  0  0  0  0  0  0  0  0  0  0  0
    3.5038    1.7913   -2.5320 H   0  0  0  0  0  0  0  0  0  0  0  0
    2.3336    1.2658   -3.7678 H   0  0  0  0  0  0  0  0  0  0  0  0
    5.4363    0.2883   -2.1645 H   0  0  0  0  0  0  0  0  0  0  0  0
    5.4519   -1.2096   -3.1152 H   0  0  0  0  0  0  0  0  0  0  0  0
    4.7947   -1.6117   -0.6894 H   0  0  0  0  0  0  0  0  0  0  0  0
    3.5608   -2.1347   -1.8510 H   0  0  0  0  0  0  0  0  0  0  0  0
    1.4413    0.1494    1.4270 H   0  0  0  0  0  0  0  0  0  0  0  0
   -0.6576    0.5748    5.0677 H   0  0  0  0  0  0  0  0  0  0  0  0
   -2.0930   -1.4578    5.1929 H   0  0  0  0  0  0  0  0  0  0  0  0
   -2.9230   -2.5022    3.0743 H   0  0  0  0  0  0  0  0  0  0  0  0
   -2.3533   -1.4774    0.8984 H   0  0  0  0  0  0  0  0  0  0  0  0
   -1.5033   -3.6376   -0.0537 H   0  0  0  0  0  0  0  0  0  0  0  0
   -4.5498   -2.9076    0.4558 H   0  0  0  0  0  0  0  0  0  0  0  0
   -3.6114   -4.4315    0.3703 H   0  0  0  0  0  0  0  0  0  0  0  0
   -4.8835   -4.0680   -0.8445 H   0  0  0  0  0  0  0  0  0  0  0  0
   -0.9191   -0.4107   -3.0427 H   0  0  0  0  0  0  0  0  0  0  0  0
   -0.5607   -1.9911   -5.5420 H   0  0  0  0  0  0  0  0  0  0  0  0
   -0.2226   -0.2367   -5.4007 H   0  0  0  0  0  0  0  0  0  0  0  0
   -1.9085   -0.8395   -5.3727 H   0  0  0  0  0  0  0  0  0  0  0  0
  1  2  2  0  0  0  0
  2  3  1  0  0  0  0
  3 36  1  1  0  0  0
  3  4  1  0  0  0  0
  3 32  1  0  0  0  0
  4  5  1  0  0  0  0
  6 41  1  0  0  0  0
  7  6  2  0  0  0  0
  8  7  1  0  0  0  0
  8  9  1  0  0  0  0
  9 10  1  0  0  0  0
 10 30  2  0  0  0  0
 10 11  1  0  0  0  0
 11 27  2  0  0  0  0
 12 11  1  0  0  0  0
 12 45  1  0  0  0  0
 13 14  1  0  0  0  0
 13 12  1  0  0  0  0
 14 15  1  0  0  0  0
 16 46  1  0  0  0  0
 16 14  2  0  0  0  0
 17 16  1  0  0  0  0
 18 17  2  0  0  0  0
 18 26  1  0  0  0  0
 19 18  1  0  0  0  0
 20 48  1  0  0  0  0
 20 19  1  0  0  0  0
 21 49  1  0  0  0  0
 21 20  1  0  0  0  0
 22 51  1  0  0  0  0
 22 21  1  0  0  0  0
 23 22  1  0  0  0  0
 23 24  1  0  0  0  0
 24 53  1  0  0  0  0
 24 25  1  0  0  0  0
 25 20  1  0  0  0  0
 25 55  1  0  0  0  0
 26 13  2  0  0  0  0
 27 28  1  0  0  0  0
 27 58  1  0  0  0  0
 28 59  1  0  0  0  0
 29 60  1  0  0  0  0
 29 28  2  0  0  0  0
 30 29  1  0  0  0  0
 31  8  2  0  0  0  0
 32 62  1  0  0  0  0
 33 32  1  0  0  0  0
 33 34  1  0  0  0  0
 34 64  1  0  0  0  0
 34 63  1  0  0  0  0
 35 33  2  0  0  0  0
 37  2  1  0  0  0  0
 37 66  1  0  0  0  0
 38 37  1  0  0  0  0
 39  4  1  0  0  0  0
 40  4  1  0  0  0  0
 42  6  1  0  0  0  0
 43  7  1  0  0  0  0
 44  9  1  0  0  0  0
 47 19  1  0  0  0  0
 50 21  1  0  0  0  0
 52 22  1  0  0  0  0
 54 24  1  0  0  0  0
 56 25  1  0  0  0  0
 57 26  1  0  0  0  0
 61 30  1  0  0  0  0
 65 34  1  0  0  0  0
 67 38  1  0  0  0  0
 68 38  1  0  0  0  0
 69 38  1  0  0  0  0
M  END
