-1 1
 OpenBabel05232414493D

 69 70  0  0  1  0  0  0  0  0999 V2000
   -2.3500   -4.2758   -6.2189 O   0  0  0  0  0  0  0  0  0  0  0  0
   -2.6294   -3.2884   -5.5545 C   0  0  0  0  0  0  0  0  0  0  0  0
   -3.7574   -3.3193   -4.5197 C   0  0  2  0  0  0  0  0  0  0  0  0
   -3.1641   -3.4690   -3.1025 C   0  0  0  0  0  0  0  0  0  0  0  0
   -4.3786   -3.5413   -1.7679 S   0  0  0  0  0  1  0  0  0  0  0  0
   -4.7163   -0.9789   -1.8880 C   0  0  0  0  0  0  0  0  0  0  0  0
   -3.8854   -0.4498   -2.8433 C   0  0  0  0  0  0  0  0  0  0  0  0
   -2.5780    0.1518   -2.7805 C   0  0  0  0  0  0  0  0  0  0  0  0
   -1.9200    0.5019   -1.5807 N   0  0  0  0  0  0  0  0  0  0  0  0
   -1.7804   -0.1079   -0.3419 C   0  0  0  0  0  0  0  0  0  0  0  0
   -1.1414    0.6024    0.7046 C   0  0  0  0  0  0  0  0  0  0  0  0
   -0.6449    1.9184    0.4865 N   0  0  0  0  0  0  0  0  0  0  0  0
    0.4980    2.1937   -0.2071 C   0  0  0  0  0  0  0  0  0  0  0  0
    1.0239    3.5046   -0.2797 C   0  0  0  0  0  0  0  0  0  0  0  0
    0.2399    4.8102    0.5887 Cl  0  0  0  0  0  0  0  0  0  0  0  0
    2.1570    3.7466   -1.0389 C   0  0  0  0  0  0  0  0  0  0  0  0
    2.7832    2.8184   -1.7511 N   0  0  0  0  0  0  0  0  0  0  0  0
    2.2977    1.5671   -1.7042 C   0  0  0  0  0  0  0  0  0  0  0  0
    2.9533    0.6481   -2.4788 N   0  0  0  0  0  0  0  0  0  0  0  0
    2.3610   -0.5991   -2.9420 C   0  0  0  0  0  0  0  0  0  0  0  0
    1.0581   -0.3921   -3.7300 C   0  0  0  0  0  0  0  0  0  0  0  0
    1.3397    0.2847   -5.0585 C   0  0  0  0  0  0  0  0  0  0  0  0
    2.2490   -0.4644   -5.8411 O   0  0  0  0  0  0  0  0  0  0  0  0
    3.4863   -0.6383   -5.2107 C   0  0  0  0  0  0  0  0  0  0  0  0
    3.3597   -1.3256   -3.8496 C   0  0  0  0  0  0  0  0  0  0  0  0
    1.1945    1.2076   -0.9145 C   0  0  0  0  0  0  0  0  0  0  0  0
   -0.9708    0.0142    1.9592 C   0  0  0  0  0  0  0  0  0  0  0  0
   -1.4298   -1.2729    2.2174 C   0  0  0  0  0  0  0  0  0  0  0  0
   -2.0272   -1.9877    1.1793 C   0  0  0  0  0  0  0  0  0  0  0  0
   -2.1814   -1.4274   -0.0824 C   0  0  0  0  0  0  0  0  0  0  0  0
   -2.0022    0.5103   -3.8181 O   0  0  0  0  0  0  0  0  0  0  0  0
   -4.6800   -4.3679   -4.8513 N   0  0  0  0  0  0  0  0  0  0  0  0
   -6.0087   -4.1612   -5.0197 C   0  0  0  0  0  0  0  0  0  0  0  0
   -6.8260   -5.4328   -5.1684 C   0  0  0  0  0  0  0  0  0  0  0  0
   -6.5318   -3.0612   -5.0271 O   0  0  0  0  0  0  0  0  0  0  0  0
   -4.3328   -2.3875   -4.5649 H   0  0  0  0  0  0  0  0  0  0  0  0
   -1.9517   -2.1160   -5.6510 N   0  0  0  0  0  0  0  0  0  0  0  0
   -0.8828   -1.9470   -6.6044 C   0  0  0  0  0  0  0  0  0  0  0  0
   -2.5218   -4.3658   -3.0788 H   0  0  0  0  0  0  0  0  0  0  0  0
   -2.4903   -2.6034   -2.9496 H   0  0  0  0  0  0  0  0  0  0  0  0
   -4.5323   -0.8711   -0.8197 H   0  0  0  0  0  0  0  0  0  0  0  0
   -5.7400   -1.2130   -2.1746 H   0  0  0  0  0  0  0  0  0  0  0  0
   -4.2288   -0.4865   -3.8796 H   0  0  0  0  0  0  0  0  0  0  0  0
   -1.2468    1.2344   -1.7769 H   0  0  0  0  0  0  0  0  0  0  0  0
   -1.0339    2.6728    1.0379 H   0  0  0  0  0  0  0  0  0  0  0  0
    2.5639    4.7632   -1.0762 H   0  0  0  0  0  0  0  0  0  0  0  0
    3.6531    1.0831   -3.0675 H   0  0  0  0  0  0  0  0  0  0  0  0
    2.1607   -1.2343   -2.0627 H   0  0  0  0  0  0  0  0  0  0  0  0
    0.3210    0.2015   -3.1771 H   0  0  0  0  0  0  0  0  0  0  0  0
    0.5839   -1.3703   -3.9117 H   0  0  0  0  0  0  0  0  0  0  0  0
    1.7434    1.3042   -4.8884 H   0  0  0  0  0  0  0  0  0  0  0  0
    0.4153    0.3891   -5.6390 H   0  0  0  0  0  0  0  0  0  0  0  0
    3.9975    0.3438   -5.0999 H   0  0  0  0  0  0  0  0  0  0  0  0
    4.1094   -1.2435   -5.8858 H   0  0  0  0  0  0  0  0  0  0  0  0
    4.3468   -1.3914   -3.3635 H   0  0  0  0  0  0  0  0  0  0  0  0
    2.9959   -2.3522   -4.0083 H   0  0  0  0  0  0  0  0  0  0  0  0
    0.8529    0.1750   -0.8650 H   0  0  0  0  0  0  0  0  0  0  0  0
   -0.4622    0.5945    2.7331 H   0  0  0  0  0  0  0  0  0  0  0  0
   -1.3025   -1.7174    3.2065 H   0  0  0  0  0  0  0  0  0  0  0  0
   -2.3832   -3.0097    1.3292 H   0  0  0  0  0  0  0  0  0  0  0  0
   -2.6572   -2.0397   -0.8512 H   0  0  0  0  0  0  0  0  0  0  0  0
   -4.3002   -5.3010   -4.9304 H   0  0  0  0  0  0  0  0  0  0  0  0
   -7.1286   -5.7650   -4.1636 H   0  0  0  0  0  0  0  0  0  0  0  0
   -6.2637   -6.2473   -5.6484 H   0  0  0  0  0  0  0  0  0  0  0  0
   -7.7292   -5.2103   -5.7497 H   0  0  0  0  0  0  0  0  0  0  0  0
   -2.1970   -1.3206   -5.0610 H   0  0  0  0  0  0  0  0  0  0  0  0
    0.1174   -1.9692   -6.1422 H   0  0  0  0  0  0  0  0  0  0  0  0
   -0.9907   -0.9887   -7.1349 H   0  0  0  0  0  0  0  0  0  0  0  0
   -0.9407   -2.7688   -7.3296 H   0  0  0  0  0  0  0  0  0  0  0  0
  1  2  2  0  0  0  0
  2  3  1  0  0  0  0
  3 36  1  6  0  0  0
  3  4  1  0  0  0  0
  4 39  1  0  0  0  0
  4 40  1  0  0  0  0
  4  5  1  0  0  0  0
  6 41  1  0  0  0  0
  7  8  1  0  0  0  0
  7  6  2  0  0  0  0
  8  9  1  0  0  0  0
  9 10  1  0  0  0  0
 10 30  2  0  0  0  0
 10 11  1  0  0  0  0
 11 27  2  0  0  0  0
 12 11  1  0  0  0  0
 12 45  1  0  0  0  0
 13 12  1  0  0  0  0
 14 13  1  0  0  0  0
 14 15  1  0  0  0  0
 16 14  2  0  0  0  0
 17 18  2  0  0  0  0
 17 16  1  0  0  0  0
 18 26  1  0  0  0  0
 19 18  1  0  0  0  0
 20 19  1  0  0  0  0
 20 48  1  0  0  0  0
 21 49  1  0  0  0  0
 21 20  1  0  0  0  0
 22 51  1  0  0  0  0
 22 21  1  0  0  0  0
 23 24  1  0  0  0  0
 23 22  1  0  0  0  0
 24 53  1  0  0  0  0
 24 25  1  0  0  0  0
 25 55  1  0  0  0  0
 25 20  1  0  0  0  0
 26 57  1  0  0  0  0
 26 13  2  0  0  0  0
 27 28  1  0  0  0  0
 27 58  1  0  0  0  0
 28 59  1  0  0  0  0
 29 60  1  0  0  0  0
 29 28  2  0  0  0  0
 30 29  1  0  0  0  0
 31  8  2  0  0  0  0
 32  3  1  0  0  0  0
 33 32  1  0  0  0  0
 34 33  1  0  0  0  0
 34 63  1  0  0  0  0
 35 33  2  0  0  0  0
 37  2  1  0  0  0  0
 37 66  1  0  0  0  0
 38 67  1  0  0  0  0
 38 37  1  0  0  0  0
 42  6  1  0  0  0  0
 43  7  1  0  0  0  0
 44  9  1  0  0  0  0
 46 16  1  0  0  0  0
 47 19  1  0  0  0  0
 50 21  1  0  0  0  0
 52 22  1  0  0  0  0
 54 24  1  0  0  0  0
 56 25  1  0  0  0  0
 61 30  1  0  0  0  0
 62 32  1  0  0  0  0
 64 34  1  0  0  0  0
 65 34  1  0  0  0  0
 68 38  1  0  0  0  0
 69 38  1  0  0  0  0
M  END
