-1 1
 OpenBabel05232413493D

 67 68  0  0  1  0  0  0  0  0999 V2000
   -4.8481    0.8234    2.6136 O   0  0  0  0  0  0  0  0  0  0  0  0
   -4.9945    1.0458    1.4237 C   0  0  0  0  0  0  0  0  0  0  0  0
   -3.9345    0.6921    0.3566 C   0  0  2  0  0  0  0  0  0  0  0  0
   -2.8120   -0.1650    0.9352 C   0  0  0  0  0  0  0  0  0  0  0  0
   -1.5564   -0.6876   -0.2800 S   0  0  0  0  0  1  0  0  0  0  0  0
   -0.0307   -1.1360    2.5233 C   0  0  0  0  0  0  0  0  0  0  0  0
   -0.2556   -0.3110    3.5538 C   0  0  0  0  0  0  0  0  0  0  0  0
    0.6566    0.7613    4.0127 C   0  0  0  0  0  0  0  0  0  0  0  0
    1.4479    1.4162    3.0612 N   0  0  0  0  0  0  0  0  0  0  0  0
    1.0562    1.7125    1.7245 C   0  0  0  0  0  0  0  0  0  0  0  0
    1.8005    1.1906    0.6487 C   0  0  0  0  0  0  0  0  0  0  0  0
    2.8508    0.3340    0.9725 N   0  0  0  0  0  0  0  0  0  0  0  0
    3.3165   -0.7288    0.2477 C   0  0  0  0  0  0  0  0  0  0  0  0
    4.1424   -1.7023    0.8589 C   0  0  0  0  0  0  0  0  0  0  0  0
    4.6210   -1.5675    2.5314 Cl  0  0  0  0  0  0  0  0  0  0  0  0
    4.5285   -2.7814    0.0802 C   0  0  0  0  0  0  0  0  0  0  0  0
    4.1457   -2.9409   -1.1790 N   0  0  0  0  0  0  0  0  0  0  0  0
    3.3602   -1.9677   -1.6751 C   0  0  0  0  0  0  0  0  0  0  0  0
    2.9249   -2.1221   -2.9444 N   0  0  0  0  0  0  0  0  0  0  0  0
    1.9942   -1.2243   -3.6171 C   0  0  0  0  0  0  0  0  0  0  0  0
    1.8940   -1.6296   -5.0911 C   0  0  0  0  0  0  0  0  0  0  0  0
    1.0801   -2.9146   -5.2585 C   0  0  0  0  0  0  0  0  0  0  0  0
   -0.1859   -2.8143   -4.6835 O   0  0  0  0  0  0  0  0  0  0  0  0
   -0.1376   -2.5369   -3.2931 C   0  0  0  0  0  0  0  0  0  0  0  0
    0.5866   -1.2344   -3.0028 C   0  0  0  0  0  0  0  0  0  0  0  0
    2.9801   -0.8629   -1.0246 N   0  0  0  0  0  0  0  0  0  0  0  0
    1.4214    1.5545   -0.6441 C   0  0  0  0  0  0  0  0  0  0  0  0
    0.2938    2.3494   -0.7977 C   0  0  0  0  0  0  0  0  0  0  0  0
   -0.4339    2.8258    0.2097 N   0  0  0  0  0  0  0  0  0  0  0  0
   -0.0464    2.5106    1.4420 C   0  0  0  0  0  0  0  0  0  0  0  0
    0.7738    1.0599    5.1849 O   0  0  0  0  0  0  0  0  0  0  0  0
   -3.3884    1.9061   -0.2375 N   0  0  0  0  0  0  0  0  0  0  0  0
   -3.9680    2.5794   -1.2443 C   0  0  0  0  0  0  0  0  0  0  0  0
   -3.0844    3.6062   -1.9234 C   0  0  0  0  0  0  0  0  0  0  0  0
   -5.1249    2.3883   -1.6217 O   0  0  0  0  0  0  0  0  0  0  0  0
   -4.4454    0.1325   -0.4463 H   0  0  0  0  0  0  0  0  0  0  0  0
   -6.1142    1.6134    0.9001 N   0  0  0  0  0  0  0  0  0  0  0  0
   -7.1834    2.1032    1.7240 C   0  0  0  0  0  0  0  0  0  0  0  0
   -2.3494    0.4050    1.7613 H   0  0  0  0  0  0  0  0  0  0  0  0
   -3.2901   -1.0348    1.4112 H   0  0  0  0  0  0  0  0  0  0  0  0
    0.8416   -1.0523    1.8748 H   0  0  0  0  0  0  0  0  0  0  0  0
   -0.7154   -1.9497    2.2853 H   0  0  0  0  0  0  0  0  0  0  0  0
   -1.1204   -0.4552    4.2061 H   0  0  0  0  0  0  0  0  0  0  0  0
    2.0107    2.1307    3.5165 H   0  0  0  0  0  0  0  0  0  0  0  0
    3.0038    0.2718    1.9769 H   0  0  0  0  0  0  0  0  0  0  0  0
    5.1699   -3.5565    0.5141 H   0  0  0  0  0  0  0  0  0  0  0  0
    3.1856   -2.9986   -3.3753 H   0  0  0  0  0  0  0  0  0  0  0  0
    2.4110   -0.2061   -3.5436 H   0  0  0  0  0  0  0  0  0  0  0  0
    2.8972   -1.7461   -5.5352 H   0  0  0  0  0  0  0  0  0  0  0  0
    1.3817   -0.8215   -5.6353 H   0  0  0  0  0  0  0  0  0  0  0  0
    1.6362   -3.7769   -4.8247 H   0  0  0  0  0  0  0  0  0  0  0  0
    0.9373   -3.1378   -6.3271 H   0  0  0  0  0  0  0  0  0  0  0  0
    0.3608   -3.3762   -2.7652 H   0  0  0  0  0  0  0  0  0  0  0  0
   -1.1707   -2.4795   -2.9273 H   0  0  0  0  0  0  0  0  0  0  0  0
    0.6164   -1.0556   -1.9189 H   0  0  0  0  0  0  0  0  0  0  0  0
    0.0086   -0.4018   -3.4343 H   0  0  0  0  0  0  0  0  0  0  0  0
    1.9561    1.1706   -1.5066 H   0  0  0  0  0  0  0  0  0  0  0  0
   -0.0500    2.6017   -1.8058 H   0  0  0  0  0  0  0  0  0  0  0  0
   -0.6526    2.8897    2.2723 H   0  0  0  0  0  0  0  0  0  0  0  0
   -2.3993    2.0837   -0.0624 H   0  0  0  0  0  0  0  0  0  0  0  0
   -2.2583    3.9327   -1.2762 H   0  0  0  0  0  0  0  0  0  0  0  0
   -3.6996    4.4615   -2.2313 H   0  0  0  0  0  0  0  0  0  0  0  0
   -2.6616    3.1462   -2.8300 H   0  0  0  0  0  0  0  0  0  0  0  0
   -6.0796    1.8465   -0.0966 H   0  0  0  0  0  0  0  0  0  0  0  0
   -6.9839    1.7932    2.7585 H   0  0  0  0  0  0  0  0  0  0  0  0
   -8.1568    1.6898    1.4111 H   0  0  0  0  0  0  0  0  0  0  0  0
   -7.2561    3.2048    1.6968 H   0  0  0  0  0  0  0  0  0  0  0  0
  2  1  2  0  0  0  0
  3 36  1  6  0  0  0
  3  4  1  0  0  0  0
  3  2  1  0  0  0  0
  4 40  1  0  0  0  0
  4 39  1  0  0  0  0
  5  4  1  0  0  0  0
  6  7  2  0  0  0  0
  7  8  1  0  0  0  0
  7 43  1  0  0  0  0
  8 31  2  0  0  0  0
  9 44  1  0  0  0  0
  9  8  1  0  0  0  0
 10  9  1  0  0  0  0
 11 12  1  0  0  0  0
 11 10  2  0  0  0  0
 12 45  1  0  0  0  0
 13 14  1  0  0  0  0
 13 12  1  0  0  0  0
 14 15  1  0  0  0  0
 16 46  1  0  0  0  0
 16 14  2  0  0  0  0
 17 16  1  0  0  0  0
 18 17  2  0  0  0  0
 18 26  1  0  0  0  0
 19 18  1  0  0  0  0
 20 48  1  0  0  0  0
 20 25  1  0  0  0  0
 20 19  1  0  0  0  0
 21 20  1  0  0  0  0
 22 21  1  0  0  0  0
 22 51  1  0  0  0  0
 22 23  1  0  0  0  0
 23 24  1  0  0  0  0
 24 25  1  0  0  0  0
 24 54  1  0  0  0  0
 24 53  1  0  0  0  0
 25 55  1  0  0  0  0
 26 13  2  0  0  0  0
 27 11  1  0  0  0  0
 28 27  2  0  0  0  0
 28 29  1  0  0  0  0
 29 30  2  0  0  0  0
 30 10  1  0  0  0  0
 30 59  1  0  0  0  0
 32 60  1  0  0  0  0
 32  3  1  0  0  0  0
 33 32  1  0  0  0  0
 34 61  1  0  0  0  0
 34 33  1  0  0  0  0
 35 33  2  0  0  0  0
 37  2  1  0  0  0  0
 37 38  1  0  0  0  0
 38 65  1  0  0  0  0
 41  6  1  0  0  0  0
 42  6  1  0  0  0  0
 47 19  1  0  0  0  0
 49 21  1  0  0  0  0
 50 21  1  0  0  0  0
 52 22  1  0  0  0  0
 56 25  1  0  0  0  0
 57 27  1  0  0  0  0
 58 28  1  0  0  0  0
 62 34  1  0  0  0  0
 63 34  1  0  0  0  0
 64 37  1  0  0  0  0
 66 38  1  0  0  0  0
 67 38  1  0  0  0  0
M  END
