67
-1 1
O        -8.744699   -3.313864    3.183185
C        -8.736317   -3.275573    1.966164
C        -7.505594   -3.670789    1.116377
C        -6.445151   -4.350258    1.974107
S        -5.014222   -4.964178    1.048352
C        -3.816509   -5.431773    3.046265
C        -4.066371   -4.614904    4.143898
C        -3.274346   -3.505059    4.589328
N        -2.279588   -2.978346    3.684413
C        -2.655733   -2.573326    2.375602
C        -1.931123   -3.062656    1.273044
N        -0.909031   -3.964172    1.565590
C        -0.515157   -5.031061    0.812555
C         0.293358   -6.050751    1.372050
Cl         0.844892   -5.967167    3.023403
C         0.603831   -7.128593    0.560299
N         0.167553   -7.249387   -0.687791
C        -0.593651   -6.235539   -1.132761
N        -1.085264   -6.346636   -2.389733
C        -2.001460   -5.397946   -3.005550
C        -2.183891   -5.770144   -4.480685
C        -3.053629   -7.019516   -4.634243
O        -4.287393   -6.883852   -3.995347
C        -4.161436   -6.634541   -2.606408
C        -3.382167   -5.360611   -2.331489
N        -0.906237   -5.131303   -0.450109
C        -2.294188   -2.627995   -0.003580
C        -3.401796   -1.800456   -0.119995
N        -4.130399   -1.368982    0.908365
C        -3.745196   -1.744984    2.127039
O        -3.330176   -2.989070    5.699373
N        -6.967361   -2.506698    0.424069
C        -7.462754   -2.039717   -0.735342
C        -6.636714   -0.965509   -1.411678
O        -8.509253   -2.445210   -1.241513
H        -7.859662   -4.372208    0.341387
N        -9.806890   -2.900326    1.216914
C       -11.020800   -2.407570    1.806662
H        -6.100884   -3.649813    2.756770
H        -6.940314   -5.172809    2.511166
H        -2.853759   -5.375395    2.535701
H        -4.255601   -6.429158    3.046490
H        -4.889041   -4.860189    4.818751
H        -1.791854   -2.242815    4.191552
H        -0.791413   -4.060954    2.576489
H         1.228583   -7.937090    0.955578
H        -0.871522   -7.220702   -2.850014
H        -1.542083   -4.398437   -2.932152
H        -1.206658   -5.917617   -4.970359
H        -2.686074   -4.932357   -4.988309
H        -2.513031   -7.911535   -4.245140
H        -3.258296   -7.213471   -5.698191
H        -3.664446   -7.496261   -2.115361
H        -5.175812   -6.560412   -2.194521
H        -3.294782   -5.193308   -1.249306
H        -3.944091   -4.502521   -2.735301
H        -1.759823   -2.974169   -0.882773
H        -3.730436   -1.483873   -1.115738
H        -4.347586   -1.400826    2.974956
H        -6.060857   -2.150881    0.730990
H        -5.932091   -0.483552   -0.720235
H        -7.315365   -0.224095   -1.852996
H        -6.070174   -1.432238   -2.232084
H        -9.652474   -2.823529    0.208320
H       -10.943152   -2.529593    2.895104
H       -11.900150   -2.968437    1.448744
H       -11.182726   -1.338570    1.584322
