-1 1
 OpenBabel05192410563D

 67 69  0  0  1  0  0  0  0  0999 V2000
   -4.8825    0.1155    1.9580 O   0  0  0  0  0  0  0  0  0  0  0  0
   -4.5155    0.1815    0.7998 C   0  0  0  0  0  0  0  0  0  0  0  0
   -3.0249    0.0890    0.3900 C   0  0  2  0  0  0  0  0  0  0  0  0
   -2.1871   -0.3854    1.5654 C   0  0  0  0  0  0  0  0  0  0  0  0
   -0.4784   -0.7449    1.0992 S   0  0  0  0  0  0  0  0  0  0  0  0
    0.2535   -0.8364    2.8829 C   0  0  0  0  0  0  0  0  0  0  0  0
   -0.0280    0.2663    3.8042 C   0  0  0  0  0  3  0  0  0  0  0  0
    0.7851    1.3760    4.0387 C   0  0  0  0  0  0  0  0  0  0  0  0
    1.9455    1.5358    3.1207 N   0  0  0  0  0  0  0  0  0  0  0  0
    1.6112    2.0182    1.8263 C   0  0  0  0  0  0  0  0  0  0  0  0
    2.1737    1.3899    0.7015 C   0  0  0  0  0  0  0  0  0  0  0  0
    2.9899    0.2867    0.9590 N   0  0  0  0  0  0  0  0  0  0  0  0
    2.9772   -0.8776    0.2467 C   0  0  0  0  0  0  0  0  0  0  0  0
    3.4670   -2.0813    0.8093 C   0  0  0  0  0  0  0  0  0  0  0  0
    4.1639   -2.1193    2.4064 Cl  0  0  0  0  0  0  0  0  0  0  0  0
    3.3336   -3.2339    0.0539 C   0  0  0  0  0  0  0  0  0  0  0  0
    2.7763   -3.2549   -1.1511 N   0  0  0  0  0  0  0  0  0  0  0  0
    2.3600   -2.0639   -1.6111 C   0  0  0  0  0  0  0  0  0  0  0  0
    1.7742   -2.0527   -2.8347 N   0  0  0  0  0  0  0  0  0  0  0  0
    1.1984   -0.8715   -3.4550 C   0  0  0  0  0  0  0  0  0  0  0  0
    0.9255   -1.1652   -4.9336 C   0  0  0  0  0  0  0  0  0  0  0  0
   -0.2870   -2.0811   -5.0994 C   0  0  0  0  0  0  0  0  0  0  0  0
   -1.4240   -1.5577   -4.4816 O   0  0  0  0  0  0  0  0  0  0  0  0
   -1.2562   -1.3541   -3.0906 C   0  0  0  0  0  0  0  0  0  0  0  0
   -0.1074   -0.4044   -2.7885 C   0  0  0  0  0  0  0  0  0  0  0  0
    2.4764   -0.8942   -0.9818 N   0  0  0  0  0  0  0  0  0  0  0  0
    1.8595    1.8845   -0.5668 C   0  0  0  0  0  0  0  0  0  0  0  0
    0.9312    2.9113   -0.6535 C   0  0  0  0  0  0  0  0  0  0  0  0
    0.3223    3.4677    0.3954 N   0  0  0  0  0  0  0  0  0  0  0  0
    0.6816    3.0359    1.6051 C   0  0  0  0  0  0  0  0  0  0  0  0
    0.6793    2.2508    4.9093 O   0  0  0  0  0  0  0  0  0  0  0  0
   -2.5499    1.3693   -0.1225 N   0  0  0  0  0  0  0  0  0  0  0  0
   -2.7968    1.7895   -1.3796 C   0  0  0  0  0  0  0  0  0  0  0  0
   -2.2417    3.1393   -1.7658 C   0  0  0  0  0  0  0  0  0  0  0  0
   -3.4724    1.1354   -2.1751 O   0  0  0  0  0  0  0  0  0  0  0  0
   -2.9610   -0.6379   -0.4377 H   0  0  0  0  0  0  0  0  0  0  0  0
   -5.3589    0.3228   -0.2546 N   0  0  0  0  0  0  0  0  0  0  0  0
   -6.7746    0.5109   -0.0854 C   0  0  0  0  0  0  0  0  0  0  0  0
   -2.1693    0.3823    2.3572 H   0  0  0  0  0  0  0  0  0  0  0  0
   -2.6673   -1.2766    1.9931 H   0  0  0  0  0  0  0  0  0  0  0  0
    1.3225   -0.9675    2.6658 H   0  0  0  0  0  0  0  0  0  0  0  0
   -0.1348   -1.7974    3.2506 H   0  0  0  0  0  0  0  0  0  0  0  0
   -0.9021    0.1892    4.4553 H   0  0  0  0  0  0  0  0  0  0  0  0
    2.5321    2.2215    3.5950 H   0  0  0  0  0  0  0  0  0  0  0  0
    3.1198    0.1917    1.9715 H   0  0  0  0  0  0  0  0  0  0  0  0
    3.6888   -4.1870    0.4608 H   0  0  0  0  0  0  0  0  0  0  0  0
    1.6353   -2.9655   -3.2453 H   0  0  0  0  0  0  0  0  0  0  0  0
    1.9440   -0.0653   -3.3717 H   0  0  0  0  0  0  0  0  0  0  0  0
    1.8150   -1.6088   -5.4109 H   0  0  0  0  0  0  0  0  0  0  0  0
    0.7121   -0.2134   -5.4442 H   0  0  0  0  0  0  0  0  0  0  0  0
   -0.0601   -3.0950   -4.6992 H   0  0  0  0  0  0  0  0  0  0  0  0
   -0.5279   -2.2098   -6.1657 H   0  0  0  0  0  0  0  0  0  0  0  0
   -1.0833   -2.3265   -2.5851 H   0  0  0  0  0  0  0  0  0  0  0  0
   -2.2019   -0.9340   -2.7235 H   0  0  0  0  0  0  0  0  0  0  0  0
    0.0327   -0.3040   -1.7013 H   0  0  0  0  0  0  0  0  0  0  0  0
   -0.3607    0.5949   -3.1810 H   0  0  0  0  0  0  0  0  0  0  0  0
    2.2901    1.4421   -1.4601 H   0  0  0  0  0  0  0  0  0  0  0  0
    0.6498    3.2937   -1.6410 H   0  0  0  0  0  0  0  0  0  0  0  0
    0.2002    3.4896    2.4784 H   0  0  0  0  0  0  0  0  0  0  0  0
   -1.9005    1.8969    0.4552 H   0  0  0  0  0  0  0  0  0  0  0  0
   -1.6750    3.6285   -0.9622 H   0  0  0  0  0  0  0  0  0  0  0  0
   -3.0871    3.7715   -2.0728 H   0  0  0  0  0  0  0  0  0  0  0  0
   -1.5979    3.0086   -2.6470 H   0  0  0  0  0  0  0  0  0  0  0  0
   -4.9275    0.4501   -1.1720 H   0  0  0  0  0  0  0  0  0  0  0  0
   -7.0128    0.3635    0.9760 H   0  0  0  0  0  0  0  0  0  0  0  0
   -7.3483   -0.2153   -0.6836 H   0  0  0  0  0  0  0  0  0  0  0  0
   -7.0920    1.5261   -0.3785 H   0  0  0  0  0  0  0  0  0  0  0  0
  2  1  2  0  0  0  0
  3 36  1  6  0  0  0
  3  2  1  0  0  0  0
  3  4  1  0  0  0  0
  4 40  1  0  0  0  0
  4 39  1  0  0  0  0
  5  4  1  0  0  0  0
  5  6  1  0  0  0  0
  6 42  1  0  0  0  0
  6  7  1  0  0  0  0
  7  8  1  0  0  0  0
  7 43  1  0  0  0  0
  8 31  2  0  0  0  0
  9 44  1  0  0  0  0
  9  8  1  0  0  0  0
 10  9  1  0  0  0  0
 11 12  1  0  0  0  0
 11 10  2  0  0  0  0
 12 45  1  0  0  0  0
 13 14  1  0  0  0  0
 13 12  1  0  0  0  0
 14 15  1  0  0  0  0
 16 46  1  0  0  0  0
 16 14  2  0  0  0  0
 17 16  1  0  0  0  0
 18 17  2  0  0  0  0
 18 26  1  0  0  0  0
 19 18  1  0  0  0  0
 20 48  1  0  0  0  0
 20 19  1  0  0  0  0
 20 25  1  0  0  0  0
 21 20  1  0  0  0  0
 22 21  1  0  0  0  0
 22 51  1  0  0  0  0
 22 23  1  0  0  0  0
 23 24  1  0  0  0  0
 24 25  1  0  0  0  0
 24 54  1  0  0  0  0
 24 53  1  0  0  0  0
 25 55  1  0  0  0  0
 26 13  2  0  0  0  0
 27 11  1  0  0  0  0
 28 27  2  0  0  0  0
 28 29  1  0  0  0  0
 29 30  2  0  0  0  0
 30 10  1  0  0  0  0
 30 59  1  0  0  0  0
 32  3  1  0  0  0  0
 32 60  1  0  0  0  0
 33 32  1  0  0  0  0
 34 33  1  0  0  0  0
 34 61  1  0  0  0  0
 35 33  2  0  0  0  0
 37 38  1  0  0  0  0
 37  2  1  0  0  0  0
 38 65  1  0  0  0  0
 41  6  1  0  0  0  0
 47 19  1  0  0  0  0
 49 21  1  0  0  0  0
 50 21  1  0  0  0  0
 52 22  1  0  0  0  0
 56 25  1  0  0  0  0
 57 27  1  0  0  0  0
 58 28  1  0  0  0  0
 62 34  1  0  0  0  0
 63 34  1  0  0  0  0
 64 37  1  0  0  0  0
 66 38  1  0  0  0  0
 67 38  1  0  0  0  0
M  END
