-1 1
 OpenBabel05232414493D

 67 68  0  0  1  0  0  0  0  0999 V2000
   -8.7447   -3.3139    3.1832 O   0  0  0  0  0  0  0  0  0  0  0  0
   -8.7363   -3.2756    1.9662 C   0  0  0  0  0  0  0  0  0  0  0  0
   -7.5056   -3.6708    1.1164 C   0  0  2  0  0  0  0  0  0  0  0  0
   -6.4452   -4.3503    1.9741 C   0  0  0  0  0  0  0  0  0  0  0  0
   -5.0142   -4.9642    1.0484 S   0  0  0  0  0  1  0  0  0  0  0  0
   -3.8165   -5.4318    3.0463 C   0  0  0  0  0  3  0  0  0  0  0  0
   -4.0664   -4.6149    4.1439 C   0  0  0  0  0  3  0  0  0  0  0  0
   -3.2743   -3.5051    4.5893 C   0  0  0  0  0  0  0  0  0  0  0  0
   -2.2796   -2.9783    3.6844 N   0  0  0  0  0  0  0  0  0  0  0  0
   -2.6557   -2.5733    2.3756 C   0  0  0  0  0  0  0  0  0  0  0  0
   -1.9311   -3.0627    1.2730 C   0  0  0  0  0  0  0  0  0  0  0  0
   -0.9090   -3.9642    1.5656 N   0  0  0  0  0  0  0  0  0  0  0  0
   -0.5152   -5.0311    0.8126 C   0  0  0  0  0  0  0  0  0  0  0  0
    0.2934   -6.0508    1.3720 C   0  0  0  0  0  0  0  0  0  0  0  0
    0.8449   -5.9672    3.0234 Cl  0  0  0  0  0  0  0  0  0  0  0  0
    0.6038   -7.1286    0.5603 C   0  0  0  0  0  0  0  0  0  0  0  0
    0.1676   -7.2494   -0.6878 N   0  0  0  0  0  0  0  0  0  0  0  0
   -0.5937   -6.2355   -1.1328 C   0  0  0  0  0  0  0  0  0  0  0  0
   -1.0853   -6.3466   -2.3897 N   0  0  0  0  0  0  0  0  0  0  0  0
   -2.0015   -5.3979   -3.0055 C   0  0  0  0  0  0  0  0  0  0  0  0
   -2.1839   -5.7701   -4.4807 C   0  0  0  0  0  0  0  0  0  0  0  0
   -3.0536   -7.0195   -4.6342 C   0  0  0  0  0  0  0  0  0  0  0  0
   -4.2874   -6.8839   -3.9953 O   0  0  0  0  0  0  0  0  0  0  0  0
   -4.1614   -6.6345   -2.6064 C   0  0  0  0  0  0  0  0  0  0  0  0
   -3.3822   -5.3606   -2.3315 C   0  0  0  0  0  0  0  0  0  0  0  0
   -0.9062   -5.1313   -0.4501 N   0  0  0  0  0  0  0  0  0  0  0  0
   -2.2942   -2.6280   -0.0036 C   0  0  0  0  0  0  0  0  0  0  0  0
   -3.4018   -1.8005   -0.1200 C   0  0  0  0  0  0  0  0  0  0  0  0
   -4.1304   -1.3690    0.9084 N   0  0  0  0  0  0  0  0  0  0  0  0
   -3.7452   -1.7450    2.1270 C   0  0  0  0  0  0  0  0  0  0  0  0
   -3.3302   -2.9891    5.6994 O   0  0  0  0  0  0  0  0  0  0  0  0
   -6.9674   -2.5067    0.4241 N   0  0  0  0  0  0  0  0  0  0  0  0
   -7.4628   -2.0397   -0.7353 C   0  0  0  0  0  0  0  0  0  0  0  0
   -6.6367   -0.9655   -1.4117 C   0  0  0  0  0  0  0  0  0  0  0  0
   -8.5093   -2.4452   -1.2415 O   0  0  0  0  0  0  0  0  0  0  0  0
   -7.8597   -4.3722    0.3414 H   0  0  0  0  0  0  0  0  0  0  0  0
   -9.8069   -2.9003    1.2169 N   0  0  0  0  0  0  0  0  0  0  0  0
  -11.0208   -2.4076    1.8067 C   0  0  0  0  0  0  0  0  0  0  0  0
   -6.1009   -3.6498    2.7568 H   0  0  0  0  0  0  0  0  0  0  0  0
   -6.9403   -5.1728    2.5112 H   0  0  0  0  0  0  0  0  0  0  0  0
   -2.8538   -5.3754    2.5357 H   0  0  0  0  0  0  0  0  0  0  0  0
   -4.2556   -6.4292    3.0465 H   0  0  0  0  0  0  0  0  0  0  0  0
   -4.8890   -4.8602    4.8188 H   0  0  0  0  0  0  0  0  0  0  0  0
   -1.7919   -2.2428    4.1916 H   0  0  0  0  0  0  0  0  0  0  0  0
   -0.7914   -4.0610    2.5765 H   0  0  0  0  0  0  0  0  0  0  0  0
    1.2286   -7.9371    0.9556 H   0  0  0  0  0  0  0  0  0  0  0  0
   -0.8715   -7.2207   -2.8500 H   0  0  0  0  0  0  0  0  0  0  0  0
   -1.5421   -4.3984   -2.9322 H   0  0  0  0  0  0  0  0  0  0  0  0
   -1.2067   -5.9176   -4.9704 H   0  0  0  0  0  0  0  0  0  0  0  0
   -2.6861   -4.9324   -4.9883 H   0  0  0  0  0  0  0  0  0  0  0  0
   -2.5130   -7.9115   -4.2451 H   0  0  0  0  0  0  0  0  0  0  0  0
   -3.2583   -7.2135   -5.6982 H   0  0  0  0  0  0  0  0  0  0  0  0
   -3.6644   -7.4963   -2.1154 H   0  0  0  0  0  0  0  0  0  0  0  0
   -5.1758   -6.5604   -2.1945 H   0  0  0  0  0  0  0  0  0  0  0  0
   -3.2948   -5.1933   -1.2493 H   0  0  0  0  0  0  0  0  0  0  0  0
   -3.9441   -4.5025   -2.7353 H   0  0  0  0  0  0  0  0  0  0  0  0
   -1.7598   -2.9742   -0.8828 H   0  0  0  0  0  0  0  0  0  0  0  0
   -3.7304   -1.4839   -1.1157 H   0  0  0  0  0  0  0  0  0  0  0  0
   -4.3476   -1.4008    2.9750 H   0  0  0  0  0  0  0  0  0  0  0  0
   -6.0609   -2.1509    0.7310 H   0  0  0  0  0  0  0  0  0  0  0  0
   -5.9321   -0.4836   -0.7202 H   0  0  0  0  0  0  0  0  0  0  0  0
   -7.3154   -0.2241   -1.8530 H   0  0  0  0  0  0  0  0  0  0  0  0
   -6.0702   -1.4322   -2.2321 H   0  0  0  0  0  0  0  0  0  0  0  0
   -9.6525   -2.8235    0.2083 H   0  0  0  0  0  0  0  0  0  0  0  0
  -10.9432   -2.5296    2.8951 H   0  0  0  0  0  0  0  0  0  0  0  0
  -11.9002   -2.9684    1.4487 H   0  0  0  0  0  0  0  0  0  0  0  0
  -11.1827   -1.3386    1.5843 H   0  0  0  0  0  0  0  0  0  0  0  0
  2  1  2  0  0  0  0
  3 36  1  6  0  0  0
  3  2  1  0  0  0  0
  3  4  1  0  0  0  0
  4 40  1  0  0  0  0
  4 39  1  0  0  0  0
  5  4  1  0  0  0  0
  6 42  1  0  0  0  0
  6  7  1  0  0  0  0
  7  8  1  0  0  0  0
  7 43  1  0  0  0  0
  8 31  2  0  0  0  0
  9 44  1  0  0  0  0
  9  8  1  0  0  0  0
 10  9  1  0  0  0  0
 11 12  1  0  0  0  0
 11 10  2  0  0  0  0
 12 45  1  0  0  0  0
 13 14  1  0  0  0  0
 13 12  1  0  0  0  0
 14 15  1  0  0  0  0
 16 46  1  0  0  0  0
 16 14  2  0  0  0  0
 17 16  1  0  0  0  0
 18 17  2  0  0  0  0
 18 26  1  0  0  0  0
 19 18  1  0  0  0  0
 20 48  1  0  0  0  0
 20 19  1  0  0  0  0
 20 25  1  0  0  0  0
 21 20  1  0  0  0  0
 22 21  1  0  0  0  0
 22 51  1  0  0  0  0
 22 23  1  0  0  0  0
 23 24  1  0  0  0  0
 24 25  1  0  0  0  0
 24 54  1  0  0  0  0
 24 53  1  0  0  0  0
 25 55  1  0  0  0  0
 26 13  2  0  0  0  0
 27 11  1  0  0  0  0
 28 27  2  0  0  0  0
 28 29  1  0  0  0  0
 29 30  2  0  0  0  0
 30 10  1  0  0  0  0
 30 59  1  0  0  0  0
 32 60  1  0  0  0  0
 32  3  1  0  0  0  0
 33 32  1  0  0  0  0
 34 33  1  0  0  0  0
 34 61  1  0  0  0  0
 35 33  2  0  0  0  0
 37 38  1  0  0  0  0
 37  2  1  0  0  0  0
 38 65  1  0  0  0  0
 41  6  1  0  0  0  0
 47 19  1  0  0  0  0
 49 21  1  0  0  0  0
 50 21  1  0  0  0  0
 52 22  1  0  0  0  0
 56 25  1  0  0  0  0
 57 27  1  0  0  0  0
 58 28  1  0  0  0  0
 62 34  1  0  0  0  0
 63 34  1  0  0  0  0
 64 37  1  0  0  0  0
 66 38  1  0  0  0  0
 67 38  1  0  0  0  0
M  END
