74
-1 1
O        -3.895577    4.788286    2.942371
C        -3.214464    3.764882    2.818062
N        -2.319475    3.775782    1.639321
C        -2.396917    2.964129    0.535952
C        -3.037395    1.711031    0.554751
C        -2.970243    0.842043   -0.534319
C        -3.434470   -0.580416   -0.312286
N        -2.503836   -1.272720    0.575489
C        -1.379294   -1.868002    0.124803
C        -0.285548   -2.147827    0.995269
Cl        -0.299716   -1.592524    2.646514
C         0.802354   -2.799300    0.461024
N         0.875580   -3.164996   -0.821366
C        -0.177097   -2.836024   -1.569029
N        -0.167171   -3.142067   -2.902046
C         0.850820   -3.716507   -3.656569
C         0.831623   -3.863825   -5.033157
N         1.996711   -4.480961   -5.368640
C         2.488128   -4.751551   -6.697968
C         2.953154   -3.497435   -7.414432
O         1.836671   -2.718269   -7.729590
C         2.146381   -1.427332   -8.159480
N         2.766278   -4.724563   -4.311745
C         2.092329   -4.277487   -3.259649
N        -1.288545   -2.216385   -1.155945
C        -2.341804    1.232230   -1.717454
C        -1.774279    2.509396   -1.779267
C        -1.781472    3.353252   -0.678970
C        -3.174629    2.640957    3.652899
C        -2.189770    1.557254    3.640174
S        -0.733900    1.683376    4.887630
C         0.008050    3.233544    4.309314
C         1.228616    3.043085    3.397296
H         1.424725    3.988687    2.867180
N         1.004247    2.039439    2.384289
C         1.148155    2.284380    1.045274
C         0.718853    1.134153    0.160235
O         1.615925    3.319453    0.611517
C         2.489633    2.788705    4.238888
N         3.226147    1.711108    3.870814
C         4.436108    1.326846    4.542977
O         2.792152    3.530022    5.157195
H        -2.124145    4.744599    1.409186
H        -3.569637    1.422372    1.464123
H        -3.487229   -1.144015   -1.251070
H        -4.426107   -0.601762    0.163407
H        -2.443353   -0.895766    1.516372
H         1.664120   -3.028753    1.096562
H        -0.995059   -2.831225   -3.391288
H         0.110451   -3.560899   -5.787067
H         1.698182   -5.237047   -7.291769
H         3.323655   -5.453605   -6.582981
H         3.510219   -3.779785   -8.331963
H         3.652272   -2.945970   -6.755087
H         1.203111   -0.908584   -8.376010
H         2.763215   -1.435267   -9.079768
H         2.692338   -0.856631   -7.384225
H         2.486438   -4.353712   -2.251910
H        -2.267871    0.540516   -2.559414
H        -1.278261    2.839585   -2.696075
H        -1.276483    4.320952   -0.729759
H        -3.863821    2.687495    4.500384
H        -1.696150    1.431482    2.666802
H        -2.604477    0.578380    3.936842
H         0.312682    3.833947    5.175346
H        -0.790037    3.772566    3.776890
H         0.463473    1.230912    2.686681
H         0.860313    1.415206   -0.888047
H        -0.343842    0.899151    0.322080
H         1.306255    0.231044    0.385728
H         2.866449    1.162669    3.100761
H         5.301598    1.332782    3.859845
H         4.350664    0.323425    4.991094
H         4.614249    2.055637    5.344688
