-1 1
 OpenBabel05232413493D

 74 75  0  0  1  0  0  0  0  0999 V2000
   -1.3726    0.9222    4.4424 O   0  0  0  0  0  0  0  0  0  0  0  0
   -1.4547    0.7390    3.2434 C   0  0  0  0  0  0  0  0  0  0  0  0
   -1.7451    1.7988    2.3999 N   0  0  0  0  0  0  0  0  0  0  0  0
   -2.3653    1.7868    1.1354 C   0  0  0  0  0  0  0  0  0  0  0  0
   -3.3999    0.8865    0.8533 C   0  0  0  0  0  0  0  0  0  0  0  0
   -4.0061    0.8638   -0.3990 C   0  0  0  0  0  0  0  0  0  0  0  0
   -5.0966   -0.1430   -0.7311 C   0  0  0  0  0  0  0  0  0  0  0  0
   -5.1556   -1.2919    0.1438 N   0  0  0  0  0  0  0  0  0  0  0  0
   -4.1128   -2.1577    0.2316 C   0  0  0  0  0  0  0  0  0  0  0  0
   -4.0157   -3.1163    1.2723 C   0  0  0  0  0  0  0  0  0  0  0  0
   -5.2571   -3.2365    2.4948 Cl  0  0  0  0  0  0  0  0  0  0  0  0
   -2.8924   -3.9180    1.2904 C   0  0  0  0  0  0  0  0  0  0  0  0
   -1.9180   -3.8166    0.3910 N   0  0  0  0  0  0  0  0  0  0  0  0
   -2.0861   -2.8777   -0.5456 C   0  0  0  0  0  0  0  0  0  0  0  0
   -1.1066   -2.6691   -1.4638 N   0  0  0  0  0  0  0  0  0  0  0  0
    0.2343   -3.0615   -1.3843 C   0  0  0  0  0  0  0  0  0  0  0  0
    1.2601   -2.4650   -2.0948 C   0  0  0  0  0  0  0  0  0  0  0  0
    2.4013   -3.0812   -1.7046 N   0  0  0  0  0  0  0  0  0  0  0  0
    3.7485   -2.7777   -2.1426 C   0  0  0  0  0  0  0  0  0  0  0  0
    4.0505   -1.2929   -2.1856 C   0  0  0  0  0  0  0  0  0  0  0  0
    3.3839   -0.7103   -3.2800 O   0  0  0  0  0  0  0  0  0  0  0  0
    3.6642    0.6546   -3.4297 C   0  0  0  0  0  0  0  0  0  0  0  0
    2.1844   -4.0363   -0.8074 N   0  0  0  0  0  0  0  0  0  0  0  0
    0.8732   -4.0478   -0.5963 C   0  0  0  0  0  0  0  0  0  0  0  0
   -3.1542   -2.0771   -0.6775 N   0  0  0  0  0  0  0  0  0  0  0  0
   -3.6029    1.7882   -1.3681 C   0  0  0  0  0  0  0  0  0  0  0  0
   -2.5977    2.7080   -1.0830 C   0  0  0  0  0  0  0  0  0  0  0  0
   -1.9667    2.7015    0.1592 C   0  0  0  0  0  0  0  0  0  0  0  0
   -1.1476   -0.5915    2.6470 C   0  0  0  0  0  0  0  0  0  0  0  0
   -0.5375   -0.7811    1.4736 C   0  0  0  0  0  0  0  0  0  0  0  0
    2.8138    0.0447    1.1541 S   0  0  0  0  0  1  0  0  0  0  0  0
    2.0926    1.6951    1.5115 C   0  0  0  0  0  0  0  0  0  0  0  0
    1.9206    2.5939    0.2623 C   0  0  2  0  0  0  0  0  0  0  0  0
    1.2446    3.4352    0.4760 H   0  0  0  0  0  0  0  0  0  0  0  0
    1.3468    1.7859   -0.7904 N   0  0  0  0  0  0  0  0  0  0  0  0
    0.5988    2.2469   -1.8136 C   0  0  0  0  0  0  0  0  0  0  0  0
    0.0610    1.1542   -2.7235 C   0  0  0  0  0  0  0  0  0  0  0  0
    0.3251    3.4255   -1.9863 O   0  0  0  0  0  0  0  0  0  0  0  0
    3.2443    3.2643   -0.1471 C   0  0  0  0  0  0  0  0  0  0  0  0
    4.2387    2.3859   -0.4467 N   0  0  0  0  0  0  0  0  0  0  0  0
    5.5749    2.8277   -0.7361 C   0  0  0  0  0  0  0  0  0  0  0  0
    3.3718    4.4762   -0.1847 O   0  0  0  0  0  0  0  0  0  0  0  0
   -1.6684    2.6977    2.8633 H   0  0  0  0  0  0  0  0  0  0  0  0
   -3.7049    0.1778    1.6248 H   0  0  0  0  0  0  0  0  0  0  0  0
   -4.9461   -0.4887   -1.7649 H   0  0  0  0  0  0  0  0  0  0  0  0
   -6.0834    0.3445   -0.6960 H   0  0  0  0  0  0  0  0  0  0  0  0
   -5.7920   -1.2741    0.9287 H   0  0  0  0  0  0  0  0  0  0  0  0
   -2.7727   -4.6710    2.0766 H   0  0  0  0  0  0  0  0  0  0  0  0
   -1.3067   -1.8925   -2.0808 H   0  0  0  0  0  0  0  0  0  0  0  0
    1.2811   -1.6540   -2.8152 H   0  0  0  0  0  0  0  0  0  0  0  0
    3.9282   -3.2167   -3.1388 H   0  0  0  0  0  0  0  0  0  0  0  0
    4.4118   -3.2688   -1.4200 H   0  0  0  0  0  0  0  0  0  0  0  0
    5.1470   -1.1687   -2.3023 H   0  0  0  0  0  0  0  0  0  0  0  0
    3.7504   -0.8147   -1.2309 H   0  0  0  0  0  0  0  0  0  0  0  0
    3.0552    1.0335   -4.2621 H   0  0  0  0  0  0  0  0  0  0  0  0
    4.7331    0.8195   -3.6738 H   0  0  0  0  0  0  0  0  0  0  0  0
    3.4295    1.2311   -2.5180 H   0  0  0  0  0  0  0  0  0  0  0  0
    0.4192   -4.7306    0.1141 H   0  0  0  0  0  0  0  0  0  0  0  0
   -4.0633    1.7724   -2.3602 H   0  0  0  0  0  0  0  0  0  0  0  0
   -2.2360    3.4003   -1.8452 H   0  0  0  0  0  0  0  0  0  0  0  0
   -1.1338    3.3812    0.3479 H   0  0  0  0  0  0  0  0  0  0  0  0
   -1.2921   -1.4207    3.3446 H   0  0  0  0  0  0  0  0  0  0  0  0
   -0.3183    0.0404    0.7871 H   0  0  0  0  0  0  0  0  0  0  0  0
   -0.1899   -1.7716    1.1741 H   0  0  0  0  0  0  0  0  0  0  0  0
    2.7062    2.2402    2.2457 H   0  0  0  0  0  0  0  0  0  0  0  0
    1.0953    1.5671    1.9633 H   0  0  0  0  0  0  0  0  0  0  0  0
    1.5861    0.7904   -0.6885 H   0  0  0  0  0  0  0  0  0  0  0  0
   -0.2751    1.6062   -3.6644 H   0  0  0  0  0  0  0  0  0  0  0  0
   -0.8016    0.6755   -2.2322 H   0  0  0  0  0  0  0  0  0  0  0  0
    0.8244    0.3899   -2.9254 H   0  0  0  0  0  0  0  0  0  0  0  0
    4.0828    1.4209   -0.1058 H   0  0  0  0  0  0  0  0  0  0  0  0
    6.0211    2.2168   -1.5376 H   0  0  0  0  0  0  0  0  0  0  0  0
    6.2359    2.7701    0.1469 H   0  0  0  0  0  0  0  0  0  0  0  0
    5.5337    3.8755   -1.0624 H   0  0  0  0  0  0  0  0  0  0  0  0
  2  1  2  0  0  0  0
  3 43  1  0  0  0  0
  3  2  1  0  0  0  0
  4  3  1  0  0  0  0
  5  4  1  0  0  0  0
  5 44  1  0  0  0  0
  6  5  2  0  0  0  0
  7 46  1  0  0  0  0
  7  6  1  0  0  0  0
  7  8  1  0  0  0  0
  8  9  1  0  0  0  0
  8 47  1  0  0  0  0
  9 10  1  0  0  0  0
 10 12  2  0  0  0  0
 10 11  1  0  0  0  0
 12 48  1  0  0  0  0
 13 12  1  0  0  0  0
 14 13  2  0  0  0  0
 15 16  1  0  0  0  0
 15 14  1  0  0  0  0
 16 24  1  0  0  0  0
 17 18  1  0  0  0  0
 17 16  2  0  0  0  0
 18 23  1  0  0  0  0
 19 18  1  0  0  0  0
 19 52  1  0  0  0  0
 20 19  1  0  0  0  0
 20 54  1  0  0  0  0
 21 20  1  0  0  0  0
 22 21  1  0  0  0  0
 22 57  1  0  0  0  0
 23 24  2  0  0  0  0
 24 58  1  0  0  0  0
 25 14  1  0  0  0  0
 25  9  2  0  0  0  0
 26 27  2  0  0  0  0
 26  6  1  0  0  0  0
 27 28  1  0  0  0  0
 28 61  1  0  0  0  0
 28  4  2  0  0  0  0
 29  2  1  0  0  0  0
 29 62  1  0  0  0  0
 30 29  2  0  0  0  0
 31 32  1  0  0  0  0
 32 66  1  0  0  0  0
 32 65  1  0  0  0  0
 33 34  1  1  0  0  0
 33 32  1  0  0  0  0
 35 67  1  0  0  0  0
 35 33  1  0  0  0  0
 36 35  1  0  0  0  0
 37 69  1  0  0  0  0
 37 36  1  0  0  0  0
 38 36  2  0  0  0  0
 39 33  1  0  0  0  0
 40 39  1  0  0  0  0
 40 71  1  0  0  0  0
 41 40  1  0  0  0  0
 41 73  1  0  0  0  0
 42 39  2  0  0  0  0
 45  7  1  0  0  0  0
 49 15  1  0  0  0  0
 50 17  1  0  0  0  0
 51 19  1  0  0  0  0
 53 20  1  0  0  0  0
 55 22  1  0  0  0  0
 56 22  1  0  0  0  0
 59 26  1  0  0  0  0
 60 27  1  0  0  0  0
 63 30  1  0  0  0  0
 64 30  1  0  0  0  0
 68 37  1  0  0  0  0
 70 37  1  0  0  0  0
 72 41  1  0  0  0  0
 74 41  1  0  0  0  0
M  END
