-1 1
 OpenBabel05232414493D

 74 75  0  0  1  0  0  0  0  0999 V2000
    5.9901    5.1644   -9.2595 O   0  0  0  0  0  0  0  0  0  0  0  0
    6.5053    4.0907   -9.5524 C   0  0  0  0  0  0  0  0  0  0  0  0
    7.2545    4.0810  -10.7756 N   0  0  0  0  0  0  0  0  0  0  0  0
    7.2571    3.2029  -11.8416 C   0  0  0  0  0  0  0  0  0  0  0  0
    6.5477    1.9927  -11.8552 C   0  0  0  0  0  0  0  0  0  0  0  0
    6.6440    1.1086  -12.9318 C   0  0  0  0  0  0  0  0  0  0  0  0
    6.0763   -0.2817  -12.7518 C   0  0  0  0  0  0  0  0  0  0  0  0
    6.9433   -1.0646  -11.8779 N   0  0  0  0  0  0  0  0  0  0  0  0
    8.0553   -1.6843  -12.3361 C   0  0  0  0  0  0  0  0  0  0  0  0
    9.1148   -2.0482  -11.4577 C   0  0  0  0  0  0  0  0  0  0  0  0
    9.0816   -1.5709   -9.7845 Cl  0  0  0  0  0  0  0  0  0  0  0  0
   10.1916   -2.7101  -12.0028 C   0  0  0  0  0  0  0  0  0  0  0  0
   10.2780   -3.0140  -13.3002 N   0  0  0  0  0  0  0  0  0  0  0  0
    9.2566   -2.6087  -14.0524 C   0  0  0  0  0  0  0  0  0  0  0  0
    9.2864   -2.8468  -15.3989 N   0  0  0  0  0  0  0  0  0  0  0  0
   10.3081   -3.4064  -16.1603 C   0  0  0  0  0  0  0  0  0  0  0  0
   10.3352   -3.4487  -17.5439 C   0  0  0  0  0  0  0  0  0  0  0  0
   11.4845   -4.0915  -17.8849 N   0  0  0  0  0  0  0  0  0  0  0  0
   12.0192   -4.2743  -19.2125 C   0  0  0  0  0  0  0  0  0  0  0  0
   12.5824   -2.9910  -19.7945 C   0  0  0  0  0  0  0  0  0  0  0  0
   11.5242   -2.1240  -20.0800 O   0  0  0  0  0  0  0  0  0  0  0  0
   11.9208   -0.8175  -20.3695 C   0  0  0  0  0  0  0  0  0  0  0  0
   12.2028   -4.4471  -16.8235 N   0  0  0  0  0  0  0  0  0  0  0  0
   11.5088   -4.0506  -15.7644 C   0  0  0  0  0  0  0  0  0  0  0  0
    8.1589   -1.9689  -13.6307 N   0  0  0  0  0  0  0  0  0  0  0  0
    7.3858    1.4501  -14.0624 C   0  0  0  0  0  0  0  0  0  0  0  0
    8.0479    2.6801  -14.0839 C   0  0  0  0  0  0  0  0  0  0  0  0
    8.0053    3.5340  -12.9918 C   0  0  0  0  0  0  0  0  0  0  0  0
    6.4378    2.9138   -8.7244 C   0  0  0  0  0  3  0  0  0  0  0  0
    7.2474    1.7830   -8.7608 C   0  0  0  0  0  3  0  0  0  0  0  0
    9.2443    1.9484   -7.5350 S   0  0  0  0  0  1  0  0  0  0  0  0
    9.6572    3.5928   -8.1757 C   0  0  0  0  0  0  0  0  0  0  0  0
   10.6413    3.6017   -9.3708 C   0  0  2  0  0  0  0  0  0  0  0  0
   10.5578    4.5556   -9.9103 H   0  0  0  0  0  0  0  0  0  0  0  0
   10.3341    2.5169  -10.2677 N   0  0  0  0  0  0  0  0  0  0  0  0
   10.7609    2.4484  -11.5525 C   0  0  0  0  0  0  0  0  0  0  0  0
   10.4345    1.1333  -12.2361 C   0  0  0  0  0  0  0  0  0  0  0  0
   11.3636    3.3513  -12.1066 O   0  0  0  0  0  0  0  0  0  0  0  0
   12.0856    3.5651   -8.8502 C   0  0  0  0  0  0  0  0  0  0  0  0
   12.5323    2.3226   -8.5152 N   0  0  0  0  0  0  0  0  0  0  0  0
   13.7911    2.1187   -7.8513 C   0  0  0  0  0  0  0  0  0  0  0  0
   12.7451    4.5788   -8.7099 O   0  0  0  0  0  0  0  0  0  0  0  0
    7.4783    5.0372  -11.0276 H   0  0  0  0  0  0  0  0  0  0  0  0
    5.9337    1.7342  -10.9913 H   0  0  0  0  0  0  0  0  0  0  0  0
    5.9915   -0.8117  -13.7077 H   0  0  0  0  0  0  0  0  0  0  0  0
    5.0802   -0.2436  -12.2869 H   0  0  0  0  0  0  0  0  0  0  0  0
    7.0009   -0.7411  -10.9176 H   0  0  0  0  0  0  0  0  0  0  0  0
   11.0320   -2.9998  -11.3636 H   0  0  0  0  0  0  0  0  0  0  0  0
    8.4838   -2.4789  -15.8904 H   0  0  0  0  0  0  0  0  0  0  0  0
    9.6575   -3.0562  -18.2969 H   0  0  0  0  0  0  0  0  0  0  0  0
   11.2307   -4.6596  -19.8774 H   0  0  0  0  0  0  0  0  0  0  0  0
   12.8097   -5.0307  -19.1283 H   0  0  0  0  0  0  0  0  0  0  0  0
   13.1627   -3.2230  -20.7116 H   0  0  0  0  0  0  0  0  0  0  0  0
   13.2809   -2.5417  -19.0612 H   0  0  0  0  0  0  0  0  0  0  0  0
   11.0171   -0.2285  -20.5746 H   0  0  0  0  0  0  0  0  0  0  0  0
   12.5793   -0.7734  -21.2594 H   0  0  0  0  0  0  0  0  0  0  0  0
   12.4581   -0.3542  -19.5203 H   0  0  0  0  0  0  0  0  0  0  0  0
   11.8621   -4.2174  -14.7524 H   0  0  0  0  0  0  0  0  0  0  0  0
    7.4800    0.7455  -14.8913 H   0  0  0  0  0  0  0  0  0  0  0  0
    8.6500    2.9614  -14.9513 H   0  0  0  0  0  0  0  0  0  0  0  0
    8.5889    4.4573  -12.9999 H   0  0  0  0  0  0  0  0  0  0  0  0
    5.7880    3.0611   -7.8582 H   0  0  0  0  0  0  0  0  0  0  0  0
    7.7805    1.5317   -9.6795 H   0  0  0  0  0  0  0  0  0  0  0  0
    6.9428    0.9139   -8.1737 H   0  0  0  0  0  0  0  0  0  0  0  0
   10.0744    4.2207   -7.3756 H   0  0  0  0  0  0  0  0  0  0  0  0
    8.7081    4.0630   -8.4836 H   0  0  0  0  0  0  0  0  0  0  0  0
    9.8826    1.7171   -9.8247 H   0  0  0  0  0  0  0  0  0  0  0  0
   10.6438    1.2208  -13.3077 H   0  0  0  0  0  0  0  0  0  0  0  0
    9.3764    0.8689  -12.0938 H   0  0  0  0  0  0  0  0  0  0  0  0
   11.0509    0.3266  -11.8096 H   0  0  0  0  0  0  0  0  0  0  0  0
   11.8261    1.5936   -8.4600 H   0  0  0  0  0  0  0  0  0  0  0  0
   14.3510    1.2856   -8.3055 H   0  0  0  0  0  0  0  0  0  0  0  0
   13.6625    1.9080   -6.7755 H   0  0  0  0  0  0  0  0  0  0  0  0
   14.3767    3.0415   -7.9545 H   0  0  0  0  0  0  0  0  0  0  0  0
  2  1  2  0  0  0  0
  2 29  1  0  0  0  0
  3  2  1  0  0  0  0
  4  3  1  0  0  0  0
  5  4  1  0  0  0  0
  5 44  1  0  0  0  0
  6  7  1  0  0  0  0
  6  5  2  0  0  0  0
  7 46  1  0  0  0  0
  7  8  1  0  0  0  0
  8 47  1  0  0  0  0
  9  8  1  0  0  0  0
  9 10  1  0  0  0  0
 10 11  1  0  0  0  0
 12 10  2  0  0  0  0
 12 48  1  0  0  0  0
 13 12  1  0  0  0  0
 14 25  1  0  0  0  0
 14 13  2  0  0  0  0
 15 14  1  0  0  0  0
 16 24  1  0  0  0  0
 16 15  1  0  0  0  0
 17 16  2  0  0  0  0
 18 17  1  0  0  0  0
 18 23  1  0  0  0  0
 19 52  1  0  0  0  0
 19 18  1  0  0  0  0
 20 19  1  0  0  0  0
 20 54  1  0  0  0  0
 21 20  1  0  0  0  0
 22 21  1  0  0  0  0
 22 57  1  0  0  0  0
 23 24  2  0  0  0  0
 24 58  1  0  0  0  0
 25  9  2  0  0  0  0
 26  6  1  0  0  0  0
 27 26  2  0  0  0  0
 27 28  1  0  0  0  0
 28  4  2  0  0  0  0
 29 62  1  0  0  0  0
 30 29  1  0  0  0  0
 30 64  1  0  0  0  0
 32 31  1  0  0  0  0
 32 65  1  0  0  0  0
 33 34  1  6  0  0  0
 33 39  1  0  0  0  0
 33 32  1  0  0  0  0
 35 67  1  0  0  0  0
 35 33  1  0  0  0  0
 36 35  1  0  0  0  0
 37 69  1  0  0  0  0
 37 70  1  0  0  0  0
 37 36  1  0  0  0  0
 38 36  2  0  0  0  0
 39 42  2  0  0  0  0
 39 40  1  0  0  0  0
 40 71  1  0  0  0  0
 40 41  1  0  0  0  0
 41 73  1  0  0  0  0
 43  3  1  0  0  0  0
 45  7  1  0  0  0  0
 49 15  1  0  0  0  0
 50 17  1  0  0  0  0
 51 19  1  0  0  0  0
 53 20  1  0  0  0  0
 55 22  1  0  0  0  0
 56 22  1  0  0  0  0
 59 26  1  0  0  0  0
 60 27  1  0  0  0  0
 61 28  1  0  0  0  0
 63 30  1  0  0  0  0
 66 32  1  0  0  0  0
 68 37  1  0  0  0  0
 72 41  1  0  0  0  0
 74 41  1  0  0  0  0
M  END
