65
-1 1
O        -3.919358    1.685432    1.457839
C        -4.939005    1.642343    0.781624
C        -5.138357    0.633114   -0.375455
C        -4.198029   -0.563214   -0.191142
S        -3.922170   -1.610673   -1.650198
C        -2.272641   -0.928437   -2.278905
C        -2.256958    0.427763   -2.877718
C        -1.995930    1.636167   -2.230595
N        -1.662389    1.544292   -0.802376
C        -0.569253    1.024005   -0.205869
C        -0.496223    1.080795    1.228233
C         0.578501    0.572808    1.902035
C         0.481214    0.411273   -0.899535
C         1.587482   -0.111941   -0.214042
C         1.657037   -0.036695    1.207638
C         2.832827   -0.581317    1.800630
N         2.994327   -0.531094    3.165528
C         4.090275   -0.947838    3.902011
N         5.234527   -1.404029    3.351118
H         5.352877   -1.492405    2.343617
N         6.158584   -1.733652    4.262732
C         5.586323   -1.475169    5.426912
C         4.272143   -0.974107    5.278375
N         3.792708   -1.132648    1.078610
C         3.619056   -1.171564   -0.267917
C         4.707332   -1.822439   -1.057774
C         4.747672   -1.654307   -2.447824
C         5.754614   -2.248712   -3.202214
C         6.731572   -3.028337   -2.580932
C         6.690783   -3.212162   -1.199689
C         5.685427   -2.612573   -0.443480
N         2.599185   -0.695464   -0.926886
O        -2.140710    2.788525   -2.666354
N        -4.906319    1.311463   -1.631234
C        -5.799931    2.127112   -2.221565
C        -5.361808    2.644549   -3.571487
O        -6.880201    2.426027   -1.706703
H        -6.190204    0.299742   -0.357633
N        -5.983801    2.484724    0.944148
C        -5.911961    3.618171    1.829977
H        -3.222411   -0.196268    0.151199
H        -4.596482   -1.200306    0.610934
H        -2.259570    2.118347   -0.214962
H        -1.341011    1.517661    1.766386
H         0.574883    0.640011    2.993904
H         0.455452    0.336972   -1.986445
H         2.242360   -0.129410    3.703724
H         6.131386   -1.657150    6.352617
H         3.562996   -0.677611    6.046420
H         3.968365   -1.049264   -2.913692
H         5.776890   -2.103756   -4.284950
H         7.521393   -3.495819   -3.174077
H         7.444182   -3.829650   -0.705028
H         5.644350   -2.775828    0.634083
H        -4.044901    1.068196   -2.146492
H        -4.285682    2.889547   -3.550680
H        -5.963520    3.523967   -3.831001
H        -5.523217    1.864232   -4.331103
H        -6.648139    2.502235    0.161753
H        -5.140743    3.423857    2.586080
H        -6.878245    3.776857    2.331926
H        -5.642272    4.543897    1.293266
H        -2.501739    0.515811   -3.940407
H        -1.589859   -1.052424   -1.427152
H        -2.000903   -1.699485   -3.015907
