-1 1
 OpenBabel05232413493D

 65 67  0  0  1  0  0  0  0  0999 V2000
   -3.4863    2.6380    1.3110 O   0  0  0  0  0  0  0  0  0  0  0  0
   -4.5581    2.4697    0.7288 C   0  0  0  0  0  0  0  0  0  0  0  0
   -5.2971    1.1183    0.6632 C   0  0  2  0  0  0  0  0  0  0  0  0
   -4.7660    0.0690    1.6697 C   0  0  0  0  0  0  0  0  0  0  0  0
   -3.5080   -1.0929    1.0167 S   0  0  0  0  0  1  0  0  0  0  0  0
   -1.9655   -0.6606   -2.4067 C   0  0  0  0  0  0  0  0  0  0  0  0
   -1.9251    0.5927   -2.8617 C   0  0  0  0  0  0  0  0  0  0  0  0
   -2.2330    1.7757   -2.0006 C   0  0  0  0  0  0  0  0  0  0  0  0
   -1.6763    1.8594   -0.7492 N   0  0  0  0  0  0  0  0  0  0  0  0
   -0.6049    1.1630   -0.1924 C   0  0  0  0  0  0  0  0  0  0  0  0
   -0.7014    0.8218    1.1847 C   0  0  0  0  0  0  0  0  0  0  0  0
    0.3242    0.1528    1.8005 C   0  0  0  0  0  0  0  0  0  0  0  0
    0.5397    0.8496   -0.9033 C   0  0  0  0  0  0  0  0  0  0  0  0
    1.5972    0.1495   -0.2852 C   0  0  0  0  0  0  0  0  0  0  0  0
    1.4853   -0.2177    1.0800 C   0  0  0  0  0  0  0  0  0  0  0  0
    2.6057   -0.9363    1.6120 C   0  0  2  0  0  3  0  0  0  0  0  0
    2.5762   -1.3612    2.9144 N   0  0  0  0  0  0  0  0  0  0  0  0
    3.5851   -2.0016    3.6159 C   0  0  0  0  0  0  0  0  0  0  0  0
    4.8273   -2.2035    3.1271 N   0  0  0  0  0  0  0  0  0  0  0  0
    5.0960   -1.9292    2.1854 H   0  0  0  0  0  0  0  0  0  0  0  0
    5.6350   -2.8248    3.9954 N   0  0  0  0  0  0  0  0  0  0  0  0
    4.8860   -3.0188    5.0686 C   0  0  0  0  0  0  0  0  0  0  0  0
    3.5723   -2.5231    4.9017 C   0  0  0  0  0  0  0  0  0  0  0  0
    3.6751   -1.1961    0.8849 N   0  0  0  0  0  0  0  0  0  0  0  0
    3.6786   -0.7873   -0.4104 C   0  0  0  0  0  0  0  0  0  0  0  0
    4.8991   -1.1126   -1.2061 C   0  0  0  0  0  0  0  0  0  0  0  0
    5.1066   -0.4901   -2.4437 C   0  0  0  0  0  0  0  0  0  0  0  0
    6.2399   -0.7777   -3.1981 C   0  0  0  0  0  0  0  0  0  0  0  0
    7.1795   -1.6987   -2.7322 C   0  0  0  0  0  0  0  0  0  0  0  0
    6.9740   -2.3327   -1.5078 C   0  0  0  0  0  0  0  0  0  0  0  0
    5.8416   -2.0411   -0.7500 C   0  0  0  0  0  0  0  0  0  0  0  0
    2.7138   -0.1464   -1.0126 N   0  0  0  0  0  2  0  0  0  0  0  0
   -3.0345    2.6105   -2.3877 O   0  0  0  0  0  0  0  0  0  0  0  0
   -5.2072    0.5932   -0.6834 N   0  0  0  0  0  0  0  0  0  0  0  0
   -5.9284    1.0147   -1.7307 C   0  0  0  0  0  0  0  0  0  0  0  0
   -5.6127    0.3443   -3.0479 C   0  0  0  0  0  0  0  0  0  0  0  0
   -6.7616    1.9229   -1.6620 O   0  0  0  0  0  0  0  0  0  0  0  0
   -6.3590    1.3350    0.8738 H   0  0  0  0  0  0  0  0  0  0  0  0
   -5.1800    3.4602    0.0610 N   0  0  0  0  0  0  0  0  0  0  0  0
   -4.5152    4.7124   -0.2061 C   0  0  0  0  0  0  0  0  0  0  0  0
   -4.3647    0.6225    2.5313 H   0  0  0  0  0  0  0  0  0  0  0  0
   -5.6321   -0.5093    2.0276 H   0  0  0  0  0  0  0  0  0  0  0  0
   -2.2448    2.3834   -0.0734 H   0  0  0  0  0  0  0  0  0  0  0  0
   -1.6187    1.0768    1.7162 H   0  0  0  0  0  0  0  0  0  0  0  0
    0.2001   -0.1077    2.8541 H   0  0  0  0  0  0  0  0  0  0  0  0
    0.6586    1.1270   -1.9498 H   0  0  0  0  0  0  0  0  0  0  0  0
    1.7134   -1.2292    3.4211 H   0  0  0  0  0  0  0  0  0  0  0  0
    5.3067   -3.5150    5.9424 H   0  0  0  0  0  0  0  0  0  0  0  0
    2.7407   -2.5405    5.6007 H   0  0  0  0  0  0  0  0  0  0  0  0
    4.3563    0.2199   -2.7945 H   0  0  0  0  0  0  0  0  0  0  0  0
    6.3917   -0.2799   -4.1588 H   0  0  0  0  0  0  0  0  0  0  0  0
    8.0687   -1.9251   -3.3254 H   0  0  0  0  0  0  0  0  0  0  0  0
    7.6975   -3.0636   -1.1392 H   0  0  0  0  0  0  0  0  0  0  0  0
    5.6729   -2.5546    0.1973 H   0  0  0  0  0  0  0  0  0  0  0  0
   -4.5323   -0.1911   -0.7295 H   0  0  0  0  0  0  0  0  0  0  0  0
   -4.8716    0.9776   -3.5599 H   0  0  0  0  0  0  0  0  0  0  0  0
   -6.5239    0.3007   -3.6578 H   0  0  0  0  0  0  0  0  0  0  0  0
   -5.1847   -0.6594   -2.9213 H   0  0  0  0  0  0  0  0  0  0  0  0
   -5.9535    3.1677   -0.5469 H   0  0  0  0  0  0  0  0  0  0  0  0
   -3.9435    5.0192    0.6801 H   0  0  0  0  0  0  0  0  0  0  0  0
   -5.2625    5.4842   -0.4377 H   0  0  0  0  0  0  0  0  0  0  0  0
   -3.8201    4.6119   -1.0561 H   0  0  0  0  0  0  0  0  0  0  0  0
   -1.8222    0.8190   -3.9274 H   0  0  0  0  0  0  0  0  0  0  0  0
   -2.1462   -0.8796   -1.3445 H   0  0  0  0  0  0  0  0  0  0  0  0
   -1.8606   -1.5061   -3.0920 H   0  0  0  0  0  0  0  0  0  0  0  0
  2  1  2  0  0  0  0
  3  2  1  0  0  0  0
  3 38  1  1  0  0  0
  3  4  1  0  0  0  0
  4 42  1  0  0  0  0
  4 41  1  0  0  0  0
  5  4  1  0  0  0  0
  6 64  1  0  0  0  0
  7  6  2  0  0  0  0
  7  8  1  0  0  0  0
  8  9  1  0  0  0  0
  9 10  1  0  0  0  0
  9 43  1  0  0  0  0
 10 11  1  0  0  0  0
 11 44  1  0  0  0  0
 11 12  2  0  0  0  0
 12 45  1  0  0  0  0
 13 14  1  0  0  0  0
 13 10  2  0  0  0  0
 14 15  2  0  0  0  0
 15 16  1  0  0  0  0
 15 12  1  0  0  0  0
 16 17  1  1  0  0  0
 17 47  1  0  0  0  0
 17 18  1  0  0  0  0
 18 23  2  0  0  0  0
 19 18  1  0  0  0  0
 19 21  1  0  0  0  0
 20 19  1  0  0  0  0
 21 22  2  0  0  0  0
 22 48  1  0  0  0  0
 23 22  1  0  0  0  0
 23 49  1  0  0  0  0
 24 16  1  0  0  0  0
 25 24  2  0  0  0  0
 26 31  1  0  0  0  0
 26 25  1  0  0  0  0
 27 26  2  0  0  0  0
 28 29  2  0  0  0  0
 28 27  1  0  0  0  0
 29 30  1  0  0  0  0
 30 53  1  0  0  0  0
 30 31  2  0  0  0  0
 31 54  1  0  0  0  0
 32 25  1  0  0  0  0
 32 14  1  0  0  0  0
 33  8  2  0  0  0  0
 34  3  1  0  0  0  0
 35 37  2  0  0  0  0
 35 34  1  0  0  0  0
 36 58  1  0  0  0  0
 36 35  1  0  0  0  0
 39  2  1  0  0  0  0
 40 39  1  0  0  0  0
 40 60  1  0  0  0  0
 46 13  1  0  0  0  0
 50 27  1  0  0  0  0
 51 28  1  0  0  0  0
 52 29  1  0  0  0  0
 55 34  1  0  0  0  0
 56 36  1  0  0  0  0
 57 36  1  0  0  0  0
 59 39  1  0  0  0  0
 61 40  1  0  0  0  0
 62 40  1  0  0  0  0
 63  7  1  0  0  0  0
 65  6  1  0  0  0  0
M  END
