-1 1
 OpenBabel05232414493D

 65 67  0  0  1  0  0  0  0  0999 V2000
   -6.3266   -1.7171    0.0849 O   0  0  0  0  0  0  0  0  0  0  0  0
   -7.4252   -1.8452   -0.4476 C   0  0  0  0  0  0  0  0  0  0  0  0
   -7.7793   -3.0209   -1.3861 C   0  0  2  0  0  0  0  0  0  0  0  0
   -6.8813   -4.2398   -1.1258 C   0  0  0  0  0  0  0  0  0  0  0  0
   -6.8613   -5.4709   -2.4660 S   0  0  0  0  0  1  0  0  0  0  0  0
   -4.7685   -4.6532   -3.5430 C   0  0  0  0  0  3  0  0  0  0  0  0
   -4.7975   -3.4121   -4.1545 C   0  0  0  0  0  3  0  0  0  0  0  0
   -4.6996   -2.1358   -3.4923 C   0  0  0  0  0  0  0  0  0  0  0  0
   -4.2851   -2.1172   -2.1209 N   0  0  0  0  0  0  0  0  0  0  0  0
   -3.2131   -2.7011   -1.5138 C   0  0  0  0  0  0  0  0  0  0  0  0
   -3.2093   -2.7398   -0.0818 C   0  0  0  0  0  0  0  0  0  0  0  0
   -2.1587   -3.2861    0.6035 C   0  0  0  0  0  0  0  0  0  0  0  0
   -2.1248   -3.2381   -2.2002 C   0  0  0  0  0  0  0  0  0  0  0  0
   -1.0430   -3.8040   -1.5040 C   0  0  0  0  0  0  0  0  0  0  0  0
   -1.0452   -3.8350   -0.0819 C   0  0  0  0  0  0  0  0  0  0  0  0
    0.1102   -4.4155    0.5253 C   0  0  2  0  0  3  0  0  0  0  0  0
    0.2012   -4.4760    1.8939 N   0  0  0  0  0  0  0  0  0  0  0  0
    1.2659   -4.9387    2.6502 C   0  0  0  0  0  0  0  0  0  0  0  0
    2.4482   -5.3241    2.1257 N   0  0  0  0  0  0  0  0  0  0  0  0
    2.6249   -5.3260    1.1235 H   0  0  0  0  0  0  0  0  0  0  0  0
    3.3286   -5.7163    3.0550 N   0  0  0  0  0  0  0  0  0  0  0  0
    2.6891   -5.5714    4.2038 C   0  0  0  0  0  0  0  0  0  0  0  0
    1.3740   -5.0825    4.0265 C   0  0  0  0  0  0  0  0  0  0  0  0
    1.1111   -4.8924   -0.1914 N   0  0  0  0  0  0  0  0  0  0  0  0
    1.0056   -4.8260   -1.5442 C   0  0  0  0  0  0  0  0  0  0  0  0
    2.1434   -5.3950   -2.3260 C   0  0  0  0  0  0  0  0  0  0  0  0
    2.2535   -5.1132   -3.6937 C   0  0  0  0  0  0  0  0  0  0  0  0
    3.3085   -5.6312   -4.4385 C   0  0  0  0  0  0  0  0  0  0  0  0
    4.2644   -6.4468   -3.8308 C   0  0  0  0  0  0  0  0  0  0  0  0
    4.1544   -6.7437   -2.4733 C   0  0  0  0  0  0  0  0  0  0  0  0
    3.1010   -6.2205   -1.7260 C   0  0  0  0  0  0  0  0  0  0  0  0
    0.0090   -4.3139   -2.2125 N   0  0  0  0  0  2  0  0  0  0  0  0
   -5.0461   -1.0705   -3.9852 O   0  0  0  0  0  0  0  0  0  0  0  0
   -7.6354   -2.5757   -2.7580 N   0  0  0  0  0  0  0  0  0  0  0  0
   -8.5306   -1.8010   -3.4028 C   0  0  0  0  0  0  0  0  0  0  0  0
   -8.2464   -1.6206   -4.8758 C   0  0  0  0  0  0  0  0  0  0  0  0
   -9.4900   -1.2700   -2.8426 O   0  0  0  0  0  0  0  0  0  0  0  0
   -8.8366   -3.2889   -1.2146 H   0  0  0  0  0  0  0  0  0  0  0  0
   -8.4271   -0.9540   -0.2878 N   0  0  0  0  0  0  0  0  0  0  0  0
   -8.2190    0.2987    0.3924 C   0  0  0  0  0  0  0  0  0  0  0  0
   -5.8598   -3.8751   -0.9481 H   0  0  0  0  0  0  0  0  0  0  0  0
   -7.2115   -4.7062   -0.1855 H   0  0  0  0  0  0  0  0  0  0  0  0
   -4.9068   -1.5883   -1.5122 H   0  0  0  0  0  0  0  0  0  0  0  0
   -4.0824   -2.3434    0.4413 H   0  0  0  0  0  0  0  0  0  0  0  0
   -2.2122   -3.2956    1.6958 H   0  0  0  0  0  0  0  0  0  0  0  0
   -2.0916   -3.2390   -3.2889 H   0  0  0  0  0  0  0  0  0  0  0  0
   -0.5890   -4.1419    2.4238 H   0  0  0  0  0  0  0  0  0  0  0  0
    3.1875   -5.8245    5.1390 H   0  0  0  0  0  0  0  0  0  0  0  0
    0.6179   -4.8680    4.7768 H   0  0  0  0  0  0  0  0  0  0  0  0
    1.4906   -4.4821   -4.1518 H   0  0  0  0  0  0  0  0  0  0  0  0
    3.3851   -5.3983   -5.5033 H   0  0  0  0  0  0  0  0  0  0  0  0
    5.0917   -6.8546   -4.4168 H   0  0  0  0  0  0  0  0  0  0  0  0
    4.8907   -7.3906   -1.9908 H   0  0  0  0  0  0  0  0  0  0  0  0
    3.0055   -6.4721   -0.6691 H   0  0  0  0  0  0  0  0  0  0  0  0
   -7.0034   -3.1480   -3.3207 H   0  0  0  0  0  0  0  0  0  0  0  0
   -7.2070   -1.2785   -5.0042 H   0  0  0  0  0  0  0  0  0  0  0  0
   -8.9512   -0.8917   -5.2922 H   0  0  0  0  0  0  0  0  0  0  0  0
   -8.3577   -2.5822   -5.3999 H   0  0  0  0  0  0  0  0  0  0  0  0
   -9.1605   -1.0127   -1.0031 H   0  0  0  0  0  0  0  0  0  0  0  0
   -7.4195    0.1708    1.1331 H   0  0  0  0  0  0  0  0  0  0  0  0
   -9.1409    0.6117    0.9042 H   0  0  0  0  0  0  0  0  0  0  0  0
   -7.9157    1.1008   -0.3027 H   0  0  0  0  0  0  0  0  0  0  0  0
   -5.0847   -3.3372   -5.2069 H   0  0  0  0  0  0  0  0  0  0  0  0
   -4.3233   -4.7934   -2.5586 H   0  0  0  0  0  0  0  0  0  0  0  0
   -4.7706   -5.5472   -4.1671 H   0  0  0  0  0  0  0  0  0  0  0  0
  2 39  1  0  0  0  0
  2  1  2  0  0  0  0
  3 38  1  1  0  0  0
  3  4  1  0  0  0  0
  3  2  1  0  0  0  0
  4 41  1  0  0  0  0
  4 42  1  0  0  0  0
  5  4  1  0  0  0  0
  6 64  1  0  0  0  0
  7  6  1  0  0  0  0
  7  8  1  0  0  0  0
  8  9  1  0  0  0  0
  9 10  1  0  0  0  0
  9 43  1  0  0  0  0
 10 11  1  0  0  0  0
 11 44  1  0  0  0  0
 11 12  2  0  0  0  0
 12 45  1  0  0  0  0
 13 10  2  0  0  0  0
 13 14  1  0  0  0  0
 14 15  2  0  0  0  0
 15 16  1  0  0  0  0
 15 12  1  0  0  0  0
 16 17  1  1  0  0  0
 17 47  1  0  0  0  0
 17 18  1  0  0  0  0
 18 23  2  0  0  0  0
 19 18  1  0  0  0  0
 19 21  1  0  0  0  0
 20 19  1  0  0  0  0
 21 22  2  0  0  0  0
 22 48  1  0  0  0  0
 23 22  1  0  0  0  0
 23 49  1  0  0  0  0
 24 16  1  0  0  0  0
 25 24  2  0  0  0  0
 26 31  1  0  0  0  0
 26 25  1  0  0  0  0
 27 26  2  0  0  0  0
 28 29  2  0  0  0  0
 28 27  1  0  0  0  0
 29 30  1  0  0  0  0
 30 53  1  0  0  0  0
 30 31  2  0  0  0  0
 31 54  1  0  0  0  0
 32 25  1  0  0  0  0
 32 14  1  0  0  0  0
 33  8  2  0  0  0  0
 34  3  1  0  0  0  0
 35 37  2  0  0  0  0
 35 34  1  0  0  0  0
 36 35  1  0  0  0  0
 39 40  1  0  0  0  0
 40 61  1  0  0  0  0
 40 60  1  0  0  0  0
 46 13  1  0  0  0  0
 50 27  1  0  0  0  0
 51 28  1  0  0  0  0
 52 29  1  0  0  0  0
 55 34  1  0  0  0  0
 56 36  1  0  0  0  0
 57 36  1  0  0  0  0
 58 36  1  0  0  0  0
 59 39  1  0  0  0  0
 62 40  1  0  0  0  0
 63  7  1  0  0  0  0
 65  6  1  0  0  0  0
M  END
