65
-1 1
O        -6.326614   -1.717117    0.084909
C        -7.425239   -1.845195   -0.447642
C        -7.779332   -3.020920   -1.386110
C        -6.881331   -4.239775   -1.125756
S        -6.861267   -5.470877   -2.465965
C        -4.768469   -4.653242   -3.542961
C        -4.797465   -3.412056   -4.154493
C        -4.699628   -2.135795   -3.492252
N        -4.285068   -2.117243   -2.120887
C        -3.213079   -2.701056   -1.513833
C        -3.209309   -2.739837   -0.081821
C        -2.158721   -3.286073    0.603500
C        -2.124796   -3.238137   -2.200243
C        -1.043048   -3.804023   -1.504001
C        -1.045175   -3.834981   -0.081916
C         0.110187   -4.415547    0.525272
N         0.201238   -4.475960    1.893923
C         1.265924   -4.938676    2.650188
N         2.448188   -5.324145    2.125668
H         2.624856   -5.326017    1.123453
N         3.328581   -5.716302    3.055040
C         2.689103   -5.571353    4.203814
C         1.373955   -5.082530    4.026505
N         1.111074   -4.892397   -0.191421
C         1.005554   -4.825961   -1.544221
C         2.143436   -5.395028   -2.326032
C         2.253517   -5.113164   -3.693683
C         3.308540   -5.631218   -4.438535
C         4.264352   -6.446810   -3.830838
C         4.154412   -6.743683   -2.473253
C         3.101029   -6.220530   -1.726004
N         0.008951   -4.313891   -2.212490
O        -5.046099   -1.070544   -3.985192
N        -7.635397   -2.575704   -2.758041
C        -8.530619   -1.800962   -3.402764
C        -8.246410   -1.620609   -4.875838
O        -9.489977   -1.270018   -2.842585
H        -8.836624   -3.288934   -1.214568
N        -8.427142   -0.953972   -0.287754
C        -8.218953    0.298677    0.392368
H        -5.859773   -3.875079   -0.948087
H        -7.211532   -4.706236   -0.185483
H        -4.906759   -1.588291   -1.512210
H        -4.082427   -2.343395    0.441285
H        -2.212208   -3.295643    1.695755
H        -2.091641   -3.238991   -3.288856
H        -0.588979   -4.141865    2.423840
H         3.187483   -5.824481    5.138950
H         0.617862   -4.867963    4.776791
H         1.490616   -4.482105   -4.151825
H         3.385104   -5.398310   -5.503250
H         5.091651   -6.854584   -4.416785
H         4.890723   -7.390612   -1.990815
H         3.005501   -6.472142   -0.669116
H        -7.003435   -3.148023   -3.320671
H        -7.206995   -1.278548   -5.004185
H        -8.951206   -0.891651   -5.292210
H        -8.357695   -2.582212   -5.399932
H        -9.160494   -1.012650   -1.003094
H        -7.419529    0.170826    1.133135
H        -9.140850    0.611667    0.904215
H        -7.915720    1.100751   -0.302677
H        -5.084726   -3.337242   -5.206864
H        -4.323314   -4.793362   -2.558640
H        -4.770565   -5.547193   -4.167113
