-1 1
 OpenBabel05192410563D

 65 68  0  0  1  0  0  0  0  0999 V2000
   -3.9194    1.6854    1.4578 O   0  0  0  0  0  0  0  0  0  0  0  0
   -4.9390    1.6423    0.7816 C   0  0  0  0  0  0  0  0  0  0  0  0
   -5.1384    0.6331   -0.3755 C   0  0  2  0  0  0  0  0  0  0  0  0
   -4.1980   -0.5632   -0.1911 C   0  0  0  0  0  0  0  0  0  0  0  0
   -3.9222   -1.6107   -1.6502 S   0  0  0  0  0  0  0  0  0  0  0  0
   -2.2726   -0.9284   -2.2789 C   0  0  0  0  0  0  0  0  0  0  0  0
   -2.2570    0.4278   -2.8777 C   0  0  0  0  0  3  0  0  0  0  0  0
   -1.9959    1.6362   -2.2306 C   0  0  0  0  0  0  0  0  0  0  0  0
   -1.6624    1.5443   -0.8024 N   0  0  0  0  0  0  0  0  0  0  0  0
   -0.5693    1.0240   -0.2059 C   0  0  0  0  0  0  0  0  0  0  0  0
   -0.4962    1.0808    1.2282 C   0  0  0  0  0  0  0  0  0  0  0  0
    0.5785    0.5728    1.9020 C   0  0  0  0  0  0  0  0  0  0  0  0
    0.4812    0.4113   -0.8995 C   0  0  0  0  0  0  0  0  0  0  0  0
    1.5875   -0.1119   -0.2140 C   0  0  0  0  0  0  0  0  0  0  0  0
    1.6570   -0.0367    1.2076 C   0  0  0  0  0  0  0  0  0  0  0  0
    2.8328   -0.5813    1.8006 C   0  0  2  0  0  3  0  0  0  0  0  0
    2.9943   -0.5311    3.1655 N   0  0  0  0  0  0  0  0  0  0  0  0
    4.0903   -0.9478    3.9020 C   0  0  0  0  0  0  0  0  0  0  0  0
    5.2345   -1.4040    3.3511 N   0  0  0  0  0  0  0  0  0  0  0  0
    5.3529   -1.4924    2.3436 H   0  0  0  0  0  0  0  0  0  0  0  0
    6.1586   -1.7337    4.2627 N   0  0  0  0  0  0  0  0  0  0  0  0
    5.5863   -1.4752    5.4269 C   0  0  0  0  0  0  0  0  0  0  0  0
    4.2721   -0.9741    5.2784 C   0  0  0  0  0  0  0  0  0  0  0  0
    3.7927   -1.1326    1.0786 N   0  0  0  0  0  0  0  0  0  0  0  0
    3.6191   -1.1716   -0.2679 C   0  0  0  0  0  0  0  0  0  0  0  0
    4.7073   -1.8224   -1.0578 C   0  0  0  0  0  0  0  0  0  0  0  0
    4.7477   -1.6543   -2.4478 C   0  0  0  0  0  0  0  0  0  0  0  0
    5.7546   -2.2487   -3.2022 C   0  0  0  0  0  0  0  0  0  0  0  0
    6.7316   -3.0283   -2.5809 C   0  0  0  0  0  0  0  0  0  0  0  0
    6.6908   -3.2122   -1.1997 C   0  0  0  0  0  0  0  0  0  0  0  0
    5.6854   -2.6126   -0.4435 C   0  0  0  0  0  0  0  0  0  0  0  0
    2.5992   -0.6955   -0.9269 N   0  0  0  0  0  2  0  0  0  0  0  0
   -2.1407    2.7885   -2.6664 O   0  0  0  0  0  0  0  0  0  0  0  0
   -4.9063    1.3115   -1.6312 N   0  0  0  0  0  0  0  0  0  0  0  0
   -5.7999    2.1271   -2.2216 C   0  0  0  0  0  0  0  0  0  0  0  0
   -5.3618    2.6445   -3.5715 C   0  0  0  0  0  0  0  0  0  0  0  0
   -6.8802    2.4260   -1.7067 O   0  0  0  0  0  0  0  0  0  0  0  0
   -6.1902    0.2997   -0.3576 H   0  0  0  0  0  0  0  0  0  0  0  0
   -5.9838    2.4847    0.9441 N   0  0  0  0  0  0  0  0  0  0  0  0
   -5.9120    3.6182    1.8300 C   0  0  0  0  0  0  0  0  0  0  0  0
   -3.2224   -0.1963    0.1512 H   0  0  0  0  0  0  0  0  0  0  0  0
   -4.5965   -1.2003    0.6109 H   0  0  0  0  0  0  0  0  0  0  0  0
   -2.2596    2.1183   -0.2150 H   0  0  0  0  0  0  0  0  0  0  0  0
   -1.3410    1.5177    1.7664 H   0  0  0  0  0  0  0  0  0  0  0  0
    0.5749    0.6400    2.9939 H   0  0  0  0  0  0  0  0  0  0  0  0
    0.4555    0.3370   -1.9864 H   0  0  0  0  0  0  0  0  0  0  0  0
    2.2424   -0.1294    3.7037 H   0  0  0  0  0  0  0  0  0  0  0  0
    6.1314   -1.6571    6.3526 H   0  0  0  0  0  0  0  0  0  0  0  0
    3.5630   -0.6776    6.0464 H   0  0  0  0  0  0  0  0  0  0  0  0
    3.9684   -1.0493   -2.9137 H   0  0  0  0  0  0  0  0  0  0  0  0
    5.7769   -2.1038   -4.2850 H   0  0  0  0  0  0  0  0  0  0  0  0
    7.5214   -3.4958   -3.1741 H   0  0  0  0  0  0  0  0  0  0  0  0
    7.4442   -3.8296   -0.7050 H   0  0  0  0  0  0  0  0  0  0  0  0
    5.6444   -2.7758    0.6341 H   0  0  0  0  0  0  0  0  0  0  0  0
   -4.0449    1.0682   -2.1465 H   0  0  0  0  0  0  0  0  0  0  0  0
   -4.2857    2.8895   -3.5507 H   0  0  0  0  0  0  0  0  0  0  0  0
   -5.9635    3.5240   -3.8310 H   0  0  0  0  0  0  0  0  0  0  0  0
   -5.5232    1.8642   -4.3311 H   0  0  0  0  0  0  0  0  0  0  0  0
   -6.6481    2.5022    0.1618 H   0  0  0  0  0  0  0  0  0  0  0  0
   -5.1407    3.4239    2.5861 H   0  0  0  0  0  0  0  0  0  0  0  0
   -6.8782    3.7769    2.3319 H   0  0  0  0  0  0  0  0  0  0  0  0
   -5.6423    4.5439    1.2933 H   0  0  0  0  0  0  0  0  0  0  0  0
   -2.5017    0.5158   -3.9404 H   0  0  0  0  0  0  0  0  0  0  0  0
   -1.5899   -1.0524   -1.4272 H   0  0  0  0  0  0  0  0  0  0  0  0
   -2.0009   -1.6995   -3.0159 H   0  0  0  0  0  0  0  0  0  0  0  0
  2 39  1  0  0  0  0
  2  1  2  0  0  0  0
  3 38  1  1  0  0  0
  3  4  1  0  0  0  0
  3  2  1  0  0  0  0
  4 41  1  0  0  0  0
  4 42  1  0  0  0  0
  5  4  1  0  0  0  0
  6  5  1  0  0  0  0
  6 64  1  0  0  0  0
  7  6  1  0  0  0  0
  7  8  1  0  0  0  0
  8  9  1  0  0  0  0
  9 43  1  0  0  0  0
  9 10  1  0  0  0  0
 10 11  1  0  0  0  0
 11 44  1  0  0  0  0
 11 12  2  0  0  0  0
 12 45  1  0  0  0  0
 13 14  1  0  0  0  0
 13 10  2  0  0  0  0
 14 15  2  0  0  0  0
 15 16  1  0  0  0  0
 15 12  1  0  0  0  0
 16 17  1  6  0  0  0
 17 47  1  0  0  0  0
 17 18  1  0  0  0  0
 18 23  2  0  0  0  0
 19 18  1  0  0  0  0
 19 21  1  0  0  0  0
 20 19  1  0  0  0  0
 21 22  2  0  0  0  0
 22 48  1  0  0  0  0
 23 22  1  0  0  0  0
 23 49  1  0  0  0  0
 24 16  1  0  0  0  0
 25 24  2  0  0  0  0
 26 31  1  0  0  0  0
 26 25  1  0  0  0  0
 27 26  2  0  0  0  0
 28 29  2  0  0  0  0
 28 27  1  0  0  0  0
 29 30  1  0  0  0  0
 30 53  1  0  0  0  0
 30 31  2  0  0  0  0
 31 54  1  0  0  0  0
 32 25  1  0  0  0  0
 32 14  1  0  0  0  0
 33  8  2  0  0  0  0
 34  3  1  0  0  0  0
 35 37  2  0  0  0  0
 35 34  1  0  0  0  0
 36 56  1  0  0  0  0
 36 35  1  0  0  0  0
 39 40  1  0  0  0  0
 40 61  1  0  0  0  0
 40 60  1  0  0  0  0
 46 13  1  0  0  0  0
 50 27  1  0  0  0  0
 51 28  1  0  0  0  0
 52 29  1  0  0  0  0
 55 34  1  0  0  0  0
 57 36  1  0  0  0  0
 58 36  1  0  0  0  0
 59 39  1  0  0  0  0
 62 40  1  0  0  0  0
 63  7  1  0  0  0  0
 65  6  1  0  0  0  0
M  END
