-1 1
 OpenBabel05232413493D

 65 67  0  0  1  0  0  0  0  0999 V2000
   -4.7258    0.1747    1.4103 O   0  0  0  0  0  0  0  0  0  0  0  0
   -4.2163    1.2868    1.4430 C   0  0  0  0  0  0  0  0  0  0  0  0
   -2.7277    1.4249    1.7933 C   0  0  2  0  0  0  0  0  0  0  0  0
   -2.3647    0.3936    2.8841 C   0  0  0  0  0  0  0  0  0  0  0  0
   -0.6333    0.5059    3.4538 S   0  0  0  0  0  1  0  0  0  0  0  0
   -3.1310    1.5631   -1.8325 C   0  0  0  0  0  0  0  0  0  0  0  0
   -4.1629    0.7193   -1.8775 C   0  0  0  0  0  0  0  0  0  0  0  0
   -4.2138   -0.5330   -2.6897 C   0  0  0  0  0  0  0  0  0  0  0  0
   -3.0942   -1.3353   -2.7558 N   0  0  0  0  0  0  0  0  0  0  0  0
   -1.9401   -1.3615   -1.9477 C   0  0  0  0  0  0  0  0  0  0  0  0
   -2.0314   -1.1900   -0.5442 C   0  0  0  0  0  0  0  0  0  0  0  0
   -0.8854   -1.1754    0.2171 C   0  0  0  0  0  0  0  0  0  0  0  0
   -0.7125   -1.6062   -2.5361 C   0  0  0  0  0  0  0  0  0  0  0  0
    0.4691   -1.6321   -1.7607 C   0  0  0  0  0  0  0  0  0  0  0  0
    0.3813   -1.3585   -0.3761 C   0  0  0  0  0  0  0  0  0  0  0  0
    1.6394   -1.2774    0.3315 C   0  0  2  0  0  3  0  0  0  0  0  0
    1.6688   -0.8719    1.6179 N   0  0  0  0  0  0  0  0  0  0  0  0
    2.7992   -0.7426    2.4140 C   0  0  0  0  0  0  0  0  0  0  0  0
    4.0694   -0.9076    1.9770 N   0  0  0  0  0  0  0  0  0  0  0  0
    4.2930   -1.1462    1.0159 H   0  0  0  0  0  0  0  0  0  0  0  0
    4.9805   -0.7153    2.9369 N   0  0  0  0  0  0  0  0  0  0  0  0
    4.2680   -0.4158    4.0148 C   0  0  0  0  0  0  0  0  0  0  0  0
    2.8795   -0.4147    3.7596 C   0  0  0  0  0  0  0  0  0  0  0  0
    2.7724   -1.5858   -0.2925 N   0  0  0  0  0  0  0  0  0  0  0  0
    2.7231   -1.9110   -1.6035 C   0  0  0  0  0  0  0  0  0  0  0  0
    4.0206   -2.2938   -2.2386 C   0  0  0  0  0  0  0  0  0  0  0  0
    5.1381   -2.6248   -1.4641 C   0  0  0  0  0  0  0  0  0  0  0  0
    6.3390   -2.9861   -2.0716 C   0  0  0  0  0  0  0  0  0  0  0  0
    6.4388   -3.0183   -3.4618 C   0  0  0  0  0  0  0  0  0  0  0  0
    5.3266   -2.6961   -4.2411 C   0  0  0  0  0  0  0  0  0  0  0  0
    4.1253   -2.3419   -3.6344 C   0  0  0  0  0  0  0  0  0  0  0  0
    1.6593   -1.9103   -2.3671 N   0  0  0  0  0  2  0  0  0  0  0  0
   -5.2054   -0.8151   -3.3345 O   0  0  0  0  0  0  0  0  0  0  0  0
   -2.2448    2.7200    2.2546 N   0  0  0  0  0  0  0  0  0  0  0  0
   -2.1344    3.8534    1.5421 C   0  0  0  0  0  0  0  0  0  0  0  0
   -1.1560    4.8694    2.0933 C   0  0  0  0  0  0  0  0  0  0  0  0
   -2.7662    4.0910    0.5097 O   0  0  0  0  0  0  0  0  0  0  0  0
   -2.1894    1.1600    0.8637 H   0  0  0  0  0  0  0  0  0  0  0  0
   -4.8930    2.4201    1.1428 N   0  0  0  0  0  0  0  0  0  0  0  0
   -6.2696    2.3919    0.7218 C   0  0  0  0  0  0  0  0  0  0  0  0
   -3.0403    0.5536    3.7402 H   0  0  0  0  0  0  0  0  0  0  0  0
   -2.6122   -0.6012    2.4923 H   0  0  0  0  0  0  0  0  0  0  0  0
   -3.1657   -2.0420   -3.4799 H   0  0  0  0  0  0  0  0  0  0  0  0
   -3.0043   -1.0504   -0.0666 H   0  0  0  0  0  0  0  0  0  0  0  0
   -0.9567   -1.0154    1.2946 H   0  0  0  0  0  0  0  0  0  0  0  0
   -0.6219   -1.7669   -3.6119 H   0  0  0  0  0  0  0  0  0  0  0  0
    0.8026   -0.5039    2.0775 H   0  0  0  0  0  0  0  0  0  0  0  0
    4.7741   -0.2085    4.9573 H   0  0  0  0  0  0  0  0  0  0  0  0
    2.0455   -0.2073    4.4252 H   0  0  0  0  0  0  0  0  0  0  0  0
    5.0560   -2.6162   -0.3766 H   0  0  0  0  0  0  0  0  0  0  0  0
    7.2009   -3.2454   -1.4526 H   0  0  0  0  0  0  0  0  0  0  0  0
    7.3818   -3.2973   -3.9382 H   0  0  0  0  0  0  0  0  0  0  0  0
    5.3967   -2.7218   -5.3313 H   0  0  0  0  0  0  0  0  0  0  0  0
    3.2412   -2.0954   -4.2240 H   0  0  0  0  0  0  0  0  0  0  0  0
   -1.5201    2.5552    2.9704 H   0  0  0  0  0  0  0  0  0  0  0  0
   -0.9689    4.7398    3.1674 H   0  0  0  0  0  0  0  0  0  0  0  0
   -1.5357    5.8786    1.8906 H   0  0  0  0  0  0  0  0  0  0  0  0
   -0.1999    4.7492    1.5614 H   0  0  0  0  0  0  0  0  0  0  0  0
   -4.3253    3.2443    0.9326 H   0  0  0  0  0  0  0  0  0  0  0  0
   -6.3781    2.6889   -0.3352 H   0  0  0  0  0  0  0  0  0  0  0  0
   -6.8877    3.0704    1.3319 H   0  0  0  0  0  0  0  0  0  0  0  0
   -6.6442    1.3667    0.8380 H   0  0  0  0  0  0  0  0  0  0  0  0
   -5.1094    0.9549   -1.3863 H   0  0  0  0  0  0  0  0  0  0  0  0
   -2.1861    1.3376   -2.3363 H   0  0  0  0  0  0  0  0  0  0  0  0
   -3.1806    2.4992   -1.2680 H   0  0  0  0  0  0  0  0  0  0  0  0
  1  2  2  0  0  0  0
  2  3  1  0  0  0  0
  3 38  1  6  0  0  0
  3 34  1  0  0  0  0
  3  4  1  0  0  0  0
  4  5  1  0  0  0  0
  4 41  1  0  0  0  0
  6 65  1  0  0  0  0
  7  6  2  0  0  0  0
  7 63  1  0  0  0  0
  8  7  1  0  0  0  0
  9  8  1  0  0  0  0
  9 10  1  0  0  0  0
 10 11  1  0  0  0  0
 11 44  1  0  0  0  0
 11 12  2  0  0  0  0
 12 45  1  0  0  0  0
 13 10  2  0  0  0  0
 13 14  1  0  0  0  0
 14 15  2  0  0  0  0
 15 12  1  0  0  0  0
 15 16  1  0  0  0  0
 16 17  1  6  0  0  0
 17 47  1  0  0  0  0
 17 18  1  0  0  0  0
 18 23  2  0  0  0  0
 19 18  1  0  0  0  0
 19 21  1  0  0  0  0
 20 19  1  0  0  0  0
 21 22  2  0  0  0  0
 22 48  1  0  0  0  0
 23 22  1  0  0  0  0
 23 49  1  0  0  0  0
 24 16  1  0  0  0  0
 25 24  2  0  0  0  0
 26 25  1  0  0  0  0
 26 27  1  0  0  0  0
 27 50  1  0  0  0  0
 28 27  2  0  0  0  0
 28 51  1  0  0  0  0
 29 28  1  0  0  0  0
 30 31  1  0  0  0  0
 30 29  2  0  0  0  0
 31 26  2  0  0  0  0
 32 14  1  0  0  0  0
 32 25  1  0  0  0  0
 33  8  2  0  0  0  0
 34 55  1  0  0  0  0
 35 36  1  0  0  0  0
 35 34  1  0  0  0  0
 36 56  1  0  0  0  0
 37 35  2  0  0  0  0
 39  2  1  0  0  0  0
 40 62  1  0  0  0  0
 40 39  1  0  0  0  0
 40 61  1  0  0  0  0
 42  4  1  0  0  0  0
 43  9  1  0  0  0  0
 46 13  1  0  0  0  0
 52 29  1  0  0  0  0
 53 30  1  0  0  0  0
 54 31  1  0  0  0  0
 57 36  1  0  0  0  0
 58 36  1  0  0  0  0
 59 39  1  0  0  0  0
 60 40  1  0  0  0  0
 64  6  1  0  0  0  0
M  END
