-1 1
 OpenBabel05192410563D

 65 68  0  0  1  0  0  0  0  0999 V2000
   -5.8217    1.0797    2.6222 O   0  0  0  0  0  0  0  0  0  0  0  0
   -5.3108    1.3864    1.5484 C   0  0  0  0  0  0  0  0  0  0  0  0
   -4.4916    2.6816    1.4251 C   0  0  2  0  0  0  0  0  0  0  0  0
   -2.9953    2.3205    1.4890 C   0  0  0  0  0  0  0  0  0  0  0  0
   -1.8289    3.5927    0.9360 S   0  0  0  0  0  0  0  0  0  0  0  0
   -1.8887    3.3773   -0.9786 C   0  0  0  0  0  0  0  0  0  0  0  0
   -2.9963    2.5374   -1.4486 C   0  0  0  0  0  3  0  0  0  0  0  0
   -3.0477    1.2191   -1.8614 C   0  0  0  0  0  0  0  0  0  0  0  0
   -1.8577    0.4613   -2.2488 N   0  0  0  0  0  0  0  0  0  0  0  0
   -0.7198    0.0838   -1.6144 C   0  0  0  0  0  0  0  0  0  0  0  0
   -0.3215    0.6136   -0.3461 C   0  0  0  0  0  0  0  0  0  0  0  0
    0.8422    0.2154    0.2545 C   0  0  0  0  0  0  0  0  0  0  0  0
    0.1175   -0.8768   -2.2047 C   0  0  0  0  0  0  0  0  0  0  0  0
    1.3077   -1.2959   -1.5969 C   0  0  0  0  0  0  0  0  0  0  0  0
    1.6975   -0.7420   -0.3449 C   0  0  0  0  0  0  0  0  0  0  0  0
    2.9383   -1.2105    0.1805 C   0  0  2  0  0  3  0  0  0  0  0  0
    3.4096   -0.7046    1.3660 N   0  0  0  0  0  0  0  0  0  0  0  0
    4.6094   -1.0001    1.9930 C   0  0  0  0  0  0  0  0  0  0  0  0
    5.5605   -1.7940    1.4573 N   0  0  0  0  0  0  0  0  0  0  0  0
    5.4443   -2.2481    0.5539 H   0  0  0  0  0  0  0  0  0  0  0  0
    6.6378   -1.9206    2.2420 N   0  0  0  0  0  0  0  0  0  0  0  0
    6.3654   -1.1820    3.3052 C   0  0  0  0  0  0  0  0  0  0  0  0
    5.0947   -0.5674    3.2193 C   0  0  0  0  0  0  0  0  0  0  0  0
    3.6639   -2.1201   -0.4470 N   0  0  0  0  0  0  0  0  0  0  0  0
    3.1868   -2.6033   -1.6231 C   0  0  0  0  0  0  0  0  0  0  0  0
    4.0157   -3.6508   -2.2923 C   0  0  0  0  0  0  0  0  0  0  0  0
    5.0349   -4.3231   -1.6085 C   0  0  0  0  0  0  0  0  0  0  0  0
    5.7945   -5.2999   -2.2497 C   0  0  0  0  0  0  0  0  0  0  0  0
    5.5457   -5.6159   -3.5844 C   0  0  0  0  0  0  0  0  0  0  0  0
    4.5259   -4.9553   -4.2712 C   0  0  0  0  0  0  0  0  0  0  0  0
    3.7637   -3.9841   -3.6292 C   0  0  0  0  0  0  0  0  0  0  0  0
    2.0835   -2.2381   -2.2163 N   0  0  0  0  0  2  0  0  0  0  0  0
   -4.1094    0.5697   -2.0587 O   0  0  0  0  0  0  0  0  0  0  0  0
   -4.8938    3.5723    2.4828 N   0  0  0  0  0  0  0  0  0  0  0  0
   -5.3081    4.8492    2.2638 C   0  0  0  0  0  0  0  0  0  0  0  0
   -5.7901    5.5754    3.5094 C   0  0  0  0  0  0  0  0  0  0  0  0
   -5.2640    5.4038    1.1830 O   0  0  0  0  0  0  0  0  0  0  0  0
   -4.7072    3.1758    0.4716 H   0  0  0  0  0  0  0  0  0  0  0  0
   -5.3659    0.6160    0.4509 N   0  0  0  0  0  0  0  0  0  0  0  0
   -5.9932   -0.6808    0.4849 C   0  0  0  0  0  0  0  0  0  0  0  0
   -2.7262    2.0864    2.5306 H   0  0  0  0  0  0  0  0  0  0  0  0
   -2.8325    1.4131    0.8927 H   0  0  0  0  0  0  0  0  0  0  0  0
   -2.1449   -0.1774   -2.9832 H   0  0  0  0  0  0  0  0  0  0  0  0
   -0.9386    1.3519    0.1584 H   0  0  0  0  0  0  0  0  0  0  0  0
    1.0810    0.6678    1.2213 H   0  0  0  0  0  0  0  0  0  0  0  0
   -0.1414   -1.3234   -3.1665 H   0  0  0  0  0  0  0  0  0  0  0  0
    2.8387   -0.0159    1.8325 H   0  0  0  0  0  0  0  0  0  0  0  0
    7.0898   -1.1080    4.1157 H   0  0  0  0  0  0  0  0  0  0  0  0
    4.6029    0.0882    3.9326 H   0  0  0  0  0  0  0  0  0  0  0  0
    5.2187   -4.0924   -0.5585 H   0  0  0  0  0  0  0  0  0  0  0  0
    6.5834   -5.8185   -1.7001 H   0  0  0  0  0  0  0  0  0  0  0  0
    6.1433   -6.3793   -4.0885 H   0  0  0  0  0  0  0  0  0  0  0  0
    4.3226   -5.2002   -5.3165 H   0  0  0  0  0  0  0  0  0  0  0  0
    2.9560   -3.4623   -4.1445 H   0  0  0  0  0  0  0  0  0  0  0  0
   -5.1853    3.0911    3.3281 H   0  0  0  0  0  0  0  0  0  0  0  0
   -6.1388    4.8955    4.2999 H   0  0  0  0  0  0  0  0  0  0  0  0
   -6.5975    6.2624    3.2262 H   0  0  0  0  0  0  0  0  0  0  0  0
   -4.9582    6.1758    3.9078 H   0  0  0  0  0  0  0  0  0  0  0  0
   -4.9292    0.8666   -0.4543 H   0  0  0  0  0  0  0  0  0  0  0  0
   -7.0941   -0.6094    0.5079 H   0  0  0  0  0  0  0  0  0  0  0  0
   -5.6813   -1.2451    1.3774 H   0  0  0  0  0  0  0  0  0  0  0  0
   -5.6885   -1.2233   -0.4192 H   0  0  0  0  0  0  0  0  0  0  0  0
   -3.9927    2.9776   -1.3680 H   0  0  0  0  0  0  0  0  0  0  0  0
   -0.8967    3.0058   -1.2714 H   0  0  0  0  0  0  0  0  0  0  0  0
   -1.9822    4.4188   -1.3153 H   0  0  0  0  0  0  0  0  0  0  0  0
  2  1  2  0  0  0  0
  3 38  1  6  0  0  0
  3  4  1  0  0  0  0
  3  2  1  0  0  0  0
  3 34  1  0  0  0  0
  4 41  1  0  0  0  0
  5  4  1  0  0  0  0
  6  5  1  0  0  0  0
  7 63  1  0  0  0  0
  7  6  1  0  0  0  0
  8  7  1  0  0  0  0
  9  8  1  0  0  0  0
  9 10  1  0  0  0  0
 10 11  1  0  0  0  0
 11 44  1  0  0  0  0
 11 12  2  0  0  0  0
 12 45  1  0  0  0  0
 13 10  2  0  0  0  0
 13 14  1  0  0  0  0
 14 15  2  0  0  0  0
 15 16  1  0  0  0  0
 15 12  1  0  0  0  0
 16 17  1  6  0  0  0
 17 47  1  0  0  0  0
 17 18  1  0  0  0  0
 18 23  2  0  0  0  0
 19 18  1  0  0  0  0
 19 21  1  0  0  0  0
 20 19  1  0  0  0  0
 21 22  2  0  0  0  0
 22 48  1  0  0  0  0
 23 22  1  0  0  0  0
 23 49  1  0  0  0  0
 24 16  1  0  0  0  0
 25 24  2  0  0  0  0
 26 25  1  0  0  0  0
 26 27  1  0  0  0  0
 27 50  1  0  0  0  0
 28 51  1  0  0  0  0
 28 27  2  0  0  0  0
 29 28  1  0  0  0  0
 30 31  1  0  0  0  0
 30 29  2  0  0  0  0
 31 26  2  0  0  0  0
 32 25  1  0  0  0  0
 32 14  1  0  0  0  0
 33  8  2  0  0  0  0
 34 55  1  0  0  0  0
 35 34  1  0  0  0  0
 35 36  1  0  0  0  0
 36 58  1  0  0  0  0
 36 56  1  0  0  0  0
 37 35  2  0  0  0  0
 39 40  1  0  0  0  0
 39  2  1  0  0  0  0
 40 60  1  0  0  0  0
 40 61  1  0  0  0  0
 42  4  1  0  0  0  0
 43  9  1  0  0  0  0
 46 13  1  0  0  0  0
 52 29  1  0  0  0  0
 53 30  1  0  0  0  0
 54 31  1  0  0  0  0
 57 36  1  0  0  0  0
 59 39  1  0  0  0  0
 62 40  1  0  0  0  0
 64  6  1  0  0  0  0
 65  6  1  0  0  0  0
M  END
