65
-1 1
O        -5.821662    1.079720    2.622172
C        -5.310792    1.386417    1.548443
C        -4.491597    2.681620    1.425058
C        -2.995347    2.320464    1.489016
S        -1.828903    3.592720    0.935974
C        -1.888732    3.377258   -0.978553
C        -2.996330    2.537386   -1.448635
C        -3.047668    1.219053   -1.861394
N        -1.857728    0.461282   -2.248775
C        -0.719779    0.083817   -1.614415
C        -0.321531    0.613618   -0.346133
C         0.842188    0.215352    0.254509
C         0.117495   -0.876755   -2.204680
C         1.307721   -1.295863   -1.596916
C         1.697463   -0.741984   -0.344944
C         2.938340   -1.210475    0.180540
N         3.409570   -0.704554    1.366020
C         4.609390   -1.000097    1.993042
N         5.560453   -1.793973    1.457252
H         5.444324   -2.248104    0.553919
N         6.637816   -1.920601    2.242015
C         6.365430   -1.182016    3.305248
C         5.094712   -0.567441    3.219257
N         3.663864   -2.120143   -0.446977
C         3.186845   -2.603334   -1.623109
C         4.015698   -3.650754   -2.292273
C         5.034912   -4.323137   -1.608511
C         5.794459   -5.299877   -2.249661
C         5.545717   -5.615947   -3.584371
C         4.525922   -4.955284   -4.271184
C         3.763746   -3.984076   -3.629208
N         2.083517   -2.238072   -2.216293
O        -4.109421    0.569686   -2.058718
N        -4.893797    3.572329    2.482813
C        -5.308124    4.849229    2.263841
C        -5.790056    5.575428    3.509428
O        -5.264008    5.403790    1.182971
H        -4.707205    3.175834    0.471599
N        -5.365854    0.616050    0.450931
C        -5.993165   -0.680837    0.484928
H        -2.726151    2.086369    2.530602
H        -2.832452    1.413112    0.892661
H        -2.144902   -0.177398   -2.983239
H        -0.938570    1.351882    0.158397
H         1.081018    0.667783    1.221262
H        -0.141425   -1.323408   -3.166516
H         2.838681   -0.015887    1.832452
H         7.089752   -1.107999    4.115703
H         4.602894    0.088223    3.932560
H         5.218733   -4.092436   -0.558548
H         6.583393   -5.818480   -1.700065
H         6.143329   -6.379313   -4.088537
H         4.322611   -5.200151   -5.316456
H         2.956011   -3.462282   -4.144466
H        -5.185300    3.091057    3.328115
H        -6.138846    4.895547    4.299880
H        -6.597479    6.262424    3.226209
H        -4.958210    6.175784    3.907767
H        -4.929172    0.866612   -0.454347
H        -7.094125   -0.609405    0.507920
H        -5.681301   -1.245088    1.377369
H        -5.688537   -1.223290   -0.419211
H        -3.992666    2.977552   -1.368009
H        -0.896710    3.005844   -1.271378
H        -1.982176    4.418752   -1.315301
