65
-1 1
O        -4.725845    0.174656    1.410276
C        -4.216313    1.286783    1.442979
C        -2.727689    1.424862    1.793296
C        -2.364718    0.393560    2.884070
S        -0.633297    0.505896    3.453845
C        -3.131002    1.563145   -1.832509
C        -4.162898    0.719295   -1.877534
C        -4.213846   -0.532987   -2.689652
N        -3.094185   -1.335272   -2.755813
C        -1.940132   -1.361532   -1.947674
C        -2.031371   -1.189983   -0.544202
C        -0.885372   -1.175409    0.217097
C        -0.712536   -1.606161   -2.536115
C         0.469143   -1.632144   -1.760719
C         0.381271   -1.358501   -0.376058
C         1.639400   -1.277388    0.331493
N         1.668848   -0.871896    1.617920
C         2.799231   -0.742642    2.413962
N         4.069413   -0.907586    1.977049
H         4.292974   -1.146192    1.015941
N         4.980459   -0.715302    2.936924
C         4.268004   -0.415805    4.014762
C         2.879488   -0.414680    3.759592
N         2.772380   -1.585756   -0.292501
C         2.723092   -1.910979   -1.603534
C         4.020594   -2.293767   -2.238592
C         5.138128   -2.624752   -1.464072
C         6.338965   -2.986094   -2.071603
C         6.438789   -3.018326   -3.461776
C         5.326636   -2.696124   -4.241137
C         4.125319   -2.341934   -3.634362
N         1.659313   -1.910306   -2.367058
O        -5.205430   -0.815109   -3.334465
N        -2.244821    2.719959    2.254560
C        -2.134395    3.853394    1.542114
C        -1.156013    4.869382    2.093280
O        -2.766159    4.090994    0.509749
H        -2.189397    1.160011    0.863720
N        -4.892998    2.420125    1.142789
C        -6.269634    2.391924    0.721824
H        -3.040294    0.553613    3.740216
H        -2.612175   -0.601170    2.492344
H        -3.165696   -2.042036   -3.479881
H        -3.004301   -1.050380   -0.066591
H        -0.956665   -1.015422    1.294608
H        -0.621866   -1.766946   -3.611861
H         0.802620   -0.503880    2.077516
H         4.774133   -0.208533    4.957278
H         2.045470   -0.207255    4.425221
H         5.055978   -2.616223   -0.376570
H         7.200929   -3.245409   -1.452621
H         7.381845   -3.297264   -3.938247
H         5.396711   -2.721799   -5.331334
H         3.241205   -2.095394   -4.224048
H        -1.520147    2.555197    2.970378
H        -0.968862    4.739766    3.167389
H        -1.535665    5.878646    1.890628
H        -0.199872    4.749223    1.561353
H        -4.325327    3.244260    0.932647
H        -6.378053    2.688870   -0.335190
H        -6.887749    3.070351    1.331921
H        -6.644232    1.366689    0.837975
H        -5.109435    0.954912   -1.386274
H        -2.186104    1.337592   -2.336281
H        -3.180599    2.499240   -1.267965
