-1 1
 OpenBabel05192410563D

 90 93  0  0  1  0  0  0  0  0999 V2000
    6.7625    6.7353   -3.8858 O   0  0  0  0  0  0  0  0  0  0  0  0
    5.8305    6.9612   -4.6390 C   0  0  0  0  0  0  0  0  0  0  0  0
    4.3856    6.4847   -4.3697 C   0  0  2  0  0  0  0  0  0  0  0  0
    4.2457    5.9402   -2.9484 C   0  0  0  0  0  0  0  0  0  0  0  0
    2.5442    5.9075   -2.3002 S   0  0  0  0  0  0  0  0  0  0  0  0
    2.1692    4.0654   -2.2837 C   0  0  0  0  0  0  0  0  0  0  0  0
    2.4002    3.4009   -3.5825 C   0  0  0  0  0  3  0  0  0  0  0  0
    3.5911    2.7997   -3.9510 C   0  0  0  0  0  0  0  0  0  0  0  0
    4.4690    2.2723   -2.9311 N   0  0  0  0  0  0  0  0  0  0  0  0
    4.1971    1.3813   -1.9193 C   0  0  0  0  0  0  0  0  0  0  0  0
    2.8942    0.9760   -1.5772 C   0  0  0  0  0  0  0  0  0  0  0  0
    2.6837    0.0932   -0.5220 C   0  0  0  0  0  0  0  0  0  0  0  0
    1.3373   -0.2088   -0.1764 N   0  0  0  0  0  0  0  0  0  0  0  0
    0.7825   -1.3590    0.2707 C   0  0  0  0  0  0  0  0  0  0  0  0
    1.2102   -2.6922   -0.0245 C   0  0  0  0  0  0  0  0  0  0  0  0
    2.2555   -3.1063   -1.0250 C   0  0  0  0  0  0  0  0  0  0  0  0
    2.3412   -2.2693   -2.0540 F   0  0  0  0  0  0  0  0  0  0  0  0
    3.4815   -3.2368   -0.4989 F   0  0  0  0  0  0  0  0  0  0  0  0
    1.9536   -4.3180   -1.5336 F   0  0  0  0  0  0  0  0  0  0  0  0
    0.4901   -3.7000    0.6061 C   0  0  0  0  0  0  0  0  0  0  0  0
   -0.5497   -3.5112    1.4089 N   0  0  0  0  0  0  0  0  0  0  0  0
   -0.9262   -2.2348    1.5487 C   0  0  0  0  0  0  0  0  0  0  0  0
   -2.0298   -1.9263    2.2916 N   0  0  0  0  0  0  0  0  0  0  0  0
   -2.9363   -2.7286    2.9833 C   0  0  0  0  0  0  0  0  0  0  0  0
   -3.9795   -2.0479    3.6511 C   0  0  0  0  0  0  0  0  0  0  0  0
   -3.9555   -0.6967    3.5224 O   0  0  0  0  0  0  0  0  0  0  0  0
   -4.9428    0.0757    4.1442 C   0  0  0  0  0  0  0  0  0  0  0  0
   -4.9495   -2.7441    4.3673 C   0  0  0  0  0  0  0  0  0  0  0  0
   -4.8994   -4.1452    4.4619 C   0  0  0  0  0  0  0  0  0  0  0  0
   -5.8593   -4.8793    5.1990 N   0  0  0  0  0  0  0  0  0  0  0  0
   -6.6259   -5.8623    4.4533 C   0  0  0  0  0  0  0  0  0  0  0  0
   -7.2970   -6.8518    5.3985 C   0  0  0  0  0  0  0  0  0  0  0  0
   -8.0915   -6.1475    6.3846 N   0  0  0  0  0  0  0  0  0  0  0  0
   -7.3476   -5.1390    7.1156 C   0  0  0  0  0  0  0  0  0  0  0  0
   -6.6782   -4.1634    6.1549 C   0  0  0  0  0  0  0  0  0  0  0  0
   -9.4211   -6.3450    6.6517 C   0  0  0  0  0  0  0  0  0  0  0  0
  -10.1402   -7.4102    5.8427 C   0  0  0  0  0  0  0  0  0  0  0  0
  -10.0107   -5.6991    7.4980 O   0  0  0  0  0  0  0  0  0  0  0  0
   -3.8590   -4.8130    3.8127 C   0  0  0  0  0  0  0  0  0  0  0  0
   -2.8995   -4.1208    3.0766 C   0  0  0  0  0  0  0  0  0  0  0  0
   -0.3070   -1.1783    1.0267 N   0  0  0  0  0  0  0  0  0  0  0  0
    3.7421   -0.4141    0.2314 C   0  0  0  0  0  0  0  0  0  0  0  0
    5.0380   -0.0502   -0.1344 C   0  0  0  0  0  0  0  0  0  0  0  0
    5.2693    0.8291   -1.1817 C   0  0  0  0  0  0  0  0  0  0  0  0
    4.0730    2.7276   -5.1172 O   0  0  0  0  0  0  0  0  0  0  0  0
    3.9608    5.5404   -5.3848 N   0  0  0  0  0  0  0  0  0  0  0  0
    3.4279    5.9356   -6.5537 C   0  0  0  0  0  0  0  0  0  0  0  0
    2.8681    4.8194   -7.4065 C   0  0  0  0  0  0  0  0  0  0  0  0
    3.3834    7.1155   -6.9149 O   0  0  0  0  0  0  0  0  0  0  0  0
    3.7410    7.3736   -4.4793 H   0  0  0  0  0  0  0  0  0  0  0  0
    5.9420    7.6660   -5.7936 N   0  0  0  0  0  0  0  0  0  0  0  0
    7.2070    8.1250   -6.2966 C   0  0  0  0  0  0  0  0  0  0  0  0
    4.6683    4.9279   -2.8725 H   0  0  0  0  0  0  0  0  0  0  0  0
    4.8435    6.5747   -2.2822 H   0  0  0  0  0  0  0  0  0  0  0  0
    5.4126    2.2178   -3.2982 H   0  0  0  0  0  0  0  0  0  0  0  0
    2.0540    1.3492   -2.1644 H   0  0  0  0  0  0  0  0  0  0  0  0
    0.7524    0.5940    0.0320 H   0  0  0  0  0  0  0  0  0  0  0  0
    0.7727   -4.7416    0.4265 H   0  0  0  0  0  0  0  0  0  0  0  0
   -2.2201   -0.9323    2.3379 H   0  0  0  0  0  0  0  0  0  0  0  0
   -4.7154    1.1235    3.9138 H   0  0  0  0  0  0  0  0  0  0  0  0
   -4.9361   -0.0594    5.2400 H   0  0  0  0  0  0  0  0  0  0  0  0
   -5.9501   -0.1636    3.7609 H   0  0  0  0  0  0  0  0  0  0  0  0
   -5.7587   -2.1944    4.8435 H   0  0  0  0  0  0  0  0  0  0  0  0
   -5.9634   -6.4072    3.7685 H   0  0  0  0  0  0  0  0  0  0  0  0
   -7.4091   -5.3698    3.8346 H   0  0  0  0  0  0  0  0  0  0  0  0
   -6.5161   -7.4438    5.9103 H   0  0  0  0  0  0  0  0  0  0  0  0
   -7.9196   -7.5451    4.8222 H   0  0  0  0  0  0  0  0  0  0  0  0
   -6.5719   -5.6299    7.7301 H   0  0  0  0  0  0  0  0  0  0  0  0
   -8.0486   -4.6207    7.7800 H   0  0  0  0  0  0  0  0  0  0  0  0
   -6.0403   -3.4779    6.7315 H   0  0  0  0  0  0  0  0  0  0  0  0
   -7.4668   -3.5551    5.6583 H   0  0  0  0  0  0  0  0  0  0  0  0
  -10.1433   -7.1696    4.7690 H   0  0  0  0  0  0  0  0  0  0  0  0
  -11.1745   -7.4481    6.2014 H   0  0  0  0  0  0  0  0  0  0  0  0
   -9.6786   -8.4008    5.9692 H   0  0  0  0  0  0  0  0  0  0  0  0
   -3.7779   -5.8983    3.8991 H   0  0  0  0  0  0  0  0  0  0  0  0
   -2.0899   -4.6467    2.5754 H   0  0  0  0  0  0  0  0  0  0  0  0
    3.5584   -1.0757    1.0787 H   0  0  0  0  0  0  0  0  0  0  0  0
    5.8871   -0.4484    0.4266 H   0  0  0  0  0  0  0  0  0  0  0  0
    6.2919    1.1168   -1.4391 H   0  0  0  0  0  0  0  0  0  0  0  0
    4.0634    4.5201   -5.2338 H   0  0  0  0  0  0  0  0  0  0  0  0
    3.0886    3.8318   -6.9772 H   0  0  0  0  0  0  0  0  0  0  0  0
    3.2719    4.9078   -8.4250 H   0  0  0  0  0  0  0  0  0  0  0  0
    1.7783    4.9574   -7.4694 H   0  0  0  0  0  0  0  0  0  0  0  0
    5.0926    7.7495   -6.3610 H   0  0  0  0  0  0  0  0  0  0  0  0
    7.9724    7.9062   -5.5403 H   0  0  0  0  0  0  0  0  0  0  0  0
    7.1960    9.2113   -6.4858 H   0  0  0  0  0  0  0  0  0  0  0  0
    7.4850    7.6160   -7.2353 H   0  0  0  0  0  0  0  0  0  0  0  0
    1.7801    3.7349   -4.4188 H   0  0  0  0  0  0  0  0  0  0  0  0
    2.7700    3.6411   -1.4676 H   0  0  0  0  0  0  0  0  0  0  0  0
    1.1162    4.0616   -1.9547 H   0  0  0  0  0  0  0  0  0  0  0  0
  2  3  1  0  0  0  0
  2  1  2  0  0  0  0
  3 50  1  6  0  0  0
  3  4  1  0  0  0  0
  4 53  1  0  0  0  0
  4  5  1  0  0  0  0
  4 54  1  0  0  0  0
  5  6  1  0  0  0  0
  6 90  1  0  0  0  0
  6 89  1  0  0  0  0
  7  6  1  0  0  0  0
  8  7  1  0  0  0  0
  8  9  1  0  0  0  0
  9 10  1  0  0  0  0
 10 11  2  0  0  0  0
 10 44  1  0  0  0  0
 11 12  1  0  0  0  0
 12 13  1  0  0  0  0
 12 42  2  0  0  0  0
 13 57  1  0  0  0  0
 13 14  1  0  0  0  0
 14 41  2  0  0  0  0
 15 14  1  0  0  0  0
 15 20  2  0  0  0  0
 16 18  1  0  0  0  0
 16 15  1  0  0  0  0
 17 16  1  0  0  0  0
 19 16  1  0  0  0  0
 20 21  1  0  0  0  0
 21 22  2  0  0  0  0
 22 23  1  0  0  0  0
 23 59  1  0  0  0  0
 23 24  1  0  0  0  0
 24 40  2  0  0  0  0
 24 25  1  0  0  0  0
 25 28  2  0  0  0  0
 26 25  1  0  0  0  0
 26 27  1  0  0  0  0
 27 61  1  0  0  0  0
 28 29  1  0  0  0  0
 28 63  1  0  0  0  0
 29 30  1  0  0  0  0
 30 35  1  0  0  0  0
 31 30  1  0  0  0  0
 31 32  1  0  0  0  0
 32 66  1  0  0  0  0
 32 33  1  0  0  0  0
 33 36  1  0  0  0  0
 33 34  1  0  0  0  0
 34 68  1  0  0  0  0
 34 69  1  0  0  0  0
 35 70  1  0  0  0  0
 35 34  1  0  0  0  0
 36 38  2  0  0  0  0
 37 74  1  0  0  0  0
 37 73  1  0  0  0  0
 37 36  1  0  0  0  0
 39 75  1  0  0  0  0
 39 29  2  0  0  0  0
 40 39  1  0  0  0  0
 41 22  1  0  0  0  0
 42 77  1  0  0  0  0
 43 42  1  0  0  0  0
 43 78  1  0  0  0  0
 44 43  2  0  0  0  0
 45  8  2  0  0  0  0
 46 80  1  0  0  0  0
 46  3  1  0  0  0  0
 47 46  1  0  0  0  0
 48 81  1  0  0  0  0
 48 47  1  0  0  0  0
 49 47  2  0  0  0  0
 51  2  1  0  0  0  0
 52 51  1  0  0  0  0
 52 85  1  0  0  0  0
 55  9  1  0  0  0  0
 56 11  1  0  0  0  0
 58 20  1  0  0  0  0
 60 27  1  0  0  0  0
 62 27  1  0  0  0  0
 64 31  1  0  0  0  0
 65 31  1  0  0  0  0
 67 32  1  0  0  0  0
 71 35  1  0  0  0  0
 72 37  1  0  0  0  0
 76 40  1  0  0  0  0
 79 44  1  0  0  0  0
 82 48  1  0  0  0  0
 83 48  1  0  0  0  0
 84 51  1  0  0  0  0
 86 52  1  0  0  0  0
 87 52  1  0  0  0  0
 88  7  1  0  0  0  0
M  END
