-1 1
 OpenBabel05232414493D

 90 92  0  0  1  0  0  0  0  0999 V2000
    9.7079    1.9231  -11.2891 O   0  0  0  0  0  0  0  0  0  0  0  0
    9.4953    3.1138  -11.4365 C   0  0  0  0  0  0  0  0  0  0  0  0
    8.4632    3.9156  -10.6091 C   0  0  2  0  0  0  0  0  0  0  0  0
    7.9090    3.1211   -9.4198 C   0  0  0  0  0  0  0  0  0  0  0  0
    7.5983    4.0663   -7.8974 S   0  0  0  0  0  1  0  0  0  0  0  0
    4.9652    4.4676   -8.3457 C   0  0  0  0  0  3  0  0  0  0  0  0
    4.7197    4.2610   -9.6674 C   0  0  0  0  0  3  0  0  0  0  0  0
    4.4506    3.0550  -10.4331 C   0  0  0  0  0  0  0  0  0  0  0  0
    4.0582    1.8416   -9.8786 N   0  0  0  0  0  0  0  0  0  0  0  0
    4.0138    1.3232   -8.5726 C   0  0  0  0  0  0  0  0  0  0  0  0
    2.8655    0.6257   -8.1797 C   0  0  0  0  0  0  0  0  0  0  0  0
    2.7931    0.0250   -6.9250 C   0  0  0  0  0  0  0  0  0  0  0  0
    1.5782   -0.6145   -6.5338 N   0  0  0  0  0  0  0  0  0  0  0  0
    1.4064   -1.8487   -5.9975 C   0  0  0  0  0  0  0  0  0  0  0  0
    2.2173   -2.9987   -6.2484 C   0  0  0  0  0  0  0  0  0  0  0  0
    3.3182   -3.0994   -7.2691 C   0  0  0  0  0  0  0  0  0  0  0  0
    2.9994   -2.4787   -8.4084 F   0  0  0  0  0  0  0  0  0  0  0  0
    4.4880   -2.6072   -6.8546 F   0  0  0  0  0  0  0  0  0  0  0  0
    3.5482   -4.3869   -7.5835 F   0  0  0  0  0  0  0  0  0  0  0  0
    1.8545   -4.1433   -5.5494 C   0  0  0  0  0  0  0  0  0  0  0  0
    0.8244   -4.2335   -4.7168 N   0  0  0  0  0  0  0  0  0  0  0  0
    0.0847   -3.1248   -4.6083 C   0  0  0  0  0  0  0  0  0  0  0  0
   -1.0349   -3.1245   -3.8290 N   0  0  0  0  0  0  0  0  0  0  0  0
   -1.6332   -4.1275   -3.0651 C   0  0  0  0  0  0  0  0  0  0  0  0
   -2.8173   -3.7631   -2.3863 C   0  0  0  0  0  0  0  0  0  0  0  0
   -3.2139   -2.4781   -2.5754 O   0  0  0  0  0  0  0  0  0  0  0  0
   -4.3679   -2.0096   -1.9372 C   0  0  0  0  0  0  0  0  0  0  0  0
   -3.5082   -4.6824   -1.6011 C   0  0  0  0  0  0  0  0  0  0  0  0
   -3.0278   -5.9939   -1.4462 C   0  0  0  0  0  0  0  0  0  0  0  0
   -3.6965   -6.9430   -0.6388 N   0  0  0  0  0  0  0  0  0  0  0  0
   -4.1107   -8.1705   -1.2968 C   0  0  0  0  0  0  0  0  0  0  0  0
   -4.4205   -9.2545   -0.2713 C   0  0  0  0  0  0  0  0  0  0  0  0
   -5.3937   -8.7754    0.6890 N   0  0  0  0  0  0  0  0  0  0  0  0
   -5.0067   -7.5355    1.3346 C   0  0  0  0  0  0  0  0  0  0  0  0
   -4.6919   -6.4638    0.2976 C   0  0  0  0  0  0  0  0  0  0  0  0
   -6.5946   -9.3610    0.9952 C   0  0  0  0  0  0  0  0  0  0  0  0
   -6.9403  -10.6518    0.2739 C   0  0  0  0  0  0  0  0  0  0  0  0
   -7.3585   -8.8750    1.8081 O   0  0  0  0  0  0  0  0  0  0  0  0
   -1.8484   -6.3453   -2.1071 C   0  0  0  0  0  0  0  0  0  0  0  0
   -1.1673   -5.4341   -2.9112 C   0  0  0  0  0  0  0  0  0  0  0  0
    0.3400   -1.9574   -5.2008 N   0  0  0  0  0  0  0  0  0  0  0  0
    3.8597    0.1289   -6.0327 C   0  0  0  0  0  0  0  0  0  0  0  0
    5.0066    0.8136   -6.4277 C   0  0  0  0  0  0  0  0  0  0  0  0
    5.0985    1.3966   -7.6874 C   0  0  0  0  0  0  0  0  0  0  0  0
    4.5132    3.0821  -11.6704 O   0  0  0  0  0  0  0  0  0  0  0  0
    7.3888    4.3766  -11.4813 N   0  0  0  0  0  0  0  0  0  0  0  0
    7.4424    5.4910  -12.2327 C   0  0  0  0  0  0  0  0  0  0  0  0
    6.1445    5.8657  -12.9181 C   0  0  0  0  0  0  0  0  0  0  0  0
    8.4575    6.1748  -12.3633 O   0  0  0  0  0  0  0  0  0  0  0  0
    8.9806    4.8128  -10.2340 H   0  0  0  0  0  0  0  0  0  0  0  0
   10.1507    3.8855  -12.3450 N   0  0  0  0  0  0  0  0  0  0  0  0
   11.0907    3.3395  -13.2835 C   0  0  0  0  0  0  0  0  0  0  0  0
    6.9772    2.6249   -9.7582 H   0  0  0  0  0  0  0  0  0  0  0  0
    8.6098    2.3029   -9.2089 H   0  0  0  0  0  0  0  0  0  0  0  0
    3.7878    1.1993  -10.6156 H   0  0  0  0  0  0  0  0  0  0  0  0
    2.0179    0.5450   -8.8631 H   0  0  0  0  0  0  0  0  0  0  0  0
    0.8191    0.0069   -6.2718 H   0  0  0  0  0  0  0  0  0  0  0  0
    2.4374   -5.0576   -5.6910 H   0  0  0  0  0  0  0  0  0  0  0  0
   -1.5176   -2.2341   -3.8119 H   0  0  0  0  0  0  0  0  0  0  0  0
   -4.4787   -0.9555   -2.2190 H   0  0  0  0  0  0  0  0  0  0  0  0
   -4.2829   -2.0791   -0.8387 H   0  0  0  0  0  0  0  0  0  0  0  0
   -5.2670   -2.5622   -2.2616 H   0  0  0  0  0  0  0  0  0  0  0  0
   -4.4352   -4.3812   -1.1178 H   0  0  0  0  0  0  0  0  0  0  0  0
   -3.3138   -8.5211   -1.9648 H   0  0  0  0  0  0  0  0  0  0  0  0
   -5.0155   -7.9995   -1.9219 H   0  0  0  0  0  0  0  0  0  0  0  0
   -3.4876   -9.5267    0.2555 H   0  0  0  0  0  0  0  0  0  0  0  0
   -4.7889  -10.1499   -0.7841 H   0  0  0  0  0  0  0  0  0  0  0  0
   -4.1104   -7.7108    1.9561 H   0  0  0  0  0  0  0  0  0  0  0  0
   -5.8320   -7.2239    1.9851 H   0  0  0  0  0  0  0  0  0  0  0  0
   -4.3004   -5.5755    0.8142 H   0  0  0  0  0  0  0  0  0  0  0  0
   -5.6374   -6.1707   -0.2111 H   0  0  0  0  0  0  0  0  0  0  0  0
   -7.0199  -10.4992   -0.8128 H   0  0  0  0  0  0  0  0  0  0  0  0
   -7.9094  -10.9892    0.6572 H   0  0  0  0  0  0  0  0  0  0  0  0
   -6.1891  -11.4349    0.4547 H   0  0  0  0  0  0  0  0  0  0  0  0
   -1.4328   -7.3461   -1.9762 H   0  0  0  0  0  0  0  0  0  0  0  0
   -0.2482   -5.7151   -3.4203 H   0  0  0  0  0  0  0  0  0  0  0  0
    3.7905   -0.3314   -5.0449 H   0  0  0  0  0  0  0  0  0  0  0  0
    5.8570    0.9013   -5.7486 H   0  0  0  0  0  0  0  0  0  0  0  0
    6.0107    1.9380   -7.9539 H   0  0  0  0  0  0  0  0  0  0  0  0
    6.5249    3.8380  -11.4990 H   0  0  0  0  0  0  0  0  0  0  0  0
    5.3700    5.0939  -12.8054 H   0  0  0  0  0  0  0  0  0  0  0  0
    6.3468    6.0594  -13.9807 H   0  0  0  0  0  0  0  0  0  0  0  0
    5.7858    6.8065  -12.4740 H   0  0  0  0  0  0  0  0  0  0  0  0
    9.8430    4.8578  -12.4283 H   0  0  0  0  0  0  0  0  0  0  0  0
   11.2502    2.2835  -13.0280 H   0  0  0  0  0  0  0  0  0  0  0  0
   12.0590    3.8652  -13.2374 H   0  0  0  0  0  0  0  0  0  0  0  0
   10.7194    3.3965  -14.3217 H   0  0  0  0  0  0  0  0  0  0  0  0
    4.8955    5.1021  -10.3412 H   0  0  0  0  0  0  0  0  0  0  0  0
    4.7692    3.7377   -7.5659 H   0  0  0  0  0  0  0  0  0  0  0  0
    5.1410    5.4863   -8.0029 H   0  0  0  0  0  0  0  0  0  0  0  0
  2  1  2  0  0  0  0
  2  3  1  0  0  0  0
  3 50  1  1  0  0  0
  3  4  1  0  0  0  0
  4 54  1  0  0  0  0
  4  5  1  0  0  0  0
  6 90  1  0  0  0  0
  6 89  1  0  0  0  0
  7  6  1  0  0  0  0
  8  9  1  0  0  0  0
  8  7  1  0  0  0  0
  9 10  1  0  0  0  0
 10 11  2  0  0  0  0
 10 44  1  0  0  0  0
 11 12  1  0  0  0  0
 12 13  1  0  0  0  0
 12 42  2  0  0  0  0
 13 57  1  0  0  0  0
 13 14  1  0  0  0  0
 14 41  2  0  0  0  0
 15 14  1  0  0  0  0
 15 20  2  0  0  0  0
 16 18  1  0  0  0  0
 16 15  1  0  0  0  0
 17 16  1  0  0  0  0
 19 16  1  0  0  0  0
 20 21  1  0  0  0  0
 21 22  2  0  0  0  0
 22 23  1  0  0  0  0
 23 59  1  0  0  0  0
 23 24  1  0  0  0  0
 24 40  2  0  0  0  0
 24 25  1  0  0  0  0
 25 28  2  0  0  0  0
 26 25  1  0  0  0  0
 26 27  1  0  0  0  0
 27 61  1  0  0  0  0
 28 29  1  0  0  0  0
 28 63  1  0  0  0  0
 29 30  1  0  0  0  0
 30 35  1  0  0  0  0
 31 30  1  0  0  0  0
 31 32  1  0  0  0  0
 32 66  1  0  0  0  0
 32 33  1  0  0  0  0
 33 36  1  0  0  0  0
 33 34  1  0  0  0  0
 34 68  1  0  0  0  0
 34 69  1  0  0  0  0
 35 70  1  0  0  0  0
 35 34  1  0  0  0  0
 36 38  2  0  0  0  0
 37 74  1  0  0  0  0
 37 73  1  0  0  0  0
 37 36  1  0  0  0  0
 39 75  1  0  0  0  0
 39 29  2  0  0  0  0
 40 39  1  0  0  0  0
 41 22  1  0  0  0  0
 42 77  1  0  0  0  0
 43 42  1  0  0  0  0
 43 78  1  0  0  0  0
 44 43  2  0  0  0  0
 45  8  2  0  0  0  0
 46  3  1  0  0  0  0
 47 46  1  0  0  0  0
 48 81  1  0  0  0  0
 48 83  1  0  0  0  0
 48 47  1  0  0  0  0
 49 47  2  0  0  0  0
 51  2  1  0  0  0  0
 52 86  1  0  0  0  0
 52 85  1  0  0  0  0
 52 51  1  0  0  0  0
 53  4  1  0  0  0  0
 55  9  1  0  0  0  0
 56 11  1  0  0  0  0
 58 20  1  0  0  0  0
 60 27  1  0  0  0  0
 62 27  1  0  0  0  0
 64 31  1  0  0  0  0
 65 31  1  0  0  0  0
 67 32  1  0  0  0  0
 71 35  1  0  0  0  0
 72 37  1  0  0  0  0
 76 40  1  0  0  0  0
 79 44  1  0  0  0  0
 80 46  1  0  0  0  0
 82 48  1  0  0  0  0
 84 51  1  0  0  0  0
 87 52  1  0  0  0  0
 88  7  1  0  0  0  0
M  END
