91
-1 1
O         6.694938   -1.445671    1.742934
C         5.939217   -1.261842    0.803350
C         5.391541    0.136424    0.432456
C         6.128474    1.208712    1.230096
S         5.640508    2.908899    0.802909
C         4.720248    3.471567    2.384660
C         5.621778    4.502591    3.077857
N         5.348649    4.696003    4.494570
C         4.131361    5.416746    4.785856
C         6.476660    5.267042    5.183834
C         3.335740    3.891420    2.111343
C         2.319573    2.949333    2.133650
O         2.441815    1.727981    2.440277
N         1.028408    3.430328    1.758374
C        -0.156545    2.739874    1.617047
C        -0.449079    1.544432    2.307662
C        -1.662913    0.894471    2.111365
C        -2.620453    1.419240    1.248612
O        -3.854315    0.796211    1.105138
C        -4.032777   -0.105904    0.128221
N        -5.259419   -0.603170    0.069202
C        -5.458387   -1.519377   -0.887434
N        -6.749291   -2.010613   -0.898606
C        -7.349907   -2.948606   -1.711230
N        -6.735160   -3.589667   -2.692714
N        -7.679111   -4.395510   -3.213073
H        -7.436219   -4.994017   -3.989335
C        -8.879362   -4.293749   -2.597827
C       -10.069734   -5.095676   -3.008048
C        -8.712067   -3.352853   -1.602313
C        -4.462775   -1.937354   -1.770282
C        -3.205621   -1.318334   -1.610351
N        -2.129716   -1.605469   -2.406857
C        -2.160587   -2.733705   -3.319387
C        -1.110099   -2.570228   -4.426568
N         0.220051   -2.257222   -3.954945
C         0.176151   -1.071964   -3.113588
C        -0.802654   -1.198617   -1.951999
C         0.945056   -3.367857   -3.378022
N        -3.009970   -0.406264   -0.646923
C        -2.365430    2.608829    0.578277
C        -1.147549    3.255746    0.756357
N         3.953470    0.210524    0.615268
C         3.092215   -0.239902   -0.312721
C         1.641855    0.052915   -0.045650
O         3.446351   -0.868877   -1.321142
H         5.589333    0.280506   -0.644702
N         5.512019   -2.243453   -0.028553
C         5.822306   -3.628892    0.193129
H         5.966490    1.048188    2.306196
H         7.205822    1.081545    1.061540
H         5.577013    5.468413    2.517068
H         6.660204    4.151077    2.996696
H         3.948236    5.417722    5.872859
H         3.283027    4.935358    4.282354
H         4.173792    6.480773    4.447036
H         6.724104    6.303131    4.845925
H         7.374697    4.646646    5.037843
H         6.273846    5.316339    6.266222
H         1.045888    4.339888    1.318681
H         0.308840    1.137069    2.974458
H        -1.878019   -0.037302    2.638849
H        -7.323252   -1.594808   -0.176943
H       -10.930432   -4.840571   -2.377461
H        -9.882897   -6.176014   -2.905035
H       -10.346965   -4.898740   -4.055394
H        -9.458802   -3.002098   -0.894602
H        -4.678370   -2.699835   -2.509067
H        -3.148540   -2.801514   -3.793667
H        -2.000901   -3.682320   -2.766662
H        -1.439891   -1.750485   -5.089512
H        -1.083013   -3.490361   -5.032923
H        -0.121207   -0.213344   -3.740944
H         1.183223   -0.867728   -2.718600
H        -0.900148   -0.250809   -1.413302
H        -0.427933   -1.939529   -1.218497
H         1.091682   -4.152894   -4.137980
H         0.455965   -3.842657   -2.499958
H         1.934297   -3.018912   -3.046533
H        -3.120578    3.017536   -0.096271
H        -0.946952    4.179997    0.206710
H         3.556261    0.773118    1.395265
H         1.258771    0.707350   -0.841823
H         1.497938    0.547336    0.920232
H         1.081368   -0.889356   -0.080123
H         4.823090   -1.968024   -0.736163
H         6.531359   -3.690017    1.029223
H         6.283873   -4.085742   -0.697900
H         4.923160   -4.213853    0.451755
H         3.144746    4.918200    1.782565
H         4.703199    2.557012    2.995454
