-1 1
 OpenBabel05192410563D

 91 94  0  0  1  0  0  0  0  0999 V2000
    6.6949   -1.4457    1.7429 O   0  0  0  0  0  0  0  0  0  0  0  0
    5.9392   -1.2618    0.8034 C   0  0  0  0  0  0  0  0  0  0  0  0
    5.3915    0.1364    0.4325 C   0  0  2  0  0  0  0  0  0  0  0  0
    6.1285    1.2087    1.2301 C   0  0  0  0  0  0  0  0  0  0  0  0
    5.6405    2.9089    0.8029 S   0  0  0  0  0  0  0  0  0  0  0  0
    4.7202    3.4716    2.3847 C   0  0  1  0  0  0  0  0  0  0  0  0
    5.6218    4.5026    3.0779 C   0  0  0  0  0  0  0  0  0  0  0  0
    5.3486    4.6960    4.4946 N   0  0  0  0  0  0  0  0  0  0  0  0
    4.1314    5.4167    4.7859 C   0  0  0  0  0  0  0  0  0  0  0  0
    6.4767    5.2670    5.1838 C   0  0  0  0  0  0  0  0  0  0  0  0
    3.3357    3.8914    2.1113 C   0  0  0  0  0  3  0  0  0  0  0  0
    2.3196    2.9493    2.1336 C   0  0  0  0  0  0  0  0  0  0  0  0
    2.4418    1.7280    2.4403 O   0  0  0  0  0  0  0  0  0  0  0  0
    1.0284    3.4303    1.7584 N   0  0  0  0  0  0  0  0  0  0  0  0
   -0.1565    2.7399    1.6170 C   0  0  0  0  0  0  0  0  0  0  0  0
   -0.4491    1.5444    2.3077 C   0  0  0  0  0  0  0  0  0  0  0  0
   -1.6629    0.8945    2.1114 C   0  0  0  0  0  0  0  0  0  0  0  0
   -2.6205    1.4192    1.2486 C   0  0  0  0  0  0  0  0  0  0  0  0
   -3.8543    0.7962    1.1051 O   0  0  0  0  0  0  0  0  0  0  0  0
   -4.0328   -0.1059    0.1282 C   0  0  0  0  0  0  0  0  0  0  0  0
   -5.2594   -0.6032    0.0692 N   0  0  0  0  0  0  0  0  0  0  0  0
   -5.4584   -1.5194   -0.8874 C   0  0  0  0  0  0  0  0  0  0  0  0
   -6.7493   -2.0106   -0.8986 N   0  0  0  0  0  0  0  0  0  0  0  0
   -7.3499   -2.9486   -1.7112 C   0  0  0  0  0  0  0  0  0  0  0  0
   -6.7352   -3.5897   -2.6927 N   0  0  0  0  0  0  0  0  0  0  0  0
   -7.6791   -4.3955   -3.2131 N   0  0  0  0  0  0  0  0  0  0  0  0
   -7.4362   -4.9940   -3.9893 H   0  0  0  0  0  0  0  0  0  0  0  0
   -8.8794   -4.2937   -2.5978 C   0  0  0  0  0  0  0  0  0  0  0  0
  -10.0697   -5.0957   -3.0080 C   0  0  0  0  0  0  0  0  0  0  0  0
   -8.7121   -3.3529   -1.6023 C   0  0  0  0  0  0  0  0  0  0  0  0
   -4.4628   -1.9374   -1.7703 C   0  0  0  0  0  0  0  0  0  0  0  0
   -3.2056   -1.3183   -1.6104 C   0  0  2  0  0  3  0  0  0  0  0  0
   -2.1297   -1.6055   -2.4069 N   0  0  0  0  0  0  0  0  0  0  0  0
   -2.1606   -2.7337   -3.3194 C   0  0  0  0  0  0  0  0  0  0  0  0
   -1.1101   -2.5702   -4.4266 C   0  0  0  0  0  0  0  0  0  0  0  0
    0.2201   -2.2572   -3.9549 N   0  0  0  0  0  0  0  0  0  0  0  0
    0.1762   -1.0720   -3.1136 C   0  0  0  0  0  0  0  0  0  0  0  0
   -0.8027   -1.1986   -1.9520 C   0  0  0  0  0  0  0  0  0  0  0  0
    0.9451   -3.3679   -3.3780 C   0  0  0  0  0  0  0  0  0  0  0  0
   -3.0100   -0.4063   -0.6469 N   0  0  0  0  0  0  0  0  0  0  0  0
   -2.3654    2.6088    0.5783 C   0  0  0  0  0  0  0  0  0  0  0  0
   -1.1475    3.2557    0.7564 C   0  0  0  0  0  0  0  0  0  0  0  0
    3.9535    0.2105    0.6153 N   0  0  0  0  0  0  0  0  0  0  0  0
    3.0922   -0.2399   -0.3127 C   0  0  0  0  0  0  0  0  0  0  0  0
    1.6419    0.0529   -0.0457 C   0  0  0  0  0  0  0  0  0  0  0  0
    3.4464   -0.8689   -1.3211 O   0  0  0  0  0  0  0  0  0  0  0  0
    5.5893    0.2805   -0.6447 H   0  0  0  0  0  0  0  0  0  0  0  0
    5.5120   -2.2435   -0.0286 N   0  0  0  0  0  0  0  0  0  0  0  0
    5.8223   -3.6289    0.1931 C   0  0  0  0  0  0  0  0  0  0  0  0
    5.9665    1.0482    2.3062 H   0  0  0  0  0  0  0  0  0  0  0  0
    7.2058    1.0815    1.0615 H   0  0  0  0  0  0  0  0  0  0  0  0
    5.5770    5.4684    2.5171 H   0  0  0  0  0  0  0  0  0  0  0  0
    6.6602    4.1511    2.9967 H   0  0  0  0  0  0  0  0  0  0  0  0
    3.9482    5.4177    5.8729 H   0  0  0  0  0  0  0  0  0  0  0  0
    3.2830    4.9354    4.2824 H   0  0  0  0  0  0  0  0  0  0  0  0
    4.1738    6.4808    4.4470 H   0  0  0  0  0  0  0  0  0  0  0  0
    6.7241    6.3031    4.8459 H   0  0  0  0  0  0  0  0  0  0  0  0
    7.3747    4.6466    5.0378 H   0  0  0  0  0  0  0  0  0  0  0  0
    6.2738    5.3163    6.2662 H   0  0  0  0  0  0  0  0  0  0  0  0
    1.0459    4.3399    1.3187 H   0  0  0  0  0  0  0  0  0  0  0  0
    0.3088    1.1371    2.9745 H   0  0  0  0  0  0  0  0  0  0  0  0
   -1.8780   -0.0373    2.6388 H   0  0  0  0  0  0  0  0  0  0  0  0
   -7.3233   -1.5948   -0.1769 H   0  0  0  0  0  0  0  0  0  0  0  0
  -10.9304   -4.8406   -2.3775 H   0  0  0  0  0  0  0  0  0  0  0  0
   -9.8829   -6.1760   -2.9050 H   0  0  0  0  0  0  0  0  0  0  0  0
  -10.3470   -4.8987   -4.0554 H   0  0  0  0  0  0  0  0  0  0  0  0
   -9.4588   -3.0021   -0.8946 H   0  0  0  0  0  0  0  0  0  0  0  0
   -4.6784   -2.6998   -2.5091 H   0  0  0  0  0  0  0  0  0  0  0  0
   -3.1485   -2.8015   -3.7937 H   0  0  0  0  0  0  0  0  0  0  0  0
   -2.0009   -3.6823   -2.7667 H   0  0  0  0  0  0  0  0  0  0  0  0
   -1.4399   -1.7505   -5.0895 H   0  0  0  0  0  0  0  0  0  0  0  0
   -1.0830   -3.4904   -5.0329 H   0  0  0  0  0  0  0  0  0  0  0  0
   -0.1212   -0.2133   -3.7409 H   0  0  0  0  0  0  0  0  0  0  0  0
    1.1832   -0.8677   -2.7186 H   0  0  0  0  0  0  0  0  0  0  0  0
   -0.9001   -0.2508   -1.4133 H   0  0  0  0  0  0  0  0  0  0  0  0
   -0.4279   -1.9395   -1.2185 H   0  0  0  0  0  0  0  0  0  0  0  0
    1.0917   -4.1529   -4.1380 H   0  0  0  0  0  0  0  0  0  0  0  0
    0.4560   -3.8427   -2.5000 H   0  0  0  0  0  0  0  0  0  0  0  0
    1.9343   -3.0189   -3.0465 H   0  0  0  0  0  0  0  0  0  0  0  0
   -3.1206    3.0175   -0.0963 H   0  0  0  0  0  0  0  0  0  0  0  0
   -0.9470    4.1800    0.2067 H   0  0  0  0  0  0  0  0  0  0  0  0
    3.5563    0.7731    1.3953 H   0  0  0  0  0  0  0  0  0  0  0  0
    1.2588    0.7074   -0.8418 H   0  0  0  0  0  0  0  0  0  0  0  0
    1.4979    0.5473    0.9202 H   0  0  0  0  0  0  0  0  0  0  0  0
    1.0814   -0.8894   -0.0801 H   0  0  0  0  0  0  0  0  0  0  0  0
    4.8231   -1.9680   -0.7362 H   0  0  0  0  0  0  0  0  0  0  0  0
    6.5314   -3.6900    1.0292 H   0  0  0  0  0  0  0  0  0  0  0  0
    6.2839   -4.0857   -0.6979 H   0  0  0  0  0  0  0  0  0  0  0  0
    4.9232   -4.2139    0.4518 H   0  0  0  0  0  0  0  0  0  0  0  0
    3.1447    4.9182    1.7826 H   0  0  0  0  0  0  0  0  0  0  0  0
    4.7032    2.5570    2.9955 H   0  0  0  0  0  0  0  0  0  0  0  0
  2  1  2  0  0  0  0
  3 47  1  6  0  0  0
  3 43  1  0  0  0  0
  3  2  1  0  0  0  0
  3  4  1  0  0  0  0
  4 50  1  0  0  0  0
  5  4  1  0  0  0  0
  5  6  1  0  0  0  0
  6 91  1  1  0  0  0
  6  7  1  0  0  0  0
  7  8  1  0  0  0  0
  8  9  1  0  0  0  0
  8 10  1  0  0  0  0
  9 54  1  0  0  0  0
 10 59  1  0  0  0  0
 11 12  1  0  0  0  0
 11  6  1  0  0  0  0
 12 13  2  0  0  0  0
 14 12  1  0  0  0  0
 15 14  1  0  0  0  0
 15 16  1  0  0  0  0
 16 61  1  0  0  0  0
 17 16  2  0  0  0  0
 17 62  1  0  0  0  0
 18 17  1  0  0  0  0
 19 18  1  0  0  0  0
 20 19  1  0  0  0  0
 21 20  2  0  0  0  0
 22 21  1  0  0  0  0
 23 22  1  0  0  0  0
 23 63  1  0  0  0  0
 24 30  1  0  0  0  0
 24 23  1  0  0  0  0
 25 24  2  0  0  0  0
 26 25  1  0  0  0  0
 26 28  1  0  0  0  0
 27 26  1  0  0  0  0
 28 30  2  0  0  0  0
 29 65  1  0  0  0  0
 29 28  1  0  0  0  0
 29 64  1  0  0  0  0
 30 67  1  0  0  0  0
 31 32  1  0  0  0  0
 31 22  2  0  0  0  0
 32 33  1  1  0  0  0
 32 40  1  0  0  0  0
 33 38  1  0  0  0  0
 34 70  1  0  0  0  0
 34 33  1  0  0  0  0
 35 36  1  0  0  0  0
 35 34  1  0  0  0  0
 36 39  1  0  0  0  0
 36 37  1  0  0  0  0
 37 74  1  0  0  0  0
 37 38  1  0  0  0  0
 38 75  1  0  0  0  0
 38 76  1  0  0  0  0
 39 79  1  0  0  0  0
 39 78  1  0  0  0  0
 40 20  2  0  0  0  0
 41 42  1  0  0  0  0
 41 18  2  0  0  0  0
 42 15  2  0  0  0  0
 43 82  1  0  0  0  0
 44 45  1  0  0  0  0
 44 43  1  0  0  0  0
 45 84  1  0  0  0  0
 46 44  2  0  0  0  0
 48 49  1  0  0  0  0
 48  2  1  0  0  0  0
 49 89  1  0  0  0  0
 49 87  1  0  0  0  0
 51  4  1  0  0  0  0
 52  7  1  0  0  0  0
 53  7  1  0  0  0  0
 55  9  1  0  0  0  0
 56  9  1  0  0  0  0
 57 10  1  0  0  0  0
 58 10  1  0  0  0  0
 60 14  1  0  0  0  0
 66 29  1  0  0  0  0
 68 31  1  0  0  0  0
 69 34  1  0  0  0  0
 71 35  1  0  0  0  0
 72 35  1  0  0  0  0
 73 37  1  0  0  0  0
 77 39  1  0  0  0  0
 80 41  1  0  0  0  0
 81 42  1  0  0  0  0
 83 45  1  0  0  0  0
 85 45  1  0  0  0  0
 86 48  1  0  0  0  0
 88 49  1  0  0  0  0
 90 11  1  0  0  0  0
M  END
