90
-1 1
O        -3.349470   -0.932242    2.333012
C        -2.178190   -0.705909    2.025399
C        -1.421881    0.493160    2.630230
C        -0.129535    0.085326    3.378039
S         1.221641   -0.555473    2.320526
C         1.866683   -3.476036    0.210101
C         2.678426   -3.666828   -0.830718
C         2.265834   -4.191926   -2.165197
N         1.054251   -3.825684   -2.709397
C         0.167584   -2.761338   -2.475504
C        -1.171446   -2.960695   -2.867187
N        -1.534280   -4.225554   -3.406965
C        -2.595409   -4.238023   -4.395499
C        -2.652352   -5.615092   -5.061516
N        -2.814883   -6.706169   -4.116336
C        -1.789291   -6.636313   -3.087320
C        -1.709893   -5.272484   -2.402558
C        -4.159493   -6.869332   -3.611777
C        -2.078439   -1.912107   -2.694765
C        -1.682288   -0.710818   -2.126663
O        -2.597798    0.290414   -1.920239
C        -2.659300    1.240745   -2.957328
C        -0.348304   -0.512926   -1.719322
N        -0.055292    0.700272   -1.115190
C         1.149953    1.222953   -0.704758
N         1.041881    2.319303    0.050713
C         2.169351    2.871122    0.494624
C         2.052316    4.026854    1.384238
C         1.014305    4.201172    2.270329
N         1.206136    5.334870    3.010527
C         0.338931    5.805993    4.063041
C         2.952107    5.137373    1.583721
C         2.377949    5.934767    2.609855
C         2.972627    7.117968    3.060408
C         4.163821    7.510793    2.463483
C         4.742990    6.745341    1.433971
C         4.148871    5.571103    0.989396
C         3.420014    2.328225    0.148381
C         3.403577    1.213583   -0.669644
N         2.282266    0.658625   -1.121401
C         0.571737   -1.543085   -1.929509
O         2.968202   -4.996228   -2.752544
N        -2.399396    1.118307    3.503031
C        -2.361605    2.362991    3.988791
C        -3.547955    2.765111    4.848556
O        -1.449478    3.160732    3.788265
H        -1.132000    1.191582    1.825176
N        -1.473971   -1.465928    1.179256
C        -2.024031   -2.694145    0.672777
H         0.213851    0.991618    3.899271
H        -0.410925   -0.649049    4.153437
H         0.777635   -4.412220   -3.493682
H        -2.391066   -3.460948   -5.147825
H        -3.586888   -4.004603   -3.947444
H        -1.706867   -5.770099   -5.609936
H        -3.472132   -5.646290   -5.797038
H        -0.811824   -6.843577   -3.557016
H        -1.967999   -7.425626   -2.340598
H        -0.854401   -5.251995   -1.712011
H        -2.622033   -5.083391   -1.795967
H        -4.855711   -7.006410   -4.454438
H        -4.542816   -6.025881   -2.998951
H        -4.211357   -7.775897   -2.988549
H        -3.128353   -2.025467   -2.968587
H        -3.403580    1.994642   -2.667171
H        -2.970639    0.774691   -3.909669
H        -1.685444    1.738026   -3.111664
H        -0.857073    1.191713   -0.737635
H         0.154710    3.558673    2.464922
H        -0.075615    6.796546    3.813755
H         0.893385    5.888143    5.011559
H        -0.479573    5.084375    4.187023
H         2.514361    7.713704    3.852914
H         4.655089    8.429177    2.794167
H         5.675290    7.083951    0.975460
H         4.603761    4.997103    0.179516
H         4.348880    2.731844    0.548268
H         4.339122    0.734265   -0.979453
H         1.606236   -1.366020   -1.655319
H        -3.242283    0.549610    3.587667
H        -4.319537    1.987172    4.925309
H        -3.990880    3.679513    4.429122
H        -3.180580    3.008671    5.855932
H        -0.437491   -1.322854    1.219709
H        -2.105103   -3.471045    1.454124
H        -1.383552   -3.067158   -0.136505
H        -3.030458   -2.521634    0.264767
H         3.760933   -3.554800   -0.725247
H         0.785069   -3.609026    0.124944
H         2.228531   -3.142244    1.185950
