-1 1
 OpenBabel05192410563D

 90 94  0  0  1  0  0  0  0  0999 V2000
   -2.9500   -1.4753    2.8997 O   0  0  0  0  0  0  0  0  0  0  0  0
   -2.1011   -0.9289    2.2023 C   0  0  0  0  0  0  0  0  0  0  0  0
   -1.1425    0.1001    2.8199 C   0  0  2  0  0  0  0  0  0  0  0  0
    0.2819   -0.4581    3.0317 C   0  0  0  0  0  0  0  0  0  0  0  0
    1.2685   -0.7515    1.5351 S   0  0  0  0  0  0  0  0  0  0  0  0
    1.0813   -2.6390    1.1998 C   0  0  0  0  0  0  0  0  0  0  0  0
    2.1157   -3.1527    0.2988 C   0  0  0  0  0  3  0  0  0  0  0  0
    1.9448   -3.7781   -0.9442 C   0  0  0  0  0  0  0  0  0  0  0  0
    0.6132   -3.7726   -1.5721 N   0  0  0  0  0  0  0  0  0  0  0  0
   -0.0892   -2.6840   -2.0367 C   0  0  0  0  0  0  0  0  0  0  0  0
   -1.2040   -2.8967   -2.8994 C   0  0  0  0  0  0  0  0  0  0  0  0
   -1.5045   -4.2302   -3.2839 N   0  0  0  0  0  0  0  0  0  0  0  0
   -2.1398   -4.4271   -4.5688 C   0  0  0  0  0  0  0  0  0  0  0  0
   -2.0891   -5.9112   -4.9405 C   0  0  0  0  0  0  0  0  0  0  0  0
   -2.6781   -6.7792   -3.9342 N   0  0  0  0  0  0  0  0  0  0  0  0
   -2.0760   -6.5161   -2.6351 C   0  0  0  0  0  0  0  0  0  0  0  0
   -2.1112   -5.0420   -2.2349 C   0  0  0  0  0  0  0  0  0  0  0  0
   -4.1223   -6.7976   -3.9303 C   0  0  0  0  0  0  0  0  0  0  0  0
   -1.9548   -1.8031   -3.3281 C   0  0  0  0  0  0  0  0  0  0  0  0
   -1.6571   -0.5048   -2.9120 C   0  0  0  0  0  0  0  0  0  0  0  0
   -2.4598    0.5469   -3.2939 O   0  0  0  0  0  0  0  0  0  0  0  0
   -1.9286    1.3183   -4.3437 C   0  0  0  0  0  0  0  0  0  0  0  0
   -0.5607   -0.2878   -2.0706 C   0  0  0  0  0  0  0  0  0  0  0  0
   -0.3401    1.0136   -1.5792 N   0  0  0  0  0  0  0  0  0  0  0  0
    0.8541    1.5356   -1.1508 C   0  0  0  0  0  0  0  0  0  0  0  0
    0.7682    2.5298   -0.2583 N   0  0  0  0  0  0  0  0  0  0  0  0
    1.9140    3.0681    0.1655 C   0  0  0  0  0  0  0  0  0  0  0  0
    1.8396    4.1160    1.1899 C   0  0  0  0  0  0  0  0  0  0  0  0
    0.9369    4.1282    2.2273 C   0  0  0  0  0  0  0  0  0  0  0  0
    1.1730    5.1945    3.0535 N   0  0  0  0  0  0  0  0  0  0  0  0
    0.4476    5.4984    4.2629 C   0  0  0  0  0  0  0  0  0  0  0  0
    2.6936    5.2634    1.3802 C   0  0  0  0  0  0  0  0  0  0  0  0
    2.2335    5.9147    2.5545 C   0  0  0  0  0  0  0  0  0  0  0  0
    2.8206    7.0904    3.0361 C   0  0  0  0  0  0  0  0  0  0  0  0
    3.8876    7.6181    2.3212 C   0  0  0  0  0  0  0  0  0  0  0  0
    4.3528    6.9948    1.1472 C   0  0  0  0  0  0  0  0  0  0  0  0
    3.7657    5.8303    0.6711 C   0  0  0  0  0  0  0  0  0  0  0  0
    3.1502    2.6039   -0.3105 C   0  0  0  0  0  0  0  0  0  0  0  0
    3.1086    1.5702   -1.2364 C   0  0  0  0  0  0  0  0  0  0  0  0
    1.9761    1.0430   -1.6799 N   0  0  0  0  0  0  0  0  0  0  0  0
    0.2171   -1.3725   -1.6638 C   0  0  0  0  0  0  0  0  0  0  0  0
    2.7880   -4.4263   -1.5774 O   0  0  0  0  0  0  0  0  0  0  0  0
   -1.7528    0.4709    4.0783 N   0  0  0  0  0  0  0  0  0  0  0  0
   -1.6068    1.6602    4.6835 C   0  0  0  0  0  0  0  0  0  0  0  0
   -2.4006    1.8504    5.9613 C   0  0  0  0  0  0  0  0  0  0  0  0
   -0.8846    2.5530    4.2546 O   0  0  0  0  0  0  0  0  0  0  0  0
   -1.0715    0.9866    2.1692 H   0  0  0  0  0  0  0  0  0  0  0  0
   -1.9448   -1.1581    0.8907 N   0  0  0  0  0  0  0  0  0  0  0  0
   -2.6872   -2.1857    0.2001 C   0  0  0  0  0  0  0  0  0  0  0  0
    0.8276    0.2821    3.6344 H   0  0  0  0  0  0  0  0  0  0  0  0
    0.2276   -1.3921    3.6171 H   0  0  0  0  0  0  0  0  0  0  0  0
    0.5838   -4.5404   -2.2399 H   0  0  0  0  0  0  0  0  0  0  0  0
   -1.6065   -3.8311   -5.3251 H   0  0  0  0  0  0  0  0  0  0  0  0
   -3.1995   -4.0822   -4.5718 H   0  0  0  0  0  0  0  0  0  0  0  0
   -1.0301   -6.1957   -5.0644 H   0  0  0  0  0  0  0  0  0  0  0  0
   -2.5953   -6.0784   -5.9052 H   0  0  0  0  0  0  0  0  0  0  0  0
   -1.0205   -6.8359   -2.6723 H   0  0  0  0  0  0  0  0  0  0  0  0
   -2.5790   -7.1296   -1.8708 H   0  0  0  0  0  0  0  0  0  0  0  0
   -1.5411   -4.8987   -1.3057 H   0  0  0  0  0  0  0  0  0  0  0  0
   -3.1571   -4.7141   -2.0404 H   0  0  0  0  0  0  0  0  0  0  0  0
   -4.4909   -7.0900   -4.9268 H   0  0  0  0  0  0  0  0  0  0  0  0
   -4.6104   -5.8346   -3.6669 H   0  0  0  0  0  0  0  0  0  0  0  0
   -4.4794   -7.5515   -3.2106 H   0  0  0  0  0  0  0  0  0  0  0  0
   -2.8225   -1.9406   -3.9756 H   0  0  0  0  0  0  0  0  0  0  0  0
   -2.6412    2.1296   -4.5504 H   0  0  0  0  0  0  0  0  0  0  0  0
   -1.7987    0.7131   -5.2594 H   0  0  0  0  0  0  0  0  0  0  0  0
   -0.9526    1.7575   -4.0736 H   0  0  0  0  0  0  0  0  0  0  0  0
   -1.1606    1.5267   -1.2814 H   0  0  0  0  0  0  0  0  0  0  0  0
    0.1631    3.4044    2.4801 H   0  0  0  0  0  0  0  0  0  0  0  0
   -0.1489    6.4184    4.1478 H   0  0  0  0  0  0  0  0  0  0  0  0
    1.1482    5.6395    5.1009 H   0  0  0  0  0  0  0  0  0  0  0  0
   -0.2132    4.6531    4.4954 H   0  0  0  0  0  0  0  0  0  0  0  0
    2.4508    7.5783    3.9405 H   0  0  0  0  0  0  0  0  0  0  0  0
    4.3697    8.5339    2.6716 H   0  0  0  0  0  0  0  0  0  0  0  0
    5.1882    7.4393    0.6010 H   0  0  0  0  0  0  0  0  0  0  0  0
    4.1269    5.3642   -0.2480 H   0  0  0  0  0  0  0  0  0  0  0  0
    4.0923    2.9962    0.0706 H   0  0  0  0  0  0  0  0  0  0  0  0
    4.0332    1.1433   -1.6409 H   0  0  0  0  0  0  0  0  0  0  0  0
    1.1025   -1.2069   -1.0569 H   0  0  0  0  0  0  0  0  0  0  0  0
   -2.4460   -0.2069    4.3912 H   0  0  0  0  0  0  0  0  0  0  0  0
   -2.9905    0.9691    6.2464 H   0  0  0  0  0  0  0  0  0  0  0  0
   -3.0721    2.7109    5.8314 H   0  0  0  0  0  0  0  0  0  0  0  0
   -1.7012    2.0968    6.7725 H   0  0  0  0  0  0  0  0  0  0  0  0
   -1.1146   -0.7770    0.4378 H   0  0  0  0  0  0  0  0  0  0  0  0
   -3.6355   -2.3480    0.7268 H   0  0  0  0  0  0  0  0  0  0  0  0
   -2.1297   -3.1364    0.1740 H   0  0  0  0  0  0  0  0  0  0  0  0
   -2.8791   -1.8727   -0.8338 H   0  0  0  0  0  0  0  0  0  0  0  0
    3.1345   -3.2222    0.6894 H   0  0  0  0  0  0  0  0  0  0  0  0
    0.0667   -2.7985    0.8103 H   0  0  0  0  0  0  0  0  0  0  0  0
    1.1279   -3.0472    2.2254 H   0  0  0  0  0  0  0  0  0  0  0  0
  2  3  1  0  0  0  0
  2  1  2  0  0  0  0
  3 47  1  6  0  0  0
  3  4  1  0  0  0  0
  3 43  1  0  0  0  0
  4 51  1  0  0  0  0
  4 50  1  0  0  0  0
  5  4  1  0  0  0  0
  6  5  1  0  0  0  0
  6 90  1  0  0  0  0
  7 88  1  0  0  0  0
  7  6  1  0  0  0  0
  8  7  1  0  0  0  0
  9  8  1  0  0  0  0
 10 41  1  0  0  0  0
 10  9  1  0  0  0  0
 11 10  2  0  0  0  0
 12 11  1  0  0  0  0
 12 17  1  0  0  0  0
 13 12  1  0  0  0  0
 14 13  1  0  0  0  0
 14 15  1  0  0  0  0
 15 18  1  0  0  0  0
 15 16  1  0  0  0  0
 16 17  1  0  0  0  0
 16 58  1  0  0  0  0
 17 60  1  0  0  0  0
 17 59  1  0  0  0  0
 18 62  1  0  0  0  0
 18 63  1  0  0  0  0
 19 20  2  0  0  0  0
 19 11  1  0  0  0  0
 20 23  1  0  0  0  0
 21 20  1  0  0  0  0
 22 67  1  0  0  0  0
 22 21  1  0  0  0  0
 23 41  2  0  0  0  0
 23 24  1  0  0  0  0
 24 68  1  0  0  0  0
 24 25  1  0  0  0  0
 25 26  2  0  0  0  0
 26 27  1  0  0  0  0
 27 28  1  0  0  0  0
 28 32  1  0  0  0  0
 28 29  2  0  0  0  0
 29 69  1  0  0  0  0
 29 30  1  0  0  0  0
 30 31  1  0  0  0  0
 31 72  1  0  0  0  0
 31 71  1  0  0  0  0
 32 33  1  0  0  0  0
 33 34  2  0  0  0  0
 33 30  1  0  0  0  0
 34 73  1  0  0  0  0
 35 74  1  0  0  0  0
 35 34  1  0  0  0  0
 36 35  2  0  0  0  0
 37 36  1  0  0  0  0
 37 32  2  0  0  0  0
 38 77  1  0  0  0  0
 38 27  2  0  0  0  0
 39 38  1  0  0  0  0
 40 39  2  0  0  0  0
 40 25  1  0  0  0  0
 41 79  1  0  0  0  0
 42  8  2  0  0  0  0
 43 80  1  0  0  0  0
 43 44  1  0  0  0  0
 44 45  1  0  0  0  0
 45 81  1  0  0  0  0
 45 83  1  0  0  0  0
 46 44  2  0  0  0  0
 48  2  1  0  0  0  0
 49 85  1  0  0  0  0
 49 48  1  0  0  0  0
 52  9  1  0  0  0  0
 53 13  1  0  0  0  0
 54 13  1  0  0  0  0
 55 14  1  0  0  0  0
 56 14  1  0  0  0  0
 57 16  1  0  0  0  0
 61 18  1  0  0  0  0
 64 19  1  0  0  0  0
 65 22  1  0  0  0  0
 66 22  1  0  0  0  0
 70 31  1  0  0  0  0
 75 36  1  0  0  0  0
 76 37  1  0  0  0  0
 78 39  1  0  0  0  0
 82 45  1  0  0  0  0
 84 48  1  0  0  0  0
 86 49  1  0  0  0  0
 87 49  1  0  0  0  0
 89  6  1  0  0  0  0
M  END
