90
-1 1
O        -3.427105   -1.584780    7.709693
C        -2.413080   -1.237907    7.109445
C        -1.364264   -0.349601    7.798818
C         0.004081   -1.045322    7.980421
S         0.977159   -1.255585    6.463014
C         0.853769   -3.449795    6.097428
C         1.892431   -3.984069    5.314027
C         1.832736   -4.525359    3.993533
N         0.632805   -4.405813    3.211328
C        -0.114880   -3.295672    2.866472
C        -1.268326   -3.497592    2.059385
N        -1.571932   -4.823439    1.651302
C        -2.279486   -4.989881    0.399579
C        -2.238409   -6.463205   -0.014550
N        -2.761960   -7.363504    0.999042
C        -2.092248   -7.129457    2.270275
C        -2.118810   -5.666750    2.710015
C        -4.203758   -7.399364    1.081499
C        -2.054144   -2.401148    1.710382
C        -1.745235   -1.119836    2.159568
O        -2.588149   -0.070546    1.874023
C        -2.141459    0.760065    0.829549
C        -0.609357   -0.911843    2.951757
N        -0.397423    0.379136    3.461089
C         0.789878    0.930607    3.868999
N         0.685238    1.949207    4.731691
C         1.819208    2.518869    5.139211
C         1.731648    3.578822    6.150588
C         0.876972    3.561740    7.227895
N         1.098003    4.650837    8.029092
C         0.416590    4.936019    9.268367
C         2.537996    4.766477    6.289005
C         2.099578    5.412916    7.474355
C         2.652430    6.621220    7.913901
C         3.662346    7.185802    7.145981
C         4.105584    6.566283    5.961425
C         3.552211    5.369392    5.526767
C         3.064116    2.077798    4.660441
C         3.041327    1.020394    3.763230
N         1.918946    0.447983    3.346926
C         0.204940   -2.000230    3.276777
O         2.714859   -5.219812    3.488458
N        -1.957897    0.020380    9.065797
C        -1.699693    1.160908    9.724132
C        -2.515740    1.394663   10.981310
O        -0.862623    1.979849    9.360325
H        -1.201149    0.556850    7.192263
N        -2.130794   -1.585653    5.846348
C        -2.975042   -2.472642    5.083772
H         0.581997   -0.426028    8.681781
H        -0.153454   -2.028309    8.462993
H         0.619141   -5.120048    2.487538
H        -1.795896   -4.368278   -0.369559
H        -3.339818   -4.655103    0.468138
H        -1.185925   -6.734171   -0.206674
H        -2.797184   -6.609124   -0.953279
H        -1.037451   -7.437704    2.168196
H        -2.547779   -7.767672    3.043737
H        -1.507011   -5.539937    3.614517
H        -3.156448   -5.353020    2.961372
H        -4.623555   -7.668658    0.098921
H        -4.686221   -6.449847    1.398264
H        -4.512662   -8.176966    1.798085
H        -2.956876   -2.525794    1.110240
H        -2.882901    1.562193    0.706982
H        -2.058869    0.199613   -0.119428
H        -1.160069    1.210135    1.058274
H        -1.222329    0.867732    3.787571
H         0.153133    2.803971    7.526991
H        -0.226139    5.826651    9.171888
H         1.148446    5.119416   10.070647
H        -0.193911    4.064761    9.540463
H         2.300305    7.105333    8.827398
H         4.116466    8.127766    7.463026
H         4.896282    7.039411    5.374251
H         3.895235    4.903894    4.600149
H         3.998094    2.505660    5.023006
H         3.973763    0.608764    3.360277
H         1.111662   -1.841400    3.853056
H        -2.766708   -0.552358    9.301598
H        -3.201936    0.570539   11.217948
H        -3.091863    2.322862   10.857755
H        -1.824583    1.544491   11.822551
H        -1.188455   -1.360789    5.509060
H        -3.645769   -3.006684    5.769511
H        -2.356168   -3.192593    4.531908
H        -3.583987   -1.920505    4.350169
H         2.868805   -4.132666    5.781648
H        -0.164855   -3.506655    5.698173
H         0.892479   -3.644814    7.174560
