-1 1
 OpenBabel05232413493D

 65 67  0  0  1  0  0  0  0  0999 V2000
   -2.9671   -1.9630    2.3222 O   0  0  0  0  0  0  0  0  0  0  0  0
   -3.5670   -2.2511    3.3699 C   0  0  0  0  0  0  0  0  0  0  0  0
   -4.0050   -1.1895    4.3882 C   0  0  2  0  0  0  0  0  0  0  0  0
   -5.5079   -1.2652    4.7406 C   0  0  0  0  0  0  0  0  0  0  0  0
   -6.0261   -2.7352    5.7046 S   0  0  0  0  0  1  0  0  0  0  0  0
   -3.4936    1.2198   -2.0037 C   0  0  0  0  0  0  0  0  0  0  0  0
   -3.7847    1.7790   -0.8297 C   0  0  0  0  0  0  0  0  0  0  0  0
   -3.6972    1.0769    0.4919 C   0  0  0  0  0  0  0  0  0  0  0  0
   -2.6771    0.2110    0.7490 N   0  0  0  0  0  0  0  0  0  0  0  0
   -1.4027    0.1267    0.1855 C   0  0  0  0  0  0  0  0  0  0  0  0
   -0.7609   -1.1239    0.2017 C   0  0  0  0  0  0  0  0  0  0  0  0
    0.5165   -1.2606   -0.3178 C   0  0  0  0  0  0  0  0  0  0  0  0
    1.1917   -0.1640   -0.8739 C   0  0  0  0  0  0  0  0  0  0  0  0
    2.5480   -0.3274   -1.4387 C   0  0  0  0  0  0  0  0  0  0  0  0
    3.0778    0.7563   -2.0709 N   0  0  0  0  0  0  0  0  0  0  0  0
    4.2809    0.6706   -2.5686 C   0  0  2  0  0  3  0  0  0  0  0  0
    4.8171    1.7636   -3.2036 N   0  0  0  0  0  0  0  0  0  0  0  0
    4.1761    2.9685   -3.4631 C   0  0  0  0  0  0  0  0  0  0  0  0
    4.9126    4.0625   -3.7965 N   0  0  0  0  0  0  0  0  0  0  0  0
    5.9201    4.1423   -3.8201 H   0  0  0  0  0  0  0  0  0  0  0  0
    4.1618    5.1425   -4.0549 N   0  0  0  0  0  0  0  0  0  0  0  0
    2.9201    4.7279   -3.8760 C   0  0  0  0  0  0  0  0  0  0  0  0
    2.8518    3.3641   -3.5014 C   0  0  0  0  0  0  0  0  0  0  0  0
    3.1509   -1.4867   -1.3040 N   0  0  0  0  0  2  0  0  0  0  0  0
    4.4007   -1.6103   -1.8130 C   0  0  0  0  0  0  0  0  0  0  0  0
    5.0590   -0.5415   -2.4735 C   0  0  0  0  0  0  0  0  0  0  0  0
    6.3672   -0.7292   -2.9791 C   0  0  0  0  0  0  0  0  0  0  0  0
    7.0054   -1.9406   -2.8346 C   0  0  0  0  0  0  0  0  0  0  0  0
    6.3520   -3.0084   -2.1779 C   0  0  0  0  0  0  0  0  0  0  0  0
    5.0813   -2.8501   -1.6790 C   0  0  0  0  0  0  0  0  0  0  0  0
    0.5611    1.0871   -0.8561 C   0  0  0  0  0  0  0  0  0  0  0  0
   -0.7112    1.2377   -0.3222 C   0  0  0  0  0  0  0  0  0  0  0  0
   -4.6127    1.2430    1.2868 O   0  0  0  0  0  0  0  0  0  0  0  0
   -3.6476    0.1264    3.9100 N   0  0  0  0  0  0  0  0  0  0  0  0
   -2.4842    0.7343    4.2529 C   0  0  0  0  0  0  0  0  0  0  0  0
   -2.2179    2.0545    3.5465 C   0  0  0  0  0  0  0  0  0  0  0  0
   -1.6894    0.2812    5.0580 O   0  0  0  0  0  0  0  0  0  0  0  0
   -3.4251   -1.3661    5.3072 H   0  0  0  0  0  0  0  0  0  0  0  0
   -3.8718   -3.5085    3.6866 N   0  0  0  0  0  0  0  0  0  0  0  0
   -3.6033   -4.5954    2.7851 C   0  0  0  0  0  0  0  0  0  0  0  0
   -5.7209   -0.3524    5.3177 H   0  0  0  0  0  0  0  0  0  0  0  0
   -6.0871   -1.1887    3.8020 H   0  0  0  0  0  0  0  0  0  0  0  0
   -2.8669   -0.5001    1.4965 H   0  0  0  0  0  0  0  0  0  0  0  0
   -1.2876   -1.9686    0.6506 H   0  0  0  0  0  0  0  0  0  0  0  0
    1.0158   -2.2303   -0.3056 H   0  0  0  0  0  0  0  0  0  0  0  0
    5.7400    1.6533   -3.5959 H   0  0  0  0  0  0  0  0  0  0  0  0
    2.0919    5.4203   -4.0210 H   0  0  0  0  0  0  0  0  0  0  0  0
    1.9863    2.7495   -3.2861 H   0  0  0  0  0  0  0  0  0  0  0  0
    6.8955    0.0797   -3.4912 H   0  0  0  0  0  0  0  0  0  0  0  0
    8.0150   -2.0773   -3.2266 H   0  0  0  0  0  0  0  0  0  0  0  0
    6.8652   -3.9662   -2.0666 H   0  0  0  0  0  0  0  0  0  0  0  0
    4.5558   -3.6568   -1.1658 H   0  0  0  0  0  0  0  0  0  0  0  0
    1.0957    1.9559   -1.2420 H   0  0  0  0  0  0  0  0  0  0  0  0
   -1.1701    2.2261   -0.2898 H   0  0  0  0  0  0  0  0  0  0  0  0
   -4.1983    0.5241    3.1495 H   0  0  0  0  0  0  0  0  0  0  0  0
   -3.1057    2.4642    3.0464 H   0  0  0  0  0  0  0  0  0  0  0  0
   -1.4301    1.8906    2.7950 H   0  0  0  0  0  0  0  0  0  0  0  0
   -1.8320    2.7724    4.2827 H   0  0  0  0  0  0  0  0  0  0  0  0
   -4.5548   -3.6150    4.4781 H   0  0  0  0  0  0  0  0  0  0  0  0
   -4.0568   -4.4299    1.7930 H   0  0  0  0  0  0  0  0  0  0  0  0
   -4.0170   -5.5186    3.2126 H   0  0  0  0  0  0  0  0  0  0  0  0
   -2.5202   -4.7317    2.6321 H   0  0  0  0  0  0  0  0  0  0  0  0
   -3.6938    1.7412   -2.9431 H   0  0  0  0  0  0  0  0  0  0  0  0
   -3.0484    0.2231   -2.0698 H   0  0  0  0  0  0  0  0  0  0  0  0
   -4.2642    2.7605   -0.7739 H   0  0  0  0  0  0  0  0  0  0  0  0
  1  2  2  0  0  0  0
  2 39  1  0  0  0  0
  2  3  1  0  0  0  0
  3  4  1  0  0  0  0
  3 38  1  1  0  0  0
  4 41  1  0  0  0  0
  4  5  1  0  0  0  0
  6  7  2  0  0  0  0
  7 65  1  0  0  0  0
  7  8  1  0  0  0  0
  8  9  1  0  0  0  0
  8 33  2  0  0  0  0
  9 43  1  0  0  0  0
 10 11  1  0  0  0  0
 10  9  1  0  0  0  0
 11 44  1  0  0  0  0
 12 45  1  0  0  0  0
 12 11  2  0  0  0  0
 13 31  2  0  0  0  0
 13 12  1  0  0  0  0
 14 24  1  0  0  0  0
 14 13  1  0  0  0  0
 15 14  2  0  0  0  0
 16 17  1  6  0  0  0
 16 26  1  0  0  0  0
 16 15  1  0  0  0  0
 18 17  1  0  0  0  0
 19 18  1  0  0  0  0
 20 19  1  0  0  0  0
 21 22  2  0  0  0  0
 21 19  1  0  0  0  0
 22 23  1  0  0  0  0
 23 18  2  0  0  0  0
 23 48  1  0  0  0  0
 25 30  1  0  0  0  0
 25 24  1  0  0  0  0
 26 25  2  0  0  0  0
 27 28  2  0  0  0  0
 27 26  1  0  0  0  0
 28 29  1  0  0  0  0
 29 51  1  0  0  0  0
 29 30  2  0  0  0  0
 30 52  1  0  0  0  0
 31 32  1  0  0  0  0
 32 54  1  0  0  0  0
 32 10  2  0  0  0  0
 34 35  1  0  0  0  0
 34  3  1  0  0  0  0
 35 37  2  0  0  0  0
 36 35  1  0  0  0  0
 36 58  1  0  0  0  0
 39 59  1  0  0  0  0
 40 61  1  0  0  0  0
 40 39  1  0  0  0  0
 42  4  1  0  0  0  0
 46 17  1  0  0  0  0
 47 22  1  0  0  0  0
 49 27  1  0  0  0  0
 50 28  1  0  0  0  0
 53 31  1  0  0  0  0
 55 34  1  0  0  0  0
 56 36  1  0  0  0  0
 57 36  1  0  0  0  0
 60 40  1  0  0  0  0
 62 40  1  0  0  0  0
 63  6  1  0  0  0  0
 64  6  1  0  0  0  0
M  END
