65
-1 1
O        -4.784996   -5.488942    2.854696
C        -5.689998   -5.603735    2.032383
C        -7.074358   -4.951858    2.267125
C        -7.751576   -4.138767    1.127963
S        -7.597911   -4.614896   -0.607349
C        -5.800688   -3.099457   -1.017477
C        -5.716363   -2.128030   -0.023031
C        -5.041117   -2.303684    1.233027
N        -3.947007   -3.201736    1.314450
C        -2.880805   -3.451750    0.490212
C        -1.991704   -4.488659    0.860082
C        -0.880347   -4.781488    0.093773
C        -0.597808   -4.061421   -1.079962
C         0.581717   -4.388830   -1.892415
N         0.715704   -3.720801   -3.075222
C         1.752697   -3.963140   -3.825988
N         1.887013   -3.286283   -5.014839
C         0.971155   -2.404197   -5.573876
N         1.369464   -1.565202   -6.568492
H         2.304418   -1.444197   -6.932839
N         0.375766   -0.796462   -7.037297
C        -0.676395   -1.150369   -6.320114
C        -0.375516   -2.161791   -5.376109
N         1.430272   -5.294150   -1.447923
C         2.514837   -5.570539   -2.207621
C         2.762386   -4.923354   -3.446346
C         3.918497   -5.251629   -4.192209
C         4.808008   -6.195045   -3.728081
C         4.565123   -6.843915   -2.495726
C         3.448847   -6.541846   -1.753360
C        -1.471475   -3.021871   -1.437235
C        -2.587071   -2.714076   -0.676043
O        -5.395130   -1.789991    2.299231
N        -6.996026   -4.090989    3.421492
C        -7.192351   -4.546489    4.683515
C        -6.736896   -3.584571    5.766291
O        -7.681492   -5.631566    4.947377
H        -7.724981   -5.796622    2.543922
N        -5.594240   -6.365614    0.927072
C        -4.377206   -7.040426    0.559105
H        -8.816925   -4.073059    1.389816
H        -7.358898   -3.109071    1.187419
H        -3.932275   -3.691469    2.207360
H        -2.219200   -5.067410    1.758544
H        -0.206037   -5.588109    0.385952
H         2.683168   -3.526308   -5.585962
H        -1.638508   -0.670998   -6.495740
H        -1.022610   -2.647344   -4.655824
H         4.128954   -4.764566   -5.148544
H         5.697916   -6.442535   -4.310059
H         5.273777   -7.592222   -2.133015
H         3.239218   -7.027830   -0.799260
H        -1.251676   -2.433050   -2.329031
H        -3.249770   -1.901800   -0.972258
H        -6.475078   -3.222039    3.286287
H        -6.863024   -2.533215    5.471056
H        -5.665718   -3.758486    5.950906
H        -7.292483   -3.791489    6.689304
H        -6.296410   -6.174138    0.198061
H        -3.742173   -6.429188   -0.104532
H        -4.612405   -7.984765    0.045326
H        -3.801452   -7.260759    1.467640
H        -6.228009   -2.828640   -1.983562
H        -5.053532   -3.893754   -1.062295
H        -6.414560   -1.286831   -0.034537
