65
-1 1
O        -2.967055   -1.962958    2.322210
C        -3.566988   -2.251120    3.369882
C        -4.004962   -1.189483    4.388187
C        -5.507917   -1.265153    4.740627
S        -6.026104   -2.735197    5.704559
C        -3.493637    1.219755   -2.003692
C        -3.784727    1.779003   -0.829717
C        -3.697207    1.076866    0.491888
N        -2.677073    0.210986    0.748999
C        -1.402727    0.126734    0.185526
C        -0.760877   -1.123859    0.201733
C         0.516458   -1.260575   -0.317773
C         1.191717   -0.163971   -0.873855
C         2.547956   -0.327438   -1.438730
N         3.077823    0.756337   -2.070871
C         4.280912    0.670642   -2.568614
N         4.817056    1.763618   -3.203604
C         4.176108    2.968473   -3.463075
N         4.912600    4.062520   -3.796542
H         5.920093    4.142288   -3.820132
N         4.161766    5.142512   -4.054895
C         2.920076    4.727899   -3.876006
C         2.851752    3.364118   -3.501446
N         3.150877   -1.486706   -1.303986
C         4.400673   -1.610259   -1.813046
C         5.059046   -0.541526   -2.473548
C         6.367208   -0.729172   -2.979073
C         7.005374   -1.940575   -2.834631
C         6.351999   -3.008388   -2.177875
C         5.081330   -2.850136   -1.678973
C         0.561091    1.087060   -0.856119
C        -0.711180    1.237706   -0.322195
O        -4.612664    1.242975    1.286780
N        -3.647567    0.126354    3.909963
C        -2.484245    0.734291    4.252905
C        -2.217943    2.054546    3.546533
O        -1.689361    0.281205    5.058018
H        -3.425059   -1.366148    5.307203
N        -3.871750   -3.508489    3.686616
C        -3.603313   -4.595414    2.785092
H        -5.720864   -0.352422    5.317656
H        -6.087137   -1.188651    3.802011
H        -2.866879   -0.500118    1.496458
H        -1.287594   -1.968568    0.650586
H         1.015770   -2.230269   -0.305554
H         5.739985    1.653302   -3.595930
H         2.091890    5.420263   -4.021048
H         1.986309    2.749511   -3.286094
H         6.895538    0.079698   -3.491211
H         8.015044   -2.077339   -3.226568
H         6.865208   -3.966235   -2.066610
H         4.555770   -3.656771   -1.165832
H         1.095675    1.955945   -1.242005
H        -1.170060    2.226066   -0.289769
H        -4.198345    0.524149    3.149542
H        -3.105700    2.464201    3.046446
H        -1.430099    1.890641    2.795019
H        -1.832035    2.772377    4.282701
H        -4.554833   -3.615019    4.478085
H        -4.056793   -4.429904    1.792988
H        -4.016961   -5.518578    3.212612
H        -2.520225   -4.731697    2.632119
H        -3.693793    1.741175   -2.943125
H        -3.048406    0.223103   -2.069830
H        -4.264191    2.760477   -0.773896
