-1 1
 OpenBabel05232413493D

 62 63  0  0  1  0  0  0  0  0999 V2000
   -0.2074   -3.0964   -3.3532 O   0  0  0  0  0  0  0  0  0  0  0  0
    0.6055   -2.2172   -3.0782 C   0  0  0  0  0  0  0  0  0  0  0  0
    0.2109   -1.0254   -2.1817 C   0  0  2  0  0  0  0  0  0  0  0  0
    0.7373    0.3349   -2.6802 C   0  0  0  0  0  0  0  0  0  0  0  0
    2.5176    0.6381   -2.3653 S   0  0  0  0  0  1  0  0  0  0  0  0
    1.5673    3.8721   -3.7088 C   0  0  0  0  0  0  0  0  0  0  0  0
    0.4492    4.6010   -3.7142 C   0  0  0  0  0  0  0  0  0  0  0  0
   -0.8130    4.2906   -2.9826 C   0  0  0  0  0  0  0  0  0  0  0  0
   -0.7920    3.6865   -1.7459 N   0  0  0  0  0  0  0  0  0  0  0  0
    0.1862    3.5515   -0.7377 C   0  0  0  0  0  0  0  0  0  0  0  0
    0.0289    2.5068    0.1756 C   0  0  0  0  0  0  0  0  0  0  0  0
    0.9219    2.3365    1.2329 C   0  0  0  0  0  0  0  0  0  0  0  0
    0.7130    1.2378    2.2169 C   0  0  0  0  0  0  0  0  0  0  0  0
   -0.4138    0.5348    2.1186 N   0  0  0  0  0  0  0  0  0  0  0  0
   -0.6128   -0.4584    2.9839 C   0  0  0  0  0  0  0  0  0  0  0  0
   -1.7894   -1.1444    2.7906 N   0  0  0  0  0  0  0  0  0  0  0  0
   -2.1968   -2.3486    3.3323 C   0  0  0  0  0  0  0  0  0  0  0  0
   -1.7007   -2.8654    4.4438 N   0  0  0  0  0  0  0  0  0  0  0  0
   -2.3721   -4.0188    4.6071 N   0  0  0  0  0  0  0  0  0  0  0  0
   -2.1390   -4.6135    5.3889 H   0  0  0  0  0  0  0  0  0  0  0  0
   -3.2910   -4.2536    3.6417 C   0  0  0  0  0  0  0  0  0  0  0  0
   -4.1324   -5.4859    3.6071 C   0  0  0  0  0  0  0  0  0  0  0  0
   -3.2161   -3.1762    2.7834 C   0  0  0  0  0  0  0  0  0  0  0  0
    0.3122   -0.7358    4.0027 C   0  0  0  0  0  0  0  0  0  0  0  0
    1.4408    0.0631    4.0085 C   0  0  0  0  0  0  0  0  0  0  0  0
    1.6589    1.0469    3.1375 N   0  0  0  0  0  0  0  0  0  0  0  0
    2.0079    3.2065    1.3637 C   0  0  0  0  0  0  0  0  0  0  0  0
    2.1580    4.2545    0.4624 C   0  0  0  0  0  0  0  0  0  0  0  0
    1.2469    4.4481   -0.5725 C   0  0  0  0  0  0  0  0  0  0  0  0
   -1.8863    4.5275   -3.5115 O   0  0  0  0  0  0  0  0  0  0  0  0
    0.6432   -1.2403   -0.8137 N   0  0  0  0  0  0  0  0  0  0  0  0
    0.1155   -2.0854    0.1019 C   0  0  0  0  0  0  0  0  0  0  0  0
   -1.2199   -2.7200   -0.2493 C   0  0  0  0  0  0  0  0  0  0  0  0
    0.6583   -2.3074    1.1755 O   0  0  0  0  0  0  0  0  0  0  0  0
   -0.8894   -1.0100   -2.2219 H   0  0  0  0  0  0  0  0  0  0  0  0
    1.8888   -2.2253   -3.4849 N   0  0  0  0  0  0  0  0  0  0  0  0
    2.4401   -3.2779   -4.2905 C   0  0  0  0  0  0  0  0  0  0  0  0
    0.5088    0.4047   -3.7569 H   0  0  0  0  0  0  0  0  0  0  0  0
    0.1398    1.1147   -2.1813 H   0  0  0  0  0  0  0  0  0  0  0  0
   -1.7204    3.3708   -1.4867 H   0  0  0  0  0  0  0  0  0  0  0  0
   -0.7928    1.7965    0.0695 H   0  0  0  0  0  0  0  0  0  0  0  0
   -2.2589   -0.8601    1.9406 H   0  0  0  0  0  0  0  0  0  0  0  0
   -4.6771   -5.6311    4.5531 H   0  0  0  0  0  0  0  0  0  0  0  0
   -3.5213   -6.3841    3.4258 H   0  0  0  0  0  0  0  0  0  0  0  0
   -4.8705   -5.4138    2.7986 H   0  0  0  0  0  0  0  0  0  0  0  0
   -3.7891   -3.0155    1.8741 H   0  0  0  0  0  0  0  0  0  0  0  0
    0.1502   -1.5450    4.7091 H   0  0  0  0  0  0  0  0  0  0  0  0
    2.2193   -0.1000    4.7627 H   0  0  0  0  0  0  0  0  0  0  0  0
    2.7132    3.0456    2.1789 H   0  0  0  0  0  0  0  0  0  0  0  0
    2.9970    4.9461    0.5686 H   0  0  0  0  0  0  0  0  0  0  0  0
    1.3668    5.2866   -1.2573 H   0  0  0  0  0  0  0  0  0  0  0  0
    1.5483   -0.8079   -0.6002 H   0  0  0  0  0  0  0  0  0  0  0  0
   -1.9963   -1.9405   -0.3326 H   0  0  0  0  0  0  0  0  0  0  0  0
   -1.4866   -3.4177    0.5536 H   0  0  0  0  0  0  0  0  0  0  0  0
   -1.1788   -3.2349   -1.2202 H   0  0  0  0  0  0  0  0  0  0  0  0
    2.4624   -1.4031   -3.2202 H   0  0  0  0  0  0  0  0  0  0  0  0
    1.6635   -4.0398   -4.4409 H   0  0  0  0  0  0  0  0  0  0  0  0
    3.3090   -3.7452   -3.7977 H   0  0  0  0  0  0  0  0  0  0  0  0
    2.7667   -2.9054   -5.2761 H   0  0  0  0  0  0  0  0  0  0  0  0
    0.3224    5.4350   -4.4116 H   0  0  0  0  0  0  0  0  0  0  0  0
    1.7413    2.9889   -3.0755 H   0  0  0  0  0  0  0  0  0  0  0  0
    2.3863    4.1348   -4.3851 H   0  0  0  0  0  0  0  0  0  0  0  0
  1  2  2  0  0  0  0
  2  3  1  0  0  0  0
  3 35  1  1  0  0  0
  3 31  1  0  0  0  0
  4  5  1  0  0  0  0
  4  3  1  0  0  0  0
  4 39  1  0  0  0  0
  6 61  1  0  0  0  0
  7  6  2  0  0  0  0
  7  8  1  0  0  0  0
  8  9  1  0  0  0  0
  9 40  1  0  0  0  0
  9 10  1  0  0  0  0
 10 29  2  0  0  0  0
 10 11  1  0  0  0  0
 11 12  2  0  0  0  0
 12 27  1  0  0  0  0
 12 13  1  0  0  0  0
 13 26  1  0  0  0  0
 14 13  2  0  0  0  0
 14 15  1  0  0  0  0
 15 24  2  0  0  0  0
 16 15  1  0  0  0  0
 16 17  1  0  0  0  0
 17 18  2  0  0  0  0
 18 19  1  0  0  0  0
 19 20  1  0  0  0  0
 21 19  1  0  0  0  0
 22 21  1  0  0  0  0
 22 43  1  0  0  0  0
 23 17  1  0  0  0  0
 23 21  2  0  0  0  0
 24 25  1  0  0  0  0
 24 47  1  0  0  0  0
 25 48  1  0  0  0  0
 26 25  2  0  0  0  0
 27 49  1  0  0  0  0
 28 50  1  0  0  0  0
 28 27  2  0  0  0  0
 29 28  1  0  0  0  0
 30  8  2  0  0  0  0
 31 52  1  0  0  0  0
 31 32  1  0  0  0  0
 32 34  2  0  0  0  0
 33 32  1  0  0  0  0
 33 54  1  0  0  0  0
 36 56  1  0  0  0  0
 36  2  1  0  0  0  0
 37 58  1  0  0  0  0
 37 36  1  0  0  0  0
 38  4  1  0  0  0  0
 41 11  1  0  0  0  0
 42 16  1  0  0  0  0
 44 22  1  0  0  0  0
 45 22  1  0  0  0  0
 46 23  1  0  0  0  0
 51 29  1  0  0  0  0
 53 33  1  0  0  0  0
 55 33  1  0  0  0  0
 57 37  1  0  0  0  0
 59 37  1  0  0  0  0
 60  7  1  0  0  0  0
 62  6  1  0  0  0  0
M  END
