62
-1 1
O        -1.116922   -2.909013   -3.604128
C        -0.261045   -2.036212   -3.562823
C        -0.569069   -0.623886   -3.029204
C        -0.396037    0.446954   -4.125418
S         1.302781    0.974776   -4.462995
C         1.215290    2.896741   -3.484673
C         0.078327    3.686950   -3.782131
C        -1.188644    3.671250   -3.126263
N        -1.313466    2.980205   -1.871580
C        -0.540517    3.048178   -0.721179
C        -0.822471    2.156020    0.324251
C        -0.075820    2.148737    1.501074
C        -0.358346    1.133094    2.548128
N        -1.354399    0.276286    2.323409
C        -1.585686   -0.680113    3.219084
N        -2.606840   -1.536481    2.867503
C        -3.055360   -2.691316    3.477133
N        -2.682906   -3.086404    4.683632
N        -3.348915   -4.239052    4.879084
H        -3.213958   -4.740745    5.744952
C        -4.139111   -4.592899    3.838992
C        -4.961078   -5.838805    3.833695
C        -3.979308   -3.602409    2.891886
C        -0.833347   -0.775990    4.400291
C         0.155560    0.186399    4.542818
N         0.407481    1.132613    3.645111
C         0.971387    3.062672    1.666273
C         1.244524    3.964696    0.642431
C         0.505171    3.970166   -0.537850
O        -2.229913    4.157552   -3.570263
N         0.220917   -0.305921   -1.859539
C         0.139820   -0.896496   -0.632606
C        -1.107097   -1.721494   -0.368225
O         1.002534   -0.745427    0.212635
H        -1.636551   -0.656174   -2.764665
N         1.022441   -2.224352   -3.950456
C         1.497839   -3.465912   -4.497073
H        -0.862968    0.073473   -5.048254
H        -0.944348    1.357925   -3.834932
H        -2.288293    2.757754   -1.706258
H        -1.619196    1.421410    0.201590
H        -2.984922   -1.330155    1.951732
H        -5.666312   -5.860813    4.679129
H        -4.328702   -6.738193    3.895872
H        -5.543129   -5.900181    2.905897
H        -4.445174   -3.543815    1.911634
H        -1.023234   -1.550940    5.137999
H         0.784172    0.187605    5.441428
H         1.558800    3.037578    2.583885
H         2.057391    4.686351    0.760211
H         0.732870    4.676294   -1.337529
H         1.072292    0.225156   -2.037449
H        -1.985864   -1.056891   -0.363657
H        -1.001619   -2.186344    0.618501
H        -1.273312   -2.488163   -1.138506
H         1.619905   -1.396386   -3.979550
H         0.689875   -4.203890   -4.409579
H         2.379356   -3.833109   -3.947066
H         1.769325   -3.365674   -5.561185
H         0.064310    4.243484   -4.722951
H         1.339191    2.539746   -2.459257
H         2.166380    3.242848   -3.902947
