-1 1
 OpenBabel05192410563D

 62 64  0  0  1  0  0  0  0  0999 V2000
   -0.3626   -2.8164   -3.5481 O   0  0  0  0  0  0  0  0  0  0  0  0
    0.4859   -1.9414   -3.4606 C   0  0  0  0  0  0  0  0  0  0  0  0
    0.1565   -0.5469   -2.8947 C   0  0  2  0  0  0  0  0  0  0  0  0
    0.2499    0.5371   -3.9852 C   0  0  0  0  0  0  0  0  0  0  0  0
    1.9165    1.1064   -4.4107 S   0  0  0  0  0  0  0  0  0  0  0  0
    1.9187    2.8725   -3.4480 C   0  0  0  0  0  0  0  0  0  0  0  0
    0.8009    3.7506   -3.7024 C   0  0  0  0  0  3  0  0  0  0  0  0
   -0.4291    3.7909   -3.0087 C   0  0  0  0  0  0  0  0  0  0  0  0
   -0.5395    3.0282   -1.7760 N   0  0  0  0  0  0  0  0  0  0  0  0
    0.2347    3.0902   -0.6304 C   0  0  0  0  0  0  0  0  0  0  0  0
   -0.0614    2.2159    0.4288 C   0  0  0  0  0  0  0  0  0  0  0  0
    0.7005    2.1938    1.5953 C   0  0  0  0  0  0  0  0  0  0  0  0
    0.4074    1.1892    2.6495 C   0  0  0  0  0  0  0  0  0  0  0  0
   -0.5877    0.3301    2.4253 N   0  0  0  0  0  0  0  0  0  0  0  0
   -0.8285   -0.6165    3.3289 C   0  0  0  0  0  0  0  0  0  0  0  0
   -1.8495   -1.4737    2.9776 N   0  0  0  0  0  0  0  0  0  0  0  0
   -2.3167   -2.6131    3.6015 C   0  0  0  0  0  0  0  0  0  0  0  0
   -1.9445   -3.0037    4.8096 N   0  0  0  0  0  0  0  0  0  0  0  0
   -2.6319   -4.1410    5.0206 N   0  0  0  0  0  0  0  0  0  0  0  0
   -2.5025   -4.6359    5.8912 H   0  0  0  0  0  0  0  0  0  0  0  0
   -3.4351   -4.4897    3.9888 C   0  0  0  0  0  0  0  0  0  0  0  0
   -4.2822   -5.7186    4.0014 C   0  0  0  0  0  0  0  0  0  0  0  0
   -3.2616   -3.5120    3.0308 C   0  0  0  0  0  0  0  0  0  0  0  0
   -0.0853   -0.7034    4.5164 C   0  0  0  0  0  0  0  0  0  0  0  0
    0.9047    0.2585    4.6568 C   0  0  0  0  0  0  0  0  0  0  0  0
    1.1650    1.1959    3.7528 N   0  0  0  0  0  0  0  0  0  0  0  0
    1.7761    3.0782    1.7427 C   0  0  0  0  0  0  0  0  0  0  0  0
    2.0647    3.9613    0.7068 C   0  0  0  0  0  0  0  0  0  0  0  0
    1.3147    3.9775   -0.4667 C   0  0  0  0  0  0  0  0  0  0  0  0
   -1.4639    4.3646   -3.3642 O   0  0  0  0  0  0  0  0  0  0  0  0
    0.9739   -0.2193   -1.7481 N   0  0  0  0  0  0  0  0  0  0  0  0
    0.9428   -0.8270   -0.5257 C   0  0  0  0  0  0  0  0  0  0  0  0
   -0.2733   -1.6891   -0.2399 C   0  0  0  0  0  0  0  0  0  0  0  0
    1.8247   -0.6628    0.2956 O   0  0  0  0  0  0  0  0  0  0  0  0
   -0.9003   -0.6148   -2.5964 H   0  0  0  0  0  0  0  0  0  0  0  0
    1.7788   -2.1083   -3.8300 N   0  0  0  0  0  0  0  0  0  0  0  0
    2.2751   -3.3270   -4.4096 C   0  0  0  0  0  0  0  0  0  0  0  0
   -0.2496    0.1628   -4.8898 H   0  0  0  0  0  0  0  0  0  0  0  0
   -0.2944    1.4367   -3.6583 H   0  0  0  0  0  0  0  0  0  0  0  0
   -1.5175    2.8277   -1.6000 H   0  0  0  0  0  0  0  0  0  0  0  0
   -0.8812    1.5042    0.3213 H   0  0  0  0  0  0  0  0  0  0  0  0
   -2.2266   -1.2697    2.0610 H   0  0  0  0  0  0  0  0  0  0  0  0
   -4.9831   -5.7170    4.8508 H   0  0  0  0  0  0  0  0  0  0  0  0
   -3.6681   -6.6300    4.0702 H   0  0  0  0  0  0  0  0  0  0  0  0
   -4.8707   -5.7780    3.0775 H   0  0  0  0  0  0  0  0  0  0  0  0
   -3.7336   -3.4535    2.0535 H   0  0  0  0  0  0  0  0  0  0  0  0
   -0.2820   -1.4712    5.2597 H   0  0  0  0  0  0  0  0  0  0  0  0
    1.5271    0.2664    5.5598 H   0  0  0  0  0  0  0  0  0  0  0  0
    2.3736    3.0427    2.6534 H   0  0  0  0  0  0  0  0  0  0  0  0
    2.9010    4.6584    0.8084 H   0  0  0  0  0  0  0  0  0  0  0  0
    1.5541    4.6669   -1.2782 H   0  0  0  0  0  0  0  0  0  0  0  0
    1.7952    0.3543   -1.9267 H   0  0  0  0  0  0  0  0  0  0  0  0
   -1.1712   -1.0514   -0.2206 H   0  0  0  0  0  0  0  0  0  0  0  0
   -0.1380   -2.1503    0.7448 H   0  0  0  0  0  0  0  0  0  0  0  0
   -0.4291   -2.4616   -1.0069 H   0  0  0  0  0  0  0  0  0  0  0  0
    2.3728   -1.2801   -3.8139 H   0  0  0  0  0  0  0  0  0  0  0  0
    1.4688   -4.0707   -4.3710 H   0  0  0  0  0  0  0  0  0  0  0  0
    3.1432   -3.7113   -3.8500 H   0  0  0  0  0  0  0  0  0  0  0  0
    2.5737   -3.1857   -5.4615 H   0  0  0  0  0  0  0  0  0  0  0  0
    0.8036    4.3300   -4.6296 H   0  0  0  0  0  0  0  0  0  0  0  0
    2.0503    2.5562   -2.4075 H   0  0  0  0  0  0  0  0  0  0  0  0
    2.8803    3.2411   -3.8312 H   0  0  0  0  0  0  0  0  0  0  0  0
  1  2  2  0  0  0  0
  2  3  1  0  0  0  0
  3 35  1  1  0  0  0
  3 31  1  0  0  0  0
  4 39  1  0  0  0  0
  4  3  1  0  0  0  0
  5  4  1  0  0  0  0
  5  6  1  0  0  0  0
  6 61  1  0  0  0  0
  7  6  1  0  0  0  0
  7  8  1  0  0  0  0
  8  9  1  0  0  0  0
  9 40  1  0  0  0  0
  9 10  1  0  0  0  0
 10 29  2  0  0  0  0
 10 11  1  0  0  0  0
 11 12  2  0  0  0  0
 12 27  1  0  0  0  0
 12 13  1  0  0  0  0
 13 26  1  0  0  0  0
 14 13  2  0  0  0  0
 14 15  1  0  0  0  0
 15 24  2  0  0  0  0
 16 15  1  0  0  0  0
 16 17  1  0  0  0  0
 17 18  2  0  0  0  0
 18 19  1  0  0  0  0
 19 20  1  0  0  0  0
 21 22  1  0  0  0  0
 21 19  1  0  0  0  0
 22 44  1  0  0  0  0
 22 43  1  0  0  0  0
 23 17  1  0  0  0  0
 23 21  2  0  0  0  0
 24 25  1  0  0  0  0
 24 47  1  0  0  0  0
 25 48  1  0  0  0  0
 26 25  2  0  0  0  0
 27 49  1  0  0  0  0
 28 50  1  0  0  0  0
 28 27  2  0  0  0  0
 29 28  1  0  0  0  0
 30  8  2  0  0  0  0
 31 32  1  0  0  0  0
 32 33  1  0  0  0  0
 32 34  2  0  0  0  0
 33 53  1  0  0  0  0
 33 54  1  0  0  0  0
 36 56  1  0  0  0  0
 36  2  1  0  0  0  0
 37 57  1  0  0  0  0
 37 58  1  0  0  0  0
 37 36  1  0  0  0  0
 38  4  1  0  0  0  0
 41 11  1  0  0  0  0
 42 16  1  0  0  0  0
 45 22  1  0  0  0  0
 46 23  1  0  0  0  0
 51 29  1  0  0  0  0
 52 31  1  0  0  0  0
 55 33  1  0  0  0  0
 59 37  1  0  0  0  0
 60  7  1  0  0  0  0
 62  6  1  0  0  0  0
M  END
