-1 1
 OpenBabel05232414493D

 62 64  0  0  1  0  0  0  0  0999 V2000
   -1.1169   -2.9090   -3.6041 O   0  0  0  0  0  0  0  0  0  0  0  0
   -0.2610   -2.0362   -3.5628 C   0  0  0  0  0  0  0  0  0  0  0  0
   -0.5691   -0.6239   -3.0292 C   0  0  2  0  0  0  0  0  0  0  0  0
   -0.3960    0.4470   -4.1254 C   0  0  0  0  0  0  0  0  0  0  0  0
    1.3028    0.9748   -4.4630 S   0  0  0  0  0  0  0  0  0  0  0  0
    1.2153    2.8967   -3.4847 C   0  0  0  0  0  0  0  0  0  0  0  0
    0.0783    3.6869   -3.7821 C   0  0  0  0  0  3  0  0  0  0  0  0
   -1.1886    3.6713   -3.1263 C   0  0  0  0  0  0  0  0  0  0  0  0
   -1.3135    2.9802   -1.8716 N   0  0  0  0  0  0  0  0  0  0  0  0
   -0.5405    3.0482   -0.7212 C   0  0  0  0  0  0  0  0  0  0  0  0
   -0.8225    2.1560    0.3243 C   0  0  0  0  0  0  0  0  0  0  0  0
   -0.0758    2.1487    1.5011 C   0  0  0  0  0  0  0  0  0  0  0  0
   -0.3583    1.1331    2.5481 C   0  0  0  0  0  0  0  0  0  0  0  0
   -1.3544    0.2763    2.3234 N   0  0  0  0  0  0  0  0  0  0  0  0
   -1.5857   -0.6801    3.2191 C   0  0  0  0  0  0  0  0  0  0  0  0
   -2.6068   -1.5365    2.8675 N   0  0  0  0  0  0  0  0  0  0  0  0
   -3.0554   -2.6913    3.4771 C   0  0  0  0  0  0  0  0  0  0  0  0
   -2.6829   -3.0864    4.6836 N   0  0  0  0  0  0  0  0  0  0  0  0
   -3.3489   -4.2391    4.8791 N   0  0  0  0  0  0  0  0  0  0  0  0
   -3.2140   -4.7407    5.7450 H   0  0  0  0  0  0  0  0  0  0  0  0
   -4.1391   -4.5929    3.8390 C   0  0  0  0  0  0  0  0  0  0  0  0
   -4.9611   -5.8388    3.8337 C   0  0  0  0  0  0  0  0  0  0  0  0
   -3.9793   -3.6024    2.8919 C   0  0  0  0  0  0  0  0  0  0  0  0
   -0.8333   -0.7760    4.4003 C   0  0  0  0  0  0  0  0  0  0  0  0
    0.1556    0.1864    4.5428 C   0  0  0  0  0  0  0  0  0  0  0  0
    0.4075    1.1326    3.6451 N   0  0  0  0  0  0  0  0  0  0  0  0
    0.9714    3.0627    1.6663 C   0  0  0  0  0  0  0  0  0  0  0  0
    1.2445    3.9647    0.6424 C   0  0  0  0  0  0  0  0  0  0  0  0
    0.5052    3.9702   -0.5379 C   0  0  0  0  0  0  0  0  0  0  0  0
   -2.2299    4.1576   -3.5703 O   0  0  0  0  0  0  0  0  0  0  0  0
    0.2209   -0.3059   -1.8595 N   0  0  0  0  0  0  0  0  0  0  0  0
    0.1398   -0.8965   -0.6326 C   0  0  0  0  0  0  0  0  0  0  0  0
   -1.1071   -1.7215   -0.3682 C   0  0  0  0  0  0  0  0  0  0  0  0
    1.0025   -0.7454    0.2126 O   0  0  0  0  0  0  0  0  0  0  0  0
   -1.6366   -0.6562   -2.7647 H   0  0  0  0  0  0  0  0  0  0  0  0
    1.0224   -2.2244   -3.9505 N   0  0  0  0  0  0  0  0  0  0  0  0
    1.4978   -3.4659   -4.4971 C   0  0  0  0  0  0  0  0  0  0  0  0
   -0.8630    0.0735   -5.0483 H   0  0  0  0  0  0  0  0  0  0  0  0
   -0.9443    1.3579   -3.8349 H   0  0  0  0  0  0  0  0  0  0  0  0
   -2.2883    2.7578   -1.7063 H   0  0  0  0  0  0  0  0  0  0  0  0
   -1.6192    1.4214    0.2016 H   0  0  0  0  0  0  0  0  0  0  0  0
   -2.9849   -1.3302    1.9517 H   0  0  0  0  0  0  0  0  0  0  0  0
   -5.6663   -5.8608    4.6791 H   0  0  0  0  0  0  0  0  0  0  0  0
   -4.3287   -6.7382    3.8959 H   0  0  0  0  0  0  0  0  0  0  0  0
   -5.5431   -5.9002    2.9059 H   0  0  0  0  0  0  0  0  0  0  0  0
   -4.4452   -3.5438    1.9116 H   0  0  0  0  0  0  0  0  0  0  0  0
   -1.0232   -1.5509    5.1380 H   0  0  0  0  0  0  0  0  0  0  0  0
    0.7842    0.1876    5.4414 H   0  0  0  0  0  0  0  0  0  0  0  0
    1.5588    3.0376    2.5839 H   0  0  0  0  0  0  0  0  0  0  0  0
    2.0574    4.6864    0.7602 H   0  0  0  0  0  0  0  0  0  0  0  0
    0.7329    4.6763   -1.3375 H   0  0  0  0  0  0  0  0  0  0  0  0
    1.0723    0.2252   -2.0374 H   0  0  0  0  0  0  0  0  0  0  0  0
   -1.9859   -1.0569   -0.3637 H   0  0  0  0  0  0  0  0  0  0  0  0
   -1.0016   -2.1863    0.6185 H   0  0  0  0  0  0  0  0  0  0  0  0
   -1.2733   -2.4882   -1.1385 H   0  0  0  0  0  0  0  0  0  0  0  0
    1.6199   -1.3964   -3.9796 H   0  0  0  0  0  0  0  0  0  0  0  0
    0.6899   -4.2039   -4.4096 H   0  0  0  0  0  0  0  0  0  0  0  0
    2.3794   -3.8331   -3.9471 H   0  0  0  0  0  0  0  0  0  0  0  0
    1.7693   -3.3657   -5.5612 H   0  0  0  0  0  0  0  0  0  0  0  0
    0.0643    4.2435   -4.7230 H   0  0  0  0  0  0  0  0  0  0  0  0
    1.3392    2.5397   -2.4593 H   0  0  0  0  0  0  0  0  0  0  0  0
    2.1664    3.2428   -3.9029 H   0  0  0  0  0  0  0  0  0  0  0  0
  1  2  2  0  0  0  0
  2  3  1  0  0  0  0
  3 35  1  1  0  0  0
  3 31  1  0  0  0  0
  4 39  1  0  0  0  0
  4  3  1  0  0  0  0
  5  4  1  0  0  0  0
  5  6  1  0  0  0  0
  6 61  1  0  0  0  0
  7  6  1  0  0  0  0
  7  8  1  0  0  0  0
  8  9  1  0  0  0  0
  9 40  1  0  0  0  0
  9 10  1  0  0  0  0
 10 29  2  0  0  0  0
 10 11  1  0  0  0  0
 11 12  2  0  0  0  0
 12 27  1  0  0  0  0
 12 13  1  0  0  0  0
 13 26  1  0  0  0  0
 14 13  2  0  0  0  0
 14 15  1  0  0  0  0
 15 24  2  0  0  0  0
 16 15  1  0  0  0  0
 16 17  1  0  0  0  0
 17 18  2  0  0  0  0
 18 19  1  0  0  0  0
 19 20  1  0  0  0  0
 21 19  1  0  0  0  0
 22 21  1  0  0  0  0
 22 44  1  0  0  0  0
 22 43  1  0  0  0  0
 23 17  1  0  0  0  0
 23 21  2  0  0  0  0
 24 25  1  0  0  0  0
 24 47  1  0  0  0  0
 25 48  1  0  0  0  0
 26 25  2  0  0  0  0
 27 49  1  0  0  0  0
 28 50  1  0  0  0  0
 28 27  2  0  0  0  0
 29 28  1  0  0  0  0
 30  8  2  0  0  0  0
 31 32  1  0  0  0  0
 32 33  1  0  0  0  0
 32 34  2  0  0  0  0
 33 53  1  0  0  0  0
 33 54  1  0  0  0  0
 36  2  1  0  0  0  0
 37 57  1  0  0  0  0
 37 36  1  0  0  0  0
 37 58  1  0  0  0  0
 38  4  1  0  0  0  0
 41 11  1  0  0  0  0
 42 16  1  0  0  0  0
 45 22  1  0  0  0  0
 46 23  1  0  0  0  0
 51 29  1  0  0  0  0
 52 31  1  0  0  0  0
 55 33  1  0  0  0  0
 56 36  1  0  0  0  0
 59 37  1  0  0  0  0
 60  7  1  0  0  0  0
 62  6  1  0  0  0  0
M  END
