62
-1 1
O        -0.362640   -2.816446   -3.548053
C         0.485901   -1.941412   -3.460627
C         0.156508   -0.546934   -2.894729
C         0.249882    0.537113   -3.985157
S         1.916465    1.106442   -4.410739
C         1.918709    2.872527   -3.447977
C         0.800864    3.750643   -3.702394
C        -0.429137    3.790924   -3.008690
N        -0.539470    3.028212   -1.775998
C         0.234654    3.090156   -0.630364
C        -0.061409    2.215939    0.428764
C         0.700452    2.193846    1.595329
C         0.407429    1.189156    2.649451
N        -0.587675    0.330073    2.425301
C        -0.828455   -0.616486    3.328874
N        -1.849512   -1.473684    2.977629
C        -2.316668   -2.613074    3.601482
N        -1.944544   -3.003710    4.809584
N        -2.631944   -4.141036    5.020624
H        -2.502483   -4.635913    5.891238
C        -3.435088   -4.489695    3.988817
C        -4.282246   -5.718575    4.001409
C        -3.261621   -3.512048    3.030807
C        -0.085330   -0.703425    4.516356
C         0.904727    0.258464    4.656797
N         1.164973    1.195919    3.752820
C         1.776115    3.078179    1.742692
C         2.064651    3.961294    0.706767
C         1.314701    3.977542   -0.466735
O        -1.463945    4.364555   -3.364175
N         0.973948   -0.219290   -1.748127
C         0.942776   -0.826976   -0.525675
C        -0.273341   -1.689073   -0.239948
O         1.824746   -0.662786    0.295625
H        -0.900313   -0.614805   -2.596432
N         1.778753   -2.108319   -3.829984
C         2.275148   -3.326956   -4.409560
H        -0.249614    0.162774   -4.889834
H        -0.294385    1.436709   -3.658276
H        -1.517550    2.827748   -1.599985
H        -0.881161    1.504220    0.321310
H        -2.226574   -1.269732    2.060999
H        -4.983107   -5.716956    4.850753
H        -3.668103   -6.630049    4.070156
H        -4.870663   -5.778039    3.077501
H        -3.733560   -3.453453    2.053459
H        -0.281994   -1.471195    5.259728
H         1.527063    0.266375    5.559818
H         2.373561    3.042743    2.653367
H         2.901018    4.658359    0.808424
H         1.554076    4.666905   -1.278164
H         1.795189    0.354331   -1.926660
H        -1.171247   -1.051370   -0.220592
H        -0.137964   -2.150253    0.744771
H        -0.429107   -2.461598   -1.006888
H         2.372755   -1.280059   -3.813944
H         1.468822   -4.070696   -4.371031
H         3.143162   -3.711270   -3.850015
H         2.573655   -3.185659   -5.461517
H         0.803554    4.330049   -4.629559
H         2.050269    2.556163   -2.407461
H         2.880274    3.241114   -3.831228
