-1 1
 OpenBabel05232413493D

 98 99  0  0  1  0  0  0  0  0999 V2000
   -1.2311    1.4977    4.8115 C   0  0  0  0  0  0  0  0  0  0  0  0
   -0.9683    2.1980    3.4981 C   0  0  0  0  0  0  0  0  0  0  0  0
   -0.1744    3.3511    3.7626 O   0  0  0  0  0  0  0  0  0  0  0  0
    0.5189    3.9512    2.7797 C   0  0  0  0  0  0  0  0  0  0  0  0
    1.4198    4.6989    3.0672 O   0  0  0  0  0  0  0  0  0  0  0  0
    0.1163    3.6331    1.3832 C   0  0  0  0  0  0  0  0  0  0  0  0
    1.0506    3.6171    0.4287 C   0  0  0  0  0  0  0  0  0  0  0  0
    2.1998    0.9355    1.5405 S   0  0  0  0  0  1  0  0  0  0  0  0
    3.7268   -0.0508    1.7097 C   0  0  0  0  0  0  0  0  0  0  0  0
    4.9958    0.8198    1.8451 C   0  0  2  0  0  0  0  0  0  0  0  0
    4.9408    1.6186    1.0884 H   0  0  0  0  0  0  0  0  0  0  0  0
    6.2046    0.0610    1.6214 N   0  0  0  0  0  0  0  0  0  0  0  0
    6.6144   -0.3118    0.3938 C   0  0  0  0  0  0  0  0  0  0  0  0
    7.9489   -1.0312    0.3352 C   0  0  0  0  0  0  0  0  0  0  0  0
    5.9702   -0.1055   -0.6273 O   0  0  0  0  0  0  0  0  0  0  0  0
    5.1451    1.4894    3.2215 C   0  0  0  0  0  0  0  0  0  0  0  0
    4.1420    2.3150    3.5540 N   0  0  0  0  0  0  0  0  0  0  0  0
    4.0806    2.9996    4.8197 C   0  0  0  0  0  0  0  0  0  0  0  0
    6.1307    1.2801    3.9234 O   0  0  0  0  0  0  0  0  0  0  0  0
    0.8563    3.1509   -0.9909 C   0  0  1  0  0  0  0  0  0  0  0  0
    1.3826    2.1875   -1.0649 H   0  0  0  0  0  0  0  0  0  0  0  0
   -0.5351    2.9227   -1.3146 N   0  0  0  0  0  0  0  0  0  0  0  0
   -1.2756    1.8087   -1.0394 C   0  0  0  0  0  0  0  0  0  0  0  0
   -0.4902    0.5067   -0.7946 C   0  0  1  0  0  0  0  0  0  0  0  0
    0.2801    0.7457   -0.0419 H   0  0  0  0  0  0  0  0  0  0  0  0
   -1.3726   -0.4554   -0.1315 N   0  0  0  0  0  0  0  0  0  0  0  0
   -1.1384   -0.7389    1.1905 C   0  0  0  0  0  0  0  0  0  0  0  0
   -1.9781   -1.5369    1.9005 C   0  0  0  0  0  0  0  0  0  0  0  0
   -3.1266   -2.0913    1.2680 C   0  0  0  0  0  0  0  0  0  0  0  0
   -3.3513   -1.8365   -0.0549 C   0  0  0  0  0  0  0  0  0  0  0  0
   -4.3926   -2.2924   -0.8662 N   0  0  0  0  0  0  0  0  0  0  0  0
   -5.5075   -3.0235   -0.6146 C   0  0  0  0  0  0  0  0  0  0  0  0
   -5.6203   -3.3672    0.6829 O   0  0  0  0  0  0  0  0  0  0  0  0
   -6.7451   -4.1626    1.0471 C   0  0  0  0  0  0  0  0  0  0  0  0
   -6.4344   -5.6380    0.9839 C   0  0  0  0  0  0  0  0  0  0  0  0
   -6.4573   -6.3166   -0.2412 C   0  0  0  0  0  0  0  0  0  0  0  0
   -6.1444   -7.6726   -0.3001 C   0  0  0  0  0  0  0  0  0  0  0  0
   -5.8080   -8.3676    0.8621 C   0  0  0  0  0  0  0  0  0  0  0  0
   -5.7835   -7.7000    2.0853 C   0  0  0  0  0  0  0  0  0  0  0  0
   -6.0938   -6.3418    2.1425 C   0  0  0  0  0  0  0  0  0  0  0  0
   -6.3164   -3.3279   -1.4635 O   0  0  0  0  0  0  0  0  0  0  0  0
   -2.4302   -1.0023   -0.8374 C   0  0  0  0  0  0  0  0  0  0  0  0
   -2.5906   -0.8311   -2.0430 O   0  0  0  0  0  0  0  0  0  0  0  0
    0.2757   -0.1400   -1.9870 C   0  0  0  0  0  0  0  0  0  0  0  0
    0.4174    0.6696   -3.2526 C   0  0  0  0  0  0  0  0  0  0  0  0
   -0.7112    1.0256   -4.0047 C   0  0  0  0  0  0  0  0  0  0  0  0
   -0.5801    1.7722   -5.1712 C   0  0  0  0  0  0  0  0  0  0  0  0
    0.6902    2.1581   -5.5893 C   0  0  0  0  0  0  0  0  0  0  0  0
    0.8097    2.8846   -6.7102 F   0  0  0  0  0  0  0  0  0  0  0  0
    1.8279    1.8123   -4.8770 C   0  0  0  0  0  0  0  0  0  0  0  0
    1.6771    1.0622   -3.7096 C   0  0  0  0  0  0  0  0  0  0  0  0
   -2.4860    1.8653   -0.9561 O   0  0  0  0  0  0  0  0  0  0  0  0
    1.5079    4.0915   -2.0130 C   0  0  0  0  0  0  0  0  0  0  0  0
    3.0255    4.2636   -1.8614 C   0  0  0  0  0  0  0  0  0  0  0  0
    3.8758    3.0288   -2.1728 C   0  0  0  0  0  0  0  0  0  0  0  0
    3.9415    2.0780   -1.2134 N   0  0  0  0  0  0  0  0  0  0  0  0
    4.4685    2.9379   -3.2368 O   0  0  0  0  0  0  0  0  0  0  0  0
   -1.8573    0.6103    4.6369 H   0  0  0  0  0  0  0  0  0  0  0  0
   -1.7517    2.1624    5.5165 H   0  0  0  0  0  0  0  0  0  0  0  0
   -0.2841    1.1758    5.2676 H   0  0  0  0  0  0  0  0  0  0  0  0
   -1.9180    2.4921    3.0184 H   0  0  0  0  0  0  0  0  0  0  0  0
   -0.4224    1.5295    2.8158 H   0  0  0  0  0  0  0  0  0  0  0  0
   -0.9073    3.3125    1.1779 H   0  0  0  0  0  0  0  0  0  0  0  0
    2.0639    3.9019    0.7214 H   0  0  0  0  0  0  0  0  0  0  0  0
    3.8644   -0.6679    0.8108 H   0  0  0  0  0  0  0  0  0  0  0  0
    3.6662   -0.7316    2.5751 H   0  0  0  0  0  0  0  0  0  0  0  0
    6.8111    0.0021    2.4361 H   0  0  0  0  0  0  0  0  0  0  0  0
    8.4207   -1.1614    1.3187 H   0  0  0  0  0  0  0  0  0  0  0  0
    8.6227   -0.4634   -0.3218 H   0  0  0  0  0  0  0  0  0  0  0  0
    7.7939   -2.0161   -0.1273 H   0  0  0  0  0  0  0  0  0  0  0  0
    3.2966    2.2587    2.9666 H   0  0  0  0  0  0  0  0  0  0  0  0
    5.0472    3.4747    5.0428 H   0  0  0  0  0  0  0  0  0  0  0  0
    3.8451    2.3148    5.6529 H   0  0  0  0  0  0  0  0  0  0  0  0
    3.2985    3.7680    4.7575 H   0  0  0  0  0  0  0  0  0  0  0  0
   -1.1147    3.7497   -1.4194 H   0  0  0  0  0  0  0  0  0  0  0  0
   -0.2160   -0.3138    1.6011 H   0  0  0  0  0  0  0  0  0  0  0  0
   -1.7536   -1.7570    2.9437 H   0  0  0  0  0  0  0  0  0  0  0  0
   -3.8137   -2.7233    1.8255 H   0  0  0  0  0  0  0  0  0  0  0  0
   -4.2826   -1.9781   -1.8304 H   0  0  0  0  0  0  0  0  0  0  0  0
   -7.5877   -3.9132    0.3879 H   0  0  0  0  0  0  0  0  0  0  0  0
   -6.9877   -3.8649    2.0759 H   0  0  0  0  0  0  0  0  0  0  0  0
   -6.7094   -5.7609   -1.1473 H   0  0  0  0  0  0  0  0  0  0  0  0
   -6.1623   -8.1911   -1.2614 H   0  0  0  0  0  0  0  0  0  0  0  0
   -5.5627   -9.4311    0.8135 H   0  0  0  0  0  0  0  0  0  0  0  0
   -5.5185   -8.2374    2.9987 H   0  0  0  0  0  0  0  0  0  0  0  0
   -6.0694   -5.8193    3.1029 H   0  0  0  0  0  0  0  0  0  0  0  0
   -0.2409   -1.0741   -2.2398 H   0  0  0  0  0  0  0  0  0  0  0  0
    1.2755   -0.4069   -1.6136 H   0  0  0  0  0  0  0  0  0  0  0  0
   -1.6970    0.7091   -3.6544 H   0  0  0  0  0  0  0  0  0  0  0  0
   -1.4503    2.0612   -5.7633 H   0  0  0  0  0  0  0  0  0  0  0  0
    2.8155    2.1492   -5.1949 H   0  0  0  0  0  0  0  0  0  0  0  0
    2.5683    0.8005   -3.1356 H   0  0  0  0  0  0  0  0  0  0  0  0
    1.0353    5.0860   -1.9325 H   0  0  0  0  0  0  0  0  0  0  0  0
    1.2781    3.7045   -3.0162 H   0  0  0  0  0  0  0  0  0  0  0  0
    3.2738    4.6331   -0.8540 H   0  0  0  0  0  0  0  0  0  0  0  0
    3.3592    5.0247   -2.5785 H   0  0  0  0  0  0  0  0  0  0  0  0
    3.3804    2.0735   -0.3570 H   0  0  0  0  0  0  0  0  0  0  0  0
    4.5768    1.2856   -1.3249 H   0  0  0  0  0  0  0  0  0  0  0  0
  1 60  1  0  0  0  0
  1 59  1  0  0  0  0
  2  3  1  0  0  0  0
  2  1  1  0  0  0  0
  4  5  2  0  0  0  0
  4  3  1  0  0  0  0
  6  4  1  0  0  0  0
  7 64  1  0  0  0  0
  7  6  2  0  0  0  0
  8  9  1  0  0  0  0
  9 10  1  0  0  0  0
  9 66  1  0  0  0  0
 10 11  1  6  0  0  0
 10 16  1  0  0  0  0
 12 10  1  0  0  0  0
 12 67  1  0  0  0  0
 13 12  1  0  0  0  0
 14 13  1  0  0  0  0
 14 68  1  0  0  0  0
 15 13  2  0  0  0  0
 16 17  1  0  0  0  0
 16 19  2  0  0  0  0
 17 18  1  0  0  0  0
 18 72  1  0  0  0  0
 18 73  1  0  0  0  0
 20 21  1  6  0  0  0
 20  7  1  0  0  0  0
 22 23  1  0  0  0  0
 22 20  1  0  0  0  0
 23 52  2  0  0  0  0
 23 24  1  0  0  0  0
 24 26  1  0  0  0  0
 24 25  1  1  0  0  0
 26 27  1  0  0  0  0
 27 76  1  0  0  0  0
 27 28  2  0  0  0  0
 28 77  1  0  0  0  0
 29 78  1  0  0  0  0
 29 28  1  0  0  0  0
 30 29  2  0  0  0  0
 31 32  1  0  0  0  0
 31 30  1  0  0  0  0
 32 33  1  0  0  0  0
 33 34  1  0  0  0  0
 34 81  1  0  0  0  0
 35 34  1  0  0  0  0
 35 40  1  0  0  0  0
 36 35  2  0  0  0  0
 37 36  1  0  0  0  0
 37 38  2  0  0  0  0
 38 39  1  0  0  0  0
 39 40  2  0  0  0  0
 39 85  1  0  0  0  0
 40 86  1  0  0  0  0
 41 32  2  0  0  0  0
 42 26  1  0  0  0  0
 42 30  1  0  0  0  0
 43 42  2  0  0  0  0
 44 88  1  0  0  0  0
 44 24  1  0  0  0  0
 45 44  1  0  0  0  0
 46 89  1  0  0  0  0
 46 45  2  0  0  0  0
 47 46  1  0  0  0  0
 48 47  2  0  0  0  0
 48 50  1  0  0  0  0
 49 48  1  0  0  0  0
 50 51  2  0  0  0  0
 51 45  1  0  0  0  0
 51 92  1  0  0  0  0
 53 93  1  0  0  0  0
 53 54  1  0  0  0  0
 53 20  1  0  0  0  0
 54 95  1  0  0  0  0
 55 54  1  0  0  0  0
 55 56  1  0  0  0  0
 56 97  1  0  0  0  0
 57 55  2  0  0  0  0
 58  1  1  0  0  0  0
 61  2  1  0  0  0  0
 62  2  1  0  0  0  0
 63  6  1  0  0  0  0
 65  9  1  0  0  0  0
 69 14  1  0  0  0  0
 70 14  1  0  0  0  0
 71 17  1  0  0  0  0
 74 18  1  0  0  0  0
 75 22  1  0  0  0  0
 79 31  1  0  0  0  0
 80 34  1  0  0  0  0
 82 36  1  0  0  0  0
 83 37  1  0  0  0  0
 84 38  1  0  0  0  0
 87 44  1  0  0  0  0
 90 47  1  0  0  0  0
 91 50  1  0  0  0  0
 94 53  1  0  0  0  0
 96 54  1  0  0  0  0
 98 56  1  0  0  0  0
M  END
