-1 1
 OpenBabel05192410563D

 63 65  0  0  1  0  0  0  0  0999 V2000
    3.6962   -1.8614   -2.2288 O   0  0  0  0  0  0  0  0  0  0  0  0
    2.6341   -2.4059   -1.9313 C   0  0  0  0  0  0  0  0  0  0  0  0
    1.3711   -1.5573   -1.6873 C   0  0  2  0  0  0  0  0  0  0  0  0
    0.4943   -1.6323   -2.9498 C   0  0  0  0  0  0  0  0  0  0  0  0
   -1.1344   -0.8645   -2.8547 S   0  0  0  0  0  0  0  0  0  0  0  0
   -2.2010   -2.2909   -2.0657 C   0  0  0  0  0  0  0  0  0  0  0  0
   -1.5864   -3.6251   -2.0707 C   0  0  0  0  0  3  0  0  0  0  0  0
   -0.7391   -4.1541   -1.0947 C   0  0  0  0  0  0  0  0  0  0  0  0
   -0.7852   -3.6399    0.2306 N   0  0  0  0  0  0  0  0  0  0  0  0
   -1.8404   -3.0268    0.9058 C   0  0  0  0  0  0  0  0  0  0  0  0
   -1.6192   -1.8138    1.5607 C   0  0  0  0  0  0  0  0  0  0  0  0
   -2.6784   -1.1553    2.1735 C   0  0  0  0  0  0  0  0  0  0  0  0
   -2.4493    0.0991    2.7149 O   0  0  0  0  0  0  0  0  0  0  0  0
   -1.9914    1.0343    1.8577 C   0  0  0  0  0  0  0  0  0  0  0  0
   -1.2149    1.9577    2.3999 N   0  0  0  0  0  0  0  0  0  0  0  0
   -0.6966    2.8585    1.5640 C   0  0  1  0  0  3  0  0  0  0  0  0
    0.1681    3.7438    2.1779 N   0  0  0  0  0  0  0  0  0  0  0  0
    1.0397    4.6568    1.6196 C   0  0  0  0  0  0  0  0  0  0  0  0
    0.9774    5.0685    0.3635 N   0  0  0  0  0  0  0  0  0  0  0  0
    2.0055    5.9270    0.2385 N   0  0  0  0  0  0  0  0  0  0  0  0
    2.1714    6.3618   -0.6579 H   0  0  0  0  0  0  0  0  0  0  0  0
    2.7204    6.0871    1.3751 C   0  0  0  0  0  0  0  0  0  0  0  0
    3.9105    6.9838    1.4632 C   0  0  0  0  0  0  0  0  0  0  0  0
    2.1202    5.2720    2.3137 C   0  0  0  0  0  0  0  0  0  0  0  0
   -1.0030    2.8696    0.1955 C   0  0  0  0  0  0  0  0  0  0  0  0
   -1.8527    1.8582   -0.2292 C   0  0  0  0  0  0  0  0  0  0  0  0
   -2.3634    0.9458    0.5898 N   0  0  0  0  0  0  0  0  0  0  0  0
   -3.9541   -1.7014    2.2163 C   0  0  0  0  0  0  0  0  0  0  0  0
   -4.1622   -2.9335    1.5882 C   0  0  0  0  0  0  0  0  0  0  0  0
   -3.1281   -3.5918    0.9327 C   0  0  0  0  0  0  0  0  0  0  0  0
    0.1502   -5.0344   -1.2782 O   0  0  0  0  0  0  0  0  0  0  0  0
    1.8065   -0.2149   -1.3838 N   0  0  0  0  0  0  0  0  0  0  0  0
    1.5904    0.4221   -0.2074 C   0  0  0  0  0  0  0  0  0  0  0  0
    2.3192    1.7474   -0.0696 C   0  0  0  0  0  0  0  0  0  0  0  0
    0.8539    0.0106    0.6732 O   0  0  0  0  0  0  0  0  0  0  0  0
    0.8010   -1.9400   -0.8292 H   0  0  0  0  0  0  0  0  0  0  0  0
    2.4771   -3.7338   -1.8575 N   0  0  0  0  0  0  0  0  0  0  0  0
    3.5737   -4.6135   -2.1642 C   0  0  0  0  0  0  0  0  0  0  0  0
    1.0304   -1.1621   -3.7892 H   0  0  0  0  0  0  0  0  0  0  0  0
    0.3360   -2.6932   -3.1935 H   0  0  0  0  0  0  0  0  0  0  0  0
    0.0972   -3.7165    0.7197 H   0  0  0  0  0  0  0  0  0  0  0  0
   -0.6477   -1.3220    1.4718 H   0  0  0  0  0  0  0  0  0  0  0  0
    0.3119    3.5184    3.1538 H   0  0  0  0  0  0  0  0  0  0  0  0
    3.6535    8.0227    1.2042 H   0  0  0  0  0  0  0  0  0  0  0  0
    4.7128    6.6542    0.7848 H   0  0  0  0  0  0  0  0  0  0  0  0
    4.3101    6.9788    2.4849 H   0  0  0  0  0  0  0  0  0  0  0  0
    2.4207    5.1245    3.3478 H   0  0  0  0  0  0  0  0  0  0  0  0
   -0.5870    3.6124   -0.4784 H   0  0  0  0  0  0  0  0  0  0  0  0
   -2.1285    1.7717   -1.2848 H   0  0  0  0  0  0  0  0  0  0  0  0
   -4.7654   -1.1497    2.6932 H   0  0  0  0  0  0  0  0  0  0  0  0
   -5.1607   -3.3786    1.5987 H   0  0  0  0  0  0  0  0  0  0  0  0
   -3.3013   -4.5293    0.4025 H   0  0  0  0  0  0  0  0  0  0  0  0
    2.6182    0.0631   -1.9265 H   0  0  0  0  0  0  0  0  0  0  0  0
    3.3210    1.7212   -0.5236 H   0  0  0  0  0  0  0  0  0  0  0  0
    2.4000    1.9955    0.9960 H   0  0  0  0  0  0  0  0  0  0  0  0
    1.7348    2.5415   -0.5573 H   0  0  0  0  0  0  0  0  0  0  0  0
    1.5551   -4.1813   -1.6383 H   0  0  0  0  0  0  0  0  0  0  0  0
    4.4298   -4.4480   -1.4888 H   0  0  0  0  0  0  0  0  0  0  0  0
    3.9412   -4.4659   -3.1939 H   0  0  0  0  0  0  0  0  0  0  0  0
    3.2270   -5.6495   -2.0546 H   0  0  0  0  0  0  0  0  0  0  0  0
   -3.1073   -2.2336   -2.6852 H   0  0  0  0  0  0  0  0  0  0  0  0
   -2.4381   -1.8887   -1.0763 H   0  0  0  0  0  0  0  0  0  0  0  0
   -1.5354   -4.1534   -3.0280 H   0  0  0  0  0  0  0  0  0  0  0  0
  1  2  2  0  0  0  0
  2 37  1  0  0  0  0
  2  3  1  0  0  0  0
  3 32  1  0  0  0  0
  3 36  1  1  0  0  0
  4  5  1  0  0  0  0
  4  3  1  0  0  0  0
  5  6  1  0  0  0  0
  6 62  1  0  0  0  0
  7  6  1  0  0  0  0
  7  8  1  0  0  0  0
  8  9  1  0  0  0  0
  9 41  1  0  0  0  0
  9 10  1  0  0  0  0
 10 30  2  0  0  0  0
 10 11  1  0  0  0  0
 11 12  2  0  0  0  0
 12 28  1  0  0  0  0
 12 13  1  0  0  0  0
 14 15  2  0  0  0  0
 14 13  1  0  0  0  0
 16 17  1  6  0  0  0
 16 15  1  0  0  0  0
 17 43  1  0  0  0  0
 18 17  1  0  0  0  0
 18 24  1  0  0  0  0
 19 18  2  0  0  0  0
 20 19  1  0  0  0  0
 20 22  1  0  0  0  0
 21 20  1  0  0  0  0
 22 23  1  0  0  0  0
 22 24  2  0  0  0  0
 23 46  1  0  0  0  0
 24 47  1  0  0  0  0
 25 16  1  0  0  0  0
 26 25  2  0  0  0  0
 26 27  1  0  0  0  0
 27 14  2  0  0  0  0
 28 50  1  0  0  0  0
 29 51  1  0  0  0  0
 29 28  2  0  0  0  0
 30 29  1  0  0  0  0
 31  8  2  0  0  0  0
 32 33  1  0  0  0  0
 33 34  1  0  0  0  0
 33 35  2  0  0  0  0
 34 55  1  0  0  0  0
 37 57  1  0  0  0  0
 38 60  1  0  0  0  0
 38 37  1  0  0  0  0
 38 58  1  0  0  0  0
 39  4  1  0  0  0  0
 40  4  1  0  0  0  0
 42 11  1  0  0  0  0
 44 23  1  0  0  0  0
 45 23  1  0  0  0  0
 48 25  1  0  0  0  0
 49 26  1  0  0  0  0
 52 30  1  0  0  0  0
 53 32  1  0  0  0  0
 54 34  1  0  0  0  0
 56 34  1  0  0  0  0
 59 38  1  0  0  0  0
 61  6  1  0  0  0  0
 63  7  1  0  0  0  0
M  END
