63
-1 1
O         4.455436    2.529360    0.979693
C         3.373951    2.024822    1.264753
C         2.142103    2.898027    1.549794
C         1.240741    2.906465    0.293846
S        -0.229816    3.939757    0.382503
C        -1.703430    2.110191    1.161675
C        -1.088865    0.872716    1.083510
C        -0.169020    0.298123    2.033903
N        -0.158161    0.726480    3.354052
C        -1.172223    1.373695    4.096771
C        -0.908090    2.618120    4.660947
C        -1.911007    3.269033    5.376037
O        -1.666317    4.517263    5.905270
C        -1.227062    5.465731    5.045305
N        -0.464538    6.396869    5.589564
C         0.028802    7.311721    4.752495
N         0.877433    8.213894    5.364878
C         1.732311    9.140467    4.802616
N         1.654699    9.553095    3.548017
N         2.668998   10.426230    3.416339
H         2.823533   10.861295    2.518056
C         3.390717   10.594638    4.547450
C         4.570057   11.506276    4.626761
C         2.809150    9.770064    5.489619
C        -0.286584    7.318904    3.386598
C        -1.118017    6.292841    2.960264
N        -1.610354    5.372227    3.784566
C        -3.157032    2.686203    5.570018
C        -3.405047    1.428345    5.015524
C        -2.424948    0.771598    4.279187
O         0.686661   -0.551948    1.721741
N         2.618240    4.206809    1.917680
C         2.351331    4.846244    3.074123
C         3.026076    6.200344    3.209874
O         1.621982    4.412635    3.954466
H         1.565542    2.500679    2.397777
N         3.175951    0.693335    1.290715
C         4.230827   -0.211176    0.917795
H         1.858522    3.195052   -0.573526
H         0.918494    1.861710    0.124089
H         0.653670    0.399051    3.864397
H         0.048385    3.114670    4.469429
H         1.034493    7.985967    6.338062
H         4.300123   12.540219    4.360795
H         5.375019   11.181609    3.949001
H         4.971786   11.513466    5.647650
H         3.120065    9.625146    6.520995
H         0.114642    8.067138    2.709844
H        -1.390213    6.199392    1.905543
H        -3.921896    3.231004    6.125546
H        -4.383802    0.962085    5.152934
H        -2.618853   -0.199224    3.820291
H         3.356262    4.563979    1.323537
H         4.037438    6.206121    2.776451
H         3.076611    6.465328    4.273156
H         2.422489    6.962918    2.696040
H         2.242014    0.292739    1.458679
H         5.140048   -0.027788    1.512361
H         4.511090   -0.105452   -0.144689
H         3.888972   -1.240191    1.091112
H        -2.424366    2.377096    0.389036
H        -1.827227    2.642425    2.103191
H        -1.086785    0.338190    0.129792
