63
-1 1
O         3.475120   -2.145922   -1.449885
C         2.322012   -2.487172   -1.638668
C         1.155058   -1.488845   -1.752361
C         0.717499   -1.347734   -3.232361
S        -0.299639    0.123923   -3.594675
C        -2.611628   -2.059816   -1.892694
C        -2.377614   -3.347637   -2.168580
C        -1.320023   -4.189093   -1.548024
N        -1.029582   -4.071427   -0.214717
C        -1.767038   -3.361742    0.766479
C        -1.209198   -2.238414    1.368577
C        -2.010888   -1.465126    2.204331
O        -1.540625   -0.270124    2.695549
C        -1.217277    0.689393    1.796170
N        -0.636846    1.752078    2.324536
C        -0.293720    2.720528    1.469181
N         0.353538    3.778083    2.073134
C         1.055898    4.823704    1.504136
N         1.036581    5.109326    0.213554
N         1.847803    6.173211    0.090512
H         2.005211    6.560044   -0.829404
C         2.385803    6.583923    1.261182
C         3.327928    7.737697    1.358579
C         1.889457    5.726666    2.223302
C        -0.554976    2.626912    0.094127
C        -1.162703    1.452449   -0.325237
N        -1.512963    0.483926    0.525348
C        -3.308339   -1.846379    2.526537
C        -3.827546   -3.017402    1.973546
C        -3.068341   -3.768801    1.083849
O        -0.653577   -4.940345   -2.253695
N         1.572796   -0.219078   -1.230645
C         1.868354   -0.040984    0.068205
C         2.508601    1.287692    0.418449
O         1.697466   -0.907346    0.921394
H         0.302392   -1.870377   -1.165498
N         1.977090   -3.796175   -1.788959
C         2.990745   -4.816795   -1.834252
H         1.629012   -1.329688   -3.854344
H         0.171162   -2.268725   -3.494837
H        -0.108298   -4.420949    0.032964
H        -0.193020   -1.906819    1.124334
H         0.486799    3.630503    3.065161
H         2.880051    8.659595    0.956079
H         4.259203    7.543919    0.803692
H         3.592309    7.919984    2.407673
H         2.103186    5.737089    3.288999
H        -0.255528    3.405253   -0.601192
H        -1.328329    1.248695   -1.392157
H        -3.902590   -1.207616    3.181718
H        -4.845305   -3.329153    2.218991
H        -3.478416   -4.660970    0.607552
H         1.443935    0.564783   -1.873029
H         3.599668    1.151588    0.361020
H         2.246093    1.554822    1.449590
H         2.221645    2.098343   -0.265292
H         1.053079   -4.053514   -2.130479
H         3.696216   -4.685748   -1.000913
H         3.579664   -4.789668   -2.768843
H         2.508414   -5.800875   -1.752483
H        -3.273273   -1.475148   -2.534449
H        -2.148186   -1.516763   -1.063761
H        -2.813529   -3.812482   -3.057134
