77
-1 1
O         5.841731   -5.640280    4.723774
C         4.814835   -6.124470    4.279015
C         3.871164   -5.352995    3.323104
C         4.414667   -3.961787    3.000903
S         3.583978   -3.150422    1.606459
C         2.131697   -1.589400    3.096924
C         1.433072   -2.160649    4.127840
C         0.005697   -2.446583    4.206902
N        -0.819905   -2.316181    3.087217
C        -0.575196   -2.606770    1.732756
C         0.308578   -3.609968    1.330534
C         0.330323   -4.014671   -0.000394
O         1.077739   -5.118759   -0.359919
C         0.723600   -6.301569    0.162419
N         1.581919   -7.281538   -0.011863
C         1.258348   -8.478544    0.503942
N         2.195399   -9.471220    0.371488
C         3.582118   -9.097916    0.094406
C         4.313056   -8.880473    1.424956
N         4.232169  -10.029871    2.322036
C         2.849580  -10.445031    2.513236
C         2.125081  -10.678751    1.178903
C         5.141214  -11.103362    1.998081
C         0.022734   -8.679571    1.150865
C        -0.779702   -7.551658    1.299239
N        -1.962454   -7.607398    2.007334
C        -2.698156   -6.524664    2.474412
N        -2.537698   -5.252207    2.052251
H        -1.824946   -4.960885    1.383923
N        -3.334126   -4.387983    2.696681
C        -4.036599   -5.132205    3.533165
C        -3.690134   -6.499851    3.445419
N        -0.447256   -6.369109    0.784910
C        -0.434515   -3.380652   -0.970642
C        -1.269578   -2.333084   -0.576139
C        -1.353184   -1.957089    0.759583
O        -0.531501   -2.727905    5.276563
N         2.515052   -5.246083    3.855027
C         1.590237   -6.219804    3.824313
C         0.203783   -5.834347    4.279820
O         1.841400   -7.369262    3.441484
H         3.813642   -5.928126    2.382680
N         4.429509   -7.401615    4.524563
C         5.218971   -8.325433    5.291448
H         4.347130   -3.349405    3.920301
H         5.488277   -4.067848    2.798156
H        -1.793458   -2.471446    3.346032
H         0.950849   -4.117448    2.045868
H         3.591817   -8.181960   -0.504993
H         4.042268   -9.910113   -0.493782
H         3.840673   -8.022948    1.925420
H         5.370477   -8.624442    1.257417
H         2.316878   -9.644464    3.052870
H         2.826063  -11.355097    3.134913
H         1.085385  -10.991533    1.332626
H         2.609147  -11.491357    0.610816
H         6.172950  -10.719079    1.981905
H         4.960914  -11.601996    1.019549
H         5.089614  -11.881771    2.776150
H        -0.250399   -9.613908    1.633219
H        -2.174584   -8.486439    2.455485
H        -4.769462   -4.667301    4.191147
H        -4.080268   -7.339449    4.014331
H        -0.389835   -3.728261   -2.003395
H        -1.882609   -1.820438   -1.321071
H        -2.037150   -1.167782    1.076264
H         2.208304   -4.301827    4.093859
H        -0.350978   -5.410976    3.430173
H         0.200230   -5.071555    5.069995
H        -0.323877   -6.736267    4.612718
H         3.549351   -7.710679    4.110850
H         6.220074   -7.895816    5.430231
H         5.294795   -9.280345    4.748592
H         4.787024   -8.517148    6.289839
H         3.115424   -1.162937    3.284663
H         1.637108   -1.242569    2.188868
H         1.928449   -2.309507    5.092160
