-1 1
 OpenBabel05232413493D

 83 85  0  0  1  0  0  0  0  0999 V2000
    1.7282    4.2176    0.6188 O   0  0  0  0  0  0  0  0  0  0  0  0
    1.6399    3.1034    0.1142 C   0  0  0  0  0  0  0  0  0  0  0  0
    2.2114    2.8386   -1.2913 C   0  0  2  0  0  0  0  0  0  0  0  0
    1.1454    2.3669   -2.3012 C   0  0  0  0  0  0  0  0  0  0  0  0
    0.6530    0.6152   -2.1375 S   0  0  0  0  0  1  0  0  0  0  0  0
    2.3657   -2.1274   -3.6613 C   0  0  0  0  0  0  0  0  0  0  0  0
    1.3927   -2.7994   -4.5747 C   0  0  0  0  0  0  0  0  0  0  0  0
    0.9982   -1.9861   -5.5611 F   0  0  0  0  0  0  0  0  0  0  0  0
    1.8893   -3.9048   -5.1566 F   0  0  0  0  0  0  0  0  0  0  0  0
    0.2924   -3.1747   -3.9094 F   0  0  0  0  0  0  0  0  0  0  0  0
    3.5934   -2.6000   -3.4590 C   0  0  0  0  0  0  0  0  0  0  0  0
    4.6367   -1.8624   -2.6749 C   0  0  0  0  0  0  0  0  0  0  0  0
    5.6966   -1.6263   -3.2241 O   0  0  0  0  0  0  0  0  0  0  0  0
    4.3739   -1.4017   -1.4127 N   0  0  0  0  0  0  0  0  0  0  0  0
    3.3955   -1.7308   -0.4577 C   0  0  0  0  0  0  0  0  0  0  0  0
    2.5573   -2.8511   -0.5189 C   0  0  0  0  0  0  0  0  0  0  0  0
    1.5699   -3.0466    0.4445 C   0  0  0  0  0  0  0  0  0  0  0  0
    1.4335   -2.1547    1.4978 C   0  0  0  0  0  0  0  0  0  0  0  0
    0.4232   -2.3241    2.4264 O   0  0  0  0  0  0  0  0  0  0  0  0
   -0.6816   -1.5585    2.2716 C   0  0  0  0  0  0  0  0  0  0  0  0
   -0.7639   -0.8231    1.1875 N   0  0  0  0  0  0  0  0  0  0  0  0
   -1.8651   -0.0618    1.0572 C   0  0  2  0  0  3  0  0  0  0  0  0
   -1.8945    0.6718   -0.0875 N   0  0  0  0  0  0  0  0  0  0  0  0
   -2.8042    1.6232   -0.4971 C   0  0  0  0  0  0  0  0  0  0  0  0
   -3.8586    2.0224    0.2009 N   0  0  0  0  0  0  0  0  0  0  0  0
   -4.4358    2.9596   -0.5762 N   0  0  0  0  0  0  0  0  0  0  0  0
   -5.2698    3.4231   -0.2481 H   0  0  0  0  0  0  0  0  0  0  0  0
   -3.7819    3.1701   -1.7460 C   0  0  0  0  0  0  0  0  0  0  0  0
   -4.2377    4.1708   -2.7555 C   0  0  0  0  0  0  0  0  0  0  0  0
   -2.7053    2.3112   -1.7397 C   0  0  0  0  0  0  0  0  0  0  0  0
   -2.8653   -0.0562    2.0390 C   0  0  0  0  0  0  0  0  0  0  0  0
   -2.6487   -0.8853    3.1531 C   0  0  0  0  0  0  0  0  0  0  0  0
   -3.5412   -0.9481    4.2035 N   0  0  0  0  0  0  0  0  0  0  0  0
   -3.4839   -2.0754    5.1207 C   0  0  0  0  0  0  0  0  0  0  0  0
   -3.9954   -1.6702    6.5006 C   0  0  0  0  0  0  0  0  0  0  0  0
   -5.3130   -1.0539    6.4745 N   0  0  0  0  0  0  0  0  0  0  0  0
   -5.3009    0.0753    5.5637 C   0  0  0  0  0  0  0  0  0  0  0  0
   -4.8136   -0.2584    4.1492 C   0  0  0  0  0  0  0  0  0  0  0  0
   -6.4043   -1.9786    6.2692 C   0  0  0  0  0  0  0  0  0  0  0  0
   -1.5527   -1.6518    3.2624 N   0  0  0  0  0  0  0  0  0  0  0  0
    2.3217   -1.0928    1.6246 C   0  0  0  0  0  0  0  0  0  0  0  0
    3.2917   -0.8829    0.6572 C   0  0  0  0  0  0  0  0  0  0  0  0
    3.3113    1.8931   -1.2704 N   0  0  0  0  0  0  0  0  0  0  0  0
    4.5609    2.1099   -0.8129 C   0  0  0  0  0  0  0  0  0  0  0  0
    4.9306    3.5381   -0.4694 C   0  0  0  0  0  0  0  0  0  0  0  0
    5.3851    1.2037   -0.6877 O   0  0  0  0  0  0  0  0  0  0  0  0
    2.5780    3.8237   -1.6157 H   0  0  0  0  0  0  0  0  0  0  0  0
    1.0809    2.0436    0.7325 N   0  0  0  0  0  0  0  0  0  0  0  0
    0.4293    2.1762    2.0100 C   0  0  0  0  0  0  0  0  0  0  0  0
    0.2742    3.0344   -2.1919 H   0  0  0  0  0  0  0  0  0  0  0  0
    1.5540    2.5363   -3.3105 H   0  0  0  0  0  0  0  0  0  0  0  0
    4.9957   -0.6271   -1.1409 H   0  0  0  0  0  0  0  0  0  0  0  0
    2.6406   -3.5663   -1.3338 H   0  0  0  0  0  0  0  0  0  0  0  0
    0.8808   -3.8890    0.3662 H   0  0  0  0  0  0  0  0  0  0  0  0
   -1.0725    0.5557   -0.7171 H   0  0  0  0  0  0  0  0  0  0  0  0
   -3.5897    4.1278   -3.6397 H   0  0  0  0  0  0  0  0  0  0  0  0
   -4.1962    5.1963   -2.3553 H   0  0  0  0  0  0  0  0  0  0  0  0
   -5.2716    3.9757   -3.0819 H   0  0  0  0  0  0  0  0  0  0  0  0
   -1.9423    2.1577   -2.4999 H   0  0  0  0  0  0  0  0  0  0  0  0
   -3.7421    0.5647    1.8980 H   0  0  0  0  0  0  0  0  0  0  0  0
   -2.4449   -2.4194    5.1707 H   0  0  0  0  0  0  0  0  0  0  0  0
   -4.0849   -2.9196    4.7230 H   0  0  0  0  0  0  0  0  0  0  0  0
   -3.2875   -0.9460    6.9396 H   0  0  0  0  0  0  0  0  0  0  0  0
   -4.0179   -2.5504    7.1628 H   0  0  0  0  0  0  0  0  0  0  0  0
   -4.6289    0.8442    5.9832 H   0  0  0  0  0  0  0  0  0  0  0  0
   -6.3098    0.5150    5.5107 H   0  0  0  0  0  0  0  0  0  0  0  0
   -4.7019    0.6829    3.5973 H   0  0  0  0  0  0  0  0  0  0  0  0
   -5.5694   -0.8629    3.6054 H   0  0  0  0  0  0  0  0  0  0  0  0
   -6.3860   -2.7503    7.0550 H   0  0  0  0  0  0  0  0  0  0  0  0
   -6.4037   -2.5043    5.2905 H   0  0  0  0  0  0  0  0  0  0  0  0
   -7.3630   -1.4425    6.3531 H   0  0  0  0  0  0  0  0  0  0  0  0
    2.2274   -0.4093    2.4701 H   0  0  0  0  0  0  0  0  0  0  0  0
    3.9789   -0.0409    0.7456 H   0  0  0  0  0  0  0  0  0  0  0  0
    3.0252    0.9314   -1.4798 H   0  0  0  0  0  0  0  0  0  0  0  0
    5.9317    3.5331   -0.0241 H   0  0  0  0  0  0  0  0  0  0  0  0
    4.2035    3.9967    0.2163 H   0  0  0  0  0  0  0  0  0  0  0  0
    4.9454    4.1501   -1.3849 H   0  0  0  0  0  0  0  0  0  0  0  0
    0.9391    1.1921    0.1748 H   0  0  0  0  0  0  0  0  0  0  0  0
    0.5231    1.2414    2.5788 H   0  0  0  0  0  0  0  0  0  0  0  0
   -0.6461    2.4010    1.9036 H   0  0  0  0  0  0  0  0  0  0  0  0
    0.8984    2.9987    2.5657 H   0  0  0  0  0  0  0  0  0  0  0  0
    1.9762   -1.2211   -3.1668 H   0  0  0  0  0  0  0  0  0  0  0  0
    3.9570   -3.4800   -3.9969 H   0  0  0  0  0  0  0  0  0  0  0  0
  2  1  2  0  0  0  0
  2 48  1  0  0  0  0
  3 47  1  6  0  0  0
  3 43  1  0  0  0  0
  3  2  1  0  0  0  0
  4 50  1  0  0  0  0
  4  5  1  0  0  0  0
  4  3  1  0  0  0  0
  6 11  2  0  0  0  0
  6 82  1  0  0  0  0
  7 10  1  0  0  0  0
  7  6  1  0  0  0  0
  8  7  1  0  0  0  0
  9  7  1  0  0  0  0
 11 12  1  0  0  0  0
 12 14  1  0  0  0  0
 13 12  2  0  0  0  0
 14 52  1  0  0  0  0
 14 15  1  0  0  0  0
 15 42  1  0  0  0  0
 16 15  2  0  0  0  0
 16 17  1  0  0  0  0
 17 18  2  0  0  0  0
 18 41  1  0  0  0  0
 18 19  1  0  0  0  0
 20 19  1  0  0  0  0
 20 40  2  0  0  0  0
 21 20  2  0  0  0  0
 22 23  1  1  0  0  0
 22 21  1  0  0  0  0
 22 31  1  0  0  0  0
 24 23  1  0  0  0  0
 24 25  2  0  0  0  0
 26 27  1  0  0  0  0
 26 25  1  0  0  0  0
 28 30  2  0  0  0  0
 28 26  1  0  0  0  0
 29 57  1  0  0  0  0
 29 28  1  0  0  0  0
 30 24  1  0  0  0  0
 31 32  2  0  0  0  0
 32 40  1  0  0  0  0
 32 33  1  0  0  0  0
 33 34  1  0  0  0  0
 34 61  1  0  0  0  0
 34 35  1  0  0  0  0
 35 63  1  0  0  0  0
 35 64  1  0  0  0  0
 36 35  1  0  0  0  0
 37 65  1  0  0  0  0
 37 36  1  0  0  0  0
 38 33  1  0  0  0  0
 38 37  1  0  0  0  0
 39 71  1  0  0  0  0
 39 36  1  0  0  0  0
 39 69  1  0  0  0  0
 41 72  1  0  0  0  0
 42 73  1  0  0  0  0
 42 41  2  0  0  0  0
 43 44  1  0  0  0  0
 44 46  2  0  0  0  0
 44 45  1  0  0  0  0
 45 75  1  0  0  0  0
 45 76  1  0  0  0  0
 48 49  1  0  0  0  0
 49 81  1  0  0  0  0
 49 79  1  0  0  0  0
 51  4  1  0  0  0  0
 53 16  1  0  0  0  0
 54 17  1  0  0  0  0
 55 23  1  0  0  0  0
 56 29  1  0  0  0  0
 58 29  1  0  0  0  0
 59 30  1  0  0  0  0
 60 31  1  0  0  0  0
 62 34  1  0  0  0  0
 66 37  1  0  0  0  0
 67 38  1  0  0  0  0
 68 38  1  0  0  0  0
 70 39  1  0  0  0  0
 74 43  1  0  0  0  0
 77 45  1  0  0  0  0
 78 48  1  0  0  0  0
 80 49  1  0  0  0  0
 83 11  1  0  0  0  0
M  END
