-1 1
 OpenBabel05192410563D

 83 86  0  0  1  0  0  0  0  0999 V2000
    0.4565    3.5786    0.6694 O   0  0  0  0  0  0  0  0  0  0  0  0
    1.1188    2.5815    0.4398 C   0  0  0  0  0  0  0  0  0  0  0  0
    1.8928    2.4189   -0.8796 C   0  0  2  0  0  0  0  0  0  0  0  0
    0.9739    1.6300   -1.8244 C   0  0  0  0  0  0  0  0  0  0  0  0
    1.7009    1.2408   -3.4439 S   0  0  0  0  0  0  0  0  0  0  0  0
    1.8623   -0.6907   -3.2961 C   0  0  1  0  0  0  0  0  0  0  0  0
    0.6036   -1.2828   -3.9007 C   0  0  0  0  0  0  0  0  0  0  0  0
    0.4977   -1.0934   -5.2177 F   0  0  0  0  0  0  0  0  0  0  0  0
    0.5167   -2.5998   -3.6829 F   0  0  0  0  0  0  0  0  0  0  0  0
   -0.5308   -0.7596   -3.3510 F   0  0  0  0  0  0  0  0  0  0  0  0
    3.0866   -1.2845   -3.8114 C   0  0  0  0  0  3  0  0  0  0  0  0
    4.2957   -1.3578   -3.0922 C   0  0  0  0  0  0  0  0  0  0  0  0
    5.4164   -1.6186   -3.5257 O   0  0  0  0  0  0  0  0  0  0  0  0
    4.2295   -1.0280   -1.6626 N   0  0  0  0  0  0  0  0  0  0  0  0
    3.4686   -1.6235   -0.6764 C   0  0  0  0  0  0  0  0  0  0  0  0
    2.5144   -2.6258   -0.9467 C   0  0  0  0  0  0  0  0  0  0  0  0
    1.5781   -2.9942    0.0109 C   0  0  0  0  0  0  0  0  0  0  0  0
    1.5957   -2.4023    1.2670 C   0  0  0  0  0  0  0  0  0  0  0  0
    0.5509   -2.5809    2.1674 O   0  0  0  0  0  0  0  0  0  0  0  0
   -0.5499   -1.8323    1.9520 C   0  0  0  0  0  0  0  0  0  0  0  0
   -0.7088   -1.2857    0.7631 N   0  0  0  0  0  0  0  0  0  0  0  0
   -1.8027   -0.5284    0.5931 C   0  0  1  0  0  3  0  0  0  0  0  0
   -1.9209   -0.0150   -0.6708 N   0  0  0  0  0  0  0  0  0  0  0  0
   -2.7680    0.9625   -1.1594 C   0  0  0  0  0  0  0  0  0  0  0  0
   -3.7635    1.4971   -0.4703 N   0  0  0  0  0  0  0  0  0  0  0  0
   -4.2927    2.4087   -1.3065 N   0  0  0  0  0  0  0  0  0  0  0  0
   -5.0670    2.9734   -0.9895 H   0  0  0  0  0  0  0  0  0  0  0  0
   -3.6681    2.4700   -2.5071 C   0  0  0  0  0  0  0  0  0  0  0  0
   -4.0705    3.4241   -3.5817 C   0  0  0  0  0  0  0  0  0  0  0  0
   -2.6606    1.5300   -2.4591 C   0  0  0  0  0  0  0  0  0  0  0  0
   -2.7221   -0.3133    1.6213 C   0  0  0  0  0  0  0  0  0  0  0  0
   -2.4350   -0.9478    2.8458 C   0  0  0  0  0  0  0  0  0  0  0  0
   -3.2347   -0.7919    3.9533 N   0  0  0  0  0  0  0  0  0  0  0  0
   -3.1093   -1.7114    5.0736 C   0  0  0  0  0  0  0  0  0  0  0  0
   -3.4132   -0.9963    6.3880 C   0  0  0  0  0  0  0  0  0  0  0  0
   -4.6915   -0.3020    6.3883 N   0  0  0  0  0  0  0  0  0  0  0  0
   -4.7488    0.6139    5.2651 C   0  0  0  0  0  0  0  0  0  0  0  0
   -4.4707   -0.0377    3.9051 C   0  0  0  0  0  0  0  0  0  0  0  0
   -5.8439   -1.1635    6.5213 C   0  0  0  0  0  0  0  0  0  0  0  0
   -1.3519   -1.7233    2.9991 N   0  0  0  0  0  0  0  0  0  0  0  0
    2.6295   -1.5358    1.6081 C   0  0  0  0  0  0  0  0  0  0  0  0
    3.5693   -1.1593    0.6534 C   0  0  0  0  0  0  0  0  0  0  0  0
    3.1621    1.7494   -0.7243 N   0  0  0  0  0  0  0  0  0  0  0  0
    4.2271    2.1910   -0.0030 C   0  0  0  0  0  0  0  0  0  0  0  0
    4.0385    3.4581    0.8077 C   0  0  0  0  0  0  0  0  0  0  0  0
    5.2821    1.5750    0.0251 O   0  0  0  0  0  0  0  0  0  0  0  0
    2.0168    3.4402   -1.2776 H   0  0  0  0  0  0  0  0  0  0  0  0
    1.1874    1.5211    1.2747 N   0  0  0  0  0  0  0  0  0  0  0  0
    0.4186    1.4736    2.4928 C   0  0  0  0  0  0  0  0  0  0  0  0
    0.7148    0.6777   -1.3347 H   0  0  0  0  0  0  0  0  0  0  0  0
    0.0390    2.1960   -1.9404 H   0  0  0  0  0  0  0  0  0  0  0  0
    5.0982   -0.6097   -1.3400 H   0  0  0  0  0  0  0  0  0  0  0  0
    2.4645   -3.0463   -1.9519 H   0  0  0  0  0  0  0  0  0  0  0  0
    0.7819   -3.6959   -0.2430 H   0  0  0  0  0  0  0  0  0  0  0  0
   -1.2127   -0.3482   -1.3164 H   0  0  0  0  0  0  0  0  0  0  0  0
   -3.4712    3.2436   -4.4826 H   0  0  0  0  0  0  0  0  0  0  0  0
   -3.9086    4.4684   -3.2719 H   0  0  0  0  0  0  0  0  0  0  0  0
   -5.1326    3.3086   -3.8490 H   0  0  0  0  0  0  0  0  0  0  0  0
   -1.9397    1.2796   -3.2336 H   0  0  0  0  0  0  0  0  0  0  0  0
   -3.5955    0.3008    1.4365 H   0  0  0  0  0  0  0  0  0  0  0  0
   -2.0902   -2.1139    5.0680 H   0  0  0  0  0  0  0  0  0  0  0  0
   -3.7998   -2.5685    4.9357 H   0  0  0  0  0  0  0  0  0  0  0  0
   -2.6191   -0.2531    6.5758 H   0  0  0  0  0  0  0  0  0  0  0  0
   -3.3902   -1.7186    7.2193 H   0  0  0  0  0  0  0  0  0  0  0  0
   -3.9918    1.4010    5.4264 H   0  0  0  0  0  0  0  0  0  0  0  0
   -5.7341    1.1062    5.2423 H   0  0  0  0  0  0  0  0  0  0  0  0
   -4.3921    0.7582    3.1548 H   0  0  0  0  0  0  0  0  0  0  0  0
   -5.3166   -0.6881    3.6009 H   0  0  0  0  0  0  0  0  0  0  0  0
   -5.7573   -1.7546    7.4466 H   0  0  0  0  0  0  0  0  0  0  0  0
   -6.0010   -1.8792    5.6861 H   0  0  0  0  0  0  0  0  0  0  0  0
   -6.7553   -0.5504    6.6038 H   0  0  0  0  0  0  0  0  0  0  0  0
    2.6661   -1.1193    2.6181 H   0  0  0  0  0  0  0  0  0  0  0  0
    4.3523   -0.4389    0.9018 H   0  0  0  0  0  0  0  0  0  0  0  0
    3.3687    0.9493   -1.3319 H   0  0  0  0  0  0  0  0  0  0  0  0
    5.0273    3.8043    1.1291 H   0  0  0  0  0  0  0  0  0  0  0  0
    3.4301    3.2375    1.6982 H   0  0  0  0  0  0  0  0  0  0  0  0
    3.5222    4.2511    0.2487 H   0  0  0  0  0  0  0  0  0  0  0  0
    1.7224    0.7048    0.9902 H   0  0  0  0  0  0  0  0  0  0  0  0
    0.6132    0.5227    3.0049 H   0  0  0  0  0  0  0  0  0  0  0  0
   -0.6616    1.5482    2.2896 H   0  0  0  0  0  0  0  0  0  0  0  0
    0.6911    2.3031    3.1646 H   0  0  0  0  0  0  0  0  0  0  0  0
    1.7414   -0.8241   -2.2133 H   0  0  0  0  0  0  0  0  0  0  0  0
    3.1550   -1.5080   -4.8776 H   0  0  0  0  0  0  0  0  0  0  0  0
  2  1  2  0  0  0  0
  2 48  1  0  0  0  0
  3 47  1  6  0  0  0
  3 43  1  0  0  0  0
  3  2  1  0  0  0  0
  4 50  1  0  0  0  0
  4  3  1  0  0  0  0
  5  6  1  0  0  0  0
  5  4  1  0  0  0  0
  6 82  1  1  0  0  0
  7  9  1  0  0  0  0
  7 10  1  0  0  0  0
  7  6  1  0  0  0  0
  8  7  1  0  0  0  0
 11  6  1  0  0  0  0
 11 12  1  0  0  0  0
 12 14  1  0  0  0  0
 13 12  2  0  0  0  0
 14 52  1  0  0  0  0
 14 15  1  0  0  0  0
 15 42  1  0  0  0  0
 16 15  2  0  0  0  0
 16 17  1  0  0  0  0
 17 18  2  0  0  0  0
 18 41  1  0  0  0  0
 18 19  1  0  0  0  0
 20 19  1  0  0  0  0
 20 40  2  0  0  0  0
 21 20  2  0  0  0  0
 22 23  1  6  0  0  0
 22 21  1  0  0  0  0
 22 31  1  0  0  0  0
 24 23  1  0  0  0  0
 24 25  2  0  0  0  0
 26 27  1  0  0  0  0
 26 25  1  0  0  0  0
 28 30  2  0  0  0  0
 28 26  1  0  0  0  0
 29 57  1  0  0  0  0
 29 28  1  0  0  0  0
 30 24  1  0  0  0  0
 31 32  2  0  0  0  0
 32 40  1  0  0  0  0
 32 33  1  0  0  0  0
 33 34  1  0  0  0  0
 34 35  1  0  0  0  0
 35 36  1  0  0  0  0
 35 63  1  0  0  0  0
 35 64  1  0  0  0  0
 36 39  1  0  0  0  0
 37 65  1  0  0  0  0
 37 36  1  0  0  0  0
 38 33  1  0  0  0  0
 38 37  1  0  0  0  0
 39 71  1  0  0  0  0
 39 69  1  0  0  0  0
 41 72  1  0  0  0  0
 42 73  1  0  0  0  0
 42 41  2  0  0  0  0
 43 44  1  0  0  0  0
 44 46  2  0  0  0  0
 44 45  1  0  0  0  0
 45 75  1  0  0  0  0
 45 76  1  0  0  0  0
 48 49  1  0  0  0  0
 49 79  1  0  0  0  0
 49 81  1  0  0  0  0
 51  4  1  0  0  0  0
 53 16  1  0  0  0  0
 54 17  1  0  0  0  0
 55 23  1  0  0  0  0
 56 29  1  0  0  0  0
 58 29  1  0  0  0  0
 59 30  1  0  0  0  0
 60 31  1  0  0  0  0
 61 34  1  0  0  0  0
 62 34  1  0  0  0  0
 66 37  1  0  0  0  0
 67 38  1  0  0  0  0
 68 38  1  0  0  0  0
 70 39  1  0  0  0  0
 74 43  1  0  0  0  0
 77 45  1  0  0  0  0
 78 48  1  0  0  0  0
 80 49  1  0  0  0  0
 83 11  1  0  0  0  0
M  END
