83
-1 1
O        -6.160725   -1.622537   -3.584487
C        -5.020207   -1.775600   -3.991284
C        -3.844029   -1.956091   -3.030601
C        -3.641022   -3.470366   -2.776253
S        -2.165643   -3.891128   -1.803695
C         0.154467   -2.836948   -3.659501
C        -0.041848   -1.964657   -4.658599
C        -0.119697   -0.494046   -4.514108
N         0.669755    0.170824   -3.598615
C         1.764760   -0.229624   -2.810730
C         1.852565    0.276231   -1.512253
C         2.946704   -0.046035   -0.709967
O         3.124926    0.514139    0.525872
C         2.096434    0.640719    1.404351
N         1.105439   -0.207649    1.323273
C         0.075589   -0.052550    2.191227
N        -0.937422   -0.934579    2.111634
C        -0.944930   -2.035206    1.144847
C        -1.374099   -3.333642    1.825753
N        -2.645106   -3.225197    2.524016
C        -2.605038   -2.123453    3.459594
C        -2.201665   -0.786194    2.823220
C        -3.813480   -3.216482    1.657608
C         0.129021    1.006310    3.130452
C         1.270532    1.809140    3.127106
N         1.367273    2.827000    4.046095
C         2.371166    3.739976    4.343507
N         2.173074    4.454077    5.432737
N         3.214588    5.301419    5.542155
H         3.248413    5.947092    6.315631
C         3.607309    4.126936    3.694342
C         4.107680    5.154243    4.532333
C         5.312432    5.829896    4.266590
C         6.007237    5.454047    3.133573
C         5.527908    4.432944    2.282288
C         4.345170    3.767032    2.547400
N         2.270029    1.636863    2.257676
C         3.949912   -0.885932   -1.183855
C         3.857054   -1.382067   -2.483801
C         2.786118   -1.051535   -3.306269
O        -0.922732    0.159223   -5.167623
N        -4.144795   -1.224418   -1.824269
C        -3.336164   -0.435178   -1.083503
C        -1.979884   -0.100763   -1.665307
O        -3.699895    0.006834    0.001993
H        -2.924233   -1.554731   -3.475338
N        -4.744659   -1.864327   -5.319837
C        -3.442968   -1.998531   -5.940206
H        -4.560323   -3.831699   -2.281137
H        -3.611890   -3.970108   -3.760316
H         0.334730    1.115534   -3.444367
H         1.052112    0.904497   -1.121267
H         0.050145   -2.127618    0.699525
H        -1.653687   -1.814180    0.334446
H        -0.600654   -3.633588    2.557345
H        -1.448244   -4.112987    1.053657
H        -1.876382   -2.362317    4.257084
H        -3.592194   -2.010866    3.937389
H        -2.117729   -0.024232    3.605981
H        -2.958868   -0.445524    2.096044
H        -3.714762   -4.009891    0.903374
H        -3.966767   -2.269510    1.103995
H        -4.716216   -3.406282    2.263296
H        -0.666438    1.194188    3.846809
H         0.601901    2.893129    4.704735
H         5.677930    6.616951    4.929116
H         6.947681    5.955486    2.891458
H         6.106492    4.160765    1.397251
H         3.972481    2.967467    1.909860
H         4.790604   -1.128154   -0.532924
H         4.645531   -2.033304   -2.867673
H         2.726013   -1.435343   -4.324148
H        -5.061692   -1.403139   -1.427171
H        -2.086854    0.425262   -2.626979
H        -1.411781   -1.027562   -1.839259
H        -1.450161    0.534581   -0.945043
H        -5.565571   -1.795697   -5.908075
H        -2.782530   -1.138127   -5.744708
H        -3.583880   -2.078604   -7.026465
H        -2.923039   -2.909099   -5.601654
H        -0.354046   -2.311866   -5.647139
H         0.411345   -2.528692   -2.645267
H         0.065328   -3.911372   -3.817282
