-1 1
 OpenBabel05192410563D

 83 87  0  0  1  0  0  0  0  0999 V2000
   -5.9900   -2.0187   -3.6079 O   0  0  0  0  0  0  0  0  0  0  0  0
   -4.8900   -1.8306   -4.1087 C   0  0  0  0  0  0  0  0  0  0  0  0
   -3.6410   -1.7794   -3.2165 C   0  0  2  0  0  0  0  0  0  0  0  0
   -3.0694   -3.2137   -3.1489 C   0  0  0  0  0  0  0  0  0  0  0  0
   -1.6226   -3.4136   -2.0810 S   0  0  0  0  0  0  0  0  0  0  0  0
   -0.1875   -3.2894   -3.3496 C   0  0  0  0  0  0  0  0  0  0  0  0
   -0.3659   -2.3385   -4.4558 C   0  0  0  0  0  3  0  0  0  0  0  0
   -0.3449   -0.9403   -4.3839 C   0  0  0  0  0  0  0  0  0  0  0  0
    0.3890   -0.2692   -3.3581 N   0  0  0  0  0  0  0  0  0  0  0  0
    1.5249   -0.5627   -2.6338 C   0  0  0  0  0  0  0  0  0  0  0  0
    1.7661    0.1799   -1.4658 C   0  0  0  0  0  0  0  0  0  0  0  0
    2.8662   -0.0946   -0.6657 C   0  0  0  0  0  0  0  0  0  0  0  0
    3.0873    0.6375    0.4873 O   0  0  0  0  0  0  0  0  0  0  0  0
    2.1159    0.7237    1.4191 C   0  0  0  0  0  0  0  0  0  0  0  0
    1.1288   -0.1351    1.3721 N   0  0  0  0  0  0  0  0  0  0  0  0
    0.1199    0.0088    2.2547 C   0  0  1  0  0  3  0  0  0  0  0  0
   -0.8992   -0.8750    2.1550 N   0  0  0  0  0  0  0  0  0  0  0  0
   -0.9181   -1.9130    1.1267 C   0  0  0  0  0  0  0  0  0  0  0  0
   -1.2894   -3.2538    1.7568 C   0  0  0  0  0  0  0  0  0  0  0  0
   -2.5428   -3.2178    2.4948 N   0  0  0  0  0  0  0  0  0  0  0  0
   -2.5193   -2.1470    3.4708 C   0  0  0  0  0  0  0  0  0  0  0  0
   -2.1542   -0.7752    2.8838 C   0  0  0  0  0  0  0  0  0  0  0  0
   -3.7312   -3.2302    1.6588 C   0  0  0  0  0  0  0  0  0  0  0  0
    0.1859    1.0441    3.2132 C   0  0  0  0  0  0  0  0  0  0  0  0
    1.3292    1.8518    3.1914 C   0  0  0  0  0  0  0  0  0  0  0  0
    1.4470    2.8502    4.1295 N   0  0  0  0  0  0  0  0  0  0  0  0
    2.4602    3.7570    4.4153 C   0  0  0  0  0  0  0  0  0  0  0  0
    2.3232    4.4119    5.5502 N   0  0  0  0  0  0  0  0  0  0  0  0
    3.3582    5.2703    5.6353 N   0  0  0  0  0  0  0  0  0  0  0  0
    3.4328    5.8785    6.4358 H   0  0  0  0  0  0  0  0  0  0  0  0
    3.6460    4.1963    3.7085 C   0  0  0  0  0  0  0  0  0  0  0  0
    4.1858    5.1887    4.5636 C   0  0  0  0  0  0  0  0  0  0  0  0
    5.3605    5.8978    4.2547 C   0  0  0  0  0  0  0  0  0  0  0  0
    5.9833    5.5921    3.0603 C   0  0  0  0  0  0  0  0  0  0  0  0
    5.4630    4.6072    2.1906 C   0  0  0  0  0  0  0  0  0  0  0  0
    4.3106    3.9073    2.4984 C   0  0  0  0  0  0  0  0  0  0  0  0
    2.3018    1.7061    2.2911 N   0  0  0  0  0  0  0  0  0  0  0  0
    3.7890   -1.0753   -1.0138 C   0  0  0  0  0  0  0  0  0  0  0  0
    3.5737   -1.7833   -2.1986 C   0  0  0  0  0  0  0  0  0  0  0  0
    2.4654   -1.5447   -3.0040 C   0  0  0  0  0  0  0  0  0  0  0  0
   -0.9864   -0.1516   -5.1210 O   0  0  0  0  0  0  0  0  0  0  0  0
   -4.0668   -1.3079   -1.9208 N   0  0  0  0  0  0  0  0  0  0  0  0
   -3.4838   -0.4111   -1.0870 C   0  0  0  0  0  0  0  0  0  0  0  0
   -2.2282    0.2711   -1.5666 C   0  0  0  0  0  0  0  0  0  0  0  0
   -3.9634   -0.1847    0.0192 O   0  0  0  0  0  0  0  0  0  0  0  0
   -2.8770   -1.1134   -3.6387 H   0  0  0  0  0  0  0  0  0  0  0  0
   -4.7334   -1.7324   -5.4490 N   0  0  0  0  0  0  0  0  0  0  0  0
   -3.5265   -1.5907   -6.2383 C   0  0  0  0  0  0  0  0  0  0  0  0
   -3.8586   -3.8811   -2.7691 H   0  0  0  0  0  0  0  0  0  0  0  0
   -2.8019   -3.5473   -4.1624 H   0  0  0  0  0  0  0  0  0  0  0  0
    0.0414    0.6762   -3.2560 H   0  0  0  0  0  0  0  0  0  0  0  0
    1.0454    0.9370   -1.1528 H   0  0  0  0  0  0  0  0  0  0  0  0
    0.0607   -1.9523    0.6380 H   0  0  0  0  0  0  0  0  0  0  0  0
   -1.6613   -1.6479    0.3603 H   0  0  0  0  0  0  0  0  0  0  0  0
   -0.4848   -3.5552    2.4521 H   0  0  0  0  0  0  0  0  0  0  0  0
   -1.3522   -4.0152    0.9651 H   0  0  0  0  0  0  0  0  0  0  0  0
   -1.7728   -2.3980    4.2470 H   0  0  0  0  0  0  0  0  0  0  0  0
   -3.5020   -2.0828    3.9656 H   0  0  0  0  0  0  0  0  0  0  0  0
   -2.0737   -0.0431    3.6958 H   0  0  0  0  0  0  0  0  0  0  0  0
   -2.9353   -0.4259    2.1844 H   0  0  0  0  0  0  0  0  0  0  0  0
   -3.6655   -4.0708    0.9515 H   0  0  0  0  0  0  0  0  0  0  0  0
   -3.9022   -2.3062    1.0726 H   0  0  0  0  0  0  0  0  0  0  0  0
   -4.6190   -3.3939    2.2919 H   0  0  0  0  0  0  0  0  0  0  0  0
   -0.5962    1.2193    3.9483 H   0  0  0  0  0  0  0  0  0  0  0  0
    0.7127    2.8851    4.8248 H   0  0  0  0  0  0  0  0  0  0  0  0
    5.7584    6.6564    4.9317 H   0  0  0  0  0  0  0  0  0  0  0  0
    6.8983    6.1215    2.7829 H   0  0  0  0  0  0  0  0  0  0  0  0
    5.9852    4.3897    1.2569 H   0  0  0  0  0  0  0  0  0  0  0  0
    3.9113    3.1315    1.8478 H   0  0  0  0  0  0  0  0  0  0  0  0
    4.6431   -1.2713   -0.3649 H   0  0  0  0  0  0  0  0  0  0  0  0
    4.2919   -2.5499   -2.5008 H   0  0  0  0  0  0  0  0  0  0  0  0
    2.3005   -2.1049   -3.9255 H   0  0  0  0  0  0  0  0  0  0  0  0
   -4.9537   -1.6877   -1.6016 H   0  0  0  0  0  0  0  0  0  0  0  0
   -2.3565    0.7267   -2.5605 H   0  0  0  0  0  0  0  0  0  0  0  0
   -1.4195   -0.4685   -1.6584 H   0  0  0  0  0  0  0  0  0  0  0  0
   -1.9496    1.0349   -0.8312 H   0  0  0  0  0  0  0  0  0  0  0  0
   -5.6060   -1.8822   -5.9432 H   0  0  0  0  0  0  0  0  0  0  0  0
   -2.7139   -1.0643   -5.7048 H   0  0  0  0  0  0  0  0  0  0  0  0
   -3.7555   -0.9927   -7.1324 H   0  0  0  0  0  0  0  0  0  0  0  0
   -3.1385   -2.5687   -6.5720 H   0  0  0  0  0  0  0  0  0  0  0  0
   -0.8901   -2.7168   -5.3377 H   0  0  0  0  0  0  0  0  0  0  0  0
    0.6498   -3.0867   -2.6665 H   0  0  0  0  0  0  0  0  0  0  0  0
   -0.0696   -4.3175   -3.7203 H   0  0  0  0  0  0  0  0  0  0  0  0
  2  1  2  0  0  0  0
  2  3  1  0  0  0  0
  3 46  1  6  0  0  0
  3  4  1  0  0  0  0
  3 42  1  0  0  0  0
  4 49  1  0  0  0  0
  4  5  1  0  0  0  0
  6 82  1  0  0  0  0
  6  5  1  0  0  0  0
  7  8  1  0  0  0  0
  7  6  1  0  0  0  0
  8  9  1  0  0  0  0
  9 51  1  0  0  0  0
  9 10  1  0  0  0  0
 10 11  1  0  0  0  0
 11 52  1  0  0  0  0
 11 12  2  0  0  0  0
 12 13  1  0  0  0  0
 13 14  1  0  0  0  0
 14 37  2  0  0  0  0
 15 14  2  0  0  0  0
 15 16  1  0  0  0  0
 16 17  1  1  0  0  0
 16 24  1  0  0  0  0
 17 22  1  0  0  0  0
 18 19  1  0  0  0  0
 18 17  1  0  0  0  0
 19 55  1  0  0  0  0
 19 20  1  0  0  0  0
 20 21  1  0  0  0  0
 21 58  1  0  0  0  0
 21 57  1  0  0  0  0
 22 21  1  0  0  0  0
 22 59  1  0  0  0  0
 23 63  1  0  0  0  0
 23 20  1  0  0  0  0
 24 64  1  0  0  0  0
 25 24  2  0  0  0  0
 25 26  1  0  0  0  0
 26 27  1  0  0  0  0
 26 65  1  0  0  0  0
 27 28  2  0  0  0  0
 28 29  1  0  0  0  0
 29 30  1  0  0  0  0
 31 27  1  0  0  0  0
 31 32  1  0  0  0  0
 32 29  1  0  0  0  0
 33 32  2  0  0  0  0
 33 66  1  0  0  0  0
 34 33  1  0  0  0  0
 35 36  1  0  0  0  0
 35 34  2  0  0  0  0
 36 31  2  0  0  0  0
 37 25  1  0  0  0  0
 38 12  1  0  0  0  0
 38 70  1  0  0  0  0
 39 38  2  0  0  0  0
 40 10  2  0  0  0  0
 40 39  1  0  0  0  0
 41  8  2  0  0  0  0
 42 73  1  0  0  0  0
 42 43  1  0  0  0  0
 43 45  2  0  0  0  0
 44 43  1  0  0  0  0
 44 76  1  0  0  0  0
 47  2  1  0  0  0  0
 48 78  1  0  0  0  0
 48 47  1  0  0  0  0
 50  4  1  0  0  0  0
 53 18  1  0  0  0  0
 54 18  1  0  0  0  0
 56 19  1  0  0  0  0
 60 22  1  0  0  0  0
 61 23  1  0  0  0  0
 62 23  1  0  0  0  0
 67 34  1  0  0  0  0
 68 35  1  0  0  0  0
 69 36  1  0  0  0  0
 71 39  1  0  0  0  0
 72 40  1  0  0  0  0
 74 44  1  0  0  0  0
 75 44  1  0  0  0  0
 77 47  1  0  0  0  0
 79 48  1  0  0  0  0
 80 48  1  0  0  0  0
 81  7  1  0  0  0  0
 83  6  1  0  0  0  0
M  END
