83
-1 1
O       -10.405260   -2.759395   -4.669891
C        -9.284544   -2.707796   -5.154030
C        -8.043569   -2.731409   -4.253538
C        -7.533343   -4.199049   -4.204161
S        -6.283324   -4.571864   -2.953546
C        -4.301776   -4.184762   -4.450018
C        -4.549353   -3.328704   -5.498268
C        -4.561465   -1.881887   -5.434403
N        -3.767534   -1.180697   -4.523434
C        -2.654390   -1.507131   -3.745850
C        -2.496490   -0.838878   -2.527436
C        -1.394898   -1.101798   -1.718131
O        -1.197791   -0.411835   -0.544459
C        -2.190972   -0.314316    0.370864
N        -3.173916   -1.174709    0.313299
C        -4.188607   -1.033619    1.196190
N        -5.200645   -1.919565    1.109433
C        -5.213833   -2.993814    0.115578
C        -5.584053   -4.316544    0.784673
N        -6.834842   -4.260226    1.524989
C        -6.805316   -3.166162    2.472228
C        -6.453968   -1.809989    1.843606
C        -8.028047   -4.286313    0.693494
C        -4.126954    0.011747    2.147628
C        -2.991270    0.825933    2.125781
N        -2.884179    1.834096    3.054870
C        -1.876084    2.745254    3.343912
N        -2.029689    3.413806    4.468611
N        -0.996341    4.273547    4.558773
H        -0.933607    4.890811    5.353321
C        -0.679983    3.176589    2.649713
C        -0.152967    4.179354    3.500728
C         1.026332    4.884882    3.200874
C         1.667006    4.564862    2.019741
C         1.159772    3.569347    1.154419
C         0.002769    2.873244    1.453430
N        -2.011202    0.676272    1.232022
C        -0.427300   -2.022043   -2.105232
C        -0.579205   -2.672466   -3.331164
C        -1.670072   -2.421487   -4.155134
O        -5.304051   -1.186333   -6.135598
N        -8.447981   -2.212182   -2.971687
C        -7.738706   -1.459798   -2.100292
C        -6.406941   -0.923124   -2.573956
O        -8.171066   -1.214042   -0.977885
H        -7.249538   -2.098293   -4.671325
N        -9.109990   -2.703368   -6.500853
C        -7.889883   -2.714754   -7.275935
H        -8.406533   -4.853235   -4.046091
H        -7.128804   -4.433769   -5.204691
H        -4.106793   -0.231482   -4.421440
H        -3.262654   -0.138204   -2.193870
H        -4.233340   -3.049194   -0.366979
H        -5.956126   -2.765236   -0.662054
H        -4.778129   -4.603724    1.485362
H        -5.655087   -5.092125    0.008003
H        -6.050602   -3.392417    3.248689
H        -7.783667   -3.090617    2.974348
H        -6.376751   -1.052240    2.631606
H        -7.236287   -1.488132    1.133779
H        -7.954114   -5.118273   -0.021312
H        -8.205480   -3.364835    0.106017
H        -8.910272   -4.457209    1.333370
H        -4.909856    0.185373    2.881726
H        -3.626325    1.874384    3.741491
H         1.414023    5.651712    3.874437
H         2.586165    5.090997    1.749877
H         1.696156    3.340842    0.231298
H        -0.387770    2.089841    0.806531
H         0.423135   -2.213114   -1.449976
H         0.177110   -3.392165   -3.653434
H        -1.784381   -2.938278   -5.107777
H        -9.349385   -2.539573   -2.638134
H        -6.510099   -0.356461   -3.512558
H        -5.722867   -1.763911   -2.762506
H        -5.997527   -0.278505   -1.786579
H        -9.987293   -2.811554   -6.996764
H        -7.064491   -2.200172   -6.761416
H        -8.059546   -2.175579   -8.219605
H        -7.560166   -3.739645   -7.521567
H        -5.023668   -3.717711   -6.403057
H        -3.757295   -3.865619   -3.562748
H        -4.294954   -5.258649   -4.631945
