-1 1
 OpenBabel05232414493D

 94 98  0  0  1  0  0  0  0  0999 V2000
    2.1778   -3.9563   -1.7956 O   0  0  0  0  0  0  0  0  0  0  0  0
    1.8165   -3.4649   -0.7322 C   0  0  0  0  0  0  0  0  0  0  0  0
    2.8058   -2.7221    0.1801 C   0  0  2  0  0  0  0  0  0  0  0  0
    2.3336   -1.2996    0.5437 C   0  0  0  0  0  0  0  0  0  0  0  0
    1.0709   -1.2609    1.8559 S   0  0  0  0  0  0  0  0  0  0  0  0
   -0.1763    0.5812    1.7251 C   0  0  1  0  0  0  0  0  0  0  0  0
   -0.1396    1.3248    2.9384 C   0  0  0  0  0  3  0  0  0  0  0  0
    0.4054    2.5920    3.2238 C   0  0  0  0  0  0  0  0  0  0  0  0
    1.2861    3.2449    2.3118 N   0  0  0  0  0  0  0  0  0  0  0  0
    2.5626    2.8301    1.9194 C   0  0  0  0  0  0  0  0  0  0  0  0
    3.3693    3.7603    1.2485 C   0  0  0  0  0  0  0  0  0  0  0  0
    4.6935    3.4593    0.9639 C   0  0  0  0  0  0  0  0  0  0  0  0
    5.5159    4.4345    0.4051 O   0  0  0  0  0  0  0  0  0  0  0  0
    5.8316    5.4828    1.1848 C   0  0  0  0  0  0  0  0  0  0  0  0
    6.5577    6.4248    0.6056 N   0  0  0  0  0  0  0  0  0  0  0  0
    6.8482    7.4984    1.3582 C   0  0  1  0  0  3  0  0  0  0  0  0
    7.5903    8.4843    0.7411 N   0  0  0  0  0  0  0  0  0  0  0  0
    8.3374    8.1569   -0.4658 C   0  0  0  0  0  0  0  0  0  0  0  0
    8.5112    9.3932   -1.3430 C   0  0  0  0  0  0  0  0  0  0  0  0
    9.0854   10.5291   -0.6385 N   0  0  0  0  0  0  0  0  0  0  0  0
    8.2847   10.8256    0.5323 C   0  0  0  0  0  0  0  0  0  0  0  0
    8.0762    9.6338    1.4751 C   0  0  0  0  0  0  0  0  0  0  0  0
   10.5049   10.4267   -0.3867 C   0  0  0  0  0  0  0  0  0  0  0  0
    6.4009    7.6086    2.6890 C   0  0  0  0  0  0  0  0  0  0  0  0
    5.6350    6.5363    3.1731 C   0  0  0  0  0  0  0  0  0  0  0  0
    5.1108    6.4987    4.4388 N   0  0  0  0  0  0  0  0  0  0  0  0
    4.2154    5.4624    4.7895 C   0  0  0  0  0  0  0  0  0  0  0  0
    2.9107    5.6279    4.7310 N   0  0  0  0  0  0  0  0  0  0  0  0
    2.3553    4.4561    5.0589 N   0  0  0  0  0  0  0  0  0  0  0  0
    1.3548    4.2327    4.8570 H   0  0  0  0  0  0  0  0  0  0  0  0
    4.5520    4.1167    5.1255 C   0  0  0  0  0  0  0  0  0  0  0  0
    3.2963    3.4961    5.2716 C   0  0  0  0  0  0  0  0  0  0  0  0
    3.1657    2.1226    5.5481 C   0  0  0  0  0  0  0  0  0  0  0  0
    4.3354    1.4004    5.6700 C   0  0  0  0  0  0  0  0  0  0  0  0
    5.6081    2.0098    5.5245 C   0  0  0  0  0  0  0  0  0  0  0  0
    5.7304    3.3581    5.2514 C   0  0  0  0  0  0  0  0  0  0  0  0
    5.3835    5.4704    2.4205 N   0  0  0  0  0  0  0  0  0  0  0  0
    5.2329    2.2127    1.2503 C   0  0  0  0  0  0  0  0  0  0  0  0
    4.4127    1.2697    1.8705 C   0  0  0  0  0  0  0  0  0  0  0  0
    3.0973    1.5679    2.2173 C   0  0  0  0  0  0  0  0  0  0  0  0
    0.0907    3.2590    4.2395 O   0  0  0  0  0  0  0  0  0  0  0  0
    0.0819    1.2261    0.3609 C   0  0  0  0  0  0  0  0  0  0  0  0
   -0.9112    0.9243   -0.6584 N   0  0  0  0  0  0  0  0  0  0  0  0
   -0.9735   -0.4514   -1.0815 C   0  0  0  0  0  0  0  0  0  0  0  0
   -2.2119    1.4830   -0.3873 C   0  0  0  0  0  0  0  0  0  0  0  0
    4.0625   -2.6935   -0.5295 N   0  0  0  0  0  0  0  0  0  0  0  0
    5.2415   -2.3884    0.0600 C   0  0  0  0  0  0  0  0  0  0  0  0
    6.4460   -2.3958   -0.8645 C   0  0  0  0  0  0  0  0  0  0  0  0
    5.3448   -2.0905    1.2382 O   0  0  0  0  0  0  0  0  0  0  0  0
    2.9284   -3.2907    1.1188 H   0  0  0  0  0  0  0  0  0  0  0  0
    0.5502   -3.5208   -0.2802 N   0  0  0  0  0  0  0  0  0  0  0  0
   -0.5072   -4.0840   -1.0781 C   0  0  0  0  0  0  0  0  0  0  0  0
    3.2134   -0.7446    0.8826 H   0  0  0  0  0  0  0  0  0  0  0  0
    1.9679   -0.8034   -0.3700 H   0  0  0  0  0  0  0  0  0  0  0  0
    1.2514    4.2453    2.4794 H   0  0  0  0  0  0  0  0  0  0  0  0
    2.9875    4.7596    1.0316 H   0  0  0  0  0  0  0  0  0  0  0  0
    7.7926    7.3693   -0.9976 H   0  0  0  0  0  0  0  0  0  0  0  0
    9.3280    7.7373   -0.1944 H   0  0  0  0  0  0  0  0  0  0  0  0
    7.5221    9.6940   -1.7295 H   0  0  0  0  0  0  0  0  0  0  0  0
    9.1413    9.1460   -2.2118 H   0  0  0  0  0  0  0  0  0  0  0  0
    7.2918   11.1656    0.1897 H   0  0  0  0  0  0  0  0  0  0  0  0
    8.7422   11.6581    1.0904 H   0  0  0  0  0  0  0  0  0  0  0  0
    7.3382    9.9327    2.2300 H   0  0  0  0  0  0  0  0  0  0  0  0
    9.0148    9.3922    2.0167 H   0  0  0  0  0  0  0  0  0  0  0  0
   11.0388   10.2898   -1.3400 H   0  0  0  0  0  0  0  0  0  0  0  0
   10.8091    9.5952    0.2842 H   0  0  0  0  0  0  0  0  0  0  0  0
   10.8680   11.3634    0.0652 H   0  0  0  0  0  0  0  0  0  0  0  0
    6.6294    8.4566    3.3298 H   0  0  0  0  0  0  0  0  0  0  0  0
    5.0653    7.3655    4.9558 H   0  0  0  0  0  0  0  0  0  0  0  0
    2.1812    1.6579    5.6195 H   0  0  0  0  0  0  0  0  0  0  0  0
    4.2817    0.3254    5.8569 H   0  0  0  0  0  0  0  0  0  0  0  0
    6.5034    1.3899    5.6111 H   0  0  0  0  0  0  0  0  0  0  0  0
    6.7082    3.8245    5.1135 H   0  0  0  0  0  0  0  0  0  0  0  0
    6.2783    2.0045    1.0198 H   0  0  0  0  0  0  0  0  0  0  0  0
    4.8152    0.2810    2.1062 H   0  0  0  0  0  0  0  0  0  0  0  0
    2.4894    0.8284    2.7398 H   0  0  0  0  0  0  0  0  0  0  0  0
    1.0787    0.9693   -0.0263 H   0  0  0  0  0  0  0  0  0  0  0  0
    0.1007    2.3166    0.4971 H   0  0  0  0  0  0  0  0  0  0  0  0
    0.0319   -0.8232   -1.3275 H   0  0  0  0  0  0  0  0  0  0  0  0
   -1.5953   -0.5347   -1.9892 H   0  0  0  0  0  0  0  0  0  0  0  0
   -1.4011   -1.1434   -0.3212 H   0  0  0  0  0  0  0  0  0  0  0  0
   -2.1178    2.5503   -0.1350 H   0  0  0  0  0  0  0  0  0  0  0  0
   -2.7525    0.9916    0.4534 H   0  0  0  0  0  0  0  0  0  0  0  0
   -2.8515    1.3985   -1.2822 H   0  0  0  0  0  0  0  0  0  0  0  0
    4.0141   -3.0672   -1.4732 H   0  0  0  0  0  0  0  0  0  0  0  0
    6.2709   -2.9334   -1.8069 H   0  0  0  0  0  0  0  0  0  0  0  0
    7.2954   -2.8436   -0.3324 H   0  0  0  0  0  0  0  0  0  0  0  0
    6.7094   -1.3530   -1.0966 H   0  0  0  0  0  0  0  0  0  0  0  0
    0.3284   -2.9307    0.5351 H   0  0  0  0  0  0  0  0  0  0  0  0
   -0.8638   -3.3838   -1.8541 H   0  0  0  0  0  0  0  0  0  0  0  0
   -1.3547   -4.3452   -0.4298 H   0  0  0  0  0  0  0  0  0  0  0  0
   -0.1484   -4.9898   -1.5862 H   0  0  0  0  0  0  0  0  0  0  0  0
   -1.0533   -0.0726    1.6885 H   0  0  0  0  0  0  0  0  0  0  0  0
   -0.7044    0.9177    3.7808 H   0  0  0  0  0  0  0  0  0  0  0  0
  1  2  2  0  0  0  0
  2 51  1  0  0  0  0
  2  3  1  0  0  0  0
  3  4  1  0  0  0  0
  3 50  1  1  0  0  0
  4 53  1  0  0  0  0
  4  5  1  0  0  0  0
  6 93  1  6  0  0  0
  6  5  1  0  0  0  0
  6  7  1  0  0  0  0
  7  8  1  0  0  0  0
  7 94  1  0  0  0  0
  8 41  2  0  0  0  0
  9 55  1  0  0  0  0
  9  8  1  0  0  0  0
 10 40  1  0  0  0  0
 10  9  1  0  0  0  0
 11 10  2  0  0  0  0
 12 11  1  0  0  0  0
 12 38  2  0  0  0  0
 13 12  1  0  0  0  0
 13 14  1  0  0  0  0
 14 37  2  0  0  0  0
 15 14  2  0  0  0  0
 15 16  1  0  0  0  0
 16 17  1  6  0  0  0
 16 24  1  0  0  0  0
 17 22  1  0  0  0  0
 18 58  1  0  0  0  0
 18 17  1  0  0  0  0
 19 20  1  0  0  0  0
 19 18  1  0  0  0  0
 20 23  1  0  0  0  0
 20 21  1  0  0  0  0
 21 62  1  0  0  0  0
 21 22  1  0  0  0  0
 22 64  1  0  0  0  0
 22 63  1  0  0  0  0
 23 67  1  0  0  0  0
 23 66  1  0  0  0  0
 24 25  2  0  0  0  0
 24 68  1  0  0  0  0
 25 26  1  0  0  0  0
 26 27  1  0  0  0  0
 26 69  1  0  0  0  0
 27 31  1  0  0  0  0
 28 27  2  0  0  0  0
 28 29  1  0  0  0  0
 29 32  1  0  0  0  0
 30 29  1  0  0  0  0
 31 36  2  0  0  0  0
 31 32  1  0  0  0  0
 32 33  2  0  0  0  0
 33 70  1  0  0  0  0
 33 34  1  0  0  0  0
 34 71  1  0  0  0  0
 35 72  1  0  0  0  0
 35 34  2  0  0  0  0
 36 35  1  0  0  0  0
 37 25  1  0  0  0  0
 38 39  1  0  0  0  0
 39 75  1  0  0  0  0
 39 40  2  0  0  0  0
 40 76  1  0  0  0  0
 42 78  1  0  0  0  0
 42  6  1  0  0  0  0
 43 45  1  0  0  0  0
 43 42  1  0  0  0  0
 44 43  1  0  0  0  0
 44 81  1  0  0  0  0
 45 82  1  0  0  0  0
 45 83  1  0  0  0  0
 46 47  1  0  0  0  0
 46  3  1  0  0  0  0
 47 49  2  0  0  0  0
 48 87  1  0  0  0  0
 48 47  1  0  0  0  0
 51 89  1  0  0  0  0
 52 91  1  0  0  0  0
 52 51  1  0  0  0  0
 54  4  1  0  0  0  0
 56 11  1  0  0  0  0
 57 18  1  0  0  0  0
 59 19  1  0  0  0  0
 60 19  1  0  0  0  0
 61 21  1  0  0  0  0
 65 23  1  0  0  0  0
 73 36  1  0  0  0  0
 74 38  1  0  0  0  0
 77 42  1  0  0  0  0
 79 44  1  0  0  0  0
 80 44  1  0  0  0  0
 84 45  1  0  0  0  0
 85 46  1  0  0  0  0
 86 48  1  0  0  0  0
 88 48  1  0  0  0  0
 90 52  1  0  0  0  0
 92 52  1  0  0  0  0
M  END
