94
-1 1
O        -0.336001   -5.322667   -2.672700
C        -1.458072   -5.154939   -2.219921
C        -1.713871   -5.114248   -0.703836
C        -2.530177   -3.895706   -0.245531
S        -4.316253   -4.012746   -0.552796
C        -4.782505   -2.192026   -0.184832
C        -4.190027   -1.703531    1.086903
C        -2.945239   -1.148967    1.330180
N        -2.218123   -0.607206    0.194074
C        -0.846967   -0.643841    0.033689
C        -0.199522    0.345335   -0.726676
C         1.173122    0.294620   -0.919672
O         1.795974    1.358024   -1.571700
C         2.119247    2.400058   -0.782737
N         2.631945    3.453026   -1.397727
C         2.921784    4.507722   -0.617960
N         3.434420    5.613482   -1.267122
C         4.009440    5.448845   -2.594871
C         3.901349    6.745022   -3.392519
N         4.451580    7.900407   -2.700295
C         3.821043    8.029921   -1.401854
C         3.899943    6.769687   -0.531080
C         5.895461    7.956223   -2.675964
C         2.696765    4.484214    0.771732
C         2.144294    3.300482    1.288924
N         1.855605    3.114612    2.613111
C         1.181976    1.936660    3.011567
N        -0.117561    1.798122    2.837046
N        -0.428526    0.545113    3.156555
H        -1.346423    0.084702    2.890676
C         1.773003    0.710715    3.440041
C         0.671237   -0.167422    3.510824
C         0.811915   -1.523000    3.861857
C         2.091823   -1.966938    4.131113
C         3.213549   -1.099469    4.054657
C         3.068362    0.231964    3.712714
N         1.883282    2.262325    0.501370
C         1.946950   -0.744165   -0.419469
C         1.305419   -1.724830    0.335244
C        -0.062179   -1.680707    0.574675
O        -2.403593   -1.038943    2.465162
C        -4.605389   -1.331864   -1.450699
N        -5.454756   -1.602619   -2.592541
C        -5.019516   -2.542818   -3.588105
C        -6.870135   -1.606486   -2.357053
N        -0.419694   -5.110898   -0.068283
C        -0.243729   -5.426431    1.237910
C         1.166296   -5.236224    1.762354
O        -1.155360   -5.794430    1.957735
H        -2.252093   -6.034359   -0.412404
N        -2.549071   -5.004548   -3.001513
C        -2.433878   -4.960735   -4.436859
H        -2.399383   -3.788216    0.838034
H        -2.141057   -2.988040   -0.728016
H        -2.689266    0.144657   -0.289388
H        -0.757142    1.202615   -1.109942
H         3.476636    4.632134   -3.094158
H         5.071484    5.137966   -2.511722
H         2.835758    6.944951   -3.599000
H         4.407101    6.626695   -4.363796
H         2.754606    8.265683   -1.562477
H         4.266786    8.878792   -0.858986
H         3.262347    6.932744    0.347000
H         4.933924    6.614641   -0.156735
H         6.281878    7.939639   -3.707121
H         6.393100    7.130559   -2.123870
H         6.220499    8.902551   -2.215215
H         2.937931    5.314867    1.430556
H         1.885731    3.912907    3.231121
H        -0.061318   -2.177274    3.893424
H         2.250197   -3.013432    4.405436
H         4.208070   -1.500170    4.266408
H         3.932903    0.896322    3.641402
H         3.027033   -0.741093   -0.567538
H         1.895296   -2.529360    0.780272
H        -0.535801   -2.428760    1.208471
H        -3.559971   -1.366234   -1.787804
H        -4.797897   -0.289726   -1.128292
H        -3.925420   -2.496470   -3.691209
H        -5.460507   -2.287085   -4.570019
H        -5.289425   -3.598616   -3.369484
H        -7.143498   -0.784428   -1.676126
H        -7.258667   -2.551466   -1.913809
H        -7.413214   -1.449121   -3.305769
H         0.363383   -4.897616   -0.676504
H         1.380176   -6.019844    2.500115
H         1.213801   -4.263953    2.277885
H         1.928702   -5.246410    0.970861
H        -3.416669   -4.701046   -2.552477
H        -2.034939   -3.996220   -4.796045
H        -3.424073   -5.119484   -4.884927
H        -1.750647   -5.749357   -4.781928
H        -5.863653   -2.317658   -0.023070
H        -4.702365   -2.027886    1.996616
