94
-1 1
O         2.177767   -3.956255   -1.795561
C         1.816498   -3.464872   -0.732159
C         2.805777   -2.722051    0.180097
C         2.333639   -1.299647    0.543651
S         1.070933   -1.260909    1.855863
C        -0.176298    0.581229    1.725110
C        -0.139571    1.324836    2.938370
C         0.405408    2.591996    3.223799
N         1.286078    3.244852    2.311826
C         2.562647    2.830110    1.919364
C         3.369255    3.760266    1.248545
C         4.693461    3.459275    0.963911
O         5.515870    4.434521    0.405069
C         5.831555    5.482824    1.184759
N         6.557681    6.424762    0.605626
C         6.848154    7.498381    1.358177
N         7.590259    8.484268    0.741056
C         8.337394    8.156850   -0.465754
C         8.511175    9.393168   -1.343011
N         9.085403   10.529081   -0.638515
C         8.284665   10.825606    0.532330
C         8.076197    9.633801    1.475070
C        10.504862   10.426738   -0.386664
C         6.400932    7.608603    2.689005
C         5.635007    6.536306    3.173060
N         5.110781    6.498727    4.438757
C         4.215370    5.462379    4.789499
N         2.910656    5.627870    4.731012
N         2.355337    4.456079    5.058929
H         1.354836    4.232681    4.857033
C         4.552034    4.116658    5.125480
C         3.296258    3.496079    5.271628
C         3.165727    2.122568    5.548064
C         4.335378    1.400391    5.669991
C         5.608110    2.009789    5.524466
C         5.730368    3.358142    5.251428
N         5.383517    5.470393    2.420466
C         5.232901    2.212654    1.250264
C         4.412653    1.269717    1.870464
C         3.097283    1.567890    2.217296
O         0.090747    3.259040    4.239492
C         0.081872    1.226109    0.360941
N        -0.911242    0.924327   -0.658377
C        -0.973475   -0.451383   -1.081532
C        -2.211853    1.483035   -0.387294
N         4.062547   -2.693524   -0.529460
C         5.241456   -2.388418    0.060006
C         6.446007   -2.395834   -0.864526
O         5.344802   -2.090452    1.238203
H         2.928387   -3.290719    1.118783
N         0.550239   -3.520821   -0.280249
C        -0.507169   -4.083979   -1.078123
H         3.213433   -0.744629    0.882623
H         1.967935   -0.803429   -0.369962
H         1.251380    4.245335    2.479364
H         2.987458    4.759557    1.031553
H         7.792588    7.369264   -0.997559
H         9.328025    7.737290   -0.194427
H         7.522104    9.693984   -1.729456
H         9.141329    9.145970   -2.211817
H         7.291827   11.165644    0.189734
H         8.742205   11.658134    1.090398
H         7.338208    9.932735    2.229995
H         9.014840    9.392160    2.016678
H        11.038820   10.289785   -1.340031
H        10.809126    9.595207    0.284239
H        10.867980   11.363431    0.065157
H         6.629352    8.456610    3.329844
H         5.065287    7.365460    4.955843
H         2.181239    1.657881    5.619541
H         4.281706    0.325367    5.856852
H         6.503445    1.389892    5.611117
H         6.708169    3.824457    5.113526
H         6.278269    2.004462    1.019765
H         4.815195    0.281014    2.106246
H         2.489438    0.828383    2.739810
H         1.078716    0.969314   -0.026326
H         0.100743    2.316604    0.497149
H         0.031919   -0.823215   -1.327505
H        -1.595349   -0.534677   -1.989215
H        -1.401076   -1.143357   -0.321249
H        -2.117759    2.550258   -0.134977
H        -2.752490    0.991597    0.453377
H        -2.851465    1.398458   -1.282193
H         4.014115   -3.067194   -1.473225
H         6.270855   -2.933395   -1.806923
H         7.295356   -2.843571   -0.332435
H         6.709358   -1.352982   -1.096622
H         0.328441   -2.930711    0.535081
H        -0.863830   -3.383848   -1.854087
H        -1.354695   -4.345201   -0.429808
H        -0.148405   -4.989799   -1.586203
H        -1.053326   -0.072551    1.688506
H        -0.704388    0.917691    3.780820
