-1 1
 OpenBabel05232413493D

 94 97  0  0  1  0  0  0  0  0999 V2000
   -2.3364   -6.5894   -2.4310 O   0  0  0  0  0  0  0  0  0  0  0  0
   -2.3002   -6.3234   -1.2284 C   0  0  0  0  0  0  0  0  0  0  0  0
   -1.0995   -5.5760   -0.6172 C   0  0  2  0  0  0  0  0  0  0  0  0
   -1.4849   -4.3617    0.2541 C   0  0  0  0  0  0  0  0  0  0  0  0
   -2.3677   -4.7104    1.8147 S   0  0  0  0  0  1  0  0  0  0  0  0
   -3.9286   -2.0013   -0.2459 C   0  0  0  0  0  0  0  0  0  0  0  0
   -3.7633   -1.3087    0.8872 C   0  0  0  0  0  0  0  0  0  0  0  0
   -3.4491    0.1275    1.0579 C   0  0  0  0  0  0  0  0  0  0  0  0
   -2.5362    0.7736    0.2490 N   0  0  0  0  0  0  0  0  0  0  0  0
   -1.3131    0.3598   -0.3253 C   0  0  0  0  0  0  0  0  0  0  0  0
   -0.5398    1.3637   -0.9140 C   0  0  0  0  0  0  0  0  0  0  0  0
    0.7550    1.0865   -1.3314 C   0  0  0  0  0  0  0  0  0  0  0  0
    1.5820    2.1287   -1.7291 O   0  0  0  0  0  0  0  0  0  0  0  0
    2.0028    2.9539   -0.7487 C   0  0  0  0  0  0  0  0  0  0  0  0
    2.8118    3.9236   -1.1330 N   0  0  0  0  0  0  0  0  0  0  0  0
    3.2207    4.7728   -0.1745 C   0  0  1  0  0  3  0  0  0  0  0  0
    4.0494    5.7925   -0.5854 N   0  0  0  0  0  0  0  0  0  0  0  0
    4.7342    5.6820   -1.8672 C   0  0  0  0  0  0  0  0  0  0  0  0
    5.0021    7.0646   -2.4551 C   0  0  0  0  0  0  0  0  0  0  0  0
    5.6957    7.9591   -1.5421 N   0  0  0  0  0  0  0  0  0  0  0  0
    4.9535    8.0541   -0.3016 C   0  0  0  0  0  0  0  0  0  0  0  0
    4.6571    6.7038    0.3630 C   0  0  0  0  0  0  0  0  0  0  0  0
    7.1055    7.6834   -1.3818 C   0  0  0  0  0  0  0  0  0  0  0  0
    2.8039    4.6251    1.1628 C   0  0  0  0  0  0  0  0  0  0  0  0
    1.9308    3.5586    1.4253 C   0  0  0  0  0  0  0  0  0  0  0  0
    1.4162    3.3089    2.6699 N   0  0  0  0  0  0  0  0  0  0  0  0
    0.3949    2.3514    2.8600 C   0  0  0  0  0  0  0  0  0  0  0  0
   -0.8452    2.7298    3.0727 N   0  0  0  0  0  0  0  0  0  0  0  0
   -1.5599    1.6083    3.2563 N   0  0  0  0  0  0  0  0  0  0  0  0
   -2.5765    1.6383    3.2090 H   0  0  0  0  0  0  0  0  0  0  0  0
    0.5137    0.9243    2.8508 C   0  0  0  0  0  0  0  0  0  0  0  0
   -0.7994    0.4829    3.1040 C   0  0  0  0  0  0  0  0  0  0  0  0
   -1.1351   -0.8820    3.1504 C   0  0  0  0  0  0  0  0  0  0  0  0
   -0.1195   -1.7880    2.9131 C   0  0  0  0  0  0  0  0  0  0  0  0
    1.2054   -1.3582    2.6509 C   0  0  0  0  0  0  0  0  0  0  0  0
    1.5350   -0.0164    2.6192 C   0  0  0  0  0  0  0  0  0  0  0  0
    1.5578    2.7166    0.4665 N   0  0  0  0  0  0  0  0  0  0  0  0
    1.2706   -0.2002   -1.2813 C   0  0  0  0  0  0  0  0  0  0  0  0
    0.4748   -1.2108   -0.7433 C   0  0  0  0  0  0  0  0  0  0  0  0
   -0.7958   -0.9378   -0.2461 C   0  0  0  0  0  0  0  0  0  0  0  0
   -4.0263    0.7809    1.9218 O   0  0  0  0  0  0  0  0  0  0  0  0
   -3.7209   -1.5609   -1.6725 C   0  0  0  0  0  0  0  0  0  0  0  0
   -4.4072   -2.3609   -2.6688 N   0  0  0  0  0  0  0  0  0  0  0  0
   -3.9116   -3.7164   -2.7703 C   0  0  0  0  0  0  0  0  0  0  0  0
   -5.8443   -2.2928   -2.5744 C   0  0  0  0  0  0  0  0  0  0  0  0
   -0.2954   -5.1869   -1.7600 N   0  0  0  0  0  0  0  0  0  0  0  0
    0.9440   -4.6617   -1.7130 C   0  0  0  0  0  0  0  0  0  0  0  0
    1.5293   -4.2878   -3.0653 C   0  0  0  0  0  0  0  0  0  0  0  0
    1.5563   -4.4319   -0.6791 O   0  0  0  0  0  0  0  0  0  0  0  0
   -0.5399   -6.2828    0.0217 H   0  0  0  0  0  0  0  0  0  0  0  0
   -3.2774   -6.6478   -0.3740 N   0  0  0  0  0  0  0  0  0  0  0  0
   -4.4887   -7.2679   -0.8373 C   0  0  0  0  0  0  0  0  0  0  0  0
   -0.5376   -3.8541    0.4837 H   0  0  0  0  0  0  0  0  0  0  0  0
   -2.0689   -3.6826   -0.3908 H   0  0  0  0  0  0  0  0  0  0  0  0
   -2.5445    1.7660    0.4677 H   0  0  0  0  0  0  0  0  0  0  0  0
   -0.8986    2.3941   -0.9404 H   0  0  0  0  0  0  0  0  0  0  0  0
    4.1063    5.0841   -2.5367 H   0  0  0  0  0  0  0  0  0  0  0  0
    5.6868    5.1291   -1.7376 H   0  0  0  0  0  0  0  0  0  0  0  0
    4.0367    7.5280   -2.7225 H   0  0  0  0  0  0  0  0  0  0  0  0
    5.5861    6.9652   -3.3835 H   0  0  0  0  0  0  0  0  0  0  0  0
    3.9890    8.5462   -0.5169 H   0  0  0  0  0  0  0  0  0  0  0  0
    5.4992    8.6977    0.4065 H   0  0  0  0  0  0  0  0  0  0  0  0
    3.9685    6.8878    1.1970 H   0  0  0  0  0  0  0  0  0  0  0  0
    5.5813    6.2667    0.7948 H   0  0  0  0  0  0  0  0  0  0  0  0
    7.6015    7.7197   -2.3643 H   0  0  0  0  0  0  0  0  0  0  0  0
    7.3476    6.6997   -0.9259 H   0  0  0  0  0  0  0  0  0  0  0  0
    7.5639    8.4605   -0.7501 H   0  0  0  0  0  0  0  0  0  0  0  0
    3.1295    5.2801    1.9670 H   0  0  0  0  0  0  0  0  0  0  0  0
    1.4758    4.0514    3.3529 H   0  0  0  0  0  0  0  0  0  0  0  0
   -2.1537   -1.2225    3.3391 H   0  0  0  0  0  0  0  0  0  0  0  0
   -0.3713   -2.8539    2.8930 H   0  0  0  0  0  0  0  0  0  0  0  0
    1.9684   -2.1114    2.4438 H   0  0  0  0  0  0  0  0  0  0  0  0
    2.5506    0.3143    2.3936 H   0  0  0  0  0  0  0  0  0  0  0  0
    2.2961   -0.3879   -1.6017 H   0  0  0  0  0  0  0  0  0  0  0  0
    0.8789   -2.2213   -0.6408 H   0  0  0  0  0  0  0  0  0  0  0  0
   -1.3524   -1.7268    0.2520 H   0  0  0  0  0  0  0  0  0  0  0  0
   -2.6383   -1.6081   -1.8896 H   0  0  0  0  0  0  0  0  0  0  0  0
   -4.0007   -0.5006   -1.7966 H   0  0  0  0  0  0  0  0  0  0  0  0
   -2.8157   -3.7177   -2.8653 H   0  0  0  0  0  0  0  0  0  0  0  0
   -4.3262   -4.2080   -3.6640 H   0  0  0  0  0  0  0  0  0  0  0  0
   -4.1618   -4.3563   -1.8971 H   0  0  0  0  0  0  0  0  0  0  0  0
   -6.1736   -1.2414   -2.5723 H   0  0  0  0  0  0  0  0  0  0  0  0
   -6.2605   -2.7761   -1.6615 H   0  0  0  0  0  0  0  0  0  0  0  0
   -6.3011   -2.7881   -3.4465 H   0  0  0  0  0  0  0  0  0  0  0  0
   -0.7072   -5.4839   -2.6431 H   0  0  0  0  0  0  0  0  0  0  0  0
    1.0766   -4.8351   -3.9042 H   0  0  0  0  0  0  0  0  0  0  0  0
    2.6123   -4.4642   -3.0438 H   0  0  0  0  0  0  0  0  0  0  0  0
    1.3645   -3.2103   -3.2229 H   0  0  0  0  0  0  0  0  0  0  0  0
   -3.2209   -6.2046    0.5712 H   0  0  0  0  0  0  0  0  0  0  0  0
   -5.0794   -6.5964   -1.4861 H   0  0  0  0  0  0  0  0  0  0  0  0
   -5.1027   -7.5449    0.0301 H   0  0  0  0  0  0  0  0  0  0  0  0
   -4.2662   -8.1728   -1.4234 H   0  0  0  0  0  0  0  0  0  0  0  0
   -4.2107   -3.0507   -0.0951 H   0  0  0  0  0  0  0  0  0  0  0  0
   -3.9628   -1.8239    1.8300 H   0  0  0  0  0  0  0  0  0  0  0  0
  1  2  2  0  0  0  0
  2  3  1  0  0  0  0
  2 51  1  0  0  0  0
  3 50  1  1  0  0  0
  3  4  1  0  0  0  0
  4 53  1  0  0  0  0
  4  5  1  0  0  0  0
  6 93  1  0  0  0  0
  6  7  2  0  0  0  0
  7  8  1  0  0  0  0
  7 94  1  0  0  0  0
  8 41  2  0  0  0  0
  9 55  1  0  0  0  0
  9  8  1  0  0  0  0
 10 40  1  0  0  0  0
 10  9  1  0  0  0  0
 11 10  2  0  0  0  0
 12 38  2  0  0  0  0
 12 11  1  0  0  0  0
 13 12  1  0  0  0  0
 13 14  1  0  0  0  0
 14 37  2  0  0  0  0
 15 14  2  0  0  0  0
 15 16  1  0  0  0  0
 16 17  1  6  0  0  0
 16 24  1  0  0  0  0
 17 22  1  0  0  0  0
 18 58  1  0  0  0  0
 18 17  1  0  0  0  0
 19 18  1  0  0  0  0
 19 20  1  0  0  0  0
 20 23  1  0  0  0  0
 20 21  1  0  0  0  0
 21 22  1  0  0  0  0
 21 62  1  0  0  0  0
 22 64  1  0  0  0  0
 22 63  1  0  0  0  0
 23 66  1  0  0  0  0
 23 67  1  0  0  0  0
 24 25  2  0  0  0  0
 24 68  1  0  0  0  0
 25 26  1  0  0  0  0
 26 27  1  0  0  0  0
 26 69  1  0  0  0  0
 27 28  2  0  0  0  0
 28 29  1  0  0  0  0
 30 29  1  0  0  0  0
 31 27  1  0  0  0  0
 31 32  1  0  0  0  0
 32 33  2  0  0  0  0
 32 29  1  0  0  0  0
 33 70  1  0  0  0  0
 34 33  1  0  0  0  0
 35 34  2  0  0  0  0
 36 35  1  0  0  0  0
 36 31  2  0  0  0  0
 37 25  1  0  0  0  0
 38 39  1  0  0  0  0
 39 75  1  0  0  0  0
 39 40  2  0  0  0  0
 40 76  1  0  0  0  0
 42  6  1  0  0  0  0
 43 45  1  0  0  0  0
 43 42  1  0  0  0  0
 44 43  1  0  0  0  0
 44 81  1  0  0  0  0
 45 82  1  0  0  0  0
 45 83  1  0  0  0  0
 46 47  1  0  0  0  0
 46  3  1  0  0  0  0
 47 49  2  0  0  0  0
 48 87  1  0  0  0  0
 48 47  1  0  0  0  0
 51 89  1  0  0  0  0
 52 51  1  0  0  0  0
 52 91  1  0  0  0  0
 54  4  1  0  0  0  0
 56 11  1  0  0  0  0
 57 18  1  0  0  0  0
 59 19  1  0  0  0  0
 60 19  1  0  0  0  0
 61 21  1  0  0  0  0
 65 23  1  0  0  0  0
 71 34  1  0  0  0  0
 72 35  1  0  0  0  0
 73 36  1  0  0  0  0
 74 38  1  0  0  0  0
 77 42  1  0  0  0  0
 78 42  1  0  0  0  0
 79 44  1  0  0  0  0
 80 44  1  0  0  0  0
 84 45  1  0  0  0  0
 85 46  1  0  0  0  0
 86 48  1  0  0  0  0
 88 48  1  0  0  0  0
 90 52  1  0  0  0  0
 92 52  1  0  0  0  0
M  END
