98
-1 1
C         6.266288    2.637685    0.300058
C         5.429319    2.420616   -0.938980
O         4.257472    3.225819   -0.824712
C         3.375916    3.166360   -1.830117
O         3.591634    2.573041   -2.861983
C         2.110651    3.834987   -1.455229
C         1.008333    3.620732   -2.177758
S         1.726429    1.322119    3.456151
C         1.658970    0.312771    1.929799
C         2.822176    0.563944    0.946714
H         2.902126    1.659040    0.813360
N         2.648121   -0.067286   -0.350698
C         1.674090    0.220110   -1.226746
C         1.829190   -0.352263   -2.613663
O         0.727074    0.948586   -0.928627
C         4.187173    0.057317    1.442175
N         4.538511    0.431755    2.677843
C         5.767034   -0.025982    3.271044
O         4.903677   -0.645306    0.725020
C        -0.408528    3.958920   -1.792829
H        -0.836019    4.620440   -2.566484
N        -1.149299    2.709969   -1.857760
C        -2.438684    2.634085   -2.228031
C        -3.034646    1.211006   -2.195218
H        -2.793030    0.757103   -3.168041
N        -2.399192    0.333402   -1.212962
C        -2.522166    0.621062    0.125510
C        -1.969354   -0.182597    1.068187
C        -1.206495   -1.315832    0.672323
C        -1.028731   -1.571923   -0.655388
N        -0.220680   -2.558578   -1.229643
C         0.946475   -3.115539   -0.780821
O         1.128724   -2.934339    0.530787
C         2.377114   -3.350757    1.087313
C         2.174756   -3.586572    2.559489
C         2.752565   -2.745779    3.513075
C         2.525278   -2.954350    4.873358
C         1.721049   -4.011015    5.292674
C         1.141493   -4.859206    4.346927
C         1.367333   -4.646266    2.990220
O         1.713671   -3.712774   -1.501641
C        -1.677272   -0.752880   -1.680107
O        -1.566537   -0.998823   -2.882291
C        -4.557886    1.249021   -2.032401
C        -5.168005   -0.122315   -2.165524
C        -5.370185   -0.927024   -1.038257
C        -5.877021   -2.210547   -1.173950
F        -6.075065   -2.973835   -0.101427
C        -6.187638   -2.717606   -2.434222
F        -6.677818   -3.952659   -2.541462
C        -5.988796   -1.935367   -3.561721
C        -5.480031   -0.645680   -3.424118
O        -3.105024    3.571447   -2.632275
C        -0.576943    4.644023   -0.430394
C        -0.225586    3.764500    0.775142
C        -1.435813    3.357020    1.606361
N        -1.133990    2.737047    2.762642
O        -2.589888    3.562148    1.242799
H         7.157267    1.994791    0.260146
H         5.695623    2.377400    1.203291
H         6.589441    3.686142    0.381226
H         5.127337    1.365268   -1.029446
H         5.969013    2.692550   -1.859879
H         2.097300    4.348871   -0.492918
H         1.115343    3.039630   -3.100619
H         0.738197    0.547521    1.381984
H         1.617565   -0.760224    2.169370
H         3.447875   -0.630732   -0.635375
H         2.408261    0.377133   -3.202339
H         0.837237   -0.473508   -3.066471
H         2.359508   -1.314892   -2.612781
H         3.796173    0.903400    3.240113
H         6.633433    0.263081    2.655482
H         5.790718   -1.124540    3.374423
H         5.870259    0.425338    4.266358
H        -0.638120    1.877955   -1.544512
H        -3.044113    1.546839    0.375806
H        -2.059265    0.080916    2.119926
H        -0.718231   -1.935079    1.421692
H        -0.334264   -2.604581   -2.240131
H         3.129496   -2.567058    0.909301
H         2.706356   -4.263304    0.569686
H         3.364649   -1.899004    3.196138
H         2.964285   -2.269413    5.601190
H         1.535737   -4.170024    6.357602
H         0.506176   -5.687491    4.669805
H         0.904878   -5.303706    2.248938
H        -4.941161    1.930732   -2.802617
H        -4.818581    1.700483   -1.063375
H        -5.124264   -0.569592   -0.035929
H        -6.233835   -2.353434   -4.539464
H        -5.316491   -0.035856   -4.315547
H        -1.633529    4.938132   -0.346890
H         0.020352    5.569737   -0.430097
H         0.499251    4.250642    1.445734
H         0.263496    2.824995    0.464230
H        -0.177518    2.419114    3.007130
H        -1.907887    2.387423    3.312188
