-1 1
 OpenBabel05232414493D

 98 99  0  0  1  0  0  0  0  0999 V2000
    9.3532   -0.5130    2.7489 C   0  0  0  0  0  0  0  0  0  0  0  0
    8.6851   -1.8556    2.5395 C   0  0  0  0  0  0  0  0  0  0  0  0
    7.2913   -1.6433    2.4861 O   0  0  0  0  0  0  0  0  0  0  0  0
    6.5170   -2.7375    2.2330 C   0  0  0  0  0  0  0  0  0  0  0  0
    7.0508   -3.8332    2.0603 O   0  0  0  0  0  0  0  0  0  0  0  0
    5.1262   -2.4411    2.2279 C   0  0  0  0  0  3  0  0  0  0  0  0
    4.1856   -3.4446    2.0058 C   0  0  0  0  0  3  0  0  0  0  0  0
    4.0202   -4.9584    3.8888 S   0  0  0  0  0  1  0  0  0  0  0  0
    4.1825   -6.5253    2.9884 C   0  0  0  0  0  0  0  0  0  0  0  0
    5.5360   -6.8586    2.3290 C   0  0  2  0  0  0  0  0  0  0  0  0
    5.8607   -6.0170    1.7018 H   0  0  0  0  0  0  0  0  0  0  0  0
    5.3682   -8.0331    1.4995 N   0  0  0  0  0  0  0  0  0  0  0  0
    4.7537   -7.9528    0.2919 C   0  0  0  0  0  0  0  0  0  0  0  0
    4.4662   -9.2779   -0.3857 C   0  0  0  0  0  0  0  0  0  0  0  0
    4.4481   -6.8890   -0.2218 O   0  0  0  0  0  0  0  0  0  0  0  0
    6.5912   -7.1634    3.3818 C   0  0  0  0  0  0  0  0  0  0  0  0
    7.3906   -6.1314    3.6875 N   0  0  0  0  0  0  0  0  0  0  0  0
    8.3461   -6.1811    4.7596 C   0  0  0  0  0  0  0  0  0  0  0  0
    6.6585   -8.2753    3.9029 O   0  0  0  0  0  0  0  0  0  0  0  0
    2.7414   -3.0748    1.7142 C   0  0  1  0  0  0  0  0  0  0  0  0
    2.7553   -2.6854    0.6817 H   0  0  0  0  0  0  0  0  0  0  0  0
    1.9255   -4.2724    1.6783 N   0  0  0  0  0  0  0  0  0  0  0  0
    0.8745   -4.4199    0.8571 C   0  0  0  0  0  0  0  0  0  0  0  0
    0.1980   -5.8016    0.8457 C   0  0  1  0  0  0  0  0  0  0  0  0
    0.6482   -6.3335   -0.0059 H   0  0  0  0  0  0  0  0  0  0  0  0
    0.5122   -6.6344    2.0026 N   0  0  0  0  0  0  0  0  0  0  0  0
    0.1582   -6.2208    3.2653 C   0  0  0  0  0  0  0  0  0  0  0  0
    0.4781   -6.9518    4.3606 C   0  0  0  0  0  0  0  0  0  0  0  0
    1.2274   -8.1538    4.2072 C   0  0  0  0  0  0  0  0  0  0  0  0
    1.5904   -8.5670    2.9591 C   0  0  0  0  0  0  0  0  0  0  0  0
    2.4076   -9.6452    2.6182 N   0  0  0  0  0  0  0  0  0  0  0  0
    3.4892  -10.1593    3.2811 C   0  0  0  0  0  0  0  0  0  0  0  0
    3.5088   -9.8187    4.5679 O   0  0  0  0  0  0  0  0  0  0  0  0
    4.6663  -10.1814    5.3359 C   0  0  0  0  0  0  0  0  0  0  0  0
    4.5100  -11.5466    5.9560 C   0  0  0  0  0  0  0  0  0  0  0  0
    3.9793  -11.6821    7.2429 C   0  0  0  0  0  0  0  0  0  0  0  0
    3.8147  -12.9412    7.8185 C   0  0  0  0  0  0  0  0  0  0  0  0
    4.1813  -14.0834    7.1082 C   0  0  0  0  0  0  0  0  0  0  0  0
    4.7115  -13.9591    5.8237 C   0  0  0  0  0  0  0  0  0  0  0  0
    4.8757  -12.6996    5.2508 C   0  0  0  0  0  0  0  0  0  0  0  0
    4.3240  -10.8489    2.7339 O   0  0  0  0  0  0  0  0  0  0  0  0
    1.1578   -7.8394    1.7646 C   0  0  0  0  0  0  0  0  0  0  0  0
    1.3875   -8.2491    0.6312 O   0  0  0  0  0  0  0  0  0  0  0  0
   -1.3131   -5.6863    0.6122 C   0  0  0  0  0  0  0  0  0  0  0  0
   -1.9648   -7.0411    0.5052 C   0  0  0  0  0  0  0  0  0  0  0  0
   -2.6599   -7.5849    1.5898 C   0  0  0  0  0  0  0  0  0  0  0  0
   -3.2073   -8.8571    1.5081 C   0  0  0  0  0  0  0  0  0  0  0  0
   -3.8740   -9.3706    2.5404 F   0  0  0  0  0  0  0  0  0  0  0  0
   -3.0651   -9.6113    0.3460 C   0  0  0  0  0  0  0  0  0  0  0  0
   -3.6001  -10.8302    0.2863 F   0  0  0  0  0  0  0  0  0  0  0  0
   -2.3714   -9.0890   -0.7361 C   0  0  0  0  0  0  0  0  0  0  0  0
   -1.8239   -7.8118   -0.6533 C   0  0  0  0  0  0  0  0  0  0  0  0
    0.4699   -3.5596    0.0904 O   0  0  0  0  0  0  0  0  0  0  0  0
    2.0827   -1.9778    2.5737 C   0  0  0  0  0  0  0  0  0  0  0  0
    1.6423   -2.3808    3.9953 C   0  0  0  0  0  0  0  0  0  0  0  0
    2.3916   -1.7665    5.1686 C   0  0  0  0  0  0  0  0  0  0  0  0
    3.7473   -1.7738    5.0868 N   0  0  0  0  0  0  0  0  0  0  0  0
    1.8033   -1.3034    6.1309 O   0  0  0  0  0  0  0  0  0  0  0  0
   10.4458   -0.6322    2.8023 H   0  0  0  0  0  0  0  0  0  0  0  0
    9.0072   -0.0474    3.6836 H   0  0  0  0  0  0  0  0  0  0  0  0
    9.1170    0.1710    1.9203 H   0  0  0  0  0  0  0  0  0  0  0  0
    8.9309   -2.5523    3.3601 H   0  0  0  0  0  0  0  0  0  0  0  0
    9.0313   -2.3368    1.6098 H   0  0  0  0  0  0  0  0  0  0  0  0
    4.8366   -1.4218    2.4832 H   0  0  0  0  0  0  0  0  0  0  0  0
    4.5183   -4.3193    1.4407 H   0  0  0  0  0  0  0  0  0  0  0  0
    3.4532   -6.5583    2.1650 H   0  0  0  0  0  0  0  0  0  0  0  0
    3.9334   -7.3437    3.6798 H   0  0  0  0  0  0  0  0  0  0  0  0
    5.5352   -8.9323    1.9426 H   0  0  0  0  0  0  0  0  0  0  0  0
    5.0510   -9.3411   -1.3148 H   0  0  0  0  0  0  0  0  0  0  0  0
    3.4011   -9.2745   -0.6572 H   0  0  0  0  0  0  0  0  0  0  0  0
    4.6855  -10.1451    0.2527 H   0  0  0  0  0  0  0  0  0  0  0  0
    7.2418   -5.2495    3.1835 H   0  0  0  0  0  0  0  0  0  0  0  0
    8.3966   -7.2126    5.1318 H   0  0  0  0  0  0  0  0  0  0  0  0
    8.0508   -5.5191    5.5904 H   0  0  0  0  0  0  0  0  0  0  0  0
    9.3462   -5.8768    4.4115 H   0  0  0  0  0  0  0  0  0  0  0  0
    2.1858   -4.9703    2.3750 H   0  0  0  0  0  0  0  0  0  0  0  0
   -0.3511   -5.2585    3.3237 H   0  0  0  0  0  0  0  0  0  0  0  0
    0.2076   -6.5882    5.3504 H   0  0  0  0  0  0  0  0  0  0  0  0
    1.5532   -8.7143    5.0805 H   0  0  0  0  0  0  0  0  0  0  0  0
    2.4341   -9.7996    1.6120 H   0  0  0  0  0  0  0  0  0  0  0  0
    4.7324   -9.4055    6.1084 H   0  0  0  0  0  0  0  0  0  0  0  0
    5.5552  -10.0988    4.6995 H   0  0  0  0  0  0  0  0  0  0  0  0
    3.6936  -10.7866    7.8018 H   0  0  0  0  0  0  0  0  0  0  0  0
    3.3999  -13.0304    8.8253 H   0  0  0  0  0  0  0  0  0  0  0  0
    4.0541  -15.0719    7.5562 H   0  0  0  0  0  0  0  0  0  0  0  0
    4.9997  -14.8512    5.2626 H   0  0  0  0  0  0  0  0  0  0  0  0
    5.2723  -12.5920    4.2394 H   0  0  0  0  0  0  0  0  0  0  0  0
   -1.4478   -5.1012   -0.3071 H   0  0  0  0  0  0  0  0  0  0  0  0
   -1.7763   -5.1030    1.4232 H   0  0  0  0  0  0  0  0  0  0  0  0
   -2.7780   -7.0297    2.5228 H   0  0  0  0  0  0  0  0  0  0  0  0
   -2.2626   -9.7006   -1.6331 H   0  0  0  0  0  0  0  0  0  0  0  0
   -1.2635   -7.4133   -1.5016 H   0  0  0  0  0  0  0  0  0  0  0  0
    1.1908   -1.6660    2.0106 H   0  0  0  0  0  0  0  0  0  0  0  0
    2.7411   -1.0963    2.5994 H   0  0  0  0  0  0  0  0  0  0  0  0
    1.7247   -3.4739    4.1204 H   0  0  0  0  0  0  0  0  0  0  0  0
    0.5911   -2.1138    4.1646 H   0  0  0  0  0  0  0  0  0  0  0  0
    4.2499   -2.2873    4.3676 H   0  0  0  0  0  0  0  0  0  0  0  0
    4.2577   -1.4942    5.9135 H   0  0  0  0  0  0  0  0  0  0  0  0
  1 59  1  0  0  0  0
  1 60  1  0  0  0  0
  2  1  1  0  0  0  0
  2 62  1  0  0  0  0
  3  2  1  0  0  0  0
  4  3  1  0  0  0  0
  5  4  2  0  0  0  0
  6  4  1  0  0  0  0
  6 64  1  0  0  0  0
  7  6  1  0  0  0  0
  9 67  1  0  0  0  0
  9  8  1  0  0  0  0
 10 11  1  6  0  0  0
 10  9  1  0  0  0  0
 10 16  1  0  0  0  0
 12 68  1  0  0  0  0
 12 10  1  0  0  0  0
 13 12  1  0  0  0  0
 14 71  1  0  0  0  0
 14 13  1  0  0  0  0
 15 13  2  0  0  0  0
 16 17  1  0  0  0  0
 16 19  2  0  0  0  0
 17 18  1  0  0  0  0
 18 73  1  0  0  0  0
 18 74  1  0  0  0  0
 20 21  1  6  0  0  0
 20  7  1  0  0  0  0
 20 54  1  0  0  0  0
 22 20  1  0  0  0  0
 22 76  1  0  0  0  0
 23 22  1  0  0  0  0
 24 25  1  6  0  0  0
 24 23  1  0  0  0  0
 24 26  1  0  0  0  0
 26 27  1  0  0  0  0
 27 77  1  0  0  0  0
 27 28  2  0  0  0  0
 28 78  1  0  0  0  0
 29 28  1  0  0  0  0
 29 79  1  0  0  0  0
 30 29  2  0  0  0  0
 31 30  1  0  0  0  0
 31 32  1  0  0  0  0
 32 33  1  0  0  0  0
 33 34  1  0  0  0  0
 34 35  1  0  0  0  0
 34 81  1  0  0  0  0
 35 36  1  0  0  0  0
 36 83  1  0  0  0  0
 36 37  2  0  0  0  0
 37 84  1  0  0  0  0
 38 85  1  0  0  0  0
 38 37  1  0  0  0  0
 39 38  2  0  0  0  0
 40 39  1  0  0  0  0
 40 35  2  0  0  0  0
 41 32  2  0  0  0  0
 42 26  1  0  0  0  0
 42 30  1  0  0  0  0
 43 42  2  0  0  0  0
 44 24  1  0  0  0  0
 44 89  1  0  0  0  0
 45 44  1  0  0  0  0
 45 46  1  0  0  0  0
 46 90  1  0  0  0  0
 47 46  2  0  0  0  0
 47 48  1  0  0  0  0
 49 47  1  0  0  0  0
 50 49  1  0  0  0  0
 51 52  1  0  0  0  0
 51 49  2  0  0  0  0
 52 45  2  0  0  0  0
 53 23  2  0  0  0  0
 54 94  1  0  0  0  0
 54 55  1  0  0  0  0
 55 95  1  0  0  0  0
 55 96  1  0  0  0  0
 55 56  1  0  0  0  0
 56 58  2  0  0  0  0
 57 56  1  0  0  0  0
 57 98  1  0  0  0  0
 61  1  1  0  0  0  0
 63  2  1  0  0  0  0
 65  7  1  0  0  0  0
 66  9  1  0  0  0  0
 69 14  1  0  0  0  0
 70 14  1  0  0  0  0
 72 17  1  0  0  0  0
 75 18  1  0  0  0  0
 80 31  1  0  0  0  0
 82 34  1  0  0  0  0
 86 39  1  0  0  0  0
 87 40  1  0  0  0  0
 88 44  1  0  0  0  0
 91 51  1  0  0  0  0
 92 52  1  0  0  0  0
 93 54  1  0  0  0  0
 97 57  1  0  0  0  0
M  END
