98
-1 1
C         9.353189   -0.512990    2.748889
C         8.685093   -1.855553    2.539518
O         7.291296   -1.643307    2.486127
C         6.517019   -2.737496    2.233023
O         7.050814   -3.833188    2.060259
C         5.126228   -2.441073    2.227893
C         4.185588   -3.444600    2.005844
S         4.020171   -4.958414    3.888841
C         4.182550   -6.525338    2.988400
C         5.536047   -6.858577    2.329011
H         5.860665   -6.016991    1.701819
N         5.368235   -8.033134    1.499488
C         4.753722   -7.952831    0.291894
C         4.466242   -9.277864   -0.385710
O         4.448099   -6.889028   -0.221806
C         6.591241   -7.163447    3.381780
N         7.390551   -6.131383    3.687536
C         8.346089   -6.181138    4.759592
O         6.658541   -8.275330    3.902887
C         2.741393   -3.074785    1.714168
H         2.755269   -2.685375    0.681738
N         1.925549   -4.272398    1.678302
C         0.874476   -4.419896    0.857119
C         0.198016   -5.801613    0.845692
H         0.648156   -6.333494   -0.005907
N         0.512241   -6.634357    2.002635
C         0.158238   -6.220770    3.265325
C         0.478065   -6.951826    4.360628
C         1.227363   -8.153819    4.207179
C         1.590360   -8.567036    2.959113
N         2.407648   -9.645247    2.618208
C         3.489243  -10.159307    3.281062
O         3.508822   -9.818677    4.567891
C         4.666313  -10.181394    5.335909
C         4.509991  -11.546632    5.955961
C         3.979254  -11.682083    7.242870
C         3.814692  -12.941156    7.818464
C         4.181260  -14.083370    7.108192
C         4.711510  -13.959073    5.823745
C         4.875681  -12.699610    5.250789
O         4.324002  -10.848943    2.733885
C         1.157782   -7.839417    1.764595
O         1.387498   -8.249096    0.631194
C        -1.313071   -5.686263    0.612189
C        -1.964758   -7.041073    0.505158
C        -2.659923   -7.584893    1.589844
C        -3.207286   -8.857131    1.508140
F        -3.873965   -9.370572    2.540354
C        -3.065076   -9.611258    0.345952
F        -3.600137  -10.830186    0.286311
C        -2.371376   -9.089038   -0.736072
C        -1.823875   -7.811770   -0.653325
O         0.469916   -3.559615    0.090367
C         2.082743   -1.977774    2.573657
C         1.642312   -2.380755    3.995269
C         2.391648   -1.766465    5.168615
N         3.747303   -1.773792    5.086756
O         1.803259   -1.303406    6.130912
H        10.445836   -0.632210    2.802325
H         9.007190   -0.047419    3.683647
H         9.117045    0.170993    1.920312
H         8.930927   -2.552308    3.360073
H         9.031325   -2.336773    1.609832
H         4.836630   -1.421770    2.483182
H         4.518330   -4.319276    1.440712
H         3.453201   -6.558306    2.164954
H         3.933449   -7.343679    3.679848
H         5.535209   -8.932350    1.942631
H         5.051033   -9.341146   -1.314822
H         3.401147   -9.274504   -0.657243
H         4.685510  -10.145098    0.252697
H         7.241835   -5.249547    3.183479
H         8.396587   -7.212608    5.131761
H         8.050754   -5.519149    5.590435
H         9.346172   -5.876836    4.411485
H         2.185756   -4.970256    2.375000
H        -0.351115   -5.258511    3.323678
H         0.207611   -6.588203    5.350369
H         1.553226   -8.714319    5.080507
H         2.434124   -9.799568    1.611995
H         4.732422   -9.405514    6.108352
H         5.555160  -10.098785    4.699523
H         3.693601  -10.786584    7.801831
H         3.399946  -13.030364    8.825347
H         4.054086  -15.071898    7.556216
H         4.999723  -14.851180    5.262630
H         5.272337  -12.592045    4.239420
H        -1.447834   -5.101198   -0.307058
H        -1.776320   -5.102954    1.423205
H        -2.778015   -7.029721    2.522838
H        -2.262576   -9.700587   -1.633140
H        -1.263534   -7.413306   -1.501626
H         1.190829   -1.665973    2.010590
H         2.741119   -1.096253    2.599439
H         1.724685   -3.473854    4.120374
H         0.591109   -2.113769    4.164570
H         4.249902   -2.287331    4.367596
H         4.257700   -1.494172    5.913528
