90
-1 1
O        -3.489906   -3.612733    0.062407
C        -2.736534   -2.897443   -0.575474
C        -2.099650   -3.341557   -1.898032
C        -3.046012   -2.958935   -3.062516
S        -2.477585   -3.414725   -4.728914
C         0.810925   -3.398646   -3.869333
C         1.317984   -2.772388   -2.802281
C         2.187954   -1.574277   -2.856172
N         1.856571   -0.508322   -3.685988
C         0.581309    0.122496   -3.799342
C         0.480811    1.433472   -3.317817
C        -0.741114    2.096922   -3.318343
N        -0.847960    3.387092   -2.682470
C        -1.284272    4.492621   -3.447998
O        -1.505133    4.385501   -4.633359
C        -1.450864    5.751619   -2.714325
C        -1.203173    5.894574   -1.392184
C        -1.397306    7.204259   -0.683770
C        -0.558051    3.500778   -1.337110
C        -0.730311    4.738332   -0.660867
C        -0.415947    4.707931    0.701786
N         0.045225    3.645066    1.342411
C         0.205432    2.542474    0.590157
N         0.733672    1.409453    1.110427
C         1.260512    1.098139    2.366216
C         2.002342   -0.112833    2.414141
O         2.107609   -0.755759    1.234397
C         2.940432   -1.886113    1.110732
C         2.557006   -0.548377    3.607229
C         2.396779    0.215342    4.775616
O         2.979581   -0.295574    5.888110
C         2.851175    0.390941    7.103994
C         3.590124   -0.429672    8.161668
N         3.578607    0.109495    9.502604
C         4.319963    1.332639    9.682553
C         2.292485    0.114275   10.154529
C         1.681012    1.407893    4.735525
C         1.113886    1.841039    3.528227
N        -0.111221    2.434453   -0.703613
C        -1.875964    1.485892   -3.847778
C        -1.763147    0.200171   -4.367368
C        -0.550375   -0.487237   -4.342750
O         3.225348   -1.526675   -2.212958
N        -1.646617   -4.712893   -1.809176
C        -2.300049   -5.913753   -1.862725
C        -3.744522   -5.920868   -2.291540
O        -1.694502   -6.939178   -1.592352
H        -1.185368   -2.760577   -2.070958
N        -2.459035   -1.627727   -0.155662
C        -1.484129   -0.708134   -0.694690
H        -4.046810   -3.368739   -2.858420
H        -3.162450   -1.862509   -2.977418
H         2.611413    0.169553   -3.628042
H         1.353215    1.915189   -2.873790
H        -1.800726    6.583461   -3.327750
H        -1.753741    7.976865   -1.377205
H        -0.454802    7.552660   -0.233073
H        -2.132343    7.106087    0.130450
H        -0.545670    5.612063    1.307176
H         0.875423    0.683613    0.414804
H         3.004914   -2.109084    0.037940
H         2.524771   -2.746758    1.661176
H         3.953357   -1.668578    1.488609
H         3.121520   -1.477574    3.671082
H         1.784270    0.506248    7.373270
H         3.284208    1.406121    7.024366
H         4.635224   -0.549221    7.831222
H         3.150254   -1.440469    8.176790
H         5.312679    1.243430    9.215134
H         4.472999    1.524045   10.757172
H         3.826659    2.235569    9.257459
H         1.803883   -0.864213   10.030319
H         1.590567    0.892092    9.778593
H         2.420208    0.288925   11.235254
H         1.546526    2.019550    5.626895
H         0.559659    2.776542    3.482149
H        -2.831141    2.011916   -3.849477
H        -2.623781   -0.327149   -4.788595
H        -0.564711   -1.511724   -4.718939
H        -0.689632   -4.839447   -1.503031
H        -4.334904   -5.269469   -1.633313
H        -4.107445   -6.953676   -2.231909
H        -3.813169   -5.550723   -3.327592
H        -2.902131   -1.395727    0.725142
H        -1.647196    0.286496   -0.261873
H        -1.580166   -0.598060   -1.783107
H        -0.444360   -1.008016   -0.468034
H         0.235378   -4.322511   -3.783227
H         0.942527   -3.004557   -4.879407
H         1.238218   -3.216921   -1.804801
