90
-1 1
O        -3.855554   -2.866927   -2.373426
C        -2.881972   -2.534550   -1.715933
C        -1.793841   -3.556940   -1.323793
C        -0.677369   -3.438572   -2.366851
S         0.757087   -4.500411   -2.083680
C         2.113424   -3.256511   -2.643332
C         2.181148   -1.988987   -1.906299
C         1.596449   -0.762785   -2.225369
N         0.950880   -0.639648   -3.513623
C        -0.173514    0.163987   -3.694421
C        -0.183715    1.488736   -3.232332
C        -1.365547    2.219986   -3.226058
N        -1.390658    3.494614   -2.547713
C        -1.882924    4.635074   -3.214956
O        -2.267724    4.581299   -4.364878
C        -1.901628    5.876760   -2.435073
C        -1.472554    5.975091   -1.154505
C        -1.515443    7.273043   -0.399787
C        -0.923201    3.562897   -1.242335
C        -0.954944    4.784907   -0.521579
C        -0.473077    4.690731    0.791577
N         0.051462    3.601939    1.323026
C         0.087853    2.511674    0.522959
N         0.694313    1.366557    0.902361
C         1.197031    0.988934    2.152277
C         1.368601   -0.408284    2.361146
O         0.999184   -1.195839    1.339316
C         1.186673   -2.583621    1.416909
C         1.875887   -0.882863    3.564261
C         2.208969    0.009588    4.594094
O         2.691819   -0.561438    5.729899
C         3.057580    0.262412    6.800815
C         3.566641   -0.652469    7.914981
N         3.999690    0.004493    9.128656
C         5.189508    0.808727    9.002005
C         2.954687    0.642305    9.889823
C         2.030945    1.375702    4.410798
C         1.531028    1.851243    3.189832
N        -0.460420    2.463232   -0.695220
C        -2.533703    1.706199   -3.795114
C        -2.489831    0.438005   -4.369830
C        -1.334582   -0.337449   -4.303355
O         1.583927    0.250574   -1.486694
N        -2.329022   -4.880402   -1.092411
C        -2.892150   -5.806327   -1.935197
C        -2.708461   -5.635620   -3.424822
O        -3.481353   -6.763631   -1.466309
H        -1.349980   -3.256354   -0.364066
N        -2.654440   -1.250996   -1.359229
C        -1.583873   -0.705336   -0.549177
H        -1.078292   -3.581114   -3.379417
H        -0.299203   -2.409690   -2.302619
H         0.906315   -1.507358   -4.031173
H         0.724626    1.874462   -2.781943
H        -2.295318    6.737810   -2.977807
H        -1.928018    8.077588   -1.022645
H        -0.507037    7.570876   -0.072211
H        -2.137684    7.182452    0.504503
H        -0.507747    5.572496    1.442739
H         0.901006    0.730173    0.099726
H         0.906295   -2.997257    0.439551
H         0.563852   -3.028853    2.213608
H         2.244254   -2.836396    1.604390
H         2.015791   -1.947650    3.744250
H         2.191730    0.857506    7.149246
H         3.844428    0.976979    6.492182
H         4.402397   -1.247779    7.511536
H         2.764870   -1.368222    8.161092
H         5.967027    0.247748    8.461081
H         5.586687    1.051696   10.001273
H         5.036776    1.773142    8.467659
H         2.097951   -0.040441    9.998150
H         2.576027    1.590046    9.445456
H         3.320380    0.882857   10.901628
H         2.276263    2.093833    5.192796
H         1.384079    2.918233    3.039696
H        -3.449204    2.296775   -3.807911
H        -3.387761    0.021001   -4.831429
H        -1.348454   -1.363451   -4.680838
H        -2.536177   -5.103001   -0.126459
H        -3.082275   -4.653412   -3.741331
H        -3.273637   -6.432942   -3.920770
H        -1.643277   -5.726038   -3.687522
H        -3.305643   -0.595240   -1.776501
H        -1.481186    0.365059   -0.767939
H        -0.604811   -1.144538   -0.781128
H        -1.769016   -0.830760    0.530829
H         3.013548   -3.875563   -2.511533
H         1.962489   -3.159530   -3.730557
H         2.695965   -1.992336   -0.943769
