-1 1
 OpenBabel05192410563D

 90 93  0  0  1  0  0  0  0  0999 V2000
   -3.8556   -2.8669   -2.3734 O   0  0  0  0  0  0  0  0  0  0  0  0
   -2.8820   -2.5345   -1.7159 C   0  0  0  0  0  0  0  0  0  0  0  0
   -1.7938   -3.5569   -1.3238 C   0  0  2  0  0  0  0  0  0  0  0  0
   -0.6774   -3.4386   -2.3669 C   0  0  0  0  0  0  0  0  0  0  0  0
    0.7571   -4.5004   -2.0837 S   0  0  0  0  0  0  0  0  0  0  0  0
    2.1134   -3.2565   -2.6433 C   0  0  0  0  0  0  0  0  0  0  0  0
    2.1811   -1.9890   -1.9063 C   0  0  0  0  0  3  0  0  0  0  0  0
    1.5964   -0.7628   -2.2254 C   0  0  0  0  0  0  0  0  0  0  0  0
    0.9509   -0.6396   -3.5136 N   0  0  0  0  0  0  0  0  0  0  0  0
   -0.1735    0.1640   -3.6944 C   0  0  0  0  0  0  0  0  0  0  0  0
   -0.1837    1.4887   -3.2323 C   0  0  0  0  0  0  0  0  0  0  0  0
   -1.3655    2.2200   -3.2261 C   0  0  0  0  0  0  0  0  0  0  0  0
   -1.3907    3.4946   -2.5477 N   0  0  0  0  0  0  0  0  0  0  0  0
   -1.8829    4.6351   -3.2150 C   0  0  0  0  0  0  0  0  0  0  0  0
   -2.2677    4.5813   -4.3649 O   0  0  0  0  0  0  0  0  0  0  0  0
   -1.9016    5.8768   -2.4351 C   0  0  0  0  0  0  0  0  0  0  0  0
   -1.4726    5.9751   -1.1545 C   0  0  0  0  0  0  0  0  0  0  0  0
   -1.5154    7.2730   -0.3998 C   0  0  0  0  0  0  0  0  0  0  0  0
   -0.9232    3.5629   -1.2423 C   0  0  0  0  0  0  0  0  0  0  0  0
   -0.9549    4.7849   -0.5216 C   0  0  0  0  0  0  0  0  0  0  0  0
   -0.4731    4.6907    0.7916 C   0  0  0  0  0  0  0  0  0  0  0  0
    0.0515    3.6019    1.3230 N   0  0  0  0  0  0  0  0  0  0  0  0
    0.0879    2.5117    0.5230 C   0  0  0  0  0  0  0  0  0  0  0  0
    0.6943    1.3666    0.9024 N   0  0  0  0  0  0  0  0  0  0  0  0
    1.1970    0.9889    2.1523 C   0  0  0  0  0  0  0  0  0  0  0  0
    1.3686   -0.4083    2.3611 C   0  0  0  0  0  0  0  0  0  0  0  0
    0.9992   -1.1958    1.3393 O   0  0  0  0  0  0  0  0  0  0  0  0
    1.1867   -2.5836    1.4169 C   0  0  0  0  0  0  0  0  0  0  0  0
    1.8759   -0.8829    3.5643 C   0  0  0  0  0  0  0  0  0  0  0  0
    2.2090    0.0096    4.5941 C   0  0  0  0  0  0  0  0  0  0  0  0
    2.6918   -0.5614    5.7299 O   0  0  0  0  0  0  0  0  0  0  0  0
    3.0576    0.2624    6.8008 C   0  0  0  0  0  0  0  0  0  0  0  0
    3.5666   -0.6525    7.9150 C   0  0  0  0  0  0  0  0  0  0  0  0
    3.9997    0.0045    9.1287 N   0  0  0  0  0  0  0  0  0  0  0  0
    5.1895    0.8087    9.0020 C   0  0  0  0  0  0  0  0  0  0  0  0
    2.9547    0.6423    9.8898 C   0  0  0  0  0  0  0  0  0  0  0  0
    2.0309    1.3757    4.4108 C   0  0  0  0  0  0  0  0  0  0  0  0
    1.5310    1.8512    3.1898 C   0  0  0  0  0  0  0  0  0  0  0  0
   -0.4604    2.4632   -0.6952 N   0  0  0  0  0  0  0  0  0  0  0  0
   -2.5337    1.7062   -3.7951 C   0  0  0  0  0  0  0  0  0  0  0  0
   -2.4898    0.4380   -4.3698 C   0  0  0  0  0  0  0  0  0  0  0  0
   -1.3346   -0.3374   -4.3034 C   0  0  0  0  0  0  0  0  0  0  0  0
    1.5839    0.2506   -1.4867 O   0  0  0  0  0  0  0  0  0  0  0  0
   -2.3290   -4.8804   -1.0924 N   0  0  0  0  0  0  0  0  0  0  0  0
   -2.8921   -5.8063   -1.9352 C   0  0  0  0  0  0  0  0  0  0  0  0
   -2.7085   -5.6356   -3.4248 C   0  0  0  0  0  0  0  0  0  0  0  0
   -3.4814   -6.7636   -1.4663 O   0  0  0  0  0  0  0  0  0  0  0  0
   -1.3500   -3.2564   -0.3641 H   0  0  0  0  0  0  0  0  0  0  0  0
   -2.6544   -1.2510   -1.3592 N   0  0  0  0  0  0  0  0  0  0  0  0
   -1.5839   -0.7053   -0.5492 C   0  0  0  0  0  0  0  0  0  0  0  0
   -1.0783   -3.5811   -3.3794 H   0  0  0  0  0  0  0  0  0  0  0  0
   -0.2992   -2.4097   -2.3026 H   0  0  0  0  0  0  0  0  0  0  0  0
    0.9063   -1.5074   -4.0312 H   0  0  0  0  0  0  0  0  0  0  0  0
    0.7246    1.8745   -2.7819 H   0  0  0  0  0  0  0  0  0  0  0  0
   -2.2953    6.7378   -2.9778 H   0  0  0  0  0  0  0  0  0  0  0  0
   -1.9280    8.0776   -1.0226 H   0  0  0  0  0  0  0  0  0  0  0  0
   -0.5070    7.5709   -0.0722 H   0  0  0  0  0  0  0  0  0  0  0  0
   -2.1377    7.1825    0.5045 H   0  0  0  0  0  0  0  0  0  0  0  0
   -0.5077    5.5725    1.4427 H   0  0  0  0  0  0  0  0  0  0  0  0
    0.9010    0.7302    0.0997 H   0  0  0  0  0  0  0  0  0  0  0  0
    0.9063   -2.9973    0.4396 H   0  0  0  0  0  0  0  0  0  0  0  0
    0.5639   -3.0289    2.2136 H   0  0  0  0  0  0  0  0  0  0  0  0
    2.2443   -2.8364    1.6044 H   0  0  0  0  0  0  0  0  0  0  0  0
    2.0158   -1.9477    3.7443 H   0  0  0  0  0  0  0  0  0  0  0  0
    2.1917    0.8575    7.1492 H   0  0  0  0  0  0  0  0  0  0  0  0
    3.8444    0.9770    6.4922 H   0  0  0  0  0  0  0  0  0  0  0  0
    4.4024   -1.2478    7.5115 H   0  0  0  0  0  0  0  0  0  0  0  0
    2.7649   -1.3682    8.1611 H   0  0  0  0  0  0  0  0  0  0  0  0
    5.9670    0.2477    8.4611 H   0  0  0  0  0  0  0  0  0  0  0  0
    5.5867    1.0517   10.0013 H   0  0  0  0  0  0  0  0  0  0  0  0
    5.0368    1.7731    8.4677 H   0  0  0  0  0  0  0  0  0  0  0  0
    2.0980   -0.0404    9.9982 H   0  0  0  0  0  0  0  0  0  0  0  0
    2.5760    1.5900    9.4455 H   0  0  0  0  0  0  0  0  0  0  0  0
    3.3204    0.8829   10.9016 H   0  0  0  0  0  0  0  0  0  0  0  0
    2.2763    2.0938    5.1928 H   0  0  0  0  0  0  0  0  0  0  0  0
    1.3841    2.9182    3.0397 H   0  0  0  0  0  0  0  0  0  0  0  0
   -3.4492    2.2968   -3.8079 H   0  0  0  0  0  0  0  0  0  0  0  0
   -3.3878    0.0210   -4.8314 H   0  0  0  0  0  0  0  0  0  0  0  0
   -1.3485   -1.3635   -4.6808 H   0  0  0  0  0  0  0  0  0  0  0  0
   -2.5362   -5.1030   -0.1265 H   0  0  0  0  0  0  0  0  0  0  0  0
   -3.0823   -4.6534   -3.7413 H   0  0  0  0  0  0  0  0  0  0  0  0
   -3.2736   -6.4329   -3.9208 H   0  0  0  0  0  0  0  0  0  0  0  0
   -1.6433   -5.7260   -3.6875 H   0  0  0  0  0  0  0  0  0  0  0  0
   -3.3056   -0.5952   -1.7765 H   0  0  0  0  0  0  0  0  0  0  0  0
   -1.4812    0.3651   -0.7679 H   0  0  0  0  0  0  0  0  0  0  0  0
   -0.6048   -1.1445   -0.7811 H   0  0  0  0  0  0  0  0  0  0  0  0
   -1.7690   -0.8308    0.5308 H   0  0  0  0  0  0  0  0  0  0  0  0
    3.0135   -3.8756   -2.5115 H   0  0  0  0  0  0  0  0  0  0  0  0
    1.9625   -3.1595   -3.7306 H   0  0  0  0  0  0  0  0  0  0  0  0
    2.6960   -1.9923   -0.9438 H   0  0  0  0  0  0  0  0  0  0  0  0
  1  2  2  0  0  0  0
  2 49  1  0  0  0  0
  2  3  1  0  0  0  0
  3 44  1  0  0  0  0
  3 48  1  1  0  0  0
  4 52  1  0  0  0  0
  4  5  1  0  0  0  0
  4  3  1  0  0  0  0
  6 88  1  0  0  0  0
  6  5  1  0  0  0  0
  6  7  1  0  0  0  0
  7 90  1  0  0  0  0
  8  7  1  0  0  0  0
  8 43  2  0  0  0  0
  9  8  1  0  0  0  0
 10  9  1  0  0  0  0
 10 11  1  0  0  0  0
 11 12  2  0  0  0  0
 11 54  1  0  0  0  0
 12 13  1  0  0  0  0
 13 19  1  0  0  0  0
 14 13  1  0  0  0  0
 14 16  1  0  0  0  0
 15 14  2  0  0  0  0
 16 17  2  0  0  0  0
 17 20  1  0  0  0  0
 17 18  1  0  0  0  0
 18 57  1  0  0  0  0
 18 58  1  0  0  0  0
 19 39  2  0  0  0  0
 19 20  1  0  0  0  0
 20 21  2  0  0  0  0
 21 22  1  0  0  0  0
 21 59  1  0  0  0  0
 23 24  1  0  0  0  0
 23 22  2  0  0  0  0
 24 25  1  0  0  0  0
 25 26  2  0  0  0  0
 25 38  1  0  0  0  0
 26 29  1  0  0  0  0
 27 28  1  0  0  0  0
 27 26  1  0  0  0  0
 28 63  1  0  0  0  0
 28 62  1  0  0  0  0
 29 64  1  0  0  0  0
 29 30  2  0  0  0  0
 30 31  1  0  0  0  0
 31 32  1  0  0  0  0
 32 65  1  0  0  0  0
 32 33  1  0  0  0  0
 33 68  1  0  0  0  0
 33 34  1  0  0  0  0
 34 36  1  0  0  0  0
 35 34  1  0  0  0  0
 35 70  1  0  0  0  0
 36 72  1  0  0  0  0
 36 74  1  0  0  0  0
 37 30  1  0  0  0  0
 37 75  1  0  0  0  0
 38 37  2  0  0  0  0
 39 23  1  0  0  0  0
 40 12  1  0  0  0  0
 41 42  1  0  0  0  0
 41 40  2  0  0  0  0
 42 10  2  0  0  0  0
 44 80  1  0  0  0  0
 45 47  2  0  0  0  0
 45 44  1  0  0  0  0
 46 45  1  0  0  0  0
 49 50  1  0  0  0  0
 50 87  1  0  0  0  0
 51  4  1  0  0  0  0
 53  9  1  0  0  0  0
 55 16  1  0  0  0  0
 56 18  1  0  0  0  0
 60 24  1  0  0  0  0
 61 28  1  0  0  0  0
 66 32  1  0  0  0  0
 67 33  1  0  0  0  0
 69 35  1  0  0  0  0
 71 35  1  0  0  0  0
 73 36  1  0  0  0  0
 76 38  1  0  0  0  0
 77 40  1  0  0  0  0
 78 41  1  0  0  0  0
 79 42  1  0  0  0  0
 81 46  1  0  0  0  0
 82 46  1  0  0  0  0
 83 46  1  0  0  0  0
 84 49  1  0  0  0  0
 85 50  1  0  0  0  0
 86 50  1  0  0  0  0
 89  6  1  0  0  0  0
M  END
