-1 1
 OpenBabel05232413493D

 90 92  0  0  1  0  0  0  0  0999 V2000
   -3.4899   -3.6127    0.0624 O   0  0  0  0  0  0  0  0  0  0  0  0
   -2.7365   -2.8974   -0.5755 C   0  0  0  0  0  0  0  0  0  0  0  0
   -2.0997   -3.3416   -1.8980 C   0  0  2  0  0  0  0  0  0  0  0  0
   -3.0460   -2.9589   -3.0625 C   0  0  0  0  0  0  0  0  0  0  0  0
   -2.4776   -3.4147   -4.7289 S   0  0  0  0  0  1  0  0  0  0  0  0
    0.8109   -3.3986   -3.8693 C   0  0  0  0  0  0  0  0  0  0  0  0
    1.3180   -2.7724   -2.8023 C   0  0  0  0  0  0  0  0  0  0  0  0
    2.1880   -1.5743   -2.8562 C   0  0  0  0  0  0  0  0  0  0  0  0
    1.8566   -0.5083   -3.6860 N   0  0  0  0  0  0  0  0  0  0  0  0
    0.5813    0.1225   -3.7993 C   0  0  0  0  0  0  0  0  0  0  0  0
    0.4808    1.4335   -3.3178 C   0  0  0  0  0  0  0  0  0  0  0  0
   -0.7411    2.0969   -3.3183 C   0  0  0  0  0  0  0  0  0  0  0  0
   -0.8480    3.3871   -2.6825 N   0  0  0  0  0  0  0  0  0  0  0  0
   -1.2843    4.4926   -3.4480 C   0  0  0  0  0  0  0  0  0  0  0  0
   -1.5051    4.3855   -4.6334 O   0  0  0  0  0  0  0  0  0  0  0  0
   -1.4509    5.7516   -2.7143 C   0  0  0  0  0  0  0  0  0  0  0  0
   -1.2032    5.8946   -1.3922 C   0  0  0  0  0  0  0  0  0  0  0  0
   -1.3973    7.2043   -0.6838 C   0  0  0  0  0  0  0  0  0  0  0  0
   -0.5581    3.5008   -1.3371 C   0  0  0  0  0  0  0  0  0  0  0  0
   -0.7303    4.7383   -0.6609 C   0  0  0  0  0  0  0  0  0  0  0  0
   -0.4159    4.7079    0.7018 C   0  0  0  0  0  0  0  0  0  0  0  0
    0.0452    3.6451    1.3424 N   0  0  0  0  0  0  0  0  0  0  0  0
    0.2054    2.5425    0.5902 C   0  0  0  0  0  0  0  0  0  0  0  0
    0.7337    1.4095    1.1104 N   0  0  0  0  0  0  0  0  0  0  0  0
    1.2605    1.0981    2.3662 C   0  0  0  0  0  0  0  0  0  0  0  0
    2.0023   -0.1128    2.4141 C   0  0  0  0  0  0  0  0  0  0  0  0
    2.1076   -0.7558    1.2344 O   0  0  0  0  0  0  0  0  0  0  0  0
    2.9404   -1.8861    1.1107 C   0  0  0  0  0  0  0  0  0  0  0  0
    2.5570   -0.5484    3.6072 C   0  0  0  0  0  0  0  0  0  0  0  0
    2.3968    0.2153    4.7756 C   0  0  0  0  0  0  0  0  0  0  0  0
    2.9796   -0.2956    5.8881 O   0  0  0  0  0  0  0  0  0  0  0  0
    2.8512    0.3909    7.1040 C   0  0  0  0  0  0  0  0  0  0  0  0
    3.5901   -0.4297    8.1617 C   0  0  0  0  0  0  0  0  0  0  0  0
    3.5786    0.1095    9.5026 N   0  0  0  0  0  0  0  0  0  0  0  0
    4.3200    1.3326    9.6826 C   0  0  0  0  0  0  0  0  0  0  0  0
    2.2925    0.1143   10.1545 C   0  0  0  0  0  0  0  0  0  0  0  0
    1.6810    1.4079    4.7355 C   0  0  0  0  0  0  0  0  0  0  0  0
    1.1139    1.8410    3.5282 C   0  0  0  0  0  0  0  0  0  0  0  0
   -0.1112    2.4345   -0.7036 N   0  0  0  0  0  0  0  0  0  0  0  0
   -1.8760    1.4859   -3.8478 C   0  0  0  0  0  0  0  0  0  0  0  0
   -1.7631    0.2002   -4.3674 C   0  0  0  0  0  0  0  0  0  0  0  0
   -0.5504   -0.4872   -4.3427 C   0  0  0  0  0  0  0  0  0  0  0  0
    3.2253   -1.5267   -2.2130 O   0  0  0  0  0  0  0  0  0  0  0  0
   -1.6466   -4.7129   -1.8092 N   0  0  0  0  0  0  0  0  0  0  0  0
   -2.3000   -5.9138   -1.8627 C   0  0  0  0  0  0  0  0  0  0  0  0
   -3.7445   -5.9209   -2.2915 C   0  0  0  0  0  0  0  0  0  0  0  0
   -1.6945   -6.9392   -1.5924 O   0  0  0  0  0  0  0  0  0  0  0  0
   -1.1854   -2.7606   -2.0710 H   0  0  0  0  0  0  0  0  0  0  0  0
   -2.4590   -1.6277   -0.1557 N   0  0  0  0  0  0  0  0  0  0  0  0
   -1.4841   -0.7081   -0.6947 C   0  0  0  0  0  0  0  0  0  0  0  0
   -4.0468   -3.3687   -2.8584 H   0  0  0  0  0  0  0  0  0  0  0  0
   -3.1625   -1.8625   -2.9774 H   0  0  0  0  0  0  0  0  0  0  0  0
    2.6114    0.1696   -3.6280 H   0  0  0  0  0  0  0  0  0  0  0  0
    1.3532    1.9152   -2.8738 H   0  0  0  0  0  0  0  0  0  0  0  0
   -1.8007    6.5835   -3.3277 H   0  0  0  0  0  0  0  0  0  0  0  0
   -1.7537    7.9769   -1.3772 H   0  0  0  0  0  0  0  0  0  0  0  0
   -0.4548    7.5527   -0.2331 H   0  0  0  0  0  0  0  0  0  0  0  0
   -2.1323    7.1061    0.1305 H   0  0  0  0  0  0  0  0  0  0  0  0
   -0.5457    5.6121    1.3072 H   0  0  0  0  0  0  0  0  0  0  0  0
    0.8754    0.6836    0.4148 H   0  0  0  0  0  0  0  0  0  0  0  0
    3.0049   -2.1091    0.0379 H   0  0  0  0  0  0  0  0  0  0  0  0
    2.5248   -2.7468    1.6612 H   0  0  0  0  0  0  0  0  0  0  0  0
    3.9534   -1.6686    1.4886 H   0  0  0  0  0  0  0  0  0  0  0  0
    3.1215   -1.4776    3.6711 H   0  0  0  0  0  0  0  0  0  0  0  0
    1.7843    0.5062    7.3733 H   0  0  0  0  0  0  0  0  0  0  0  0
    3.2842    1.4061    7.0244 H   0  0  0  0  0  0  0  0  0  0  0  0
    4.6352   -0.5492    7.8312 H   0  0  0  0  0  0  0  0  0  0  0  0
    3.1503   -1.4405    8.1768 H   0  0  0  0  0  0  0  0  0  0  0  0
    5.3127    1.2434    9.2151 H   0  0  0  0  0  0  0  0  0  0  0  0
    4.4730    1.5240   10.7572 H   0  0  0  0  0  0  0  0  0  0  0  0
    3.8267    2.2356    9.2575 H   0  0  0  0  0  0  0  0  0  0  0  0
    1.8039   -0.8642   10.0303 H   0  0  0  0  0  0  0  0  0  0  0  0
    1.5906    0.8921    9.7786 H   0  0  0  0  0  0  0  0  0  0  0  0
    2.4202    0.2889   11.2353 H   0  0  0  0  0  0  0  0  0  0  0  0
    1.5465    2.0196    5.6269 H   0  0  0  0  0  0  0  0  0  0  0  0
    0.5597    2.7765    3.4821 H   0  0  0  0  0  0  0  0  0  0  0  0
   -2.8311    2.0119   -3.8495 H   0  0  0  0  0  0  0  0  0  0  0  0
   -2.6238   -0.3271   -4.7886 H   0  0  0  0  0  0  0  0  0  0  0  0
   -0.5647   -1.5117   -4.7189 H   0  0  0  0  0  0  0  0  0  0  0  0
   -0.6896   -4.8394   -1.5030 H   0  0  0  0  0  0  0  0  0  0  0  0
   -4.3349   -5.2695   -1.6333 H   0  0  0  0  0  0  0  0  0  0  0  0
   -4.1074   -6.9537   -2.2319 H   0  0  0  0  0  0  0  0  0  0  0  0
   -3.8132   -5.5507   -3.3276 H   0  0  0  0  0  0  0  0  0  0  0  0
   -2.9021   -1.3957    0.7251 H   0  0  0  0  0  0  0  0  0  0  0  0
   -1.6472    0.2865   -0.2619 H   0  0  0  0  0  0  0  0  0  0  0  0
   -1.5802   -0.5981   -1.7831 H   0  0  0  0  0  0  0  0  0  0  0  0
   -0.4444   -1.0080   -0.4680 H   0  0  0  0  0  0  0  0  0  0  0  0
    0.2354   -4.3225   -3.7832 H   0  0  0  0  0  0  0  0  0  0  0  0
    0.9425   -3.0046   -4.8794 H   0  0  0  0  0  0  0  0  0  0  0  0
    1.2382   -3.2169   -1.8048 H   0  0  0  0  0  0  0  0  0  0  0  0
  2 49  1  0  0  0  0
  2  1  2  0  0  0  0
  3 48  1  6  0  0  0
  3 44  1  0  0  0  0
  3  2  1  0  0  0  0
  4 52  1  0  0  0  0
  4 51  1  0  0  0  0
  4  3  1  0  0  0  0
  5  4  1  0  0  0  0
  6 88  1  0  0  0  0
  6  7  2  0  0  0  0
  7 90  1  0  0  0  0
  8  7  1  0  0  0  0
  8 43  2  0  0  0  0
  9 53  1  0  0  0  0
  9  8  1  0  0  0  0
 10  9  1  0  0  0  0
 10 11  1  0  0  0  0
 11 54  1  0  0  0  0
 12 11  2  0  0  0  0
 12 13  1  0  0  0  0
 13 19  1  0  0  0  0
 14 16  1  0  0  0  0
 14 13  1  0  0  0  0
 15 14  2  0  0  0  0
 16 17  2  0  0  0  0
 17 18  1  0  0  0  0
 17 20  1  0  0  0  0
 18 57  1  0  0  0  0
 18 58  1  0  0  0  0
 19 39  2  0  0  0  0
 19 20  1  0  0  0  0
 20 21  2  0  0  0  0
 21 59  1  0  0  0  0
 21 22  1  0  0  0  0
 23 24  1  0  0  0  0
 23 22  2  0  0  0  0
 24 25  1  0  0  0  0
 25 26  2  0  0  0  0
 25 38  1  0  0  0  0
 26 29  1  0  0  0  0
 27 26  1  0  0  0  0
 28 27  1  0  0  0  0
 28 63  1  0  0  0  0
 28 62  1  0  0  0  0
 29 64  1  0  0  0  0
 29 30  2  0  0  0  0
 30 31  1  0  0  0  0
 31 32  1  0  0  0  0
 32 65  1  0  0  0  0
 32 33  1  0  0  0  0
 33 68  1  0  0  0  0
 33 34  1  0  0  0  0
 34 35  1  0  0  0  0
 34 36  1  0  0  0  0
 35 70  1  0  0  0  0
 36 74  1  0  0  0  0
 37 30  1  0  0  0  0
 37 75  1  0  0  0  0
 38 37  2  0  0  0  0
 39 23  1  0  0  0  0
 40 12  1  0  0  0  0
 41 42  1  0  0  0  0
 41 40  2  0  0  0  0
 42 10  2  0  0  0  0
 44 80  1  0  0  0  0
 45 44  1  0  0  0  0
 45 47  2  0  0  0  0
 46 82  1  0  0  0  0
 46 45  1  0  0  0  0
 46 81  1  0  0  0  0
 49 84  1  0  0  0  0
 50 87  1  0  0  0  0
 50 85  1  0  0  0  0
 50 49  1  0  0  0  0
 55 16  1  0  0  0  0
 56 18  1  0  0  0  0
 60 24  1  0  0  0  0
 61 28  1  0  0  0  0
 66 32  1  0  0  0  0
 67 33  1  0  0  0  0
 69 35  1  0  0  0  0
 71 35  1  0  0  0  0
 72 36  1  0  0  0  0
 73 36  1  0  0  0  0
 76 38  1  0  0  0  0
 77 40  1  0  0  0  0
 78 41  1  0  0  0  0
 79 42  1  0  0  0  0
 83 46  1  0  0  0  0
 86 50  1  0  0  0  0
 89  6  1  0  0  0  0
M  END
