92
-1 1
O        -0.320390   -3.670034    1.360794
C        -1.542204   -3.517732    1.066249
N        -2.115888   -2.234898    1.380574
C        -1.600082   -1.078603    0.813121
C        -2.448112    0.045527    0.687851
N        -3.772849   -0.057704    1.214424
C        -4.816739    0.629260    0.486333
C        -4.971772    0.072153   -0.939565
N        -5.618175    0.947327   -1.896105
C        -6.973165    1.303843   -1.567510
C        -4.817253    2.066033   -2.327607
C        -3.831466    0.122915    2.651976
C        -1.995276    1.184925    0.015912
C        -0.731037    1.234409   -0.564751
O        -0.334288    2.264343   -1.367304
C        -0.501585    3.561923   -0.871492
C         0.140657    0.149548   -0.377733
N         1.412054    0.135262   -0.983460
C         2.353927    1.088568   -0.811872
N         2.129841    2.044719    0.099881
C         3.057838    2.982789    0.275166
C         2.754444    3.979425    1.313370
C         1.792707    3.770150    2.273486
N         1.714692    4.837998    3.125967
C         0.829986    4.963408    4.254679
C         3.311815    5.285068    1.582352
C         2.632039    5.783839    2.725495
C         2.903744    7.041220    3.276089
C         3.873540    7.818161    2.658354
C         4.548836    7.354832    1.513471
C         4.276289    6.106140    0.972252
C         4.248043    2.967544   -0.463442
C         4.383809    1.918498   -1.373597
N         3.467607    0.987652   -1.567706
C        -0.290947   -0.975900    0.317875
C        -2.384958   -4.427296    0.459495
C        -1.936061   -5.775257    0.044926
S        -1.829747   -6.027878   -1.818826
C        -0.073527   -5.892072   -2.317623
C         0.825337   -4.712594   -1.899391
H         1.752469   -4.860429   -2.476968
N         1.211253   -4.775820   -0.513651
C         2.277341   -5.509889   -0.127047
C         2.540769   -5.475545    1.367515
O         2.983064   -6.148538   -0.897719
C         0.407863   -3.271665   -2.240810
N        -0.902849   -3.039562   -2.440008
C        -1.438324   -1.738902   -2.754709
O         1.273217   -2.407445   -2.329434
H        -3.130989   -2.216687    1.339975
H        -4.660553    1.731039    0.451896
H        -5.757630    0.487256    1.043055
H        -5.526574   -0.879908   -0.889795
H        -3.973656   -0.176543   -1.329505
H        -7.548871    0.399589   -1.313578
H        -7.461556    1.779053   -2.434471
H        -7.064283    2.012231   -0.711758
H        -3.807346    1.725365   -2.601196
H        -4.701544    2.867551   -1.561799
H        -5.271170    2.532983   -3.217312
H        -3.077710   -0.517999    3.131821
H        -4.823059   -0.174549    3.030167
H        -3.644245    1.174395    2.959131
H        -2.669708    2.031166   -0.120270
H         0.056698    4.237289   -1.534680
H        -0.091866    3.656122    0.148135
H        -1.561733    3.880163   -0.870227
H         1.634094   -0.682879   -1.560653
H         1.157905    2.892920    2.390360
H         0.209335    4.061820    4.326405
H         0.166775    5.835805    4.142019
H         1.397263    5.072996    5.192596
H         2.369997    7.401396    4.158197
H         4.111190    8.805046    3.062066
H         5.298456    7.993181    1.040359
H         4.799240    5.776031    0.073773
H         5.043807    3.694116   -0.311736
H         5.296338    1.832696   -1.977142
H         0.381885   -1.820830    0.449056
H        -3.408723   -4.131234    0.210532
H        -2.634214   -6.578724    0.330560
H        -0.949939   -6.019924    0.463453
H        -0.136476   -5.925364   -3.417071
H         0.458932   -6.799961   -2.000521
H         0.605386   -4.328145    0.215656
H         3.483808   -4.936547    1.542977
H         2.677882   -6.505951    1.724972
H         1.729521   -4.981650    1.919695
H        -1.554573   -3.793941   -2.214734
H        -1.982798   -1.312411   -1.897493
H        -2.122338   -1.802568   -3.615391
H        -0.610503   -1.062857   -3.001230
