-1 1
 OpenBabel05232413493D

 92 94  0  0  1  0  0  0  0  0999 V2000
   -0.2091   -3.5268    1.7774 O   0  0  0  0  0  0  0  0  0  0  0  0
   -1.4213   -3.3537    1.7897 C   0  0  0  0  0  0  0  0  0  0  0  0
   -2.0144   -2.1733    1.4698 N   0  0  0  0  0  0  0  0  0  0  0  0
   -1.4557   -1.0663    0.8302 C   0  0  0  0  0  0  0  0  0  0  0  0
   -2.3118    0.0310    0.6334 C   0  0  0  0  0  0  0  0  0  0  0  0
   -3.6665   -0.0855    1.0839 N   0  0  0  0  0  0  0  0  0  0  0  0
   -4.6792    0.2332    0.0914 C   0  0  0  0  0  0  0  0  0  0  0  0
   -4.5679   -0.6673   -1.1483 C   0  0  0  0  0  0  0  0  0  0  0  0
   -5.3438   -0.2349   -2.2912 N   0  0  0  0  0  0  0  0  0  0  0  0
   -6.7684   -0.2335   -2.1030 C   0  0  0  0  0  0  0  0  0  0  0  0
   -4.8419    0.9286   -2.9724 C   0  0  0  0  0  0  0  0  0  0  0  0
   -3.8905    0.5256    2.3773 C   0  0  0  0  0  0  0  0  0  0  0  0
   -1.8407    1.1682   -0.0243 C   0  0  0  0  0  0  0  0  0  0  0  0
   -0.5461    1.2179   -0.5338 C   0  0  0  0  0  0  0  0  0  0  0  0
   -0.1018    2.2432   -1.3052 O   0  0  0  0  0  0  0  0  0  0  0  0
   -0.3195    3.5460   -0.8401 C   0  0  0  0  0  0  0  0  0  0  0  0
    0.3123    0.1226   -0.3327 C   0  0  0  0  0  0  0  0  0  0  0  0
    1.5961    0.1082   -0.9062 N   0  0  0  0  0  0  0  0  0  0  0  0
    2.5275    1.0664   -0.7012 C   0  0  0  0  0  0  0  0  0  0  0  0
    2.2874    1.9884    0.2412 N   0  0  0  0  0  0  0  0  0  0  0  0
    3.2012    2.9349    0.4480 C   0  0  0  0  0  0  0  0  0  0  0  0
    2.8756    3.9029    1.5063 C   0  0  0  0  0  0  0  0  0  0  0  0
    1.8934    3.6690    2.4398 C   0  0  0  0  0  0  0  0  0  0  0  0
    1.7972    4.7137    3.3185 N   0  0  0  0  0  0  0  0  0  0  0  0
    0.8900    4.8095    4.4322 C   0  0  0  0  0  0  0  0  0  0  0  0
    3.4268    5.2012    1.8216 C   0  0  0  0  0  0  0  0  0  0  0  0
    2.7232    5.6693    2.9630 C   0  0  0  0  0  0  0  0  0  0  0  0
    2.9832    6.9110    3.5536 C   0  0  0  0  0  0  0  0  0  0  0  0
    3.9658    7.7039    2.9782 C   0  0  0  0  0  0  0  0  0  0  0  0
    4.6650    7.2716    1.8356 C   0  0  0  0  0  0  0  0  0  0  0  0
    4.4040    6.0384    1.2549 C   0  0  0  0  0  0  0  0  0  0  0  0
    4.3950    2.9557   -0.2843 C   0  0  0  0  0  0  0  0  0  0  0  0
    4.5481    1.9380   -1.2267 C   0  0  0  0  0  0  0  0  0  0  0  0
    3.6438    1.0033   -1.4551 N   0  0  0  0  0  0  0  0  0  0  0  0
   -0.1446   -1.0033    0.3484 C   0  0  0  0  0  0  0  0  0  0  0  0
   -2.3718   -4.4107    2.2475 C   0  0  0  0  0  0  0  0  0  0  0  0
   -1.9254   -5.5152    2.8424 C   0  0  0  0  0  0  0  0  0  0  0  0
   -2.6566   -4.1241   -1.2724 S   0  0  0  0  0  1  0  0  0  0  0  0
   -1.3536   -4.8355   -2.3511 C   0  0  0  0  0  0  0  0  0  0  0  0
    0.0435   -4.2052   -2.2364 C   0  0  2  0  0  0  0  0  0  0  0  0
    0.7036   -4.6882   -2.9773 H   0  0  0  0  0  0  0  0  0  0  0  0
    0.6691   -4.4687   -0.9640 N   0  0  0  0  0  0  0  0  0  0  0  0
    1.8146   -5.1822   -0.8468 C   0  0  0  0  0  0  0  0  0  0  0  0
    2.3272   -5.3277    0.5755 C   0  0  0  0  0  0  0  0  0  0  0  0
    2.4143   -5.6722   -1.7906 O   0  0  0  0  0  0  0  0  0  0  0  0
    0.1625   -2.7071   -2.5707 C   0  0  0  0  0  0  0  0  0  0  0  0
   -0.9779   -2.0947   -2.9421 N   0  0  0  0  0  0  0  0  0  0  0  0
   -1.0330   -0.7088   -3.3211 C   0  0  0  0  0  0  0  0  0  0  0  0
    1.2623   -2.1567   -2.5431 O   0  0  0  0  0  0  0  0  0  0  0  0
   -3.0303   -2.1331    1.4586 H   0  0  0  0  0  0  0  0  0  0  0  0
   -4.6439    1.3041   -0.2096 H   0  0  0  0  0  0  0  0  0  0  0  0
   -5.6634    0.0898    0.5683 H   0  0  0  0  0  0  0  0  0  0  0  0
   -4.8512   -1.6986   -0.8833 H   0  0  0  0  0  0  0  0  0  0  0  0
   -3.5138   -0.7384   -1.4544 H   0  0  0  0  0  0  0  0  0  0  0  0
   -7.0858   -1.1847   -1.6482 H   0  0  0  0  0  0  0  0  0  0  0  0
   -7.2800   -0.1419   -3.0759 H   0  0  0  0  0  0  0  0  0  0  0  0
   -7.1466    0.5945   -1.4573 H   0  0  0  0  0  0  0  0  0  0  0  0
   -3.7606    0.8233   -3.1455 H   0  0  0  0  0  0  0  0  0  0  0  0
   -5.0043    1.8891   -2.4287 H   0  0  0  0  0  0  0  0  0  0  0  0
   -5.3300    1.0296   -3.9562 H   0  0  0  0  0  0  0  0  0  0  0  0
   -3.1388    0.1614    3.0932 H   0  0  0  0  0  0  0  0  0  0  0  0
   -4.8877    0.2503    2.7567 H   0  0  0  0  0  0  0  0  0  0  0  0
   -3.8283    1.6354    2.3498 H   0  0  0  0  0  0  0  0  0  0  0  0
   -2.5221    2.0020   -0.2031 H   0  0  0  0  0  0  0  0  0  0  0  0
    0.2756    4.2170   -1.4740 H   0  0  0  0  0  0  0  0  0  0  0  0
    0.0203    3.6567    0.2034 H   0  0  0  0  0  0  0  0  0  0  0  0
   -1.3802    3.8496   -0.9155 H   0  0  0  0  0  0  0  0  0  0  0  0
    1.7844   -0.6558   -1.5715 H   0  0  0  0  0  0  0  0  0  0  0  0
    1.2563    2.7895    2.5196 H   0  0  0  0  0  0  0  0  0  0  0  0
    0.2661    3.9080    4.4660 H   0  0  0  0  0  0  0  0  0  0  0  0
    0.2312    5.6865    4.3311 H   0  0  0  0  0  0  0  0  0  0  0  0
    1.4383    4.8909    5.3842 H   0  0  0  0  0  0  0  0  0  0  0  0
    2.4309    7.2472    4.4338 H   0  0  0  0  0  0  0  0  0  0  0  0
    4.1948    8.6792    3.4137 H   0  0  0  0  0  0  0  0  0  0  0  0
    5.4244    7.9221    1.3959 H   0  0  0  0  0  0  0  0  0  0  0  0
    4.9465    5.7338    0.3591 H   0  0  0  0  0  0  0  0  0  0  0  0
    5.1801    3.6882   -0.1087 H   0  0  0  0  0  0  0  0  0  0  0  0
    5.4637    1.8830   -1.8290 H   0  0  0  0  0  0  0  0  0  0  0  0
    0.5251   -1.8484    0.4841 H   0  0  0  0  0  0  0  0  0  0  0  0
   -3.4382   -4.2538    2.0652 H   0  0  0  0  0  0  0  0  0  0  0  0
   -2.6075   -6.3027    3.1696 H   0  0  0  0  0  0  0  0  0  0  0  0
   -0.8513   -5.6617    2.9846 H   0  0  0  0  0  0  0  0  0  0  0  0
   -1.6644   -4.7678   -3.4078 H   0  0  0  0  0  0  0  0  0  0  0  0
   -1.2268   -5.9071   -2.1318 H   0  0  0  0  0  0  0  0  0  0  0  0
    0.1878   -4.1623   -0.1221 H   0  0  0  0  0  0  0  0  0  0  0  0
    3.2613   -4.7526    0.6611 H   0  0  0  0  0  0  0  0  0  0  0  0
    2.5730   -6.3844    0.7516 H   0  0  0  0  0  0  0  0  0  0  0  0
    1.6134   -4.9673    1.3274 H   0  0  0  0  0  0  0  0  0  0  0  0
   -1.8448   -2.5543   -2.6096 H   0  0  0  0  0  0  0  0  0  0  0  0
   -1.6008   -0.1165   -2.5865 H   0  0  0  0  0  0  0  0  0  0  0  0
   -1.5119   -0.5873   -4.3070 H   0  0  0  0  0  0  0  0  0  0  0  0
   -0.0150   -0.3011   -3.3666 H   0  0  0  0  0  0  0  0  0  0  0  0
  1  2  2  0  0  0  0
  2 36  1  0  0  0  0
  3  2  1  0  0  0  0
  4  3  1  0  0  0  0
  5  4  1  0  0  0  0
  5  6  1  0  0  0  0
  6 12  1  0  0  0  0
  7 52  1  0  0  0  0
  7  6  1  0  0  0  0
  8 53  1  0  0  0  0
  8  7  1  0  0  0  0
  9 10  1  0  0  0  0
  9  8  1  0  0  0  0
 10 55  1  0  0  0  0
 10 57  1  0  0  0  0
 11 59  1  0  0  0  0
 11  9  1  0  0  0  0
 12 62  1  0  0  0  0
 12 61  1  0  0  0  0
 13  5  2  0  0  0  0
 14 17  2  0  0  0  0
 14 13  1  0  0  0  0
 15 16  1  0  0  0  0
 15 14  1  0  0  0  0
 16 66  1  0  0  0  0
 17 35  1  0  0  0  0
 18 19  1  0  0  0  0
 18 17  1  0  0  0  0
 19 20  2  0  0  0  0
 20 21  1  0  0  0  0
 21 22  1  0  0  0  0
 22 26  1  0  0  0  0
 22 23  2  0  0  0  0
 23 69  1  0  0  0  0
 23 24  1  0  0  0  0
 24 25  1  0  0  0  0
 25 70  1  0  0  0  0
 25 72  1  0  0  0  0
 26 27  1  0  0  0  0
 27 24  1  0  0  0  0
 27 28  2  0  0  0  0
 28 73  1  0  0  0  0
 29 74  1  0  0  0  0
 29 28  1  0  0  0  0
 30 29  2  0  0  0  0
 31 26  2  0  0  0  0
 31 30  1  0  0  0  0
 32 77  1  0  0  0  0
 32 21  2  0  0  0  0
 33 32  1  0  0  0  0
 34 33  2  0  0  0  0
 34 19  1  0  0  0  0
 35 79  1  0  0  0  0
 35  4  2  0  0  0  0
 36 37  2  0  0  0  0
 37 82  1  0  0  0  0
 37 81  1  0  0  0  0
 39 40  1  0  0  0  0
 39 84  1  0  0  0  0
 39 38  1  0  0  0  0
 40 41  1  6  0  0  0
 40 42  1  0  0  0  0
 42 43  1  0  0  0  0
 42 85  1  0  0  0  0
 43 44  1  0  0  0  0
 44 86  1  0  0  0  0
 44 87  1  0  0  0  0
 44 88  1  0  0  0  0
 45 43  2  0  0  0  0
 46 49  2  0  0  0  0
 46 40  1  0  0  0  0
 47 89  1  0  0  0  0
 47 46  1  0  0  0  0
 48 47  1  0  0  0  0
 48 90  1  0  0  0  0
 50  3  1  0  0  0  0
 51  7  1  0  0  0  0
 54  8  1  0  0  0  0
 56 10  1  0  0  0  0
 58 11  1  0  0  0  0
 60 11  1  0  0  0  0
 63 12  1  0  0  0  0
 64 13  1  0  0  0  0
 65 16  1  0  0  0  0
 67 16  1  0  0  0  0
 68 18  1  0  0  0  0
 71 25  1  0  0  0  0
 75 30  1  0  0  0  0
 76 31  1  0  0  0  0
 78 33  1  0  0  0  0
 80 36  1  0  0  0  0
 83 39  1  0  0  0  0
 91 48  1  0  0  0  0
 92 48  1  0  0  0  0
M  END
