-1 1
 OpenBabel05232414493D

 84 88  0  0  1  0  0  0  0  0999 V2000
    6.2507   15.7821   -2.7475 O   0  0  0  0  0  0  0  0  0  0  0  0
    7.2636   15.9747   -2.0485 C   0  0  0  0  0  0  0  0  0  0  0  0
    7.1020   15.4881   -0.7237 N   0  0  0  0  0  0  0  0  0  0  0  0
    7.7978   15.4960    0.4800 C   0  0  0  0  0  0  0  0  0  0  0  0
    7.0392   15.6229    1.6595 C   0  0  0  0  0  0  0  0  0  0  0  0
    7.6588   15.5495    2.9011 C   0  0  0  0  0  0  0  0  0  0  0  0
    6.9694   15.7035    4.0964 O   0  0  0  0  0  0  0  0  0  0  0  0
    5.8482   15.0376    4.3870 C   0  0  0  0  0  0  0  0  0  0  0  0
    5.2646   14.2702    3.5007 N   0  0  0  0  0  0  0  0  0  0  0  0
    4.1285   13.6269    3.8305 C   0  0  0  0  0  0  0  0  0  0  0  0
    3.5320   12.8734    2.8611 N   0  0  0  0  0  0  0  0  0  0  0  0
    3.8368   12.8677    1.4770 C   0  0  0  0  0  0  0  0  0  0  0  0
    5.1257   12.6516    0.9854 C   0  0  0  0  0  0  0  0  0  0  0  0
    5.3794   12.6496   -0.3830 C   0  0  0  0  0  0  0  0  0  0  0  0
    4.3474   12.8378   -1.3281 C   0  0  0  0  0  0  0  0  0  0  0  0
    4.5729   12.7888   -2.7008 N   0  0  0  0  0  0  0  0  0  0  0  0
    5.9222   12.4869   -3.1535 C   0  0  0  0  0  0  0  0  0  0  0  0
    5.9268   12.1012   -4.6333 C   0  0  0  0  0  0  0  0  0  0  0  0
    5.3028   13.0827   -5.4989 N   0  0  0  0  0  0  0  0  0  0  0  0
    3.9639   13.3584   -5.0186 C   0  0  0  0  0  0  0  0  0  0  0  0
    3.8976   13.7759   -3.5480 C   0  0  0  0  0  0  0  0  0  0  0  0
    6.1148   14.2710   -5.7212 C   0  0  0  0  0  0  0  0  0  0  0  0
    3.0495   13.0421   -0.8139 C   0  0  0  0  0  0  0  0  0  0  0  0
    2.8067   13.0656    0.5526 C   0  0  0  0  0  0  0  0  0  0  0  0
    3.5196   13.6583    5.0182 N   0  0  0  0  0  0  0  0  0  0  0  0
    5.3166   15.1842    5.6831 C   0  0  0  0  0  0  0  0  0  0  0  0
    4.1433   14.4359    5.9026 C   0  0  0  0  0  0  0  0  0  0  0  0
    3.7568   14.6593    7.1919 N   0  0  0  0  0  0  0  0  0  0  0  0
    2.9402   14.2450    7.6162 H   0  0  0  0  0  0  0  0  0  0  0  0
    4.6532   15.5289    7.7962 C   0  0  0  0  0  0  0  0  0  0  0  0
    5.6280   15.8746    6.9026 C   0  0  0  0  0  0  0  0  0  0  0  0
    9.0385   15.4049    3.0190 C   0  0  0  0  0  0  0  0  0  0  0  0
    9.7865   15.2945    1.8492 C   0  0  0  0  0  0  0  0  0  0  0  0
    9.1833   15.3070    0.5966 C   0  0  0  0  0  0  0  0  0  0  0  0
    8.4069   16.6453   -2.5684 C   0  0  0  0  0  3  0  0  0  0  0  0
    9.6494   16.9960   -1.9984 C   0  0  0  0  0  0  0  0  0  0  0  0
   11.2353   15.4995   -2.2891 S   0  0  0  0  0  0  0  0  0  0  0  0
   10.2812   14.3010   -3.2451 C   0  0  0  0  0  0  0  0  0  0  0  0
    9.6016   13.1619   -2.4581 C   0  0  2  0  0  0  0  0  0  0  0  0
    8.6284   13.5183   -2.0739 H   0  0  0  0  0  0  0  0  0  0  0  0
   10.4061   12.7630   -1.3103 N   0  0  0  0  0  0  0  0  0  0  0  0
    9.8966   12.1895   -0.2013 C   0  0  0  0  0  0  0  0  0  0  0  0
   10.8084   12.1373    1.0034 C   0  0  0  0  0  0  0  0  0  0  0  0
    8.7754   11.6856   -0.1544 O   0  0  0  0  0  0  0  0  0  0  0  0
    9.2952   11.9851   -3.4148 C   0  0  0  0  0  0  0  0  0  0  0  0
    8.7757   10.8889   -2.8131 N   0  0  0  0  0  0  0  0  0  0  0  0
    8.3876    9.7153   -3.5479 C   0  0  0  0  0  0  0  0  0  0  0  0
    9.4850   12.0615   -4.6184 O   0  0  0  0  0  0  0  0  0  0  0  0
    6.1321   15.2015   -0.6315 H   0  0  0  0  0  0  0  0  0  0  0  0
    5.9604   15.7516    1.5936 H   0  0  0  0  0  0  0  0  0  0  0  0
    2.6294   12.5108    3.1379 H   0  0  0  0  0  0  0  0  0  0  0  0
    5.9581   12.5094    1.6741 H   0  0  0  0  0  0  0  0  0  0  0  0
    6.4137   12.5073   -0.6952 H   0  0  0  0  0  0  0  0  0  0  0  0
    6.3117   11.6398   -2.5749 H   0  0  0  0  0  0  0  0  0  0  0  0
    6.5902   13.3525   -2.9819 H   0  0  0  0  0  0  0  0  0  0  0  0
    5.3808   11.1456   -4.7455 H   0  0  0  0  0  0  0  0  0  0  0  0
    6.9644   11.9353   -4.9599 H   0  0  0  0  0  0  0  0  0  0  0  0
    3.3564   12.4435   -5.1517 H   0  0  0  0  0  0  0  0  0  0  0  0
    3.5095   14.1494   -5.6378 H   0  0  0  0  0  0  0  0  0  0  0  0
    2.8400   13.8528   -3.2631 H   0  0  0  0  0  0  0  0  0  0  0  0
    4.3710   14.7627   -3.3978 H   0  0  0  0  0  0  0  0  0  0  0  0
    7.1067   13.9613   -6.0849 H   0  0  0  0  0  0  0  0  0  0  0  0
    6.2608   14.9068   -4.8261 H   0  0  0  0  0  0  0  0  0  0  0  0
    5.6457   14.8862   -6.5074 H   0  0  0  0  0  0  0  0  0  0  0  0
    2.2084   13.1761   -1.4945 H   0  0  0  0  0  0  0  0  0  0  0  0
    1.7886   13.2418    0.9125 H   0  0  0  0  0  0  0  0  0  0  0  0
    4.5151   15.8325    8.8311 H   0  0  0  0  0  0  0  0  0  0  0  0
    6.4673   16.5403    7.0835 H   0  0  0  0  0  0  0  0  0  0  0  0
    9.4950   15.3767    4.0091 H   0  0  0  0  0  0  0  0  0  0  0  0
   10.8704   15.1683    1.9089 H   0  0  0  0  0  0  0  0  0  0  0  0
    9.7978   15.1553   -0.2902 H   0  0  0  0  0  0  0  0  0  0  0  0
    8.2540   16.8929   -3.6217 H   0  0  0  0  0  0  0  0  0  0  0  0
    9.7359   17.0911   -0.9154 H   0  0  0  0  0  0  0  0  0  0  0  0
   10.1832   17.7938   -2.5208 H   0  0  0  0  0  0  0  0  0  0  0  0
   10.9273   13.8705   -4.0200 H   0  0  0  0  0  0  0  0  0  0  0  0
    9.4770   14.8533   -3.7602 H   0  0  0  0  0  0  0  0  0  0  0  0
   11.2353   13.3488   -1.1989 H   0  0  0  0  0  0  0  0  0  0  0  0
   10.2427   12.5019    1.8708 H   0  0  0  0  0  0  0  0  0  0  0  0
   11.7221   12.7346    0.8839 H   0  0  0  0  0  0  0  0  0  0  0  0
   11.0806   11.0883    1.1915 H   0  0  0  0  0  0  0  0  0  0  0  0
    8.5733   10.9624   -1.8123 H   0  0  0  0  0  0  0  0  0  0  0  0
    8.7505    9.8175   -4.5786 H   0  0  0  0  0  0  0  0  0  0  0  0
    7.2908    9.5952   -3.5775 H   0  0  0  0  0  0  0  0  0  0  0  0
    8.8224    8.8070   -3.1010 H   0  0  0  0  0  0  0  0  0  0  0  0
  1  2  2  0  0  0  0
  2  3  1  0  0  0  0
  3 49  1  0  0  0  0
  3  4  1  0  0  0  0
  4 34  2  0  0  0  0
  4  5  1  0  0  0  0
  5  6  2  0  0  0  0
  6 32  1  0  0  0  0
  6  7  1  0  0  0  0
  7  8  1  0  0  0  0
  8 26  1  0  0  0  0
  9 10  1  0  0  0  0
  9  8  2  0  0  0  0
 10 25  2  0  0  0  0
 11 51  1  0  0  0  0
 11 10  1  0  0  0  0
 12 11  1  0  0  0  0
 13 12  1  0  0  0  0
 13 52  1  0  0  0  0
 14 13  2  0  0  0  0
 15 23  2  0  0  0  0
 15 14  1  0  0  0  0
 16 15  1  0  0  0  0
 17 55  1  0  0  0  0
 17 16  1  0  0  0  0
 17 54  1  0  0  0  0
 18 17  1  0  0  0  0
 19 20  1  0  0  0  0
 19 18  1  0  0  0  0
 20 21  1  0  0  0  0
 21 61  1  0  0  0  0
 21 60  1  0  0  0  0
 21 16  1  0  0  0  0
 22 19  1  0  0  0  0
 22 63  1  0  0  0  0
 23 24  1  0  0  0  0
 24 66  1  0  0  0  0
 24 12  2  0  0  0  0
 25 27  1  0  0  0  0
 26 27  2  0  0  0  0
 26 31  1  0  0  0  0
 27 28  1  0  0  0  0
 28 29  1  0  0  0  0
 28 30  1  0  0  0  0
 30 67  1  0  0  0  0
 31 68  1  0  0  0  0
 31 30  2  0  0  0  0
 32 69  1  0  0  0  0
 33 70  1  0  0  0  0
 33 32  2  0  0  0  0
 34 33  1  0  0  0  0
 35  2  1  0  0  0  0
 35 36  1  0  0  0  0
 36 73  1  0  0  0  0
 37 36  1  0  0  0  0
 38 39  1  0  0  0  0
 38 37  1  0  0  0  0
 39 40  1  1  0  0  0
 39 41  1  0  0  0  0
 41 77  1  0  0  0  0
 41 42  1  0  0  0  0
 42 44  2  0  0  0  0
 42 43  1  0  0  0  0
 43 80  1  0  0  0  0
 43 78  1  0  0  0  0
 45 46  1  0  0  0  0
 45 39  1  0  0  0  0
 46 81  1  0  0  0  0
 47 84  1  0  0  0  0
 47 46  1  0  0  0  0
 48 45  2  0  0  0  0
 50  5  1  0  0  0  0
 53 14  1  0  0  0  0
 56 18  1  0  0  0  0
 57 18  1  0  0  0  0
 58 20  1  0  0  0  0
 59 20  1  0  0  0  0
 62 22  1  0  0  0  0
 64 22  1  0  0  0  0
 65 23  1  0  0  0  0
 71 34  1  0  0  0  0
 72 35  1  0  0  0  0
 74 36  1  0  0  0  0
 75 38  1  0  0  0  0
 76 38  1  0  0  0  0
 79 43  1  0  0  0  0
 82 47  1  0  0  0  0
 83 47  1  0  0  0  0
M  END
