-1 1
 OpenBabel05232413493D

 84 87  0  0  1  0  0  0  0  0999 V2000
    0.1519    1.5073   -2.8617 O   0  0  0  0  0  0  0  0  0  0  0  0
    0.6852    1.9647   -1.8617 C   0  0  0  0  0  0  0  0  0  0  0  0
    0.5537    1.3244   -0.6621 N   0  0  0  0  0  0  0  0  0  0  0  0
    1.2077    1.5384    0.5676 C   0  0  0  0  0  0  0  0  0  0  0  0
    0.4439    1.3615    1.7274 C   0  0  0  0  0  0  0  0  0  0  0  0
    1.0560    1.5017    2.9708 C   0  0  0  0  0  0  0  0  0  0  0  0
    0.4237    1.3832    4.1955 O   0  0  0  0  0  0  0  0  0  0  0  0
   -0.7885    0.8831    4.4432 C   0  0  0  0  0  0  0  0  0  0  0  0
   -1.5461    0.3818    3.4981 N   0  0  0  0  0  0  0  0  0  0  0  0
   -2.7678   -0.0968    3.8105 C   0  0  0  0  0  0  0  0  0  0  0  0
   -3.5266   -0.5868    2.7886 N   0  0  0  0  0  0  0  0  0  0  0  0
   -3.1857   -0.6727    1.4170 C   0  0  0  0  0  0  0  0  0  0  0  0
   -1.9726   -1.2031    0.9750 C   0  0  0  0  0  0  0  0  0  0  0  0
   -1.6837   -1.3019   -0.3829 C   0  0  0  0  0  0  0  0  0  0  0  0
   -2.6145   -0.9078   -1.3681 C   0  0  0  0  0  0  0  0  0  0  0  0
   -2.3606   -1.0729   -2.7265 N   0  0  0  0  0  0  0  0  0  0  0  0
   -1.1155   -1.7290   -3.1037 C   0  0  0  0  0  0  0  0  0  0  0  0
   -1.1484   -2.1679   -4.5677 C   0  0  0  0  0  0  0  0  0  0  0  0
   -1.4733   -1.1025   -5.4936 N   0  0  0  0  0  0  0  0  0  0  0  0
   -2.7178   -0.4817   -5.0932 C   0  0  0  0  0  0  0  0  0  0  0  0
   -2.7380    0.0054   -3.6415 C   0  0  0  0  0  0  0  0  0  0  0  0
   -0.3790   -0.1733   -5.7346 C   0  0  0  0  0  0  0  0  0  0  0  0
   -3.8351   -0.3703   -0.9066 C   0  0  0  0  0  0  0  0  0  0  0  0
   -4.1048   -0.2496    0.4506 C   0  0  0  0  0  0  0  0  0  0  0  0
   -3.3151   -0.1258    5.0260 N   0  0  0  0  0  0  0  0  0  0  0  0
   -1.2304    0.9152    5.7812 C   0  0  0  0  0  0  0  0  0  0  0  0
   -2.5208    0.3825    5.9683 C   0  0  0  0  0  0  0  0  0  0  0  0
   -2.8116    0.4837    7.2968 N   0  0  0  0  0  0  0  0  0  0  0  0
   -3.6778    0.1722    7.7107 H   0  0  0  0  0  0  0  0  0  0  0  0
   -1.7399    1.0651    7.9585 C   0  0  0  0  0  0  0  0  0  0  0  0
   -0.7471    1.3462    7.0621 C   0  0  0  0  0  0  0  0  0  0  0  0
    2.4065    1.8457    3.0620 C   0  0  0  0  0  0  0  0  0  0  0  0
    3.1436    2.0255    1.8949 C   0  0  0  0  0  0  0  0  0  0  0  0
    2.5646    1.8595    0.6391 C   0  0  0  0  0  0  0  0  0  0  0  0
    1.4054    3.2704   -1.9352 C   0  0  0  0  0  0  0  0  0  0  0  0
    1.1600    4.2917   -1.1156 C   0  0  0  0  0  0  0  0  0  0  0  0
    4.3693    1.2950   -2.4824 S   0  0  0  0  0  1  0  0  0  0  0  0
    3.5622   -0.0104   -3.4783 C   0  0  0  0  0  0  0  0  0  0  0  0
    2.6052   -0.9236   -2.6751 C   0  0  2  0  0  0  0  0  0  0  0  0
    1.6416   -0.3970   -2.5619 H   0  0  0  0  0  0  0  0  0  0  0  0
    3.1719   -1.1389   -1.3504 N   0  0  0  0  0  0  0  0  0  0  0  0
    2.5132   -1.5417   -0.2592 C   0  0  0  0  0  0  0  0  0  0  0  0
    3.2419   -1.3943    1.0572 C   0  0  0  0  0  0  0  0  0  0  0  0
    1.3880   -2.0609   -0.2815 O   0  0  0  0  0  0  0  0  0  0  0  0
    2.2834   -2.2009   -3.4731 C   0  0  0  0  0  0  0  0  0  0  0  0
    1.7934   -3.2407   -2.7511 N   0  0  0  0  0  0  0  0  0  0  0  0
    1.4010   -4.4807   -3.3630 C   0  0  0  0  0  0  0  0  0  0  0  0
    2.4175   -2.2446   -4.6873 O   0  0  0  0  0  0  0  0  0  0  0  0
   -0.0940    0.5380   -0.6920 H   0  0  0  0  0  0  0  0  0  0  0  0
   -0.6078    1.1057    1.6499 H   0  0  0  0  0  0  0  0  0  0  0  0
   -4.4656   -0.8433    3.0624 H   0  0  0  0  0  0  0  0  0  0  0  0
   -1.2180   -1.5255    1.6930 H   0  0  0  0  0  0  0  0  0  0  0  0
   -0.7011   -1.6921   -0.6501 H   0  0  0  0  0  0  0  0  0  0  0  0
   -0.9744   -2.6203   -2.4771 H   0  0  0  0  0  0  0  0  0  0  0  0
   -0.2561   -1.0591   -2.9236 H   0  0  0  0  0  0  0  0  0  0  0  0
   -1.9075   -2.9653   -4.6745 H   0  0  0  0  0  0  0  0  0  0  0  0
   -0.1701   -2.5922   -4.8365 H   0  0  0  0  0  0  0  0  0  0  0  0
   -3.5304   -1.2207   -5.2232 H   0  0  0  0  0  0  0  0  0  0  0  0
   -2.9347    0.3686   -5.7602 H   0  0  0  0  0  0  0  0  0  0  0  0
   -3.7530    0.3552   -3.4098 H   0  0  0  0  0  0  0  0  0  0  0  0
   -2.0471    0.8595   -3.5136 H   0  0  0  0  0  0  0  0  0  0  0  0
    0.5254   -0.7422   -5.9963 H   0  0  0  0  0  0  0  0  0  0  0  0
   -0.1227    0.4737   -4.8753 H   0  0  0  0  0  0  0  0  0  0  0  0
   -0.6362    0.4770   -6.5872 H   0  0  0  0  0  0  0  0  0  0  0  0
   -4.5973   -0.0536   -1.6193 H   0  0  0  0  0  0  0  0  0  0  0  0
   -5.0585    0.1792    0.7714 H   0  0  0  0  0  0  0  0  0  0  0  0
   -1.7787    1.2315    9.0322 H   0  0  0  0  0  0  0  0  0  0  0  0
    0.2133    1.8045    7.2805 H   0  0  0  0  0  0  0  0  0  0  0  0
    2.8565    1.9600    4.0495 H   0  0  0  0  0  0  0  0  0  0  0  0
    4.2058    2.2717    1.9607 H   0  0  0  0  0  0  0  0  0  0  0  0
    3.1594    1.9204   -0.2814 H   0  0  0  0  0  0  0  0  0  0  0  0
    2.0980    3.3435   -2.7768 H   0  0  0  0  0  0  0  0  0  0  0  0
    0.4766    4.2002   -0.2659 H   0  0  0  0  0  0  0  0  0  0  0  0
    1.6475    5.2587   -1.2620 H   0  0  0  0  0  0  0  0  0  0  0  0
    4.3266   -0.6449   -3.9520 H   0  0  0  0  0  0  0  0  0  0  0  0
    2.9729    0.4233   -4.2972 H   0  0  0  0  0  0  0  0  0  0  0  0
    3.9716   -0.4893   -1.2243 H   0  0  0  0  0  0  0  0  0  0  0  0
    2.5770   -0.8829    1.7672 H   0  0  0  0  0  0  0  0  0  0  0  0
    4.1808   -0.8328    0.9692 H   0  0  0  0  0  0  0  0  0  0  0  0
    3.4477   -2.3995    1.4542 H   0  0  0  0  0  0  0  0  0  0  0  0
    1.5368   -3.0465   -1.7791 H   0  0  0  0  0  0  0  0  0  0  0  0
    1.7728   -4.4885   -4.3958 H   0  0  0  0  0  0  0  0  0  0  0  0
    0.3034   -4.6024   -3.3917 H   0  0  0  0  0  0  0  0  0  0  0  0
    1.8258   -5.3408   -2.8206 H   0  0  0  0  0  0  0  0  0  0  0  0
  1  2  2  0  0  0  0
  2  3  1  0  0  0  0
  3  4  1  0  0  0  0
  4 34  2  0  0  0  0
  4  5  1  0  0  0  0
  5  6  2  0  0  0  0
  6 32  1  0  0  0  0
  6  7  1  0  0  0  0
  7  8  1  0  0  0  0
  8 26  1  0  0  0  0
  9 10  1  0  0  0  0
  9  8  2  0  0  0  0
 10 25  2  0  0  0  0
 11 51  1  0  0  0  0
 11 10  1  0  0  0  0
 12 11  1  0  0  0  0
 13 12  1  0  0  0  0
 13 52  1  0  0  0  0
 14 13  2  0  0  0  0
 15 23  2  0  0  0  0
 15 14  1  0  0  0  0
 16 15  1  0  0  0  0
 17 55  1  0  0  0  0
 17 16  1  0  0  0  0
 17 54  1  0  0  0  0
 18 17  1  0  0  0  0
 19 20  1  0  0  0  0
 19 18  1  0  0  0  0
 20 21  1  0  0  0  0
 21 61  1  0  0  0  0
 21 60  1  0  0  0  0
 21 16  1  0  0  0  0
 22 19  1  0  0  0  0
 22 63  1  0  0  0  0
 23 24  1  0  0  0  0
 24 66  1  0  0  0  0
 24 12  2  0  0  0  0
 25 27  1  0  0  0  0
 26 27  2  0  0  0  0
 26 31  1  0  0  0  0
 27 28  1  0  0  0  0
 28 29  1  0  0  0  0
 28 30  1  0  0  0  0
 30 67  1  0  0  0  0
 31 68  1  0  0  0  0
 31 30  2  0  0  0  0
 32 69  1  0  0  0  0
 33 70  1  0  0  0  0
 33 32  2  0  0  0  0
 34 33  1  0  0  0  0
 35  2  1  0  0  0  0
 35 36  2  0  0  0  0
 36 73  1  0  0  0  0
 38 39  1  0  0  0  0
 38 37  1  0  0  0  0
 39 40  1  1  0  0  0
 39 41  1  0  0  0  0
 41 77  1  0  0  0  0
 41 42  1  0  0  0  0
 42 43  1  0  0  0  0
 43 80  1  0  0  0  0
 43 78  1  0  0  0  0
 44 42  2  0  0  0  0
 45 46  1  0  0  0  0
 45 39  1  0  0  0  0
 46 81  1  0  0  0  0
 47 84  1  0  0  0  0
 47 46  1  0  0  0  0
 48 45  2  0  0  0  0
 49  3  1  0  0  0  0
 50  5  1  0  0  0  0
 53 14  1  0  0  0  0
 56 18  1  0  0  0  0
 57 18  1  0  0  0  0
 58 20  1  0  0  0  0
 59 20  1  0  0  0  0
 62 22  1  0  0  0  0
 64 22  1  0  0  0  0
 65 23  1  0  0  0  0
 71 34  1  0  0  0  0
 72 35  1  0  0  0  0
 74 36  1  0  0  0  0
 75 38  1  0  0  0  0
 76 38  1  0  0  0  0
 79 43  1  0  0  0  0
 82 47  1  0  0  0  0
 83 47  1  0  0  0  0
M  END
