-1 1
 OpenBabel05232414493D

 64 65  0  0  1  0  0  0  0  0999 V2000
   -2.3367  -18.0544    6.6015 C   0  0  0  0  0  0  0  0  0  0  0  0
   -1.9625  -16.9355    6.8611 C   0  0  0  0  0  0  0  0  0  0  0  0
   -1.5169  -15.5676    7.1415 C   0  0  0  0  0  0  0  0  0  0  0  0
   -0.9980  -15.5105    8.4586 O   0  0  0  0  0  0  0  0  0  0  0  0
   -1.2243  -14.4390    9.2547 C   0  0  0  0  0  0  0  0  0  0  0  0
   -1.4872  -14.7135   10.5793 C   0  0  0  0  0  0  0  0  0  0  0  0
   -1.1464  -13.0821    8.8021 C   0  0  0  0  0  0  0  0  0  0  0  0
   -0.8935  -12.7764    7.4496 N   0  0  0  0  0  0  0  0  0  0  0  0
    0.3838  -12.8119    6.8161 C   0  0  0  0  0  0  0  0  0  0  0  0
    0.5360  -12.0786    5.8523 O   0  0  0  0  0  0  0  0  0  0  0  0
    1.3892  -13.6989    7.3735 C   0  0  0  0  0  0  0  0  0  0  0  0
    2.7123  -13.5313    7.0446 C   0  0  0  0  0  0  0  0  0  0  0  0
    3.7589  -11.7495    8.5871 S   0  0  0  0  0  1  0  0  0  0  0  0
    2.1308  -11.2059    9.1122 C   0  0  0  0  0  0  0  0  0  0  0  0
    1.8464  -11.1842   10.6214 C   0  0  2  0  0  0  0  0  0  0  0  0
    0.7536  -11.2029   10.7486 H   0  0  0  0  0  0  0  0  0  0  0  0
    2.3183   -9.9943   11.2828 N   0  0  0  0  0  0  0  0  0  0  0  0
    1.6308   -8.8516   11.2166 C   0  0  0  0  0  0  0  0  0  0  0  0
    2.1979   -7.6639   11.9588 C   0  0  0  0  0  0  0  0  0  0  0  0
    0.5712   -8.7531   10.5866 O   0  0  0  0  0  0  0  0  0  0  0  0
    2.3730  -12.3988   11.3809 C   0  0  0  0  0  0  0  0  0  0  0  0
    1.9216  -13.5766   10.8907 N   0  0  0  0  0  0  0  0  0  0  0  0
    2.4083  -14.8406   11.3771 C   0  0  0  0  0  0  0  0  0  0  0  0
    3.0673  -12.2869   12.3775 O   0  0  0  0  0  0  0  0  0  0  0  0
   -1.3649  -12.0701    9.7236 C   0  0  0  0  0  0  0  0  0  0  0  0
   -1.6518  -12.3354   11.0817 C   0  0  0  0  0  0  0  0  0  0  0  0
   -1.7255  -13.6848   11.5125 C   0  0  0  0  0  0  0  0  0  0  0  0
   -2.0774  -14.0251   12.7873 N   0  0  0  0  0  0  0  0  0  0  0  0
   -2.3758  -13.0324   13.5750 C   0  0  0  0  0  0  0  0  0  0  0  0
   -2.3167  -11.7138   13.2997 N   0  0  0  0  0  0  0  0  0  0  0  0
   -1.9168  -11.3418   12.0996 C   0  0  0  0  0  0  0  0  0  0  0  0
   -1.7639  -10.0091   11.8185 N   0  0  0  0  0  0  0  0  0  0  0  0
   -2.2076   -8.9035   12.5596 C   0  0  0  0  0  0  0  0  0  0  0  0
   -3.0988   -8.9881   13.6398 C   0  0  0  0  0  0  0  0  0  0  0  0
   -3.5333   -7.8271   14.2732 C   0  0  0  0  0  0  0  0  0  0  0  0
   -4.6430   -7.9361   15.6149 Cl  0  0  0  0  0  0  0  0  0  0  0  0
   -3.0914   -6.5757   13.8596 C   0  0  0  0  0  0  0  0  0  0  0  0
   -3.5092   -5.4695   14.4779 F   0  0  0  0  0  0  0  0  0  0  0  0
   -2.2031   -6.4838   12.7965 C   0  0  0  0  0  0  0  0  0  0  0  0
   -1.7651   -7.6316   12.1499 C   0  0  0  0  0  0  0  0  0  0  0  0
   -2.6640  -19.0517    6.3765 H   0  0  0  0  0  0  0  0  0  0  0  0
   -2.3613  -14.8729    7.0175 H   0  0  0  0  0  0  0  0  0  0  0  0
   -0.7392  -15.2737    6.4175 H   0  0  0  0  0  0  0  0  0  0  0  0
   -1.5572  -15.7498   10.9086 H   0  0  0  0  0  0  0  0  0  0  0  0
   -1.4008  -11.9709    7.0984 H   0  0  0  0  0  0  0  0  0  0  0  0
    1.0944  -14.4407    8.1183 H   0  0  0  0  0  0  0  0  0  0  0  0
    2.9728  -12.8893    6.2043 H   0  0  0  0  0  0  0  0  0  0  0  0
    3.4585  -14.2543    7.3709 H   0  0  0  0  0  0  0  0  0  0  0  0
    1.3955  -11.9053    8.6672 H   0  0  0  0  0  0  0  0  0  0  0  0
    1.8673  -10.2152    8.7125 H   0  0  0  0  0  0  0  0  0  0  0  0
    3.1347  -10.1084   11.8751 H   0  0  0  0  0  0  0  0  0  0  0  0
    3.1481   -7.8825   12.4635 H   0  0  0  0  0  0  0  0  0  0  0  0
    1.4577   -7.3277   12.6995 H   0  0  0  0  0  0  0  0  0  0  0  0
    2.3485   -6.8451   11.2415 H   0  0  0  0  0  0  0  0  0  0  0  0
    1.5528  -13.5540    9.9451 H   0  0  0  0  0  0  0  0  0  0  0  0
    1.6236  -15.6053   11.2807 H   0  0  0  0  0  0  0  0  0  0  0  0
    2.6741  -14.7292   12.4359 H   0  0  0  0  0  0  0  0  0  0  0  0
    3.3060  -15.1728   10.8281 H   0  0  0  0  0  0  0  0  0  0  0  0
   -1.2878  -11.0403    9.3661 H   0  0  0  0  0  0  0  0  0  0  0  0
   -2.7030  -13.2803   14.5923 H   0  0  0  0  0  0  0  0  0  0  0  0
   -1.0890   -9.7639   11.0888 H   0  0  0  0  0  0  0  0  0  0  0  0
   -3.4294   -9.9589   13.9974 H   0  0  0  0  0  0  0  0  0  0  0  0
   -1.8586   -5.4972   12.4818 H   0  0  0  0  0  0  0  0  0  0  0  0
   -1.0483   -7.5624   11.3292 H   0  0  0  0  0  0  0  0  0  0  0  0
  1  2  3  0  0  0  0
  2  3  1  0  0  0  0
  3  4  1  0  0  0  0
  4  5  1  0  0  0  0
  5  6  1  0  0  0  0
  6 44  1  0  0  0  0
  6 27  2  0  0  0  0
  7  5  2  0  0  0  0
  7 25  1  0  0  0  0
  8  7  1  0  0  0  0
  9 11  1  0  0  0  0
  9  8  1  0  0  0  0
 10  9  2  0  0  0  0
 11 46  1  0  0  0  0
 12 48  1  0  0  0  0
 12 11  2  0  0  0  0
 13 14  1  0  0  0  0
 14 15  1  0  0  0  0
 15 16  1  1  0  0  0
 15 17  1  0  0  0  0
 15 21  1  0  0  0  0
 17 51  1  0  0  0  0
 18 17  1  0  0  0  0
 18 19  1  0  0  0  0
 19 52  1  0  0  0  0
 19 53  1  0  0  0  0
 20 18  2  0  0  0  0
 21 24  2  0  0  0  0
 22 23  1  0  0  0  0
 22 21  1  0  0  0  0
 23 57  1  0  0  0  0
 25 26  2  0  0  0  0
 26 27  1  0  0  0  0
 26 31  1  0  0  0  0
 27 28  1  0  0  0  0
 28 29  2  0  0  0  0
 29 60  1  0  0  0  0
 30 29  1  0  0  0  0
 31 30  2  0  0  0  0
 32 31  1  0  0  0  0
 32 33  1  0  0  0  0
 33 34  1  0  0  0  0
 34 62  1  0  0  0  0
 34 35  2  0  0  0  0
 35 36  1  0  0  0  0
 37 35  1  0  0  0  0
 37 38  1  0  0  0  0
 39 37  2  0  0  0  0
 40 33  2  0  0  0  0
 40 39  1  0  0  0  0
 41  1  1  0  0  0  0
 42  3  1  0  0  0  0
 43  3  1  0  0  0  0
 45  8  1  0  0  0  0
 47 12  1  0  0  0  0
 49 14  1  0  0  0  0
 50 14  1  0  0  0  0
 54 19  1  0  0  0  0
 55 22  1  0  0  0  0
 56 23  1  0  0  0  0
 58 23  1  0  0  0  0
 59 25  1  0  0  0  0
 61 32  1  0  0  0  0
 63 39  1  0  0  0  0
 64 40  1  0  0  0  0
M  END
