64
-1 1
C        -1.368249   -6.328357   -5.153344
C        -1.129710   -5.290092   -4.582796
C        -0.831631   -4.010072   -3.934564
O        -0.948384   -4.185693   -2.534286
C        -1.108444   -3.158898   -1.674207
C        -1.613995   -3.514939   -0.434380
C        -0.760454   -1.795003   -1.935542
N        -0.197210   -1.386045   -3.163461
C         1.243775   -1.387320   -3.335056
O         1.685337   -0.435536   -4.007671
C         1.988580   -2.395409   -2.715383
C         3.454140   -2.414592   -2.921849
S         4.541650   -1.616425   -1.614262
C         4.047882    0.126617   -1.707019
C         2.696120    0.542732   -1.094362
H         1.905109    0.228667   -1.783943
N         2.662890    1.990748   -1.030445
C         1.525750    2.674585   -0.816049
C         1.693377    4.141188   -0.481752
O         0.408643    2.163708   -0.868541
C         2.436804   -0.019802    0.313911
N         1.893105   -1.246903    0.323763
C         1.643717   -1.963959    1.545384
O         2.691742    0.634032    1.315580
C        -0.953081   -0.866958   -0.927507
C        -1.451774   -1.217716    0.341791
C        -1.794283   -2.569568    0.591935
N        -2.287691   -2.977545    1.802871
C        -2.400013   -2.050526    2.709545
N        -2.063584   -0.746112    2.613635
C        -1.581774   -0.317851    1.461634
N        -1.199847    0.985339    1.318623
C        -1.332427    2.056579    2.205235
C        -1.669456    1.931541    3.560992
C        -1.767891    3.071408    4.354360
Cl        -2.189683    2.920100    6.040562
C        -1.532280    4.336847    3.828388
F        -1.627824    5.422318    4.599793
C        -1.201774    4.468962    2.485824
C        -1.110631    3.343002    1.680136
H        -1.576521   -7.254962   -5.653183
H        -1.525591   -3.238364   -4.299026
H         0.189177   -3.682686   -4.195590
H        -1.879698   -4.554993   -0.246403
H        -0.505602   -0.459073   -3.439657
H         1.508794   -3.228075   -2.195711
H         3.722240   -1.907544   -3.860439
H         3.871659   -3.433591   -2.944113
H         4.040920    0.437857   -2.761713
H         4.857656    0.664667   -1.185244
H         3.525274    2.448089   -0.762930
H         2.671514    4.541875   -0.781027
H         1.580248    4.257592    0.607095
H         0.897024    4.713758   -0.974402
H         1.808806   -1.727831   -0.578231
H         0.961419   -2.799336    1.340014
H         1.175743   -1.296352    2.284136
H         2.572681   -2.362104    1.988545
H        -0.627251    0.153734   -1.140908
H        -2.805724   -2.351552    3.683899
H        -0.715587    1.232970    0.455188
H        -1.858941    0.945310    3.976537
H        -1.028219    5.467902    2.081728
H        -0.860526    3.437284    0.622425
