64
-1 1
C        -2.336653  -18.054399    6.601472
C        -1.962528  -16.935484    6.861079
C        -1.516896  -15.567580    7.141548
O        -0.998042  -15.510455    8.458636
C        -1.224318  -14.439040    9.254718
C        -1.487250  -14.713490   10.579329
C        -1.146398  -13.082105    8.802051
N        -0.893463  -12.776414    7.449645
C         0.383828  -12.811881    6.816055
O         0.535990  -12.078626    5.852332
C         1.389210  -13.698913    7.373474
C         2.712304  -13.531323    7.044587
S         3.758906  -11.749527    8.587060
C         2.130816  -11.205920    9.112158
C         1.846387  -11.184235   10.621436
H         0.753608  -11.202877   10.748581
N         2.318312   -9.994285   11.282846
C         1.630814   -8.851598   11.216650
C         2.197925   -7.663855   11.958800
O         0.571166   -8.753103   10.586649
C         2.373024  -12.398798   11.380919
N         1.921553  -13.576578   10.890739
C         2.408302  -14.840593   11.377101
O         3.067266  -12.286872   12.377536
C        -1.364938  -12.070097    9.723560
C        -1.651779  -12.335356   11.081707
C        -1.725546  -13.684787   11.512485
N        -2.077399  -14.025071   12.787329
C        -2.375814  -13.032423   13.574989
N        -2.316663  -11.713847   13.299652
C        -1.916827  -11.341790   12.099642
N        -1.763943  -10.009148   11.818455
C        -2.207552   -8.903486   12.559641
C        -3.098754   -8.988131   13.639847
C        -3.533326   -7.827118   14.273211
Cl        -4.643031   -7.936054   15.614935
C        -3.091430   -6.575664   13.859624
F        -3.509214   -5.469455   14.477950
C        -2.203102   -6.483831   12.796536
C        -1.765079   -7.631587   12.149924
H        -2.663961  -19.051704    6.376470
H        -2.361320  -14.872946    7.017520
H        -0.739157  -15.273745    6.417541
H        -1.557199  -15.749755   10.908637
H        -1.400835  -11.970916    7.098440
H         1.094421  -14.440686    8.118263
H         2.972813  -12.889330    6.204260
H         3.458504  -14.254347    7.370914
H         1.395526  -11.905341    8.667238
H         1.867276  -10.215219    8.712508
H         3.134733  -10.108445   11.875085
H         3.148096   -7.882463   12.463472
H         1.457680   -7.327698   12.699524
H         2.348493   -6.845127   11.241479
H         1.552797  -13.554032    9.945097
H         1.623595  -15.605318   11.280674
H         2.674059  -14.729210   12.435933
H         3.305998  -15.172829   10.828140
H        -1.287820  -11.040316    9.366117
H        -2.703035  -13.280313   14.592272
H        -1.088963   -9.763893   11.088787
H        -3.429434   -9.958882   13.997352
H        -1.858619   -5.497232   12.481840
H        -1.048296   -7.562447   11.329159
