-1 1
 OpenBabel05232413493D

 67 69  0  0  1  0  0  0  0  0999 V2000
    3.8909    2.0609    1.2934 O   0  0  0  0  0  0  0  0  0  0  0  0
    3.0889    1.8759    0.3937 C   0  0  0  0  0  0  0  0  0  0  0  0
    2.5688    0.5989    0.2436 N   0  0  0  0  0  0  0  0  0  0  0  0
    1.4515    0.0532   -0.4123 C   0  0  0  0  0  0  0  0  0  0  0  0
    1.4656   -1.3312   -0.6407 C   0  0  0  0  0  0  0  0  0  0  0  0
    0.3738   -1.9418   -1.2403 C   0  0  0  0  0  0  0  0  0  0  0  0
    0.4311   -3.3081   -1.5098 O   0  0  0  0  0  0  0  0  0  0  0  0
    0.0838   -4.1853   -0.5694 C   0  0  0  0  0  0  0  0  0  0  0  0
   -0.3179   -3.7830    0.6120 N   0  0  0  0  0  0  0  0  0  0  0  0
   -0.6606   -4.7106    1.5350 C   0  0  0  0  0  0  0  0  0  0  0  0
   -1.0638   -4.1685    2.7253 N   0  0  0  0  0  0  0  0  0  0  0  0
   -1.4799   -4.8088    3.8800 C   0  0  0  0  0  0  0  0  0  0  0  0
   -1.8278   -4.0566    4.9175 N   0  0  0  0  0  0  0  0  0  0  0  0
   -2.1795   -4.9220    5.8764 N   0  0  0  0  0  0  0  0  0  0  0  0
   -2.6165   -4.4225    7.1540 C   0  0  0  0  0  0  0  0  0  0  0  0
   -2.0632   -6.2067    5.4731 C   0  0  0  0  0  0  0  0  0  0  0  0
   -1.6075   -6.1911    4.1695 C   0  0  0  0  0  0  0  0  0  0  0  0
   -0.6362   -6.0279    1.3833 N   0  0  0  0  0  0  0  0  0  0  0  0
    0.1618   -5.5590   -0.8828 C   0  0  0  0  0  0  0  0  0  0  0  0
   -0.2225   -6.4065    0.1695 C   0  0  0  0  0  0  0  0  0  0  0  0
   -0.0965   -7.6889   -0.2735 N   0  0  0  0  0  0  0  0  0  0  0  0
   -0.3087   -8.5044    0.2822 H   0  0  0  0  0  0  0  0  0  0  0  0
    0.3587   -7.6775   -1.5832 C   0  0  0  0  0  0  0  0  0  0  0  0
    0.5304   -6.3851   -1.9957 C   0  0  0  0  0  0  0  0  0  0  0  0
   -0.7358   -1.2167   -1.6525 C   0  0  0  0  0  0  0  0  0  0  0  0
   -0.7369    0.1600   -1.4341 C   0  0  0  0  0  0  0  0  0  0  0  0
    0.3304    0.7935   -0.8058 C   0  0  0  0  0  0  0  0  0  0  0  0
    2.7531    2.9755   -0.5460 C   0  0  0  0  0  0  0  0  0  0  0  0
    2.4579    2.8662   -1.8432 C   0  0  0  0  0  0  0  0  0  0  0  0
   -1.1320    3.6539   -2.4885 S   0  0  0  0  0  1  0  0  0  0  0  0
   -0.5494    4.9268   -1.3111 C   0  0  0  0  0  0  0  0  0  0  0  0
   -0.1392    6.2653   -1.9664 C   0  0  2  0  0  0  0  0  0  0  0  0
    0.4999    6.0203   -2.8325 H   0  0  0  0  0  0  0  0  0  0  0  0
    0.5878    7.1313   -1.0629 N   0  0  0  0  0  0  0  0  0  0  0  0
    1.8936    6.9891   -0.7687 C   0  0  0  0  0  0  0  0  0  0  0  0
    2.4655    8.0419    0.1678 C   0  0  0  0  0  0  0  0  0  0  0  0
    2.5932    6.0768   -1.1847 O   0  0  0  0  0  0  0  0  0  0  0  0
   -1.3418    7.0934   -2.4499 C   0  0  0  0  0  0  0  0  0  0  0  0
   -2.1571    6.4545   -3.3028 N   0  0  0  0  0  0  0  0  0  0  0  0
   -3.3927    7.0307   -3.7572 C   0  0  0  0  0  0  0  0  0  0  0  0
   -1.5117    8.2486   -2.0603 O   0  0  0  0  0  0  0  0  0  0  0  0
    3.0415   -0.0360    0.8781 H   0  0  0  0  0  0  0  0  0  0  0  0
    2.3282   -1.9359   -0.3536 H   0  0  0  0  0  0  0  0  0  0  0  0
   -1.0577   -3.1560    2.7538 H   0  0  0  0  0  0  0  0  0  0  0  0
   -1.8218   -3.8245    7.6230 H   0  0  0  0  0  0  0  0  0  0  0  0
   -2.8618   -5.2708    7.8054 H   0  0  0  0  0  0  0  0  0  0  0  0
   -3.5079   -3.7903    7.0326 H   0  0  0  0  0  0  0  0  0  0  0  0
   -2.3102   -7.0350    6.1339 H   0  0  0  0  0  0  0  0  0  0  0  0
   -1.3914   -7.0176    3.5050 H   0  0  0  0  0  0  0  0  0  0  0  0
    0.5238   -8.6093   -2.1185 H   0  0  0  0  0  0  0  0  0  0  0  0
    0.8761   -6.0552   -2.9714 H   0  0  0  0  0  0  0  0  0  0  0  0
   -1.5699   -1.7259   -2.1372 H   0  0  0  0  0  0  0  0  0  0  0  0
   -1.5690    0.7897   -1.7586 H   0  0  0  0  0  0  0  0  0  0  0  0
    0.2725    1.8732   -0.6723 H   0  0  0  0  0  0  0  0  0  0  0  0
    2.8961    3.9735   -0.1236 H   0  0  0  0  0  0  0  0  0  0  0  0
    2.3327    1.9058   -2.3493 H   0  0  0  0  0  0  0  0  0  0  0  0
    2.3103    3.7752   -2.4301 H   0  0  0  0  0  0  0  0  0  0  0  0
    0.3461    4.5592   -0.7865 H   0  0  0  0  0  0  0  0  0  0  0  0
   -1.3117    5.1390   -0.5407 H   0  0  0  0  0  0  0  0  0  0  0  0
    0.0862    7.9882   -0.8409 H   0  0  0  0  0  0  0  0  0  0  0  0
    3.4258    8.3878   -0.2380 H   0  0  0  0  0  0  0  0  0  0  0  0
    2.6696    7.5689    1.1398 H   0  0  0  0  0  0  0  0  0  0  0  0
    1.7978    8.9009    0.3234 H   0  0  0  0  0  0  0  0  0  0  0  0
   -2.0005    5.4259   -3.3744 H   0  0  0  0  0  0  0  0  0  0  0  0
   -3.3784    8.1091   -3.5509 H   0  0  0  0  0  0  0  0  0  0  0  0
   -4.2631    6.5889   -3.2419 H   0  0  0  0  0  0  0  0  0  0  0  0
   -3.5215    6.8725   -4.8398 H   0  0  0  0  0  0  0  0  0  0  0  0
  2  1  2  0  0  0  0
  3  2  1  0  0  0  0
  3 42  1  0  0  0  0
  4  3  1  0  0  0  0
  5  4  1  0  0  0  0
  5 43  1  0  0  0  0
  6  5  2  0  0  0  0
  7  6  1  0  0  0  0
  7  8  1  0  0  0  0
  8  9  2  0  0  0  0
  9 10  1  0  0  0  0
 10 11  1  0  0  0  0
 11 44  1  0  0  0  0
 11 12  1  0  0  0  0
 12 17  1  0  0  0  0
 12 13  2  0  0  0  0
 13 14  1  0  0  0  0
 14 15  1  0  0  0  0
 15 45  1  0  0  0  0
 15 46  1  0  0  0  0
 16 14  1  0  0  0  0
 16 48  1  0  0  0  0
 17 16  2  0  0  0  0
 18 10  2  0  0  0  0
 19  8  1  0  0  0  0
 19 20  2  0  0  0  0
 20 18  1  0  0  0  0
 21 20  1  0  0  0  0
 21 22  1  0  0  0  0
 23 21  1  0  0  0  0
 24 23  2  0  0  0  0
 24 19  1  0  0  0  0
 25 26  2  0  0  0  0
 25  6  1  0  0  0  0
 26 27  1  0  0  0  0
 27 54  1  0  0  0  0
 27  4  2  0  0  0  0
 28 55  1  0  0  0  0
 28  2  1  0  0  0  0
 29 28  2  0  0  0  0
 30 31  1  0  0  0  0
 31 58  1  0  0  0  0
 31 59  1  0  0  0  0
 32 33  1  6  0  0  0
 32 31  1  0  0  0  0
 32 34  1  0  0  0  0
 34 60  1  0  0  0  0
 34 35  1  0  0  0  0
 35 36  1  0  0  0  0
 36 63  1  0  0  0  0
 36 62  1  0  0  0  0
 37 35  2  0  0  0  0
 38 41  2  0  0  0  0
 38 32  1  0  0  0  0
 39 38  1  0  0  0  0
 40 65  1  0  0  0  0
 40 39  1  0  0  0  0
 40 66  1  0  0  0  0
 47 15  1  0  0  0  0
 49 17  1  0  0  0  0
 50 23  1  0  0  0  0
 51 24  1  0  0  0  0
 52 25  1  0  0  0  0
 53 26  1  0  0  0  0
 56 29  1  0  0  0  0
 57 29  1  0  0  0  0
 61 36  1  0  0  0  0
 64 39  1  0  0  0  0
 67 40  1  0  0  0  0
M  END
