67
-1 1
O         3.890924    2.060903    1.293425
C         3.088888    1.875945    0.393673
N         2.568839    0.598932    0.243604
C         1.451460    0.053215   -0.412262
C         1.465554   -1.331162   -0.640701
C         0.373752   -1.941771   -1.240252
O         0.431060   -3.308102   -1.509848
C         0.083849   -4.185342   -0.569413
N        -0.317879   -3.782958    0.611997
C        -0.660554   -4.710619    1.534976
N        -1.063812   -4.168462    2.725273
C        -1.479941   -4.808817    3.879978
N        -1.827789   -4.056644    4.917476
N        -2.179484   -4.921985    5.876373
C        -2.616461   -4.422456    7.153970
C        -2.063232   -6.206708    5.473126
C        -1.607491   -6.191095    4.169536
N        -0.636228   -6.027909    1.383307
C         0.161824   -5.558988   -0.882765
C        -0.222504   -6.406505    0.169540
N        -0.096492   -7.688898   -0.273512
H        -0.308696   -8.504356    0.282225
C         0.358711   -7.677461   -1.583217
C         0.530415   -6.385069   -1.995735
C        -0.735843   -1.216686   -1.652455
C        -0.736889    0.159970   -1.434149
C         0.330371    0.793510   -0.805817
C         2.753082    2.975485   -0.545977
C         2.457944    2.866216   -1.843198
S        -1.132008    3.653939   -2.488458
C        -0.549398    4.926765   -1.311068
C        -0.139222    6.265273   -1.966413
H         0.499913    6.020304   -2.832452
N         0.587814    7.131268   -1.062930
C         1.893614    6.989108   -0.768666
C         2.465483    8.041920    0.167768
O         2.593220    6.076795   -1.184720
C        -1.341756    7.093437   -2.449949
N        -2.157130    6.454451   -3.302815
C        -3.392656    7.030681   -3.757171
O        -1.511747    8.248559   -2.060306
H         3.041491   -0.036018    0.878132
H         2.328185   -1.935945   -0.353559
H        -1.057750   -3.156033    2.753830
H        -1.821755   -3.824547    7.622972
H        -2.861791   -5.270801    7.805386
H        -3.507863   -3.790264    7.032647
H        -2.310175   -7.034979    6.133851
H        -1.391368   -7.017628    3.504955
H         0.523814   -8.609282   -2.118465
H         0.876094   -6.055190   -2.971358
H        -1.569889   -1.725855   -2.137192
H        -1.569034    0.789719   -1.758603
H         0.272505    1.873179   -0.672287
H         2.896098    3.973489   -0.123582
H         2.332728    1.905840   -2.349304
H         2.310257    3.775154   -2.430130
H         0.346086    4.559209   -0.786506
H        -1.311719    5.139031   -0.540665
H         0.086205    7.988191   -0.840896
H         3.425771    8.387750   -0.238049
H         2.669612    7.568896    1.139796
H         1.797813    8.900878    0.323365
H        -2.000454    5.425898   -3.374446
H        -3.378420    8.109106   -3.550876
H        -4.263127    6.588880   -3.241922
H        -3.521507    6.872481   -4.839762
