67
-1 1
O         3.348590    2.067636    1.062076
C         2.830844    2.081354   -0.056914
N         2.531874    0.757191   -0.624737
C         1.272703    0.210367   -0.744945
C         1.139714   -1.168279   -1.016915
C        -0.116427   -1.734057   -1.157609
O        -0.192210   -3.088319   -1.498569
C        -0.403410   -4.002699   -0.558671
N        -0.523124   -3.665942    0.703578
C        -0.734766   -4.635446    1.620962
N        -0.842120   -4.156961    2.900115
C        -1.053038   -4.853233    4.076892
N        -1.125697   -4.160877    5.207897
N        -1.327870   -5.073591    6.166512
C        -1.448454   -4.645413    7.535337
C        -1.386384   -6.330123    5.671840
C        -1.212641   -6.244298    4.304693
N        -0.841421   -5.937995    1.393018
C        -0.492715   -5.355069   -0.958259
C        -0.714505   -6.251542    0.099094
N        -0.777350   -7.504393   -0.434446
H        -0.927027   -8.343664    0.105729
C        -0.599906   -7.425738   -1.807543
C        -0.421811   -6.118969   -2.169850
C        -1.285559   -0.992248   -1.047563
C        -1.152762    0.369326   -0.769313
C         0.090675    0.966655   -0.614496
C         2.583080    3.195846   -0.879344
C         2.304136    3.145094   -2.300424
S         0.431091    3.532043   -2.899807
C        -0.095521    4.604541   -1.546289
C         0.093123    6.120281   -1.772241
H         1.121330    6.279871   -2.134067
N        -0.066005    6.864207   -0.547399
C         0.992750    7.281238    0.196232
C         0.626401    8.097887    1.423451
O         2.146823    6.999322   -0.061889
C        -0.909937    6.692633   -2.783570
N        -0.758569    6.242125   -4.048339
C        -1.696250    6.555001   -5.094843
O        -1.776174    7.487234   -2.441765
H         3.207759    0.097319   -0.253118
H         2.024925   -1.797777   -1.129831
H        -0.741086   -3.152543    2.985002
H        -0.532312   -4.129230    7.856962
H        -1.610236   -5.523981    8.172807
H        -2.298079   -3.956327    7.647315
H        -1.545167   -7.189659    6.319658
H        -1.195999   -7.030251    3.560727
H        -0.615747   -8.324757   -2.418815
H        -0.258627   -5.739657   -3.174717
H        -2.257685   -1.470721   -1.170685
H        -2.049067    0.986853   -0.670180
H         0.172074    2.029198   -0.393730
H         2.843234    4.159908   -0.434642
H         2.438848    2.149403   -2.743321
H         2.852307    3.896622   -2.882635
H         0.532391    4.311703   -0.682069
H        -1.145718    4.388836   -1.294505
H        -0.972985    7.305020   -0.436720
H         1.386507    8.876158    1.568111
H         0.652856    7.435324    2.301549
H        -0.370822    8.556196    1.359496
H        -0.127948    5.443239   -4.162207
H        -2.325013    7.388277   -4.756299
H        -2.348691    5.697115   -5.329431
H        -1.171050    6.852938   -6.015652
