-1 1
 OpenBabel05192410563D

 67 70  0  0  1  0  0  0  0  0999 V2000
    3.3486    2.0676    1.0621 O   0  0  0  0  0  0  0  0  0  0  0  0
    2.8308    2.0814   -0.0569 C   0  0  0  0  0  0  0  0  0  0  0  0
    2.5319    0.7572   -0.6247 N   0  0  0  0  0  0  0  0  0  0  0  0
    1.2727    0.2104   -0.7449 C   0  0  0  0  0  0  0  0  0  0  0  0
    1.1397   -1.1683   -1.0169 C   0  0  0  0  0  0  0  0  0  0  0  0
   -0.1164   -1.7341   -1.1576 C   0  0  0  0  0  0  0  0  0  0  0  0
   -0.1922   -3.0883   -1.4986 O   0  0  0  0  0  0  0  0  0  0  0  0
   -0.4034   -4.0027   -0.5587 C   0  0  0  0  0  0  0  0  0  0  0  0
   -0.5231   -3.6659    0.7036 N   0  0  0  0  0  0  0  0  0  0  0  0
   -0.7348   -4.6354    1.6210 C   0  0  0  0  0  0  0  0  0  0  0  0
   -0.8421   -4.1570    2.9001 N   0  0  0  0  0  0  0  0  0  0  0  0
   -1.0530   -4.8532    4.0769 C   0  0  0  0  0  0  0  0  0  0  0  0
   -1.1257   -4.1609    5.2079 N   0  0  0  0  0  0  0  0  0  0  0  0
   -1.3279   -5.0736    6.1665 N   0  0  0  0  0  0  0  0  0  0  0  0
   -1.4485   -4.6454    7.5353 C   0  0  0  0  0  0  0  0  0  0  0  0
   -1.3864   -6.3301    5.6718 C   0  0  0  0  0  0  0  0  0  0  0  0
   -1.2126   -6.2443    4.3047 C   0  0  0  0  0  0  0  0  0  0  0  0
   -0.8414   -5.9380    1.3930 N   0  0  0  0  0  0  0  0  0  0  0  0
   -0.4927   -5.3551   -0.9583 C   0  0  0  0  0  0  0  0  0  0  0  0
   -0.7145   -6.2515    0.0991 C   0  0  0  0  0  0  0  0  0  0  0  0
   -0.7773   -7.5044   -0.4344 N   0  0  0  0  0  0  0  0  0  0  0  0
   -0.9270   -8.3437    0.1057 H   0  0  0  0  0  0  0  0  0  0  0  0
   -0.5999   -7.4257   -1.8075 C   0  0  0  0  0  0  0  0  0  0  0  0
   -0.4218   -6.1190   -2.1698 C   0  0  0  0  0  0  0  0  0  0  0  0
   -1.2856   -0.9922   -1.0476 C   0  0  0  0  0  0  0  0  0  0  0  0
   -1.1528    0.3693   -0.7693 C   0  0  0  0  0  0  0  0  0  0  0  0
    0.0907    0.9667   -0.6145 C   0  0  0  0  0  0  0  0  0  0  0  0
    2.5831    3.1958   -0.8793 C   0  0  0  0  0  3  0  0  0  0  0  0
    2.3041    3.1451   -2.3004 C   0  0  0  0  0  0  0  0  0  0  0  0
    0.4311    3.5320   -2.8998 S   0  0  0  0  0  0  0  0  0  0  0  0
   -0.0955    4.6045   -1.5463 C   0  0  0  0  0  0  0  0  0  0  0  0
    0.0931    6.1203   -1.7722 C   0  0  2  0  0  0  0  0  0  0  0  0
    1.1213    6.2799   -2.1341 H   0  0  0  0  0  0  0  0  0  0  0  0
   -0.0660    6.8642   -0.5474 N   0  0  0  0  0  0  0  0  0  0  0  0
    0.9928    7.2812    0.1962 C   0  0  0  0  0  0  0  0  0  0  0  0
    0.6264    8.0979    1.4235 C   0  0  0  0  0  0  0  0  0  0  0  0
    2.1468    6.9993   -0.0619 O   0  0  0  0  0  0  0  0  0  0  0  0
   -0.9099    6.6926   -2.7836 C   0  0  0  0  0  0  0  0  0  0  0  0
   -0.7586    6.2421   -4.0483 N   0  0  0  0  0  0  0  0  0  0  0  0
   -1.6963    6.5550   -5.0948 C   0  0  0  0  0  0  0  0  0  0  0  0
   -1.7762    7.4872   -2.4418 O   0  0  0  0  0  0  0  0  0  0  0  0
    3.2078    0.0973   -0.2531 H   0  0  0  0  0  0  0  0  0  0  0  0
    2.0249   -1.7978   -1.1298 H   0  0  0  0  0  0  0  0  0  0  0  0
   -0.7411   -3.1525    2.9850 H   0  0  0  0  0  0  0  0  0  0  0  0
   -0.5323   -4.1292    7.8570 H   0  0  0  0  0  0  0  0  0  0  0  0
   -1.6102   -5.5240    8.1728 H   0  0  0  0  0  0  0  0  0  0  0  0
   -2.2981   -3.9563    7.6473 H   0  0  0  0  0  0  0  0  0  0  0  0
   -1.5452   -7.1897    6.3197 H   0  0  0  0  0  0  0  0  0  0  0  0
   -1.1960   -7.0303    3.5607 H   0  0  0  0  0  0  0  0  0  0  0  0
   -0.6157   -8.3248   -2.4188 H   0  0  0  0  0  0  0  0  0  0  0  0
   -0.2586   -5.7397   -3.1747 H   0  0  0  0  0  0  0  0  0  0  0  0
   -2.2577   -1.4707   -1.1707 H   0  0  0  0  0  0  0  0  0  0  0  0
   -2.0491    0.9869   -0.6702 H   0  0  0  0  0  0  0  0  0  0  0  0
    0.1721    2.0292   -0.3937 H   0  0  0  0  0  0  0  0  0  0  0  0
    2.8432    4.1599   -0.4346 H   0  0  0  0  0  0  0  0  0  0  0  0
    2.4388    2.1494   -2.7433 H   0  0  0  0  0  0  0  0  0  0  0  0
    2.8523    3.8966   -2.8826 H   0  0  0  0  0  0  0  0  0  0  0  0
    0.5324    4.3117   -0.6821 H   0  0  0  0  0  0  0  0  0  0  0  0
   -1.1457    4.3888   -1.2945 H   0  0  0  0  0  0  0  0  0  0  0  0
   -0.9730    7.3050   -0.4367 H   0  0  0  0  0  0  0  0  0  0  0  0
    1.3865    8.8762    1.5681 H   0  0  0  0  0  0  0  0  0  0  0  0
    0.6529    7.4353    2.3015 H   0  0  0  0  0  0  0  0  0  0  0  0
   -0.3708    8.5562    1.3595 H   0  0  0  0  0  0  0  0  0  0  0  0
   -0.1279    5.4432   -4.1622 H   0  0  0  0  0  0  0  0  0  0  0  0
   -2.3250    7.3883   -4.7563 H   0  0  0  0  0  0  0  0  0  0  0  0
   -2.3487    5.6971   -5.3294 H   0  0  0  0  0  0  0  0  0  0  0  0
   -1.1710    6.8529   -6.0157 H   0  0  0  0  0  0  0  0  0  0  0  0
  2  1  2  0  0  0  0
  3 42  1  0  0  0  0
  3  2  1  0  0  0  0
  4  3  1  0  0  0  0
  4 27  1  0  0  0  0
  5  4  2  0  0  0  0
  6 25  2  0  0  0  0
  6  5  1  0  0  0  0
  7  6  1  0  0  0  0
  7  8  1  0  0  0  0
  8  9  2  0  0  0  0
  9 10  1  0  0  0  0
 10 11  1  0  0  0  0
 11 44  1  0  0  0  0
 11 12  1  0  0  0  0
 12 17  1  0  0  0  0
 12 13  2  0  0  0  0
 13 14  1  0  0  0  0
 14 15  1  0  0  0  0
 15 47  1  0  0  0  0
 15 45  1  0  0  0  0
 15 46  1  0  0  0  0
 16 14  1  0  0  0  0
 16 48  1  0  0  0  0
 17 16  2  0  0  0  0
 18 10  2  0  0  0  0
 19  8  1  0  0  0  0
 19 20  2  0  0  0  0
 20 18  1  0  0  0  0
 21 20  1  0  0  0  0
 21 22  1  0  0  0  0
 23 21  1  0  0  0  0
 24 23  2  0  0  0  0
 24 19  1  0  0  0  0
 25 26  1  0  0  0  0
 26 53  1  0  0  0  0
 26 27  2  0  0  0  0
 27 54  1  0  0  0  0
 28 55  1  0  0  0  0
 28  2  1  0  0  0  0
 29 28  1  0  0  0  0
 30 29  1  0  0  0  0
 30 31  1  0  0  0  0
 31 59  1  0  0  0  0
 31 58  1  0  0  0  0
 32 33  1  6  0  0  0
 32 31  1  0  0  0  0
 32 34  1  0  0  0  0
 34 60  1  0  0  0  0
 34 35  1  0  0  0  0
 35 36  1  0  0  0  0
 36 61  1  0  0  0  0
 36 62  1  0  0  0  0
 37 35  2  0  0  0  0
 38 41  2  0  0  0  0
 38 32  1  0  0  0  0
 39 38  1  0  0  0  0
 40 65  1  0  0  0  0
 40 39  1  0  0  0  0
 43  5  1  0  0  0  0
 49 17  1  0  0  0  0
 50 23  1  0  0  0  0
 51 24  1  0  0  0  0
 52 25  1  0  0  0  0
 56 29  1  0  0  0  0
 57 29  1  0  0  0  0
 63 36  1  0  0  0  0
 64 39  1  0  0  0  0
 66 40  1  0  0  0  0
 67 40  1  0  0  0  0
M  END
