67
-1 1
O         3.522751   -7.730887   -4.362522
C         3.151352   -8.878010   -4.094447
N         2.498625   -9.005814   -2.832594
C         1.668209   -9.955011   -2.272914
C         1.731054  -10.168409   -0.884071
C         0.884565  -11.094257   -0.290317
O         0.984281  -11.316250    1.072959
C         2.024347  -12.015691    1.549810
N         2.168481  -11.941304    2.859654
C         3.181197  -12.597554    3.440711
N         3.305377  -12.498229    4.802553
C         2.525427  -11.758201    5.682230
C         1.435596  -10.936350    5.445921
N         1.044924  -10.470489    6.665175
C         0.005419   -9.506644    6.923392
N         1.801105  -10.918416    7.659578
C         2.702593  -11.705895    7.086676
N         4.097772  -13.349255    2.832154
C         2.896145  -12.794384    0.762551
C         3.916925  -13.423449    1.515507
N         4.699594  -14.120142    0.645087
H         5.511261  -14.654821    0.917631
C         4.208382  -13.963260   -0.644337
C         3.106405  -13.162784   -0.617232
C        -0.053000  -11.815672   -1.020945
C        -0.109052  -11.601541   -2.399542
C         0.732211  -10.689026   -3.025778
C         3.412002  -10.011767   -4.938871
C         3.442419  -11.385547   -4.642001
S         5.337693  -12.135089   -3.589350
C         5.076329  -10.817047   -2.393546
C         6.183061  -10.359104   -1.447760
H         7.120502  -10.173132   -1.995654
N         6.429152  -11.319958   -0.407606
C         7.438578  -11.157414    0.485255
C         7.472239  -12.184221    1.604245
O         8.274445  -10.278339    0.378416
C         5.643705   -9.034641   -0.873236
N         5.859502   -7.959966   -1.674422
C         5.135978   -6.718746   -1.535933
O         4.978445   -8.993765    0.148012
H         2.793073   -8.265256   -2.207360
H         2.491116   -9.658639   -0.284421
H         4.096550  -12.998242    5.182399
H         0.941795  -10.676305    4.516303
H         0.409054   -8.482703    6.960945
H        -0.462687   -9.741515    7.887479
H        -0.749102   -9.563470    6.128276
H         3.451265  -12.219085    7.689812
H         4.722582  -14.379908   -1.506850
H         2.543843  -12.850924   -1.491259
H        -0.694775  -12.539235   -0.517468
H        -0.830374  -12.159992   -3.001126
H         0.685745  -10.529853   -4.103735
H         3.887654   -9.692479   -5.870375
H         3.547762  -12.064898   -5.491092
H         2.809935  -11.794693   -3.853144
H         4.197345  -11.042380   -1.767081
H         4.815779   -9.941265   -2.999588
H         5.681842  -11.971152   -0.202729
H         7.693645  -13.181303    1.192401
H         6.509227  -12.238751    2.134612
H         8.264807  -11.906469    2.308618
H         6.318288   -8.129893   -2.560389
H         5.821467   -5.861337   -1.440566
H         4.536104   -6.784292   -0.618541
H         4.478571   -6.564912   -2.408317
