67
-1 1
O        -0.055637    3.638677   -2.235621
C        -0.514321    2.546349   -2.660867
N        -1.643524    2.093239   -1.881125
C        -2.388134    0.923329   -1.941155
C        -2.420660    0.082592   -0.819831
C        -3.102316   -1.129076   -0.859097
O        -2.999055   -2.020192    0.204146
C        -1.714624   -2.175548    0.630091
N        -1.307441   -1.425052    1.630399
C         0.008360   -1.381414    1.917379
N         0.432290   -0.459230    2.829081
C        -0.351544    0.557330    3.376971
C        -1.724280    0.734273    3.425913
N        -1.930256    1.896371    4.106658
C        -3.190513    2.562180    4.311773
N        -0.797375    2.483176    4.482858
C         0.171065    1.685019    4.057146
N         0.958529   -2.119642    1.328711
C        -0.841415   -3.020139   -0.057273
C         0.503584   -2.915775    0.364673
N         1.254832   -3.685107   -0.467993
H         2.264020   -3.646950   -0.509466
C         0.428315   -4.247544   -1.430170
C        -0.865332   -3.880379   -1.208087
C        -3.838556   -1.503205   -1.978985
C        -3.847049   -0.639816   -3.078842
C        -3.129559    0.551850   -3.076772
C         0.033459    1.800939   -3.711773
C        -0.004168    0.355456   -3.964660
S         1.295939   -0.697051   -2.973382
C         1.088708    0.077561   -1.356744
C         2.367462    0.553353   -0.667641
H         3.013980    1.060601   -1.399308
N         3.102531   -0.552057   -0.108915
C         4.450768   -0.520458    0.056412
C         5.004540   -1.670922    0.884045
O         5.181559    0.316608   -0.436951
C         2.018549    1.566851    0.448263
N         1.389776    2.683701    0.050566
C         0.932638    3.674763    0.994831
O         2.285841    1.335135    1.626924
H        -1.546307    2.479287   -0.948690
H        -1.843684    0.351903    0.064950
H         1.407932   -0.188547    2.696445
H        -2.532307    0.133869    3.024477
H        -3.394543    3.291314    3.511742
H        -3.158848    3.089129    5.273730
H        -3.998165    1.818666    4.330280
H         1.218716    1.937838    4.208318
H         0.850525   -4.862650   -2.220253
H        -1.730669   -4.156334   -1.803085
H        -4.362659   -2.459873   -1.988716
H        -4.416081   -0.918452   -3.969521
H        -3.105844    1.201702   -3.952667
H         0.866165    2.336499   -4.178421
H         0.292495    0.105179   -4.993730
H        -0.950883   -0.150255   -3.755061
H         0.516896   -0.572966   -0.682965
H         0.468407    0.955301   -1.556023
H         2.562190   -1.145764    0.520577
H         5.614627   -2.314795    0.233223
H         4.223256   -2.273923    1.369132
H         5.669781   -1.255019    1.652955
H         1.147395    2.882137   -0.931895
H         1.773542    4.186663    1.490936
H         0.310996    3.221661    1.782838
H         0.338862    4.407935    0.434114
