-1 1
 OpenBabel05232414493D

 74 76  0  0  1  0  0  0  0  0999 V2000
    6.9128    6.3116    6.3510 O   0  0  0  0  0  0  0  0  0  0  0  0
    6.8688    6.0217    7.5721 C   0  0  0  0  0  0  0  0  0  0  0  0
    5.6393    6.1536    8.1951 N   0  0  0  0  0  0  0  0  0  0  0  0
    4.4955    6.6446    7.4329 C   0  0  0  0  0  0  0  0  0  0  0  0
    3.6485    7.3685    8.4771 C   0  0  1  0  0  0  0  0  0  0  0  0
    2.5874    7.3804    8.1837 H   0  0  0  0  0  0  0  0  0  0  0  0
    3.8726    6.5076    9.7303 C   0  0  2  0  0  0  0  0  0  0  0  0
    3.6932    7.0896   10.6475 H   0  0  0  0  0  0  0  0  0  0  0  0
    5.3468    6.0699    9.6258 C   0  0  0  0  0  0  0  0  0  0  0  0
    2.9925    5.2571    9.7412 C   0  0  0  0  0  0  0  0  0  0  0  0
    1.6140    5.5997    9.5625 O   0  0  0  0  0  0  0  0  0  0  0  0
    0.9827    5.2462    8.4537 C   0  0  0  0  0  0  0  0  0  0  0  0
    1.5452    4.4705    7.5581 N   0  0  0  0  0  0  0  0  0  0  0  0
    0.8598    4.1342    6.4340 C   0  0  0  0  0  0  0  0  0  0  0  0
    1.5378    3.3161    5.5927 N   0  0  0  0  0  0  0  0  0  0  0  0
    1.1412    2.8502    4.3431 C   0  0  0  0  0  0  0  0  0  0  0  0
    1.9438    2.0714    3.5250 C   0  0  0  0  0  0  0  0  0  0  0  0
    1.2133    1.8125    2.4096 N   0  0  0  0  0  0  0  0  0  0  0  0
    1.6510    1.1102    1.2313 C   0  0  0  0  0  0  0  0  0  0  0  0
    0.0094    2.3758    2.4421 N   0  0  0  0  0  0  0  0  0  0  0  0
   -0.0610    3.0083    3.6094 C   0  0  0  0  0  0  0  0  0  0  0  0
   -0.3692    4.5366    6.1190 N   0  0  0  0  0  0  0  0  0  0  0  0
   -0.3314    5.7362    8.2512 C   0  0  0  0  0  0  0  0  0  0  0  0
   -0.9192    5.3276    7.0409 C   0  0  0  0  0  0  0  0  0  0  0  0
   -2.1600    5.8870    6.9676 N   0  0  0  0  0  0  0  0  0  0  0  0
   -2.7938    5.7526    6.1933 H   0  0  0  0  0  0  0  0  0  0  0  0
   -2.3936    6.6525    8.0979 C   0  0  0  0  0  0  0  0  0  0  0  0
   -1.2898    6.5804    8.9019 C   0  0  0  0  0  0  0  0  0  0  0  0
   -1.1150    7.3803   10.4245 Cl  0  0  0  0  0  0  0  0  0  0  0  0
    4.0598    8.8309    8.6598 C   0  0  0  0  0  0  0  0  0  0  0  0
    5.3849    9.0305    9.0766 O   0  0  0  0  0  0  0  0  0  0  0  0
    8.0453    5.5806    8.2765 C   0  0  0  0  0  3  0  0  0  0  0  0
    8.1622    4.7301    9.3706 C   0  0  0  0  0  3  0  0  0  0  0  0
    8.2051    2.4221    8.7349 S   0  0  0  0  0  1  0  0  0  0  0  0
    7.2841    2.7137    7.2137 C   0  0  0  0  0  0  0  0  0  0  0  0
    5.7602    2.8968    7.4122 C   0  0  2  0  0  0  0  0  0  0  0  0
    5.5980    3.7990    8.0163 H   0  0  0  0  0  0  0  0  0  0  0  0
    5.1570    1.8048    8.1254 N   0  0  0  0  0  0  0  0  0  0  0  0
    4.8414    1.8431    9.4396 C   0  0  0  0  0  0  0  0  0  0  0  0
    4.4940    0.4978   10.0456 C   0  0  0  0  0  0  0  0  0  0  0  0
    4.8417    2.8596   10.1161 O   0  0  0  0  0  0  0  0  0  0  0  0
    5.0440    3.0810    6.0742 C   0  0  0  0  0  0  0  0  0  0  0  0
    5.3737    4.1633    5.3590 N   0  0  0  0  0  0  0  0  0  0  0  0
    4.7282    4.4498    4.1019 C   0  0  0  0  0  0  0  0  0  0  0  0
    4.2126    2.2559    5.6739 O   0  0  0  0  0  0  0  0  0  0  0  0
    3.9281    5.8148    6.9746 H   0  0  0  0  0  0  0  0  0  0  0  0
    4.8445    7.2899    6.6145 H   0  0  0  0  0  0  0  0  0  0  0  0
    5.4607    5.0435   10.0035 H   0  0  0  0  0  0  0  0  0  0  0  0
    6.0140    6.7383   10.1921 H   0  0  0  0  0  0  0  0  0  0  0  0
    3.2967    4.5494    8.9625 H   0  0  0  0  0  0  0  0  0  0  0  0
    3.0720    4.7356   10.7030 H   0  0  0  0  0  0  0  0  0  0  0  0
    2.4627    3.0004    5.8963 H   0  0  0  0  0  0  0  0  0  0  0  0
    2.9558    1.7097    3.6936 H   0  0  0  0  0  0  0  0  0  0  0  0
    2.4537    0.4114    1.5005 H   0  0  0  0  0  0  0  0  0  0  0  0
    2.0253    1.8067    0.4643 H   0  0  0  0  0  0  0  0  0  0  0  0
    0.8039    0.5486    0.8175 H   0  0  0  0  0  0  0  0  0  0  0  0
   -0.9511    3.5519    3.9068 H   0  0  0  0  0  0  0  0  0  0  0  0
   -3.3249    7.1907    8.2463 H   0  0  0  0  0  0  0  0  0  0  0  0
    3.4195    9.2907    9.4307 H   0  0  0  0  0  0  0  0  0  0  0  0
    3.8543    9.3671    7.7097 H   0  0  0  0  0  0  0  0  0  0  0  0
    5.9665    8.5178    8.5036 H   0  0  0  0  0  0  0  0  0  0  0  0
    8.9420    5.7500    7.6734 H   0  0  0  0  0  0  0  0  0  0  0  0
    7.3388    4.5602   10.0617 H   0  0  0  0  0  0  0  0  0  0  0  0
    9.1495    4.6186    9.8197 H   0  0  0  0  0  0  0  0  0  0  0  0
    7.4571    1.8828    6.5090 H   0  0  0  0  0  0  0  0  0  0  0  0
    7.6749    3.6285    6.7357 H   0  0  0  0  0  0  0  0  0  0  0  0
    5.0956    0.9245    7.6329 H   0  0  0  0  0  0  0  0  0  0  0  0
    4.0629   -0.2020    9.3150 H   0  0  0  0  0  0  0  0  0  0  0  0
    3.7927    0.6495   10.8751 H   0  0  0  0  0  0  0  0  0  0  0  0
    5.4216    0.0607   10.4453 H   0  0  0  0  0  0  0  0  0  0  0  0
    6.0224    4.8804    5.7237 H   0  0  0  0  0  0  0  0  0  0  0  0
    4.9219    3.6601    3.3579 H   0  0  0  0  0  0  0  0  0  0  0  0
    5.1222    5.4006    3.7212 H   0  0  0  0  0  0  0  0  0  0  0  0
    3.6357    4.5369    4.2160 H   0  0  0  0  0  0  0  0  0  0  0  0
  1  2  2  0  0  0  0
  2  3  1  0  0  0  0
  2 32  1  0  0  0  0
  3  9  1  0  0  0  0
  4  3  1  0  0  0  0
  4  5  1  0  0  0  0
  5  6  1  6  0  0  0
  5 30  1  0  0  0  0
  5  7  1  0  0  0  0
  7 10  1  0  0  0  0
  7  8  1  1  0  0  0
  9  7  1  0  0  0  0
  9 48  1  0  0  0  0
  9 49  1  0  0  0  0
 10 51  1  0  0  0  0
 11 10  1  0  0  0  0
 12 11  1  0  0  0  0
 13 12  2  0  0  0  0
 14 13  1  0  0  0  0
 15 52  1  0  0  0  0
 15 14  1  0  0  0  0
 16 15  1  0  0  0  0
 17 53  1  0  0  0  0
 17 16  2  0  0  0  0
 18 20  1  0  0  0  0
 18 17  1  0  0  0  0
 19 54  1  0  0  0  0
 19 18  1  0  0  0  0
 20 21  2  0  0  0  0
 21 57  1  0  0  0  0
 21 16  1  0  0  0  0
 22 14  2  0  0  0  0
 22 24  1  0  0  0  0
 23 12  1  0  0  0  0
 23 28  1  0  0  0  0
 24 23  2  0  0  0  0
 25 24  1  0  0  0  0
 25 27  1  0  0  0  0
 26 25  1  0  0  0  0
 27 58  1  0  0  0  0
 27 28  2  0  0  0  0
 28 29  1  0  0  0  0
 30 31  1  0  0  0  0
 30 59  1  0  0  0  0
 32 33  1  0  0  0  0
 33 64  1  0  0  0  0
 33 63  1  0  0  0  0
 35 36  1  0  0  0  0
 35 34  1  0  0  0  0
 36 37  1  1  0  0  0
 36 38  1  0  0  0  0
 38 39  1  0  0  0  0
 39 40  1  0  0  0  0
 39 41  2  0  0  0  0
 40 70  1  0  0  0  0
 40 69  1  0  0  0  0
 42 36  1  0  0  0  0
 43 71  1  0  0  0  0
 43 42  1  0  0  0  0
 44 74  1  0  0  0  0
 44 43  1  0  0  0  0
 45 42  2  0  0  0  0
 46  4  1  0  0  0  0
 47  4  1  0  0  0  0
 50 10  1  0  0  0  0
 55 19  1  0  0  0  0
 56 19  1  0  0  0  0
 60 30  1  0  0  0  0
 61 31  1  0  0  0  0
 62 32  1  0  0  0  0
 65 35  1  0  0  0  0
 66 35  1  0  0  0  0
 67 38  1  0  0  0  0
 68 40  1  0  0  0  0
 72 44  1  0  0  0  0
 73 44  1  0  0  0  0
M  END
