-1 1
 OpenBabel05232413493D

 74 76  0  0  1  0  0  0  0  0999 V2000
    4.0002    1.4620   -0.4157 O   0  0  0  0  0  0  0  0  0  0  0  0
    3.6701    1.4396    0.7707 C   0  0  0  0  0  0  0  0  0  0  0  0
    2.4154    1.7360    1.1708 N   0  0  0  0  0  0  0  0  0  0  0  0
    1.3514    1.9352    0.1945 C   0  0  0  0  0  0  0  0  0  0  0  0
    0.3268    2.7646    0.9612 C   0  0  1  0  0  0  0  0  0  0  0  0
   -0.6720    2.6372    0.5200 H   0  0  0  0  0  0  0  0  0  0  0  0
    0.4058    2.1504    2.3712 C   0  0  2  0  0  0  0  0  0  0  0  0
    0.1109    2.8911    3.1305 H   0  0  0  0  0  0  0  0  0  0  0  0
    1.8894    1.7570    2.5387 C   0  0  0  0  0  0  0  0  0  0  0  0
   -0.4731    0.9082    2.5228 C   0  0  0  0  0  0  0  0  0  0  0  0
   -1.8413    1.2224    2.2653 O   0  0  0  0  0  0  0  0  0  0  0  0
   -2.4115    0.8272    1.1320 C   0  0  0  0  0  0  0  0  0  0  0  0
   -1.7568    0.1156    0.2497 N   0  0  0  0  0  0  0  0  0  0  0  0
   -2.3805   -0.2748   -0.8967 C   0  0  0  0  0  0  0  0  0  0  0  0
   -1.6221   -1.0328   -1.7184 N   0  0  0  0  0  0  0  0  0  0  0  0
   -1.9821   -1.5776   -2.9486 C   0  0  0  0  0  0  0  0  0  0  0  0
   -1.1806   -2.4534   -3.6648 C   0  0  0  0  0  0  0  0  0  0  0  0
   -1.8659   -2.7582   -4.7961 N   0  0  0  0  0  0  0  0  0  0  0  0
   -1.4119   -3.5807   -5.8881 C   0  0  0  0  0  0  0  0  0  0  0  0
   -3.0414   -2.1413   -4.8677 N   0  0  0  0  0  0  0  0  0  0  0  0
   -3.1374   -1.4206   -3.7546 C   0  0  0  0  0  0  0  0  0  0  0  0
   -3.6301    0.0358   -1.2427 N   0  0  0  0  0  0  0  0  0  0  0  0
   -3.7544    1.2100    0.8996 C   0  0  0  0  0  0  0  0  0  0  0  0
   -4.2698    0.7671   -0.3322 C   0  0  0  0  0  0  0  0  0  0  0  0
   -5.5516    1.2204   -0.4362 N   0  0  0  0  0  0  0  0  0  0  0  0
   -6.1524    1.0335   -1.2259 H   0  0  0  0  0  0  0  0  0  0  0  0
   -5.8828    1.9471    0.6954 C   0  0  0  0  0  0  0  0  0  0  0  0
   -4.8006    1.9596    1.5307 C   0  0  0  0  0  0  0  0  0  0  0  0
   -4.7390    2.7524    3.0667 Cl  0  0  0  0  0  0  0  0  0  0  0  0
    0.6274    4.2641    0.9452 C   0  0  0  0  0  0  0  0  0  0  0  0
    1.8439    4.6260    1.5497 O   0  0  0  0  0  0  0  0  0  0  0  0
    4.7115    1.1115    1.7935 C   0  0  0  0  0  0  0  0  0  0  0  0
    4.6228    0.1086    2.6662 C   0  0  0  0  0  0  0  0  0  0  0  0
    5.0453   -4.2801   -0.6168 S   0  0  0  0  0  1  0  0  0  0  0  0
    3.9997   -3.0916   -1.5222 C   0  0  0  0  0  0  0  0  0  0  0  0
    3.2135   -2.1254   -0.5893 C   0  0  2  0  0  0  0  0  0  0  0  0
    3.8982   -1.3338   -0.2365 H   0  0  0  0  0  0  0  0  0  0  0  0
    2.7105   -2.8791    0.5255 N   0  0  0  0  0  0  0  0  0  0  0  0
    2.0205   -2.3319    1.5229 C   0  0  0  0  0  0  0  0  0  0  0  0
    1.6118   -3.2662    2.6420 C   0  0  0  0  0  0  0  0  0  0  0  0
    1.7018   -1.1376    1.5485 O   0  0  0  0  0  0  0  0  0  0  0  0
    2.0721   -1.4986   -1.3766 C   0  0  0  0  0  0  0  0  0  0  0  0
    2.3582   -0.3265   -1.9772 N   0  0  0  0  0  0  0  0  0  0  0  0
    1.4090    0.3133   -2.8526 C   0  0  0  0  0  0  0  0  0  0  0  0
    0.9947   -2.0721   -1.5375 O   0  0  0  0  0  0  0  0  0  0  0  0
    0.9273    0.9599   -0.0949 H   0  0  0  0  0  0  0  0  0  0  0  0
    1.7492    2.4249   -0.7061 H   0  0  0  0  0  0  0  0  0  0  0  0
    1.9744    0.7655    3.0002 H   0  0  0  0  0  0  0  0  0  0  0  0
    2.4395    2.4908    3.1448 H   0  0  0  0  0  0  0  0  0  0  0  0
   -0.1282    0.0933    1.8731 H   0  0  0  0  0  0  0  0  0  0  0  0
   -0.4374    0.5570    3.5643 H   0  0  0  0  0  0  0  0  0  0  0  0
   -0.6781   -1.2869   -1.3996 H   0  0  0  0  0  0  0  0  0  0  0  0
   -0.2034   -2.8608   -3.4159 H   0  0  0  0  0  0  0  0  0  0  0  0
   -0.6027   -4.2335   -5.5369 H   0  0  0  0  0  0  0  0  0  0  0  0
   -1.0399   -2.9658   -6.7225 H   0  0  0  0  0  0  0  0  0  0  0  0
   -2.2466   -4.1972   -6.2460 H   0  0  0  0  0  0  0  0  0  0  0  0
   -4.0169   -0.8225   -3.5429 H   0  0  0  0  0  0  0  0  0  0  0  0
   -6.8613    2.4006    0.8222 H   0  0  0  0  0  0  0  0  0  0  0  0
   -0.1633    4.7935    1.5004 H   0  0  0  0  0  0  0  0  0  0  0  0
    0.5795    4.6211   -0.1041 H   0  0  0  0  0  0  0  0  0  0  0  0
    2.5414    4.0925    1.1541 H   0  0  0  0  0  0  0  0  0  0  0  0
    5.6504    1.6572    1.6564 H   0  0  0  0  0  0  0  0  0  0  0  0
    3.7144   -0.4944    2.7417 H   0  0  0  0  0  0  0  0  0  0  0  0
    5.4755   -0.1687    3.2905 H   0  0  0  0  0  0  0  0  0  0  0  0
    3.2592   -3.6309   -2.1370 H   0  0  0  0  0  0  0  0  0  0  0  0
    4.5938   -2.4630   -2.2032 H   0  0  0  0  0  0  0  0  0  0  0  0
    3.1923   -3.7912    0.6089 H   0  0  0  0  0  0  0  0  0  0  0  0
    0.5248   -3.4245    2.5801 H   0  0  0  0  0  0  0  0  0  0  0  0
    1.8243   -2.7861    3.6072 H   0  0  0  0  0  0  0  0  0  0  0  0
    2.1176   -4.2396    2.5908 H   0  0  0  0  0  0  0  0  0  0  0  0
    3.1335    0.2294   -1.6124 H   0  0  0  0  0  0  0  0  0  0  0  0
    1.0345   -0.4005   -3.6009 H   0  0  0  0  0  0  0  0  0  0  0  0
    1.9038    1.1451   -3.3714 H   0  0  0  0  0  0  0  0  0  0  0  0
    0.5304    0.7072   -2.3133 H   0  0  0  0  0  0  0  0  0  0  0  0
  1  2  2  0  0  0  0
  2  3  1  0  0  0  0
  2 32  1  0  0  0  0
  3  9  1  0  0  0  0
  4  5  1  0  0  0  0
  4  3  1  0  0  0  0
  5  6  1  6  0  0  0
  5  7  1  0  0  0  0
  7 10  1  0  0  0  0
  7  9  1  0  0  0  0
  7  8  1  1  0  0  0
  9 48  1  0  0  0  0
  9 49  1  0  0  0  0
 10 51  1  0  0  0  0
 11 10  1  0  0  0  0
 12 11  1  0  0  0  0
 13 12  2  0  0  0  0
 14 13  1  0  0  0  0
 15 52  1  0  0  0  0
 15 14  1  0  0  0  0
 16 15  1  0  0  0  0
 17 53  1  0  0  0  0
 17 16  2  0  0  0  0
 18 17  1  0  0  0  0
 19 54  1  0  0  0  0
 19 18  1  0  0  0  0
 20 18  1  0  0  0  0
 20 21  2  0  0  0  0
 21 57  1  0  0  0  0
 21 16  1  0  0  0  0
 22 14  2  0  0  0  0
 22 24  1  0  0  0  0
 23 12  1  0  0  0  0
 23 28  1  0  0  0  0
 24 23  2  0  0  0  0
 25 24  1  0  0  0  0
 25 27  1  0  0  0  0
 26 25  1  0  0  0  0
 27 58  1  0  0  0  0
 27 28  2  0  0  0  0
 28 29  1  0  0  0  0
 30  5  1  0  0  0  0
 30 59  1  0  0  0  0
 30 31  1  0  0  0  0
 32 33  2  0  0  0  0
 33 63  1  0  0  0  0
 33 64  1  0  0  0  0
 35 34  1  0  0  0  0
 35 36  1  0  0  0  0
 36 37  1  1  0  0  0
 36 38  1  0  0  0  0
 38 67  1  0  0  0  0
 38 39  1  0  0  0  0
 39 41  2  0  0  0  0
 39 40  1  0  0  0  0
 40 69  1  0  0  0  0
 42 36  1  0  0  0  0
 43 71  1  0  0  0  0
 43 42  1  0  0  0  0
 44 74  1  0  0  0  0
 44 43  1  0  0  0  0
 45 42  2  0  0  0  0
 46  4  1  0  0  0  0
 47  4  1  0  0  0  0
 50 10  1  0  0  0  0
 55 19  1  0  0  0  0
 56 19  1  0  0  0  0
 60 30  1  0  0  0  0
 61 31  1  0  0  0  0
 62 32  1  0  0  0  0
 65 35  1  0  0  0  0
 66 35  1  0  0  0  0
 68 40  1  0  0  0  0
 70 40  1  0  0  0  0
 72 44  1  0  0  0  0
 73 44  1  0  0  0  0
M  END
