74
-1 1
O         4.000212    1.461966   -0.415694
C         3.670132    1.439635    0.770661
N         2.415388    1.736007    1.170822
C         1.351416    1.935236    0.194469
C         0.326800    2.764596    0.961185
H        -0.672023    2.637235    0.520023
C         0.405822    2.150384    2.371203
H         0.110922    2.891066    3.130462
C         1.889376    1.757041    2.538729
C        -0.473102    0.908203    2.522779
O        -1.841271    1.222419    2.265281
C        -2.411478    0.827177    1.131998
N        -1.756821    0.115634    0.249736
C        -2.380542   -0.274763   -0.896680
N        -1.622058   -1.032774   -1.718403
C        -1.982057   -1.577605   -2.948557
C        -1.180608   -2.453367   -3.664842
N        -1.865892   -2.758220   -4.796086
C        -1.411881   -3.580739   -5.888099
N        -3.041428   -2.141264   -4.867687
C        -3.137430   -1.420616   -3.754649
N        -3.630056    0.035815   -1.242706
C        -3.754352    1.209997    0.899623
C        -4.269833    0.767089   -0.332193
N        -5.551608    1.220363   -0.436180
H        -6.152389    1.033532   -1.225891
C        -5.882848    1.947150    0.695375
C        -4.800567    1.959576    1.530702
Cl        -4.738989    2.752413    3.066719
C         0.627375    4.264071    0.945179
O         1.843853    4.625986    1.549667
C         4.711469    1.111503    1.793463
C         4.622807    0.108611    2.666214
S         5.045346   -4.280098   -0.616814
C         3.999695   -3.091641   -1.522171
C         3.213493   -2.125367   -0.589255
H         3.898172   -1.333776   -0.236510
N         2.710486   -2.879122    0.525476
C         2.020466   -2.331850    1.522916
C         1.611769   -3.266248    2.641969
O         1.701843   -1.137587    1.548535
C         2.072106   -1.498595   -1.376618
N         2.358185   -0.326548   -1.977205
C         1.409036    0.313334   -2.852618
O         0.994701   -2.072082   -1.537534
H         0.927319    0.959935   -0.094921
H         1.749203    2.424855   -0.706093
H         1.974440    0.765491    3.000248
H         2.439461    2.490778    3.144846
H        -0.128237    0.093327    1.873127
H        -0.437448    0.556983    3.564271
H        -0.678094   -1.286945   -1.399623
H        -0.203419   -2.860827   -3.415862
H        -0.602714   -4.233514   -5.536902
H        -1.039915   -2.965825   -6.722505
H        -2.246598   -4.197232   -6.246032
H        -4.016948   -0.822460   -3.542880
H        -6.861304    2.400626    0.822216
H        -0.163338    4.793550    1.500447
H         0.579454    4.621090   -0.104058
H         2.541380    4.092529    1.154137
H         5.650397    1.657226    1.656379
H         3.714389   -0.494445    2.741666
H         5.475462   -0.168694    3.290549
H         3.259205   -3.630851   -2.136992
H         4.593761   -2.462953   -2.203229
H         3.192300   -3.791187    0.608930
H         0.524795   -3.424455    2.580118
H         1.824328   -2.786100    3.607208
H         2.117640   -4.239557    2.590821
H         3.133534    0.229446   -1.612380
H         1.034516   -0.400496   -3.600884
H         1.903833    1.145073   -3.371382
H         0.530368    0.707179   -2.313283
