74
-1 1
O         3.675080    2.604626    1.189156
C         3.996420    1.431088    0.981490
N         3.687832    0.831870   -0.208004
C         3.677586   -0.599633   -0.528648
C         2.506787   -0.776936   -1.523440
H         2.894969   -0.881166   -2.550534
C         1.768577    0.565217   -1.485333
H         1.044799    0.569518   -0.648465
C         2.886585    1.559074   -1.173872
O         1.107733    0.787077   -2.699297
C         0.182154    1.832652   -2.666604
C         1.655796   -2.002471   -1.211230
O         0.683073   -2.220150   -2.234419
C        -0.499310   -1.630416   -2.162970
N        -0.890543   -0.997501   -1.083497
C        -2.098423   -0.374920   -1.073114
N        -2.384493    0.297951    0.068660
C        -3.495710    1.097842    0.310319
C        -4.611117    1.370956   -0.463077
N        -5.382821    2.219538    0.274757
C        -6.599403    2.863753   -0.141594
N        -4.839446    2.518502    1.452439
C        -3.698355    1.847063    1.499576
N        -2.973973   -0.354420   -2.078083
C        -1.341792   -1.703718   -3.299140
C        -2.562188   -1.025017   -3.155125
N        -3.253593   -1.151203   -4.323967
H        -4.167741   -0.755342   -4.485475
C        -2.508348   -1.891187   -5.227429
C        -1.329982   -2.239736   -4.627516
Cl        -0.072207   -3.161763   -5.372611
C         4.690516    0.703476    2.072364
C         5.274403   -0.498129    2.100316
S         2.605152   -2.422468    2.745423
C         1.566841   -1.045403    2.174728
C         1.283640    0.065626    3.203310
H         2.218586    0.614150    3.416972
N         0.764845   -0.519790    4.405394
C         0.367986    0.230679    5.453730
C        -0.087549   -0.550127    6.673777
O         0.331873    1.451236    5.421425
C         0.283554    1.008045    2.544216
N         0.813376    2.086621    1.935456
C        -0.002409    2.982844    1.156501
O        -0.909727    0.727460    2.449547
H         3.529796   -1.211763    0.374386
H         4.631643   -0.906864   -0.989483
H         2.555097    2.504810   -0.732653
H         3.457504    1.773761   -2.096674
H         0.665021    2.816730   -2.511248
H        -0.567476    1.691788   -1.866036
H        -0.338531    1.846066   -3.633836
H         2.275532   -2.908150   -1.206313
H         1.166803   -1.914890   -0.234237
H        -1.707933    0.251320    0.839741
H        -4.891345    1.018580   -1.448084
H        -7.145445    2.210431   -0.835870
H        -6.401293    3.827402   -0.639299
H        -7.218574    3.045484    0.745739
H        -3.036888    1.884326    2.363717
H        -2.870262   -2.114185   -6.226584
H         4.662052    1.296907    2.989925
H         5.698332   -0.867650    3.035170
H         5.371938   -1.157881    1.240848
H         0.586766   -1.419030    1.832558
H         2.016332   -0.523575    1.317890
H         0.987167   -1.511551    4.500430
H         0.223504   -0.008047    7.576216
H         0.305877   -1.575978    6.698472
H        -1.187036   -0.596630    6.668540
H         1.803543    2.301145    2.032708
H        -0.693867    3.562438    1.789799
H        -0.611630    2.426126    0.427662
H         0.653695    3.679201    0.617797
