74
-1 1
O         7.295579    4.270153   -7.706678
C         7.736423    3.099147   -7.778521
N         7.678743    2.472069   -9.025921
C         7.671560    1.034163   -9.278749
C         6.521094    0.800466  -10.289806
H         6.926240    0.586970  -11.292909
C         5.830513    2.163650  -10.387062
H         5.083905    2.259940   -9.574438
C         6.977893    3.134840  -10.103861
O         5.204291    2.301110  -11.634604
C         4.291715    3.354040  -11.704722
C         5.613767   -0.352200   -9.886763
O         4.634185   -0.601656  -10.897130
C         3.471499    0.028094  -10.869208
N         3.057143    0.668357   -9.801199
C         1.854616    1.301880   -9.827227
N         1.523346    1.945198   -8.680486
C         0.403910    2.737402   -8.460254
C        -0.685274    3.029152   -9.263830
N        -1.486502    3.852901   -8.529115
C        -2.690048    4.505628   -8.970518
N        -0.986693    4.119586   -7.325203
C         0.155311    3.451132   -7.258427
N         1.017681    1.348222  -10.863442
C         2.668887   -0.020548  -12.034920
C         1.459283    0.683661  -11.932846
N         0.815197    0.589047  -13.131044
H        -0.080146    1.011435  -13.326927
C         1.582699   -0.153948  -14.013420
C         2.726401   -0.537663  -13.369510
Cl         3.996478   -1.472666  -14.074775
C         8.257129    2.461510   -6.603739
C         8.709870    1.166315   -6.364504
S         6.970800   -0.347726   -5.846784
C         5.649477    0.737443   -6.416022
C         5.181215    1.841079   -5.448864
H         6.041699    2.442566   -5.132152
N         4.568287    1.310678   -4.261860
C         5.017023    1.563157   -3.005815
C         4.319100    0.761583   -1.919769
O         5.918895    2.337966   -2.749723
C         4.176718    2.682301   -6.231665
N         4.662189    3.724670   -6.914701
C         3.835970    4.483301   -7.821824
O         2.990946    2.333808   -6.287487
H         7.502304    0.461690   -8.357596
H         8.633546    0.692619   -9.700453
H         6.669915    4.131985   -9.772880
H         7.607810    3.227605  -11.009939
H         4.769173    4.337888  -11.534382
H         3.475661    3.240219  -10.965486
H         3.850616    3.346365  -12.711165
H         6.185485   -1.285653   -9.801620
H         5.121355   -0.153028   -8.927111
H         2.187857    1.908046   -7.898163
H        -0.928217    2.706238  -10.268638
H        -3.207814    3.870968   -9.702625
H        -2.477061    5.483435   -9.432834
H        -3.341590    4.660023   -8.101423
H         0.785923    3.468677   -6.371258
H         1.259908   -0.352888  -15.030900
H         8.151856    3.116788   -5.735381
H         9.193692    0.992885   -5.402541
H         9.103798    0.541382   -7.165790
H         4.771384    0.134277   -6.702586
H         5.974847    1.263308   -7.326799
H         3.776022    0.697538   -4.397951
H         4.869273   -0.180719   -1.775718
H         3.276000    0.519077   -2.170443
H         4.353645    1.330145   -0.982361
H         5.672059    3.934813   -6.931204
H         2.978602    4.937866   -7.301471
H         3.434099    3.852794   -8.631559
H         4.452348    5.275819   -8.264368
