79
-1 1
C        -0.180650   -8.629962   10.370022
C        -0.150125   -7.652696    9.659189
C        -0.092351   -6.489749    8.776168
C         0.792913   -6.733500    7.547022
N         0.842323   -5.571009    6.693459
N         1.469772   -4.476344    7.103775
C         1.279986   -3.567701    6.155151
C         0.494236   -4.096170    5.098032
N         0.061032   -3.511160    3.915496
C         0.280207   -2.236350    3.461686
N        -0.293190   -1.989126    2.259990
C        -0.148259   -0.795260    1.722988
O        -0.679787   -0.522777    0.545613
C        -1.468541   -1.514065   -0.104592
C        -1.896184   -1.004108   -1.468208
H        -2.562958   -1.769594   -1.890949
C        -2.579476    0.369540   -1.431116
N        -1.534798    1.302103   -1.809812
C        -0.305808    0.649494   -2.239141
C        -0.735987   -0.803547   -2.455167
H         0.101623   -1.502119   -2.256957
O        -1.254637   -1.028668   -3.739309
C        -0.280855   -1.149685   -4.747173
C        -1.770652    2.639802   -1.705046
O        -2.857750    3.048856   -1.314113
C        -0.653737    3.548521   -2.094995
C        -0.814399    4.873650   -2.044857
S        -0.011773    6.157453   -5.274435
C         1.124356    4.735454   -5.225439
C         0.542131    3.467204   -5.882822
H         0.405681    3.667226   -6.961964
N        -0.725743    3.147718   -5.286553
C        -1.437138    2.078458   -5.691259
C        -2.758453    1.850671   -4.991832
O        -1.014240    1.296050   -6.538875
C         1.506980    2.297740   -5.710763
N         2.256172    2.021014   -6.811396
C         3.184574    0.923881   -6.847960
O         1.667212    1.710240   -4.649978
N         0.993899   -1.395045    4.189799
C         1.119235   -0.186435    3.627850
C         0.579390    0.213380    2.392588
C         0.951669    1.586521    2.205027
Cl         0.542300    2.600072    0.876186
C         1.686810    1.957011    3.296398
N         1.785788    0.873452    4.155919
H         2.267603    0.857732    5.043081
C         0.227125   -5.397644    5.491013
H        -0.212528   -9.491923   11.009443
H         0.305290   -5.619474    9.321196
H        -1.109070   -6.222110    8.445692
H         0.409103   -7.576252    6.955522
H         1.816065   -6.981688    7.864173
H         1.697372   -2.569559    6.227568
H        -0.494004   -4.071991    3.284450
H        -2.346961   -1.733155    0.524357
H        -0.885519   -2.444567   -0.191644
H        -2.985516    0.626150   -0.439769
H        -3.419180    0.422960   -2.144678
H         0.468823    0.707465   -1.455791
H         0.107184    1.090452   -3.158206
H        -0.793938   -1.076472   -5.713234
H         0.245848   -2.122324   -4.663781
H         0.461033   -0.335190   -4.712070
H         0.273163    3.117600   -2.480491
H        -0.044862    5.563759   -2.396803
H        -1.765488    5.287287   -1.697819
H         1.389318    4.469830   -4.186157
H         2.071343    4.958738   -5.744395
H        -1.153957    3.930575   -4.786455
H        -3.539062    1.683043   -5.746695
H        -3.049547    2.673066   -4.324291
H        -2.651993    0.926879   -4.403033
H         1.938492    2.418870   -7.684293
H         3.495394    0.708806   -5.817570
H         4.072182    1.183159   -7.445050
H         2.731987    0.007162   -7.265731
H         2.144443    2.914669    3.525927
H        -0.332687   -6.195150    5.008170
