-1 1
 OpenBabel05232413493D

 79 81  0  0  1  0  0  0  0  0999 V2000
   -0.1807   -8.6300   10.3700 C   0  0  0  0  0  0  0  0  0  0  0  0
   -0.1501   -7.6527    9.6592 C   0  0  0  0  0  0  0  0  0  0  0  0
   -0.0924   -6.4897    8.7762 C   0  0  0  0  0  0  0  0  0  0  0  0
    0.7929   -6.7335    7.5470 C   0  0  0  0  0  0  0  0  0  0  0  0
    0.8423   -5.5710    6.6935 N   0  0  0  0  0  0  0  0  0  0  0  0
    1.4698   -4.4763    7.1038 N   0  0  0  0  0  0  0  0  0  0  0  0
    1.2800   -3.5677    6.1552 C   0  0  0  0  0  0  0  0  0  0  0  0
    0.4942   -4.0962    5.0980 C   0  0  0  0  0  0  0  0  0  0  0  0
    0.0610   -3.5112    3.9155 N   0  0  0  0  0  0  0  0  0  0  0  0
    0.2802   -2.2363    3.4617 C   0  0  0  0  0  0  0  0  0  0  0  0
   -0.2932   -1.9891    2.2600 N   0  0  0  0  0  0  0  0  0  0  0  0
   -0.1483   -0.7953    1.7230 C   0  0  0  0  0  0  0  0  0  0  0  0
   -0.6798   -0.5228    0.5456 O   0  0  0  0  0  0  0  0  0  0  0  0
   -1.4685   -1.5141   -0.1046 C   0  0  0  0  0  0  0  0  0  0  0  0
   -1.8962   -1.0041   -1.4682 C   0  0  1  0  0  0  0  0  0  0  0  0
   -2.5630   -1.7696   -1.8909 H   0  0  0  0  0  0  0  0  0  0  0  0
   -2.5795    0.3695   -1.4311 C   0  0  0  0  0  0  0  0  0  0  0  0
   -1.5348    1.3021   -1.8098 N   0  0  0  0  0  0  0  0  0  0  0  0
   -0.3058    0.6495   -2.2391 C   0  0  0  0  0  0  0  0  0  0  0  0
   -0.7360   -0.8035   -2.4552 C   0  0  2  0  0  0  0  0  0  0  0  0
    0.1016   -1.5021   -2.2570 H   0  0  0  0  0  0  0  0  0  0  0  0
   -1.2546   -1.0287   -3.7393 O   0  0  0  0  0  0  0  0  0  0  0  0
   -0.2809   -1.1497   -4.7472 C   0  0  0  0  0  0  0  0  0  0  0  0
   -1.7707    2.6398   -1.7050 C   0  0  0  0  0  0  0  0  0  0  0  0
   -2.8577    3.0489   -1.3141 O   0  0  0  0  0  0  0  0  0  0  0  0
   -0.6537    3.5485   -2.0950 C   0  0  0  0  0  0  0  0  0  0  0  0
   -0.8144    4.8736   -2.0449 C   0  0  0  0  0  0  0  0  0  0  0  0
   -0.0118    6.1575   -5.2744 S   0  0  0  0  0  1  0  0  0  0  0  0
    1.1244    4.7355   -5.2254 C   0  0  0  0  0  0  0  0  0  0  0  0
    0.5421    3.4672   -5.8828 C   0  0  2  0  0  0  0  0  0  0  0  0
    0.4057    3.6672   -6.9620 H   0  0  0  0  0  0  0  0  0  0  0  0
   -0.7257    3.1477   -5.2866 N   0  0  0  0  0  0  0  0  0  0  0  0
   -1.4371    2.0785   -5.6913 C   0  0  0  0  0  0  0  0  0  0  0  0
   -2.7585    1.8507   -4.9918 C   0  0  0  0  0  0  0  0  0  0  0  0
   -1.0142    1.2960   -6.5389 O   0  0  0  0  0  0  0  0  0  0  0  0
    1.5070    2.2977   -5.7108 C   0  0  0  0  0  0  0  0  0  0  0  0
    2.2562    2.0210   -6.8114 N   0  0  0  0  0  0  0  0  0  0  0  0
    3.1846    0.9239   -6.8480 C   0  0  0  0  0  0  0  0  0  0  0  0
    1.6672    1.7102   -4.6500 O   0  0  0  0  0  0  0  0  0  0  0  0
    0.9939   -1.3950    4.1898 N   0  0  0  0  0  0  0  0  0  0  0  0
    1.1192   -0.1864    3.6279 C   0  0  0  0  0  0  0  0  0  0  0  0
    0.5794    0.2134    2.3926 C   0  0  0  0  0  0  0  0  0  0  0  0
    0.9517    1.5865    2.2050 C   0  0  0  0  0  0  0  0  0  0  0  0
    0.5423    2.6001    0.8762 Cl  0  0  0  0  0  0  0  0  0  0  0  0
    1.6868    1.9570    3.2964 C   0  0  0  0  0  0  0  0  0  0  0  0
    1.7858    0.8735    4.1559 N   0  0  0  0  0  0  0  0  0  0  0  0
    2.2676    0.8577    5.0431 H   0  0  0  0  0  0  0  0  0  0  0  0
    0.2271   -5.3976    5.4910 C   0  0  0  0  0  0  0  0  0  0  0  0
   -0.2125   -9.4919   11.0094 H   0  0  0  0  0  0  0  0  0  0  0  0
    0.3053   -5.6195    9.3212 H   0  0  0  0  0  0  0  0  0  0  0  0
   -1.1091   -6.2221    8.4457 H   0  0  0  0  0  0  0  0  0  0  0  0
    0.4091   -7.5763    6.9555 H   0  0  0  0  0  0  0  0  0  0  0  0
    1.8161   -6.9817    7.8642 H   0  0  0  0  0  0  0  0  0  0  0  0
    1.6974   -2.5696    6.2276 H   0  0  0  0  0  0  0  0  0  0  0  0
   -0.4940   -4.0720    3.2845 H   0  0  0  0  0  0  0  0  0  0  0  0
   -2.3470   -1.7332    0.5244 H   0  0  0  0  0  0  0  0  0  0  0  0
   -0.8855   -2.4446   -0.1916 H   0  0  0  0  0  0  0  0  0  0  0  0
   -2.9855    0.6261   -0.4398 H   0  0  0  0  0  0  0  0  0  0  0  0
   -3.4192    0.4230   -2.1447 H   0  0  0  0  0  0  0  0  0  0  0  0
    0.4688    0.7075   -1.4558 H   0  0  0  0  0  0  0  0  0  0  0  0
    0.1072    1.0905   -3.1582 H   0  0  0  0  0  0  0  0  0  0  0  0
   -0.7939   -1.0765   -5.7132 H   0  0  0  0  0  0  0  0  0  0  0  0
    0.2458   -2.1223   -4.6638 H   0  0  0  0  0  0  0  0  0  0  0  0
    0.4610   -0.3352   -4.7121 H   0  0  0  0  0  0  0  0  0  0  0  0
    0.2732    3.1176   -2.4805 H   0  0  0  0  0  0  0  0  0  0  0  0
   -0.0449    5.5638   -2.3968 H   0  0  0  0  0  0  0  0  0  0  0  0
   -1.7655    5.2873   -1.6978 H   0  0  0  0  0  0  0  0  0  0  0  0
    1.3893    4.4698   -4.1862 H   0  0  0  0  0  0  0  0  0  0  0  0
    2.0713    4.9587   -5.7444 H   0  0  0  0  0  0  0  0  0  0  0  0
   -1.1540    3.9306   -4.7865 H   0  0  0  0  0  0  0  0  0  0  0  0
   -3.5391    1.6830   -5.7467 H   0  0  0  0  0  0  0  0  0  0  0  0
   -3.0495    2.6731   -4.3243 H   0  0  0  0  0  0  0  0  0  0  0  0
   -2.6520    0.9269   -4.4030 H   0  0  0  0  0  0  0  0  0  0  0  0
    1.9385    2.4189   -7.6843 H   0  0  0  0  0  0  0  0  0  0  0  0
    3.4954    0.7088   -5.8176 H   0  0  0  0  0  0  0  0  0  0  0  0
    4.0722    1.1832   -7.4451 H   0  0  0  0  0  0  0  0  0  0  0  0
    2.7320    0.0072   -7.2657 H   0  0  0  0  0  0  0  0  0  0  0  0
    2.1444    2.9147    3.5259 H   0  0  0  0  0  0  0  0  0  0  0  0
   -0.3327   -6.1951    5.0082 H   0  0  0  0  0  0  0  0  0  0  0  0
  1 49  1  0  0  0  0
  2  1  3  0  0  0  0
  3 50  1  0  0  0  0
  3  2  1  0  0  0  0
  4 53  1  0  0  0  0
  4  3  1  0  0  0  0
  5  6  1  0  0  0  0
  5  4  1  0  0  0  0
  7 54  1  0  0  0  0
  7  6  2  0  0  0  0
  8 48  2  0  0  0  0
  8  7  1  0  0  0  0
  9  8  1  0  0  0  0
 10  9  1  0  0  0  0
 10 40  2  0  0  0  0
 11 10  1  0  0  0  0
 12 11  2  0  0  0  0
 12 42  1  0  0  0  0
 13 12  1  0  0  0  0
 14 56  1  0  0  0  0
 14 13  1  0  0  0  0
 15 16  1  6  0  0  0
 15 17  1  0  0  0  0
 15 14  1  0  0  0  0
 17 58  1  0  0  0  0
 18 24  1  0  0  0  0
 18 17  1  0  0  0  0
 19 18  1  0  0  0  0
 19 60  1  0  0  0  0
 20 21  1  1  0  0  0
 20 19  1  0  0  0  0
 20 15  1  0  0  0  0
 22 20  1  0  0  0  0
 23 64  1  0  0  0  0
 23 63  1  0  0  0  0
 23 22  1  0  0  0  0
 24 25  2  0  0  0  0
 26 27  2  0  0  0  0
 26 24  1  0  0  0  0
 27 67  1  0  0  0  0
 28 29  1  0  0  0  0
 29 68  1  0  0  0  0
 30 31  1  6  0  0  0
 30 36  1  0  0  0  0
 30 32  1  0  0  0  0
 30 29  1  0  0  0  0
 32 70  1  0  0  0  0
 33 32  1  0  0  0  0
 33 34  1  0  0  0  0
 34 73  1  0  0  0  0
 34 72  1  0  0  0  0
 35 33  2  0  0  0  0
 36 39  2  0  0  0  0
 37 36  1  0  0  0  0
 38 37  1  0  0  0  0
 38 75  1  0  0  0  0
 41 46  1  0  0  0  0
 41 40  1  0  0  0  0
 42 41  2  0  0  0  0
 43 42  1  0  0  0  0
 43 45  2  0  0  0  0
 44 43  1  0  0  0  0
 45 78  1  0  0  0  0
 45 46  1  0  0  0  0
 46 47  1  0  0  0  0
 48  5  1  0  0  0  0
 51  3  1  0  0  0  0
 52  4  1  0  0  0  0
 55  9  1  0  0  0  0
 57 14  1  0  0  0  0
 59 17  1  0  0  0  0
 61 19  1  0  0  0  0
 62 23  1  0  0  0  0
 65 26  1  0  0  0  0
 66 27  1  0  0  0  0
 69 29  1  0  0  0  0
 71 34  1  0  0  0  0
 74 37  1  0  0  0  0
 76 38  1  0  0  0  0
 77 38  1  0  0  0  0
 79 48  1  0  0  0  0
M  END
