70
-1 1
O        -0.183114    1.224808   -0.396869
C         0.700067    2.094315   -0.681241
N         1.055228    3.045850    0.350774
C         0.502356    4.381593    0.220715
C        -0.831107    4.365744    1.015655
C        -0.660805    3.218249    2.043577
H        -0.667990    3.603129    3.076674
C         0.744342    2.652633    1.708150
C        -1.770517    2.175337    1.905662
O        -1.393731    1.002726    2.633372
C        -1.350137   -0.152394    1.970423
N        -2.300913   -0.455002    1.106830
C        -2.180430   -1.585092    0.397993
N        -3.156413   -1.871409   -0.530797
C        -4.231546   -1.093040   -0.932844
C        -5.082406   -1.391450   -1.985060
N        -5.993726   -0.379809   -2.047525
C        -7.130605   -0.287048   -2.923993
N        -5.796524    0.535118   -1.106630
C        -4.733458    0.133045   -0.420367
N        -1.208965   -2.490136    0.481332
C        -0.275978   -1.027239    2.198119
C        -0.275509   -2.170329    1.376871
N         0.881046   -2.849294    1.621898
H         1.194708   -3.642129    1.080871
C         1.633593   -2.151223    2.556060
C         0.953002   -1.030829    2.941811
C         1.388740    2.177753   -1.880624
C         2.765958    2.683925   -1.995789
S         4.086749    1.312186   -1.825757
C         3.527685    0.513120   -0.292072
C         3.259647   -0.995081   -0.367539
H         2.816747   -1.268431    0.602659
N         4.467989   -1.769583   -0.535747
C         5.152116   -2.312462    0.492478
C         6.337898   -3.174387    0.092689
O         4.883614   -2.119079    1.669971
C         2.291212   -1.459915   -1.472974
N         1.039833   -0.998439   -1.408617
C         0.073090   -1.341043   -2.419210
O         2.674175   -2.261804   -2.323357
H         0.376771    4.636525   -0.840381
H         1.193632    5.120839    0.668745
H        -1.667892    4.144663    0.334052
H        -1.044483    5.335735    1.490864
H         0.808481    1.565467    1.821837
H         1.485197    3.109742    2.389045
H        -2.721907    2.553079    2.316150
H        -1.893489    1.906459    0.848880
H        -2.961699   -2.709347   -1.060305
H        -5.092952   -2.222774   -2.686254
H        -6.875727   -0.692397   -3.913181
H        -7.395665    0.772106   -3.026367
H        -7.999701   -0.835758   -2.525136
H        -4.328223    0.713572    0.401342
H         2.637035   -2.482126    2.815789
H         1.295012   -0.282826    3.651367
H         1.047052    1.498659   -2.667047
H         3.005944    3.428072   -1.225764
H         3.026311    3.097531   -2.982767
H         2.605771    1.027452    0.008685
H         4.266079    0.676654    0.505809
H         4.570271   -2.141410   -1.477366
H         6.320169   -4.096986    0.688512
H         7.261197   -2.633128    0.346872
H         6.357503   -3.422244   -0.977389
H         0.734934   -0.220987   -0.794420
H        -0.262377   -2.386478   -2.316939
H         0.490701   -1.210042   -3.430290
H        -0.786904   -0.671470   -2.286311
