-1 1
 OpenBabel05232414493D

 70 73  0  0  1  0  0  0  0  0999 V2000
    7.8363   -2.0893    8.9470 O   0  0  0  0  0  0  0  0  0  0  0  0
    7.5240   -1.0886    8.2603 C   0  0  0  0  0  0  0  0  0  0  0  0
    6.8862   -0.0562    8.9427 N   0  0  0  0  0  0  0  0  0  0  0  0
    6.4558    1.2278    8.4230 C   0  0  0  0  0  0  0  0  0  0  0  0
    5.9588    1.9788    9.6667 C   0  0  0  0  0  0  0  0  0  0  0  0
    5.5874    0.8673   10.6568 C   0  0  2  0  0  0  0  0  0  0  0  0
    5.6280    1.2144   11.7010 H   0  0  0  0  0  0  0  0  0  0  0  0
    6.6601   -0.1855   10.3694 C   0  0  0  0  0  0  0  0  0  0  0  0
    4.1877    0.3462   10.3837 C   0  0  0  0  0  0  0  0  0  0  0  0
    3.8952   -0.6715   11.3392 O   0  0  0  0  0  0  0  0  0  0  0  0
    2.7266   -1.2843   11.2842 C   0  0  0  0  0  0  0  0  0  0  0  0
    1.8177   -0.9124   10.4006 N   0  0  0  0  0  0  0  0  0  0  0  0
    0.6372   -1.5567   10.3798 C   0  0  0  0  0  0  0  0  0  0  0  0
   -0.2939   -1.1558    9.4566 N   0  0  0  0  0  0  0  0  0  0  0  0
   -0.2134   -0.1425    8.5077 C   0  0  0  0  0  0  0  0  0  0  0  0
   -1.2374    0.2191    7.6467 C   0  0  0  0  0  0  0  0  0  0  0  0
   -0.7526    1.2277    6.8716 N   0  0  0  0  0  0  0  0  0  0  0  0
   -1.4709    1.9887    5.8814 C   0  0  0  0  0  0  0  0  0  0  0  0
    0.4964    1.5462    7.1811 N   0  0  0  0  0  0  0  0  0  0  0  0
    0.8528    0.7291    8.1642 C   0  0  0  0  0  0  0  0  0  0  0  0
    0.2567   -2.5582   11.1693 N   0  0  0  0  0  0  0  0  0  0  0  0
    2.4687   -2.3330   12.1886 C   0  0  0  0  0  0  0  0  0  0  0  0
    1.1951   -2.9135   12.0495 C   0  0  0  0  0  0  0  0  0  0  0  0
    1.0984   -3.9078   12.9763 N   0  0  0  0  0  0  0  0  0  0  0  0
    0.2898   -4.5012   13.0892 H   0  0  0  0  0  0  0  0  0  0  0  0
    2.2819   -3.9772   13.6976 C   0  0  0  0  0  0  0  0  0  0  0  0
    3.1508   -3.0248   13.2445 C   0  0  0  0  0  0  0  0  0  0  0  0
    7.8350   -1.0126    6.8622 C   0  0  0  0  0  3  0  0  0  0  0  0
    7.9323    0.0858    5.9881 C   0  0  0  0  0  0  0  0  0  0  0  0
    9.7984    1.2986    6.2137 S   0  0  0  0  0  0  0  0  0  0  0  0
   10.2475    0.8021    7.8947 C   0  0  0  0  0  0  0  0  0  0  0  0
   11.5684    0.0303    8.0293 C   0  0  2  0  0  0  0  0  0  0  0  0
   11.8140   -0.0613    9.0998 H   0  0  0  0  0  0  0  0  0  0  0  0
   12.6447    0.7591    7.4125 N   0  0  0  0  0  0  0  0  0  0  0  0
   13.9290    0.6533    7.8386 C   0  0  0  0  0  0  0  0  0  0  0  0
   14.9604    1.1341    6.8330 C   0  0  0  0  0  0  0  0  0  0  0  0
   14.2469    0.2132    8.9291 O   0  0  0  0  0  0  0  0  0  0  0  0
   11.5437   -1.4109    7.4674 C   0  0  0  0  0  0  0  0  0  0  0  0
   10.6114   -2.2361    7.9907 N   0  0  0  0  0  0  0  0  0  0  0  0
   10.4334   -3.5679    7.4707 C   0  0  0  0  0  0  0  0  0  0  0  0
   12.3643   -1.7834    6.6435 O   0  0  0  0  0  0  0  0  0  0  0  0
    5.6508    1.1058    7.6735 H   0  0  0  0  0  0  0  0  0  0  0  0
    7.2764    1.7780    7.9348 H   0  0  0  0  0  0  0  0  0  0  0  0
    5.1275    2.6654    9.4432 H   0  0  0  0  0  0  0  0  0  0  0  0
    6.7763    2.5806   10.0917 H   0  0  0  0  0  0  0  0  0  0  0  0
    6.3492   -1.2080   10.6197 H   0  0  0  0  0  0  0  0  0  0  0  0
    7.5776    0.0218   10.9550 H   0  0  0  0  0  0  0  0  0  0  0  0
    3.4387    1.1498   10.4726 H   0  0  0  0  0  0  0  0  0  0  0  0
    4.1129   -0.0793    9.3696 H   0  0  0  0  0  0  0  0  0  0  0  0
   -1.1521   -1.6870    9.5011 H   0  0  0  0  0  0  0  0  0  0  0  0
   -2.2467   -0.1680    7.5272 H   0  0  0  0  0  0  0  0  0  0  0  0
   -2.1930    1.3413    5.3654 H   0  0  0  0  0  0  0  0  0  0  0  0
   -0.7458    2.3731    5.1544 H   0  0  0  0  0  0  0  0  0  0  0  0
   -2.0073    2.8373    6.3350 H   0  0  0  0  0  0  0  0  0  0  0  0
    1.8460    0.7627    8.5974 H   0  0  0  0  0  0  0  0  0  0  0  0
    2.4063   -4.7179   14.4837 H   0  0  0  0  0  0  0  0  0  0  0  0
    4.1582   -2.8392   13.6060 H   0  0  0  0  0  0  0  0  0  0  0  0
    8.3179   -1.9327    6.5260 H   0  0  0  0  0  0  0  0  0  0  0  0
    7.2668    0.9425    6.0817 H   0  0  0  0  0  0  0  0  0  0  0  0
    8.1186   -0.1724    4.9425 H   0  0  0  0  0  0  0  0  0  0  0  0
    9.4259    0.1746    8.2753 H   0  0  0  0  0  0  0  0  0  0  0  0
   10.3035    1.6922    8.5392 H   0  0  0  0  0  0  0  0  0  0  0  0
   12.4720    0.9848    6.4371 H   0  0  0  0  0  0  0  0  0  0  0  0
   15.1346    0.3242    6.1079 H   0  0  0  0  0  0  0  0  0  0  0  0
   15.8989    1.3543    7.3560 H   0  0  0  0  0  0  0  0  0  0  0  0
   14.6179    2.0213    6.2805 H   0  0  0  0  0  0  0  0  0  0  0  0
    9.8205   -1.8913    8.5355 H   0  0  0  0  0  0  0  0  0  0  0  0
   11.2404   -4.2461    7.7957 H   0  0  0  0  0  0  0  0  0  0  0  0
   10.4276   -3.5648    6.3685 H   0  0  0  0  0  0  0  0  0  0  0  0
    9.4675   -3.9371    7.8389 H   0  0  0  0  0  0  0  0  0  0  0  0
  2  3  1  0  0  0  0
  2  1  2  0  0  0  0
  3  8  1  0  0  0  0
  4  3  1  0  0  0  0
  4  5  1  0  0  0  0
  5 45  1  0  0  0  0
  5  6  1  0  0  0  0
  6  7  1  1  0  0  0
  8 46  1  0  0  0  0
  8  6  1  0  0  0  0
  8 47  1  0  0  0  0
  9 48  1  0  0  0  0
  9  6  1  0  0  0  0
  9 10  1  0  0  0  0
 11 10  1  0  0  0  0
 11 22  1  0  0  0  0
 12 11  2  0  0  0  0
 13 12  1  0  0  0  0
 13 21  2  0  0  0  0
 14 50  1  0  0  0  0
 14 13  1  0  0  0  0
 15 14  1  0  0  0  0
 16 15  2  0  0  0  0
 17 19  1  0  0  0  0
 17 16  1  0  0  0  0
 18 54  1  0  0  0  0
 18 17  1  0  0  0  0
 19 20  2  0  0  0  0
 20 15  1  0  0  0  0
 20 55  1  0  0  0  0
 21 23  1  0  0  0  0
 22 27  1  0  0  0  0
 23 22  2  0  0  0  0
 23 24  1  0  0  0  0
 24 25  1  0  0  0  0
 24 26  1  0  0  0  0
 26 56  1  0  0  0  0
 27 57  1  0  0  0  0
 27 26  2  0  0  0  0
 28  2  1  0  0  0  0
 29 59  1  0  0  0  0
 29 30  1  0  0  0  0
 29 28  1  0  0  0  0
 30 31  1  0  0  0  0
 31 32  1  0  0  0  0
 31 61  1  0  0  0  0
 31 62  1  0  0  0  0
 32 33  1  1  0  0  0
 34 35  1  0  0  0  0
 34 32  1  0  0  0  0
 35 37  2  0  0  0  0
 36 65  1  0  0  0  0
 36 35  1  0  0  0  0
 38 39  1  0  0  0  0
 38 32  1  0  0  0  0
 39 67  1  0  0  0  0
 40 68  1  0  0  0  0
 40 70  1  0  0  0  0
 40 39  1  0  0  0  0
 41 38  2  0  0  0  0
 42  4  1  0  0  0  0
 43  4  1  0  0  0  0
 44  5  1  0  0  0  0
 49  9  1  0  0  0  0
 51 16  1  0  0  0  0
 52 18  1  0  0  0  0
 53 18  1  0  0  0  0
 58 28  1  0  0  0  0
 60 29  1  0  0  0  0
 63 34  1  0  0  0  0
 64 36  1  0  0  0  0
 66 36  1  0  0  0  0
 69 40  1  0  0  0  0
M  END
