70
-1 1
O         7.836289   -2.089322    8.946992
C         7.524016   -1.088608    8.260324
N         6.886226   -0.056232    8.942655
C         6.455788    1.227816    8.422974
C         5.958800    1.978751    9.666697
C         5.587444    0.867291   10.656797
H         5.627961    1.214380   11.701028
C         6.660078   -0.185537   10.369411
C         4.187730    0.346206   10.383677
O         3.895173   -0.671529   11.339230
C         2.726588   -1.284259   11.284205
N         1.817738   -0.912379   10.400551
C         0.637246   -1.556653   10.379808
N        -0.293872   -1.155760    9.456574
C        -0.213363   -0.142511    8.507714
C        -1.237388    0.219105    7.646745
N        -0.752613    1.227698    6.871601
C        -1.470919    1.988658    5.881411
N         0.496410    1.546193    7.181082
C         0.852799    0.729060    8.164226
N         0.256684   -2.558240   11.169340
C         2.468667   -2.333038   12.188586
C         1.195136   -2.913529   12.049450
N         1.098358   -3.907806   12.976259
H         0.289832   -4.501180   13.089199
C         2.281904   -3.977215   13.697614
C         3.150825   -3.024814   13.244465
C         7.834973   -1.012567    6.862228
C         7.932327    0.085771    5.988132
S         9.798372    1.298624    6.213669
C        10.247494    0.802079    7.894705
C        11.568410    0.030314    8.029301
H        11.813952   -0.061295    9.099769
N        12.644746    0.759111    7.412480
C        13.928993    0.653311    7.838559
C        14.960392    1.134101    6.833003
O        14.246863    0.213168    8.929148
C        11.543666   -1.410888    7.467378
N        10.611364   -2.236097    7.990711
C        10.433426   -3.567945    7.470664
O        12.364262   -1.783432    6.643495
H         5.650815    1.105835    7.673457
H         7.276396    1.778041    7.934804
H         5.127487    2.665416    9.443205
H         6.776290    2.580583   10.091672
H         6.349250   -1.208044   10.619690
H         7.577615    0.021799   10.955047
H         3.438657    1.149841   10.472603
H         4.112889   -0.079335    9.369612
H        -1.152118   -1.686980    9.501133
H        -2.246733   -0.167990    7.527236
H        -2.193000    1.341345    5.365367
H        -0.745792    2.373125    5.154446
H        -2.007302    2.837325    6.334951
H         1.845998    0.762742    8.597384
H         2.406257   -4.717854   14.483731
H         4.158213   -2.839172   13.606027
H         8.317948   -1.932685    6.526016
H         7.266779    0.942455    6.081683
H         8.118595   -0.172375    4.942527
H         9.425924    0.174632    8.275350
H        10.303516    1.692194    8.539234
H        12.472049    0.984814    6.437055
H        15.134554    0.324231    6.107887
H        15.898883    1.354336    7.355983
H        14.617865    2.021291    6.280526
H         9.820538   -1.891260    8.535539
H        11.240354   -4.246134    7.795729
H        10.427559   -3.564830    6.368524
H         9.467520   -3.937119    7.838936
