-1 1
 OpenBabel05232414493D

 89 93  0  0  1  0  0  0  0  0999 V2000
    2.0239  -11.3841   -2.9194 O   0  0  0  0  0  0  0  0  0  0  0  0
    3.0232  -11.9916   -3.3015 C   0  0  0  0  0  0  0  0  0  0  0  0
    3.5251  -12.9926   -2.4092 N   0  0  0  0  0  0  0  0  0  0  0  0
    4.7896  -13.1138   -1.8464 C   0  0  0  0  0  0  0  0  0  0  0  0
    4.9607  -14.0227   -0.7823 C   0  0  0  0  0  0  0  0  0  0  0  0
    6.1969  -14.1515   -0.1601 C   0  0  0  0  0  0  0  0  0  0  0  0
    6.3519  -15.0637    0.9338 N   0  0  0  0  0  0  0  0  0  0  0  0
    6.8604  -14.8149    2.1986 C   0  0  0  0  0  0  0  0  0  0  0  0
    6.9989  -13.4600    2.7557 C   0  0  0  0  0  0  0  0  0  0  0  0
    7.7905  -13.1838    3.9110 C   0  0  0  0  0  0  0  0  0  0  0  0
    8.4667  -14.1530    4.5712 N   0  0  0  0  0  0  0  0  0  0  0  0
    7.8798  -11.9250    4.3555 N   0  0  0  0  0  0  0  0  0  0  0  0
    7.2104  -10.9752    3.7149 C   0  0  0  0  0  0  0  0  0  0  0  0
    6.3980  -11.2409    2.6047 C   0  0  0  0  0  0  0  0  0  0  0  0
    5.6206  -10.2512    1.8546 C   0  0  0  0  0  0  0  0  0  0  0  0
    4.8395  -10.5780    0.7574 C   0  0  0  0  0  0  0  0  0  0  0  0
    4.2859   -9.4399    0.3039 N   0  0  0  0  0  0  0  0  0  0  0  0
    3.4598   -9.3552   -0.9010 C   0  0  0  0  0  0  0  0  0  0  0  0
    2.1774   -8.5421   -0.6950 C   0  0  0  0  0  0  0  0  0  0  0  0
    2.3960   -7.0278   -0.8240 C   0  0  0  0  0  0  0  0  0  0  0  0
    3.0946   -6.6431   -2.0416 N   0  0  0  0  0  0  0  0  0  0  0  0
    4.3813   -7.3192   -2.1239 C   0  0  0  0  0  0  0  0  0  0  0  0
    4.2634   -8.8472   -2.1065 C   0  0  0  0  0  0  0  0  0  0  0  0
    2.2953   -6.7509   -3.2422 C   0  0  0  0  0  0  0  0  0  0  0  0
    4.6548   -8.3763    1.0254 N   0  0  0  0  0  0  0  0  0  0  0  0
    5.4577   -8.8504    1.9710 C   0  0  0  0  0  0  0  0  0  0  0  0
    6.3196  -12.4968    2.1652 N   0  0  0  0  0  0  0  0  0  0  0  0
    7.1232  -15.9124    2.8708 N   0  0  0  0  0  0  0  0  0  0  0  0
    6.2563  -16.4355    0.8305 C   0  0  0  0  0  0  0  0  0  0  0  0
    6.7523  -16.9474    2.0421 C   0  0  0  0  0  0  0  0  0  0  0  0
    6.7805  -18.3370    2.2179 C   0  0  0  0  0  0  0  0  0  0  0  0
    6.3423  -19.1595    1.2779 N   0  0  0  0  0  0  0  0  0  0  0  0
    5.8561  -18.6444    0.1321 C   0  0  0  0  0  0  0  0  0  0  0  0
    5.7846  -17.2896   -0.1654 C   0  0  0  0  0  0  0  0  0  0  0  0
    7.3018  -13.4234   -0.5964 C   0  0  0  0  0  0  0  0  0  0  0  0
    7.1276  -12.5192   -1.6374 C   0  0  0  0  0  0  0  0  0  0  0  0
    5.8936  -12.3485   -2.2515 C   0  0  0  0  0  0  0  0  0  0  0  0
    3.6361  -11.8013   -4.5848 C   0  0  0  0  0  3  0  0  0  0  0  0
    4.5310  -12.6516   -5.1986 C   0  0  0  0  0  3  0  0  0  0  0  0
    3.5177  -14.7122   -6.2223 S   0  0  0  0  0  1  0  0  0  0  0  0
    4.8297  -15.8214   -5.6076 C   0  0  0  0  0  0  0  0  0  0  0  0
    4.8506  -15.9977   -4.0736 C   0  0  2  0  0  0  0  0  0  0  0  0
    4.7126  -15.0023   -3.6229 H   0  0  0  0  0  0  0  0  0  0  0  0
    6.0929  -16.5550   -3.5913 N   0  0  0  0  0  0  0  0  0  0  0  0
    7.2220  -15.8201   -3.4598 C   0  0  0  0  0  0  0  0  0  0  0  0
    8.3423  -16.4859   -2.6844 C   0  0  0  0  0  0  0  0  0  0  0  0
    7.3350  -14.6874   -3.8994 O   0  0  0  0  0  0  0  0  0  0  0  0
    3.7295  -16.8877   -3.5258 C   0  0  0  0  0  0  0  0  0  0  0  0
    2.4899  -16.4933   -3.8530 N   0  0  0  0  0  0  0  0  0  0  0  0
    1.3135  -17.2288   -3.4726 C   0  0  0  0  0  0  0  0  0  0  0  0
    3.9813  -17.8647   -2.8203 O   0  0  0  0  0  0  0  0  0  0  0  0
    2.7765  -13.2772   -1.7867 H   0  0  0  0  0  0  0  0  0  0  0  0
    4.1123  -14.6097   -0.4233 H   0  0  0  0  0  0  0  0  0  0  0  0
    8.2283  -15.1190    4.3551 H   0  0  0  0  0  0  0  0  0  0  0  0
    8.8990  -13.8950    5.4463 H   0  0  0  0  0  0  0  0  0  0  0  0
    7.3130   -9.9546    4.0994 H   0  0  0  0  0  0  0  0  0  0  0  0
    4.6728  -11.5405    0.2823 H   0  0  0  0  0  0  0  0  0  0  0  0
    3.1621  -10.3918   -1.1044 H   0  0  0  0  0  0  0  0  0  0  0  0
    1.7372   -8.7862    0.2843 H   0  0  0  0  0  0  0  0  0  0  0  0
    1.4686   -8.8935   -1.4616 H   0  0  0  0  0  0  0  0  0  0  0  0
    2.9897   -6.6804    0.0354 H   0  0  0  0  0  0  0  0  0  0  0  0
    1.4256   -6.5053   -0.7902 H   0  0  0  0  0  0  0  0  0  0  0  0
    4.9921   -6.9923   -1.2662 H   0  0  0  0  0  0  0  0  0  0  0  0
    4.9009   -6.9912   -3.0390 H   0  0  0  0  0  0  0  0  0  0  0  0
    5.2587   -9.3179   -2.1049 H   0  0  0  0  0  0  0  0  0  0  0  0
    3.7495   -9.2040   -3.0127 H   0  0  0  0  0  0  0  0  0  0  0  0
    1.3892   -6.1323   -3.1384 H   0  0  0  0  0  0  0  0  0  0  0  0
    1.9667   -7.7791   -3.5039 H   0  0  0  0  0  0  0  0  0  0  0  0
    2.8656   -6.3615   -4.1008 H   0  0  0  0  0  0  0  0  0  0  0  0
    5.8907   -8.1680    2.7019 H   0  0  0  0  0  0  0  0  0  0  0  0
    7.1644  -18.7724    3.1475 H   0  0  0  0  0  0  0  0  0  0  0  0
    5.4804  -19.3611   -0.6048 H   0  0  0  0  0  0  0  0  0  0  0  0
    5.3597  -16.9474   -1.1080 H   0  0  0  0  0  0  0  0  0  0  0  0
    8.2689  -13.5493   -0.1075 H   0  0  0  0  0  0  0  0  0  0  0  0
    7.9780  -11.9331   -1.9896 H   0  0  0  0  0  0  0  0  0  0  0  0
    5.7777  -11.6314   -3.0623 H   0  0  0  0  0  0  0  0  0  0  0  0
    3.1465  -11.0214   -5.1731 H   0  0  0  0  0  0  0  0  0  0  0  0
    5.1784  -13.3267   -4.6369 H   0  0  0  0  0  0  0  0  0  0  0  0
    4.9207  -12.3790   -6.1794 H   0  0  0  0  0  0  0  0  0  0  0  0
    5.8086  -15.4012   -5.8816 H   0  0  0  0  0  0  0  0  0  0  0  0
    4.7529  -16.8110   -6.0877 H   0  0  0  0  0  0  0  0  0  0  0  0
    6.0026  -17.4667   -3.1535 H   0  0  0  0  0  0  0  0  0  0  0  0
    8.2349  -17.5770   -2.6120 H   0  0  0  0  0  0  0  0  0  0  0  0
    8.3409  -16.0686   -1.6654 H   0  0  0  0  0  0  0  0  0  0  0  0
    9.3022  -16.2317   -3.1521 H   0  0  0  0  0  0  0  0  0  0  0  0
    2.4310  -15.7378   -4.5571 H   0  0  0  0  0  0  0  0  0  0  0  0
    0.8757  -17.7685   -4.3290 H   0  0  0  0  0  0  0  0  0  0  0  0
    0.5476  -16.5503   -3.0664 H   0  0  0  0  0  0  0  0  0  0  0  0
    1.5903  -17.9613   -2.7034 H   0  0  0  0  0  0  0  0  0  0  0  0
  2  1  2  0  0  0  0
  2  3  1  0  0  0  0
  3  4  1  0  0  0  0
  3 52  1  0  0  0  0
  4  5  1  0  0  0  0
  5 53  1  0  0  0  0
  5  6  2  0  0  0  0
  6  7  1  0  0  0  0
  7  8  1  0  0  0  0
  8  9  1  0  0  0  0
  8 28  2  0  0  0  0
  9 10  1  0  0  0  0
 10 12  2  0  0  0  0
 10 11  1  0  0  0  0
 11 55  1  0  0  0  0
 13 56  1  0  0  0  0
 13 12  1  0  0  0  0
 14 13  2  0  0  0  0
 15 26  1  0  0  0  0
 15 14  1  0  0  0  0
 16 15  2  0  0  0  0
 17 16  1  0  0  0  0
 17 25  1  0  0  0  0
 18 19  1  0  0  0  0
 18 17  1  0  0  0  0
 19 59  1  0  0  0  0
 20 62  1  0  0  0  0
 20 19  1  0  0  0  0
 20 61  1  0  0  0  0
 21 20  1  0  0  0  0
 22 23  1  0  0  0  0
 22 21  1  0  0  0  0
 22 63  1  0  0  0  0
 23 65  1  0  0  0  0
 23 18  1  0  0  0  0
 24 67  1  0  0  0  0
 24 21  1  0  0  0  0
 25 26  2  0  0  0  0
 26 70  1  0  0  0  0
 27 14  1  0  0  0  0
 27  9  2  0  0  0  0
 29  7  1  0  0  0  0
 29 30  1  0  0  0  0
 30 31  2  0  0  0  0
 30 28  1  0  0  0  0
 31 71  1  0  0  0  0
 32 31  1  0  0  0  0
 33 32  2  0  0  0  0
 34 33  1  0  0  0  0
 34 29  2  0  0  0  0
 35  6  1  0  0  0  0
 35 74  1  0  0  0  0
 36 35  2  0  0  0  0
 37  4  2  0  0  0  0
 37 36  1  0  0  0  0
 38  2  1  0  0  0  0
 39 78  1  0  0  0  0
 39 38  1  0  0  0  0
 40 41  1  0  0  0  0
 41 42  1  0  0  0  0
 42 43  1  1  0  0  0
 42 44  1  0  0  0  0
 42 48  1  0  0  0  0
 44 45  1  0  0  0  0
 44 82  1  0  0  0  0
 45 46  1  0  0  0  0
 46 83  1  0  0  0  0
 46 84  1  0  0  0  0
 47 45  2  0  0  0  0
 48 51  2  0  0  0  0
 49 48  1  0  0  0  0
 49 50  1  0  0  0  0
 50 88  1  0  0  0  0
 50 89  1  0  0  0  0
 54 11  1  0  0  0  0
 57 16  1  0  0  0  0
 58 18  1  0  0  0  0
 60 19  1  0  0  0  0
 64 22  1  0  0  0  0
 66 23  1  0  0  0  0
 68 24  1  0  0  0  0
 69 24  1  0  0  0  0
 72 33  1  0  0  0  0
 73 34  1  0  0  0  0
 75 36  1  0  0  0  0
 76 37  1  0  0  0  0
 77 38  1  0  0  0  0
 79 39  1  0  0  0  0
 80 41  1  0  0  0  0
 81 41  1  0  0  0  0
 85 46  1  0  0  0  0
 86 49  1  0  0  0  0
 87 50  1  0  0  0  0
M  END
