87
-1 1
O        -1.903654    4.313582    0.694293
C        -1.229040    3.398808    1.121820
N        -0.167739    2.907583    0.396145
C         0.774185    1.912435    0.751345
C         0.404526    0.570830    0.886885
C         1.401870   -0.381119    1.065639
N         1.085987   -1.778749    1.045870
C         1.357965   -2.672404    0.036369
C         1.749045   -2.262478   -1.322119
C         2.352225   -3.175533   -2.246317
N         2.545792   -4.475518   -1.947616
N         2.745578   -2.730110   -3.446484
C         2.540594   -1.454953   -3.746250
C         1.922520   -0.562621   -2.863428
C         1.661652    0.856202   -3.137313
C         2.344716    1.768088   -3.923038
N         1.742944    2.973752   -3.753982
C         2.145455    4.281270   -4.284244
C         2.940509    4.146232   -5.583800
C         2.071562    3.671136   -6.744437
N         0.925368    4.539042   -6.929975
C         0.108751    4.633192   -5.729729
C         0.914894    5.151574   -4.546895
C         0.150936    4.174005   -8.090363
N         0.718091    2.898006   -2.897396
C         0.649806    1.632027   -2.526679
N         1.537422   -1.008518   -1.668332
N         1.235490   -3.929835    0.413459
C         0.742854   -2.541101    2.142713
C         0.853859   -3.879534    1.730011
C         0.597691   -4.891643    2.663228
C         0.241370   -4.475162    3.935171
N         0.109306   -3.188403    4.313286
C         0.351805   -2.219569    3.444177
C         2.744072   -0.022881    1.180350
C         3.101606    1.315909    1.066236
C         2.121186    2.277084    0.842288
C        -1.483641    2.765404    2.405915
C        -1.819076    2.286586    3.468843
S        -3.785288    0.981797    5.933785
C        -3.980899   -0.783789    5.521442
C        -3.305325   -1.201595    4.197458
H        -2.209578   -1.156202    4.329860
N        -3.698728   -0.305990    3.144424
C        -3.112020   -0.307352    1.936235
C        -3.665452    0.690800    0.939687
O        -2.212480   -1.087437    1.627151
C        -3.715412   -2.638299    3.860161
N        -2.921862   -3.580464    4.442731
C        -3.155758   -4.985336    4.255786
O        -4.707864   -2.912567    3.212251
H         0.015445    3.426252   -0.460859
H        -0.630889    0.231199    0.799611
H         2.118200   -4.833303   -1.093322
H         2.898758   -5.075659   -2.678269
H         2.866272   -1.122034   -4.738497
H         3.215012    1.638635   -4.559725
H         2.775941    4.765250   -3.519481
H         3.814563    3.489536   -5.460506
H         3.333026    5.146135   -5.824479
H         1.758786    2.614338   -6.573672
H         2.670131    3.674804   -7.669789
H        -0.343219    3.650813   -5.463404
H        -0.727482    5.321145   -5.929382
H         0.285789    5.189502   -3.649206
H         1.268442    6.171239   -4.765899
H        -0.304580    3.160831   -8.010516
H         0.785245    4.187279   -8.990540
H        -0.665536    4.896322   -8.242739
H        -0.113124    1.293311   -1.829137
H         0.670643   -5.947858    2.401839
H         0.024169   -5.219092    4.708667
H         0.218027   -1.182247    3.765416
H         3.497975   -0.799684    1.322451
H         4.149946    1.611054    1.143256
H         2.388112    3.329832    0.730714
H        -2.230066    1.842661    4.395688
H        -5.051138   -1.040191    5.439875
H        -3.558869   -1.425347    6.310557
H        -4.248395    0.494469    3.457784
H        -4.382370    0.165965    0.289867
H        -2.850871    1.069327    0.307940
H        -4.172467    1.539172    1.418033
H        -2.027513   -3.281257    4.819889
H        -2.477197   -5.426454    3.503897
H        -4.186089   -5.108788    3.897006
H        -3.033731   -5.537002    5.201889
