-1 1
 OpenBabel05192410563D

 87 91  0  0  1  0  0  0  0  0999 V2000
   -1.9037    4.3136    0.6943 O   0  0  0  0  0  0  0  0  0  0  0  0
   -1.2290    3.3988    1.1218 C   0  0  0  0  0  0  0  0  0  0  0  0
   -0.1677    2.9076    0.3961 N   0  0  0  0  0  0  0  0  0  0  0  0
    0.7742    1.9124    0.7513 C   0  0  0  0  0  0  0  0  0  0  0  0
    0.4045    0.5708    0.8869 C   0  0  0  0  0  0  0  0  0  0  0  0
    1.4019   -0.3811    1.0656 C   0  0  0  0  0  0  0  0  0  0  0  0
    1.0860   -1.7787    1.0459 N   0  0  0  0  0  0  0  0  0  0  0  0
    1.3580   -2.6724    0.0364 C   0  0  0  0  0  0  0  0  0  0  0  0
    1.7490   -2.2625   -1.3221 C   0  0  0  0  0  0  0  0  0  0  0  0
    2.3522   -3.1755   -2.2463 C   0  0  0  0  0  0  0  0  0  0  0  0
    2.5458   -4.4755   -1.9476 N   0  0  0  0  0  0  0  0  0  0  0  0
    2.7456   -2.7301   -3.4465 N   0  0  0  0  0  0  0  0  0  0  0  0
    2.5406   -1.4550   -3.7462 C   0  0  0  0  0  0  0  0  0  0  0  0
    1.9225   -0.5626   -2.8634 C   0  0  0  0  0  0  0  0  0  0  0  0
    1.6617    0.8562   -3.1373 C   0  0  0  0  0  0  0  0  0  0  0  0
    2.3447    1.7681   -3.9230 C   0  0  0  0  0  0  0  0  0  0  0  0
    1.7429    2.9738   -3.7540 N   0  0  0  0  0  0  0  0  0  0  0  0
    2.1455    4.2813   -4.2842 C   0  0  0  0  0  0  0  0  0  0  0  0
    2.9405    4.1462   -5.5838 C   0  0  0  0  0  0  0  0  0  0  0  0
    2.0716    3.6711   -6.7444 C   0  0  0  0  0  0  0  0  0  0  0  0
    0.9254    4.5390   -6.9300 N   0  0  0  0  0  0  0  0  0  0  0  0
    0.1088    4.6332   -5.7297 C   0  0  0  0  0  0  0  0  0  0  0  0
    0.9149    5.1516   -4.5469 C   0  0  0  0  0  0  0  0  0  0  0  0
    0.1509    4.1740   -8.0904 C   0  0  0  0  0  0  0  0  0  0  0  0
    0.7181    2.8980   -2.8974 N   0  0  0  0  0  0  0  0  0  0  0  0
    0.6498    1.6320   -2.5267 C   0  0  0  0  0  0  0  0  0  0  0  0
    1.5374   -1.0085   -1.6683 N   0  0  0  0  0  0  0  0  0  0  0  0
    1.2355   -3.9298    0.4135 N   0  0  0  0  0  0  0  0  0  0  0  0
    0.7429   -2.5411    2.1427 C   0  0  0  0  0  0  0  0  0  0  0  0
    0.8539   -3.8795    1.7300 C   0  0  0  0  0  0  0  0  0  0  0  0
    0.5977   -4.8916    2.6632 C   0  0  0  0  0  0  0  0  0  0  0  0
    0.2414   -4.4752    3.9352 C   0  0  0  0  0  0  0  0  0  0  0  0
    0.1093   -3.1884    4.3133 N   0  0  0  0  0  0  0  0  0  0  0  0
    0.3518   -2.2196    3.4442 C   0  0  0  0  0  0  0  0  0  0  0  0
    2.7441   -0.0229    1.1804 C   0  0  0  0  0  0  0  0  0  0  0  0
    3.1016    1.3159    1.0662 C   0  0  0  0  0  0  0  0  0  0  0  0
    2.1212    2.2771    0.8423 C   0  0  0  0  0  0  0  0  0  0  0  0
   -1.4836    2.7654    2.4059 C   0  0  0  0  0  0  0  0  0  0  0  0
   -1.8191    2.2866    3.4688 C   0  0  0  0  0  0  0  0  0  0  0  0
   -3.7853    0.9818    5.9338 S   0  0  0  0  0  1  0  0  0  0  0  0
   -3.9809   -0.7838    5.5214 C   0  0  0  0  0  0  0  0  0  0  0  0
   -3.3053   -1.2016    4.1975 C   0  0  2  0  0  0  0  0  0  0  0  0
   -2.2096   -1.1562    4.3299 H   0  0  0  0  0  0  0  0  0  0  0  0
   -3.6987   -0.3060    3.1444 N   0  0  0  0  0  0  0  0  0  0  0  0
   -3.1120   -0.3074    1.9362 C   0  0  0  0  0  0  0  0  0  0  0  0
   -3.6655    0.6908    0.9397 C   0  0  0  0  0  0  0  0  0  0  0  0
   -2.2125   -1.0874    1.6272 O   0  0  0  0  0  0  0  0  0  0  0  0
   -3.7154   -2.6383    3.8602 C   0  0  0  0  0  0  0  0  0  0  0  0
   -2.9219   -3.5805    4.4427 N   0  0  0  0  0  0  0  0  0  0  0  0
   -3.1558   -4.9853    4.2558 C   0  0  0  0  0  0  0  0  0  0  0  0
   -4.7079   -2.9126    3.2123 O   0  0  0  0  0  0  0  0  0  0  0  0
    0.0154    3.4263   -0.4609 H   0  0  0  0  0  0  0  0  0  0  0  0
   -0.6309    0.2312    0.7996 H   0  0  0  0  0  0  0  0  0  0  0  0
    2.1182   -4.8333   -1.0933 H   0  0  0  0  0  0  0  0  0  0  0  0
    2.8988   -5.0757   -2.6783 H   0  0  0  0  0  0  0  0  0  0  0  0
    2.8663   -1.1220   -4.7385 H   0  0  0  0  0  0  0  0  0  0  0  0
    3.2150    1.6386   -4.5597 H   0  0  0  0  0  0  0  0  0  0  0  0
    2.7759    4.7652   -3.5195 H   0  0  0  0  0  0  0  0  0  0  0  0
    3.8146    3.4895   -5.4605 H   0  0  0  0  0  0  0  0  0  0  0  0
    3.3330    5.1461   -5.8245 H   0  0  0  0  0  0  0  0  0  0  0  0
    1.7588    2.6143   -6.5737 H   0  0  0  0  0  0  0  0  0  0  0  0
    2.6701    3.6748   -7.6698 H   0  0  0  0  0  0  0  0  0  0  0  0
   -0.3432    3.6508   -5.4634 H   0  0  0  0  0  0  0  0  0  0  0  0
   -0.7275    5.3211   -5.9294 H   0  0  0  0  0  0  0  0  0  0  0  0
    0.2858    5.1895   -3.6492 H   0  0  0  0  0  0  0  0  0  0  0  0
    1.2684    6.1712   -4.7659 H   0  0  0  0  0  0  0  0  0  0  0  0
   -0.3046    3.1608   -8.0105 H   0  0  0  0  0  0  0  0  0  0  0  0
    0.7852    4.1873   -8.9905 H   0  0  0  0  0  0  0  0  0  0  0  0
   -0.6655    4.8963   -8.2427 H   0  0  0  0  0  0  0  0  0  0  0  0
   -0.1131    1.2933   -1.8291 H   0  0  0  0  0  0  0  0  0  0  0  0
    0.6706   -5.9479    2.4018 H   0  0  0  0  0  0  0  0  0  0  0  0
    0.0242   -5.2191    4.7087 H   0  0  0  0  0  0  0  0  0  0  0  0
    0.2180   -1.1822    3.7654 H   0  0  0  0  0  0  0  0  0  0  0  0
    3.4980   -0.7997    1.3225 H   0  0  0  0  0  0  0  0  0  0  0  0
    4.1499    1.6111    1.1433 H   0  0  0  0  0  0  0  0  0  0  0  0
    2.3881    3.3298    0.7307 H   0  0  0  0  0  0  0  0  0  0  0  0
   -2.2301    1.8427    4.3957 H   0  0  0  0  0  0  0  0  0  0  0  0
   -5.0511   -1.0402    5.4399 H   0  0  0  0  0  0  0  0  0  0  0  0
   -3.5589   -1.4253    6.3106 H   0  0  0  0  0  0  0  0  0  0  0  0
   -4.2484    0.4945    3.4578 H   0  0  0  0  0  0  0  0  0  0  0  0
   -4.3824    0.1660    0.2899 H   0  0  0  0  0  0  0  0  0  0  0  0
   -2.8509    1.0693    0.3079 H   0  0  0  0  0  0  0  0  0  0  0  0
   -4.1725    1.5392    1.4180 H   0  0  0  0  0  0  0  0  0  0  0  0
   -2.0275   -3.2813    4.8199 H   0  0  0  0  0  0  0  0  0  0  0  0
   -2.4772   -5.4265    3.5039 H   0  0  0  0  0  0  0  0  0  0  0  0
   -4.1861   -5.1088    3.8970 H   0  0  0  0  0  0  0  0  0  0  0  0
   -3.0337   -5.5370    5.2019 H   0  0  0  0  0  0  0  0  0  0  0  0
  1  2  2  0  0  0  0
  2 38  1  0  0  0  0
  3  4  1  0  0  0  0
  3  2  1  0  0  0  0
  4 37  2  0  0  0  0
  4  5  1  0  0  0  0
  5  6  2  0  0  0  0
  6 35  1  0  0  0  0
  7  6  1  0  0  0  0
  7 29  1  0  0  0  0
  8 28  2  0  0  0  0
  8  7  1  0  0  0  0
  9  8  1  0  0  0  0
 10 11  1  0  0  0  0
 10  9  2  0  0  0  0
 11 54  1  0  0  0  0
 12 10  1  0  0  0  0
 13 12  2  0  0  0  0
 13 14  1  0  0  0  0
 14 27  2  0  0  0  0
 15 14  1  0  0  0  0
 15 26  1  0  0  0  0
 16 17  1  0  0  0  0
 16 15  2  0  0  0  0
 17 25  1  0  0  0  0
 18 17  1  0  0  0  0
 18 58  1  0  0  0  0
 19 59  1  0  0  0  0
 19 18  1  0  0  0  0
 20 61  1  0  0  0  0
 20 19  1  0  0  0  0
 21 20  1  0  0  0  0
 21 22  1  0  0  0  0
 22 63  1  0  0  0  0
 22 23  1  0  0  0  0
 23 18  1  0  0  0  0
 23 65  1  0  0  0  0
 24 67  1  0  0  0  0
 24 21  1  0  0  0  0
 25 26  2  0  0  0  0
 26 70  1  0  0  0  0
 27  9  1  0  0  0  0
 28 30  1  0  0  0  0
 29 34  1  0  0  0  0
 30 29  2  0  0  0  0
 30 31  1  0  0  0  0
 31 32  2  0  0  0  0
 32 33  1  0  0  0  0
 32 72  1  0  0  0  0
 34 73  1  0  0  0  0
 34 33  2  0  0  0  0
 35 74  1  0  0  0  0
 36 75  1  0  0  0  0
 36 35  2  0  0  0  0
 37 36  1  0  0  0  0
 38 39  3  0  0  0  0
 39 77  1  0  0  0  0
 41 40  1  0  0  0  0
 41 79  1  0  0  0  0
 42 43  1  1  0  0  0
 42 41  1  0  0  0  0
 44 80  1  0  0  0  0
 44 42  1  0  0  0  0
 45 44  1  0  0  0  0
 46 83  1  0  0  0  0
 46 45  1  0  0  0  0
 47 45  2  0  0  0  0
 48 42  1  0  0  0  0
 48 49  1  0  0  0  0
 49 84  1  0  0  0  0
 50 49  1  0  0  0  0
 50 87  1  0  0  0  0
 51 48  2  0  0  0  0
 52  3  1  0  0  0  0
 53  5  1  0  0  0  0
 55 11  1  0  0  0  0
 56 13  1  0  0  0  0
 57 16  1  0  0  0  0
 60 19  1  0  0  0  0
 62 20  1  0  0  0  0
 64 22  1  0  0  0  0
 66 23  1  0  0  0  0
 68 24  1  0  0  0  0
 69 24  1  0  0  0  0
 71 31  1  0  0  0  0
 76 37  1  0  0  0  0
 78 41  1  0  0  0  0
 81 46  1  0  0  0  0
 82 46  1  0  0  0  0
 85 50  1  0  0  0  0
 86 50  1  0  0  0  0
M  END
