87
-1 1
O        -2.011348    1.926323   -0.404865
C        -1.595864    2.361965    0.693467
N        -0.231231    2.873312    0.761633
C         0.769184    1.928320    0.947388
C         0.471826    0.560522    1.084413
C         1.500079   -0.359997    1.193467
N         1.181087   -1.760698    1.152412
C         1.213594   -2.593228    0.063748
C         1.492020   -2.136327   -1.309466
C         1.855949   -3.050783   -2.348137
N         1.957509   -4.383204   -2.136381
N         2.118632   -2.582607   -3.573985
C         2.008462   -1.277831   -3.786016
C         1.628626   -0.376766   -2.784244
C         1.487940    1.071778   -2.991635
C         2.284875    1.914154   -3.744956
N         1.799653    3.171660   -3.585025
C         2.353565    4.433665   -4.076855
C         3.143206    4.240494   -5.372900
C         2.238269    3.883584   -6.547635
N         1.196010    4.876558   -6.727639
C         0.384110    5.041219   -5.530083
C         1.231742    5.442636   -4.330949
C         0.393625    4.610581   -7.895229
N         0.741922    3.189919   -2.762174
C         0.530395    1.935576   -2.399174
N         1.378755   -0.847734   -1.564618
N         0.951994   -3.852990    0.366115
C         0.810199   -2.547769    2.218098
C         0.678949   -3.851796    1.704640
C         0.288117   -4.876926    2.573190
C         0.023301   -4.509134    3.882079
N         0.118896   -3.252627    4.361623
C         0.520788   -2.274263    3.555164
C         2.840553    0.020514    1.233406
C         3.136153    1.376791    1.109609
C         2.121723    2.316540    0.961065
C        -2.256331    2.473122    1.886007
C        -2.488397    2.148506    3.138112
S        -1.522189    0.903360    4.040212
C        -2.738482   -0.325887    4.589505
C        -2.924245   -1.499787    3.613928
H        -1.936726   -1.888292    3.334497
N        -3.546690   -1.107707    2.384682
C        -2.957942   -1.296906    1.169879
C        -3.689837   -0.703402   -0.003053
O        -1.888496   -1.876399    1.047830
C        -3.706177   -2.609547    4.322846
N        -2.926023   -3.380396    5.127069
C        -3.456410   -4.452350    5.924524
O        -4.913233   -2.736933    4.218151
H        -0.015230    3.536460    0.020549
H        -0.548679    0.193842    0.994672
H         1.557148   -4.742263   -1.269165
H         2.074661   -4.963731   -2.954020
H         2.211177   -0.922087   -4.802927
H         3.162142    1.698404   -4.348645
H         3.026390    4.830841   -3.297374
H         3.936866    3.487651   -5.256291
H         3.645810    5.195514   -5.591871
H         1.809227    2.866210   -6.394104
H         2.840925    3.835568   -7.469535
H        -0.176850    4.112187   -5.283614
H        -0.367039    5.823097   -5.724497
H         0.600669    5.521770   -3.437416
H         1.697280    6.422458   -4.522982
H        -0.169407    3.651654   -7.830138
H         1.030629    4.565439   -8.792878
H        -0.339978    5.418314   -8.042596
H        -0.309581    1.693317   -1.737069
H         0.168661   -5.905208    2.229885
H        -0.313344   -5.265812    4.599481
H         0.566685   -1.254289    3.949930
H         3.624809   -0.734032    1.314585
H         4.177839    1.707601    1.121264
H         2.364787    3.376084    0.849534
H        -3.155178    2.709109    3.810307
H        -3.705602    0.168156    4.780364
H        -2.380937   -0.716547    5.553851
H        -4.441306   -0.640629    2.432427
H        -4.768914   -0.594952    0.179253
H        -3.518349   -1.336288   -0.882828
H        -3.249613    0.294656   -0.204382
H        -1.916560   -3.233869    5.103098
H        -3.064954   -5.431901    5.601944
H        -4.547358   -4.455242    5.801147
H        -3.218617   -4.319642    6.992712
