-1 1
 OpenBabel05232413493D

 87 92  0  0  1  0  0  0  0  0999 V2000
   -2.0113    1.9263   -0.4049 O   0  0  0  0  0  0  0  0  0  0  0  0
   -1.5959    2.3620    0.6935 C   0  0  0  0  0  0  0  0  0  0  0  0
   -0.2312    2.8733    0.7616 N   0  0  0  0  0  0  0  0  0  0  0  0
    0.7692    1.9283    0.9474 C   0  0  0  0  0  0  0  0  0  0  0  0
    0.4718    0.5605    1.0844 C   0  0  0  0  0  0  0  0  0  0  0  0
    1.5001   -0.3600    1.1935 C   0  0  0  0  0  0  0  0  0  0  0  0
    1.1811   -1.7607    1.1524 N   0  0  0  0  0  0  0  0  0  0  0  0
    1.2136   -2.5932    0.0637 C   0  0  0  0  0  0  0  0  0  0  0  0
    1.4920   -2.1363   -1.3095 C   0  0  0  0  0  0  0  0  0  0  0  0
    1.8559   -3.0508   -2.3481 C   0  0  0  0  0  0  0  0  0  0  0  0
    1.9575   -4.3832   -2.1364 N   0  0  0  0  0  0  0  0  0  0  0  0
    2.1186   -2.5826   -3.5740 N   0  0  0  0  0  0  0  0  0  0  0  0
    2.0085   -1.2778   -3.7860 C   0  0  0  0  0  0  0  0  0  0  0  0
    1.6286   -0.3768   -2.7842 C   0  0  0  0  0  0  0  0  0  0  0  0
    1.4879    1.0718   -2.9916 C   0  0  0  0  0  0  0  0  0  0  0  0
    2.2849    1.9142   -3.7450 C   0  0  0  0  0  0  0  0  0  0  0  0
    1.7997    3.1717   -3.5850 N   0  0  0  0  0  0  0  0  0  0  0  0
    2.3536    4.4337   -4.0769 C   0  0  0  0  0  0  0  0  0  0  0  0
    3.1432    4.2405   -5.3729 C   0  0  0  0  0  0  0  0  0  0  0  0
    2.2383    3.8836   -6.5476 C   0  0  0  0  0  0  0  0  0  0  0  0
    1.1960    4.8766   -6.7276 N   0  0  0  0  0  0  0  0  0  0  0  0
    0.3841    5.0412   -5.5301 C   0  0  0  0  0  0  0  0  0  0  0  0
    1.2317    5.4426   -4.3309 C   0  0  0  0  0  0  0  0  0  0  0  0
    0.3936    4.6106   -7.8952 C   0  0  0  0  0  0  0  0  0  0  0  0
    0.7419    3.1899   -2.7622 N   0  0  0  0  0  0  0  0  0  0  0  0
    0.5304    1.9356   -2.3992 C   0  0  0  0  0  0  0  0  0  0  0  0
    1.3788   -0.8477   -1.5646 N   0  0  0  0  0  0  0  0  0  0  0  0
    0.9520   -3.8530    0.3661 N   0  0  0  0  0  0  0  0  0  0  0  0
    0.8102   -2.5478    2.2181 C   0  0  0  0  0  0  0  0  0  0  0  0
    0.6789   -3.8518    1.7046 C   0  0  0  0  0  0  0  0  0  0  0  0
    0.2881   -4.8769    2.5732 C   0  0  0  0  0  0  0  0  0  0  0  0
    0.0233   -4.5091    3.8821 C   0  0  0  0  0  0  0  0  0  0  0  0
    0.1189   -3.2526    4.3616 N   0  0  0  0  0  0  0  0  0  0  0  0
    0.5208   -2.2743    3.5552 C   0  0  0  0  0  0  0  0  0  0  0  0
    2.8406    0.0205    1.2334 C   0  0  0  0  0  0  0  0  0  0  0  0
    3.1362    1.3768    1.1096 C   0  0  0  0  0  0  0  0  0  0  0  0
    2.1217    2.3165    0.9611 C   0  0  0  0  0  0  0  0  0  0  0  0
   -2.2563    2.4731    1.8860 C   0  0  0  0  0  3  0  0  0  0  0  0
   -2.4884    2.1485    3.1381 C   0  0  0  0  0  0  0  0  0  0  0  0
   -1.5222    0.9034    4.0402 S   0  0  0  0  0  0  0  0  0  0  0  0
   -2.7385   -0.3259    4.5895 C   0  0  0  0  0  0  0  0  0  0  0  0
   -2.9242   -1.4998    3.6139 C   0  0  2  0  0  0  0  0  0  0  0  0
   -1.9367   -1.8883    3.3345 H   0  0  0  0  0  0  0  0  0  0  0  0
   -3.5467   -1.1077    2.3847 N   0  0  0  0  0  0  0  0  0  0  0  0
   -2.9579   -1.2969    1.1699 C   0  0  0  0  0  0  0  0  0  0  0  0
   -3.6898   -0.7034   -0.0031 C   0  0  0  0  0  0  0  0  0  0  0  0
   -1.8885   -1.8764    1.0478 O   0  0  0  0  0  0  0  0  0  0  0  0
   -3.7062   -2.6095    4.3228 C   0  0  0  0  0  0  0  0  0  0  0  0
   -2.9260   -3.3804    5.1271 N   0  0  0  0  0  0  0  0  0  0  0  0
   -3.4564   -4.4524    5.9245 C   0  0  0  0  0  0  0  0  0  0  0  0
   -4.9132   -2.7369    4.2182 O   0  0  0  0  0  0  0  0  0  0  0  0
   -0.0152    3.5365    0.0205 H   0  0  0  0  0  0  0  0  0  0  0  0
   -0.5487    0.1938    0.9947 H   0  0  0  0  0  0  0  0  0  0  0  0
    1.5571   -4.7423   -1.2692 H   0  0  0  0  0  0  0  0  0  0  0  0
    2.0747   -4.9637   -2.9540 H   0  0  0  0  0  0  0  0  0  0  0  0
    2.2112   -0.9221   -4.8029 H   0  0  0  0  0  0  0  0  0  0  0  0
    3.1621    1.6984   -4.3486 H   0  0  0  0  0  0  0  0  0  0  0  0
    3.0264    4.8308   -3.2974 H   0  0  0  0  0  0  0  0  0  0  0  0
    3.9369    3.4877   -5.2563 H   0  0  0  0  0  0  0  0  0  0  0  0
    3.6458    5.1955   -5.5919 H   0  0  0  0  0  0  0  0  0  0  0  0
    1.8092    2.8662   -6.3941 H   0  0  0  0  0  0  0  0  0  0  0  0
    2.8409    3.8356   -7.4695 H   0  0  0  0  0  0  0  0  0  0  0  0
   -0.1769    4.1122   -5.2836 H   0  0  0  0  0  0  0  0  0  0  0  0
   -0.3670    5.8231   -5.7245 H   0  0  0  0  0  0  0  0  0  0  0  0
    0.6007    5.5218   -3.4374 H   0  0  0  0  0  0  0  0  0  0  0  0
    1.6973    6.4225   -4.5230 H   0  0  0  0  0  0  0  0  0  0  0  0
   -0.1694    3.6517   -7.8301 H   0  0  0  0  0  0  0  0  0  0  0  0
    1.0306    4.5654   -8.7929 H   0  0  0  0  0  0  0  0  0  0  0  0
   -0.3400    5.4183   -8.0426 H   0  0  0  0  0  0  0  0  0  0  0  0
   -0.3096    1.6933   -1.7371 H   0  0  0  0  0  0  0  0  0  0  0  0
    0.1687   -5.9052    2.2299 H   0  0  0  0  0  0  0  0  0  0  0  0
   -0.3133   -5.2658    4.5995 H   0  0  0  0  0  0  0  0  0  0  0  0
    0.5667   -1.2543    3.9499 H   0  0  0  0  0  0  0  0  0  0  0  0
    3.6248   -0.7340    1.3146 H   0  0  0  0  0  0  0  0  0  0  0  0
    4.1778    1.7076    1.1213 H   0  0  0  0  0  0  0  0  0  0  0  0
    2.3648    3.3761    0.8495 H   0  0  0  0  0  0  0  0  0  0  0  0
   -3.1552    2.7091    3.8103 H   0  0  0  0  0  0  0  0  0  0  0  0
   -3.7056    0.1682    4.7804 H   0  0  0  0  0  0  0  0  0  0  0  0
   -2.3809   -0.7165    5.5539 H   0  0  0  0  0  0  0  0  0  0  0  0
   -4.4413   -0.6406    2.4324 H   0  0  0  0  0  0  0  0  0  0  0  0
   -4.7689   -0.5950    0.1793 H   0  0  0  0  0  0  0  0  0  0  0  0
   -3.5183   -1.3363   -0.8828 H   0  0  0  0  0  0  0  0  0  0  0  0
   -3.2496    0.2947   -0.2044 H   0  0  0  0  0  0  0  0  0  0  0  0
   -1.9166   -3.2339    5.1031 H   0  0  0  0  0  0  0  0  0  0  0  0
   -3.0650   -5.4319    5.6019 H   0  0  0  0  0  0  0  0  0  0  0  0
   -4.5474   -4.4552    5.8011 H   0  0  0  0  0  0  0  0  0  0  0  0
   -3.2186   -4.3196    6.9927 H   0  0  0  0  0  0  0  0  0  0  0  0
  1  2  2  0  0  0  0
  2  3  1  0  0  0  0
  2 38  1  0  0  0  0
  3  4  1  0  0  0  0
  4 37  2  0  0  0  0
  4  5  1  0  0  0  0
  5  6  2  0  0  0  0
  6 35  1  0  0  0  0
  7  6  1  0  0  0  0
  7 29  1  0  0  0  0
  8 28  2  0  0  0  0
  8  7  1  0  0  0  0
  9  8  1  0  0  0  0
 10 11  1  0  0  0  0
 10  9  2  0  0  0  0
 11 54  1  0  0  0  0
 12 10  1  0  0  0  0
 13 12  2  0  0  0  0
 13 14  1  0  0  0  0
 14 27  2  0  0  0  0
 15 14  1  0  0  0  0
 15 26  1  0  0  0  0
 16 17  1  0  0  0  0
 16 15  2  0  0  0  0
 17 25  1  0  0  0  0
 18 17  1  0  0  0  0
 18 58  1  0  0  0  0
 19 59  1  0  0  0  0
 19 18  1  0  0  0  0
 20 61  1  0  0  0  0
 20 19  1  0  0  0  0
 21 20  1  0  0  0  0
 21 22  1  0  0  0  0
 22 63  1  0  0  0  0
 22 23  1  0  0  0  0
 23 18  1  0  0  0  0
 23 65  1  0  0  0  0
 24 67  1  0  0  0  0
 24 21  1  0  0  0  0
 25 26  2  0  0  0  0
 26 70  1  0  0  0  0
 27  9  1  0  0  0  0
 28 30  1  0  0  0  0
 29 34  1  0  0  0  0
 30 29  2  0  0  0  0
 30 31  1  0  0  0  0
 31 32  2  0  0  0  0
 32 33  1  0  0  0  0
 32 72  1  0  0  0  0
 34 73  1  0  0  0  0
 34 33  2  0  0  0  0
 35 74  1  0  0  0  0
 36 75  1  0  0  0  0
 36 35  2  0  0  0  0
 37 36  1  0  0  0  0
 38 39  2  0  0  0  0
 39 77  1  0  0  0  0
 39 40  1  0  0  0  0
 40 41  1  0  0  0  0
 41 78  1  0  0  0  0
 41 79  1  0  0  0  0
 42 43  1  6  0  0  0
 42 48  1  0  0  0  0
 42 41  1  0  0  0  0
 44 80  1  0  0  0  0
 44 42  1  0  0  0  0
 45 44  1  0  0  0  0
 46 81  1  0  0  0  0
 46 45  1  0  0  0  0
 47 45  2  0  0  0  0
 48 49  1  0  0  0  0
 49 50  1  0  0  0  0
 50 87  1  0  0  0  0
 51 48  2  0  0  0  0
 52  3  1  0  0  0  0
 53  5  1  0  0  0  0
 55 11  1  0  0  0  0
 56 13  1  0  0  0  0
 57 16  1  0  0  0  0
 60 19  1  0  0  0  0
 62 20  1  0  0  0  0
 64 22  1  0  0  0  0
 66 23  1  0  0  0  0
 68 24  1  0  0  0  0
 69 24  1  0  0  0  0
 71 31  1  0  0  0  0
 76 37  1  0  0  0  0
 82 46  1  0  0  0  0
 83 46  1  0  0  0  0
 84 49  1  0  0  0  0
 85 50  1  0  0  0  0
 86 50  1  0  0  0  0
M  END
