75
-1 1
O        -1.481381   -1.528809    6.002364
C        -1.346006   -1.165121    4.848251
N        -1.197103   -2.098180    3.840985
C        -0.612703   -1.939763    2.558432
C        -1.292900   -2.422971    1.440745
C        -0.715147   -2.324560    0.174068
N        -1.461644   -2.813971   -0.941422
C        -2.148525   -2.079130   -1.890255
C        -1.969440   -0.628014   -2.093459
C        -3.098299    0.205816   -2.300711
N        -4.368395   -0.286016   -2.376936
N        -2.932859    1.528284   -2.400937
C        -1.700492    2.003393   -2.373285
C        -0.566295    1.174282   -2.304460
C         0.783860    1.727400   -2.450319
C         1.985484    1.251331   -1.948039
N         2.950034    2.106000   -2.354389
C         4.357682    2.062613   -2.025041
N         2.470000    3.099087   -3.104208
C         1.163892    2.888649   -3.164734
N        -0.735431   -0.134508   -2.133819
N        -3.000272   -2.806751   -2.575877
C        -1.921039   -4.113241   -1.054274
C        -2.879220   -4.087359   -2.086691
C        -3.536021   -5.267649   -2.458527
C        -3.215734   -6.435521   -1.778693
C        -2.258368   -6.442191   -0.744514
C        -1.593939   -5.282440   -0.363988
C         0.543162   -1.755910    0.011233
C         1.208118   -1.246809    1.124594
C         0.637924   -1.336582    2.390902
C        -1.411175    0.273472    4.470550
C        -1.965916    0.744342    3.350512
S        -0.778543    3.064073    1.079255
C         0.692251    2.724349    2.112871
C         1.971316    2.385390    1.331864
H         1.713024    1.623764    0.583774
N         2.981783    1.821215    2.211513
C         3.999797    1.059479    1.742992
C         5.239685    1.039295    2.612163
O         3.944129    0.419349    0.700374
C         2.618124    3.577008    0.588569
N         1.773866    4.347866   -0.104169
C         2.228888    5.503124   -0.831432
O         3.832132    3.774615    0.646076
H        -1.303738   -3.049258    4.178350
H        -2.288220   -2.856512    1.556803
H        -4.461973   -1.257938   -2.653816
H        -5.067686    0.379775   -2.675062
H        -1.583331    3.090529   -2.403951
H         2.220579    0.409367   -1.303037
H         4.535889    1.197578   -1.376126
H         4.626407    2.965747   -1.460120
H         4.953463    1.991752   -2.946416
H         0.528163    3.567313   -3.732905
H        -4.275646   -5.253988   -3.261078
H        -3.713755   -7.369937   -2.047713
H        -2.032116   -7.380054   -0.232088
H        -0.851532   -5.279105    0.435994
H         0.969079   -1.681842   -0.987490
H         2.187817   -0.781623    0.995440
H         1.164063   -0.934149    3.258342
H        -1.070285    0.951213    5.258318
H        -2.037578    1.813861    3.129076
H        -2.340537    0.079330    2.568184
H         0.492184    1.855378    2.761580
H         0.904561    3.580471    2.781478
H         3.214054    2.411843    3.001267
H         4.999021    1.073385    3.684757
H         5.833212    1.931342    2.359842
H         5.826772    0.140977    2.388133
H         0.763521    4.120074   -0.018471
H         2.919417    6.105256   -0.219852
H         1.358156    6.117402   -1.098965
H         2.749225    5.211595   -1.758496
