75
-1 1
O         1.901125   -0.684105    4.121652
C         0.772037   -0.184853    3.964338
N         0.042811   -0.484064    2.774730
C         0.401449   -1.242990    1.681660
C        -0.593239   -1.549487    0.732317
C        -0.287694   -2.287488   -0.404280
N        -1.362091   -2.738960   -1.239219
C        -2.184411   -2.068937   -2.114491
C        -1.961983   -0.690463   -2.581649
C        -3.012431    0.031992   -3.231334
N        -4.244683   -0.486278   -3.437486
N        -2.790084    1.284440   -3.646856
C        -1.579901    1.788024   -3.479032
C        -0.519682    1.069724   -2.900584
C         0.820372    1.661857   -2.830092
C         1.831768    1.463764   -1.897812
N         2.849359    2.275880   -2.257219
C         4.095194    2.496243   -1.550929
N         2.584450    2.985684   -3.358101
C         1.362881    2.624009   -3.716199
N        -0.753526   -0.160979   -2.441315
N        -3.189333   -2.815073   -2.533542
C        -1.894351   -4.007199   -1.102593
C        -3.036364   -4.035614   -1.924263
C        -3.812921   -5.200252   -2.004425
C        -3.420175   -6.295789   -1.248249
C        -2.279805   -6.244842   -0.419481
C        -1.497703   -5.100849   -0.328756
C         1.005880   -2.734128   -0.653505
C         1.987834   -2.444173    0.293654
C         1.703581   -1.731574    1.451568
C         0.115749    0.692560    4.850785
C        -1.159177    1.352432    4.615372
S        -1.159902    2.912988    3.369851
C         0.611408    3.264806    3.373512
C         1.416427    2.540933    2.270910
H         0.833623    1.673324    1.922360
N         2.673978    2.074628    2.806400
C         3.446612    1.211320    2.097889
C         4.546496    0.548905    2.893054
O         3.249624    0.976470    0.915177
C         1.617137    3.485194    1.082762
N         0.526958    3.554637    0.279222
C         0.453961    4.456205   -0.841537
O         2.619040    4.154462    0.907958
H        -0.888952   -0.095117    2.730887
H        -1.626050   -1.232356    0.898029
H        -4.357186   -1.490326   -3.303115
H        -4.879521    0.065819   -3.995059
H        -1.423781    2.819105   -3.814837
H         1.891074    0.852218   -0.998525
H         4.300578    1.627590   -0.917256
H         4.003927    3.375872   -0.897528
H         4.887980    2.646538   -2.294415
H         0.910622    3.047296   -4.613361
H        -4.697794   -5.229895   -2.642891
H        -4.005862   -7.217179   -1.289536
H        -2.006964   -7.125367    0.166632
H        -0.615953   -5.046576    0.311770
H         1.224262   -3.302489   -1.558387
H         3.012200   -2.785655    0.127289
H         2.461954   -1.536023    2.203589
H         0.678001    0.936796    5.754463
H        -1.573448    1.787703    5.532616
H        -1.949316    0.741475    4.149206
H         0.978789    2.918181    4.351722
H         0.755531    4.353360    3.319610
H         2.687610    1.941794    3.811462
H         4.060332   -0.113107    3.628155
H         5.152801    1.294542    3.428399
H         5.181299   -0.034414    2.216215
H        -0.281748    2.995290    0.523981
H         0.216298    5.488572   -0.531488
H        -0.318246    4.106074   -1.538639
H         1.415221    4.470645   -1.373256
