-1 1
 OpenBabel05192410563D

 75 79  0  0  1  0  0  0  0  0999 V2000
    1.9011   -0.6841    4.1217 O   0  0  0  0  0  0  0  0  0  0  0  0
    0.7720   -0.1849    3.9643 C   0  0  0  0  0  0  0  0  0  0  0  0
    0.0428   -0.4841    2.7747 N   0  0  0  0  0  0  0  0  0  0  0  0
    0.4014   -1.2430    1.6817 C   0  0  0  0  0  0  0  0  0  0  0  0
   -0.5932   -1.5495    0.7323 C   0  0  0  0  0  0  0  0  0  0  0  0
   -0.2877   -2.2875   -0.4043 C   0  0  0  0  0  0  0  0  0  0  0  0
   -1.3621   -2.7390   -1.2392 N   0  0  0  0  0  0  0  0  0  0  0  0
   -2.1844   -2.0689   -2.1145 C   0  0  0  0  0  0  0  0  0  0  0  0
   -1.9620   -0.6905   -2.5816 C   0  0  0  0  0  0  0  0  0  0  0  0
   -3.0124    0.0320   -3.2313 C   0  0  0  0  0  0  0  0  0  0  0  0
   -4.2447   -0.4863   -3.4375 N   0  0  0  0  0  0  0  0  0  0  0  0
   -2.7901    1.2844   -3.6469 N   0  0  0  0  0  0  0  0  0  0  0  0
   -1.5799    1.7880   -3.4790 C   0  0  0  0  0  0  0  0  0  0  0  0
   -0.5197    1.0697   -2.9006 C   0  0  0  0  0  0  0  0  0  0  0  0
    0.8204    1.6619   -2.8301 C   0  0  0  0  0  0  0  0  0  0  0  0
    1.8318    1.4638   -1.8978 C   0  0  0  0  0  0  0  0  0  0  0  0
    2.8494    2.2759   -2.2572 N   0  0  0  0  0  0  0  0  0  0  0  0
    4.0952    2.4962   -1.5509 C   0  0  0  0  0  0  0  0  0  0  0  0
    2.5844    2.9857   -3.3581 N   0  0  0  0  0  0  0  0  0  0  0  0
    1.3629    2.6240   -3.7162 C   0  0  0  0  0  0  0  0  0  0  0  0
   -0.7535   -0.1610   -2.4413 N   0  0  0  0  0  0  0  0  0  0  0  0
   -3.1893   -2.8151   -2.5335 N   0  0  0  0  0  0  0  0  0  0  0  0
   -1.8944   -4.0072   -1.1026 C   0  0  0  0  0  0  0  0  0  0  0  0
   -3.0364   -4.0356   -1.9243 C   0  0  0  0  0  0  0  0  0  0  0  0
   -3.8129   -5.2003   -2.0044 C   0  0  0  0  0  0  0  0  0  0  0  0
   -3.4202   -6.2958   -1.2482 C   0  0  0  0  0  0  0  0  0  0  0  0
   -2.2798   -6.2448   -0.4195 C   0  0  0  0  0  0  0  0  0  0  0  0
   -1.4977   -5.1008   -0.3288 C   0  0  0  0  0  0  0  0  0  0  0  0
    1.0059   -2.7341   -0.6535 C   0  0  0  0  0  0  0  0  0  0  0  0
    1.9878   -2.4442    0.2937 C   0  0  0  0  0  0  0  0  0  0  0  0
    1.7036   -1.7316    1.4516 C   0  0  0  0  0  0  0  0  0  0  0  0
    0.1157    0.6926    4.8508 C   0  0  0  0  0  3  0  0  0  0  0  0
   -1.1592    1.3524    4.6154 C   0  0  0  0  0  0  0  0  0  0  0  0
   -1.1599    2.9130    3.3699 S   0  0  0  0  0  0  0  0  0  0  0  0
    0.6114    3.2648    3.3735 C   0  0  0  0  0  0  0  0  0  0  0  0
    1.4164    2.5409    2.2709 C   0  0  2  0  0  0  0  0  0  0  0  0
    0.8336    1.6733    1.9224 H   0  0  0  0  0  0  0  0  0  0  0  0
    2.6740    2.0746    2.8064 N   0  0  0  0  0  0  0  0  0  0  0  0
    3.4466    1.2113    2.0979 C   0  0  0  0  0  0  0  0  0  0  0  0
    4.5465    0.5489    2.8931 C   0  0  0  0  0  0  0  0  0  0  0  0
    3.2496    0.9765    0.9152 O   0  0  0  0  0  0  0  0  0  0  0  0
    1.6171    3.4852    1.0828 C   0  0  0  0  0  0  0  0  0  0  0  0
    0.5270    3.5546    0.2792 N   0  0  0  0  0  0  0  0  0  0  0  0
    0.4540    4.4562   -0.8415 C   0  0  0  0  0  0  0  0  0  0  0  0
    2.6190    4.1545    0.9080 O   0  0  0  0  0  0  0  0  0  0  0  0
   -0.8890   -0.0951    2.7309 H   0  0  0  0  0  0  0  0  0  0  0  0
   -1.6260   -1.2324    0.8980 H   0  0  0  0  0  0  0  0  0  0  0  0
   -4.3572   -1.4903   -3.3031 H   0  0  0  0  0  0  0  0  0  0  0  0
   -4.8795    0.0658   -3.9951 H   0  0  0  0  0  0  0  0  0  0  0  0
   -1.4238    2.8191   -3.8148 H   0  0  0  0  0  0  0  0  0  0  0  0
    1.8911    0.8522   -0.9985 H   0  0  0  0  0  0  0  0  0  0  0  0
    4.3006    1.6276   -0.9173 H   0  0  0  0  0  0  0  0  0  0  0  0
    4.0039    3.3759   -0.8975 H   0  0  0  0  0  0  0  0  0  0  0  0
    4.8880    2.6465   -2.2944 H   0  0  0  0  0  0  0  0  0  0  0  0
    0.9106    3.0473   -4.6134 H   0  0  0  0  0  0  0  0  0  0  0  0
   -4.6978   -5.2299   -2.6429 H   0  0  0  0  0  0  0  0  0  0  0  0
   -4.0059   -7.2172   -1.2895 H   0  0  0  0  0  0  0  0  0  0  0  0
   -2.0070   -7.1254    0.1666 H   0  0  0  0  0  0  0  0  0  0  0  0
   -0.6160   -5.0466    0.3118 H   0  0  0  0  0  0  0  0  0  0  0  0
    1.2243   -3.3025   -1.5584 H   0  0  0  0  0  0  0  0  0  0  0  0
    3.0122   -2.7857    0.1273 H   0  0  0  0  0  0  0  0  0  0  0  0
    2.4620   -1.5360    2.2036 H   0  0  0  0  0  0  0  0  0  0  0  0
    0.6780    0.9368    5.7545 H   0  0  0  0  0  0  0  0  0  0  0  0
   -1.5734    1.7877    5.5326 H   0  0  0  0  0  0  0  0  0  0  0  0
   -1.9493    0.7415    4.1492 H   0  0  0  0  0  0  0  0  0  0  0  0
    0.9788    2.9182    4.3517 H   0  0  0  0  0  0  0  0  0  0  0  0
    0.7555    4.3534    3.3196 H   0  0  0  0  0  0  0  0  0  0  0  0
    2.6876    1.9418    3.8115 H   0  0  0  0  0  0  0  0  0  0  0  0
    4.0603   -0.1131    3.6282 H   0  0  0  0  0  0  0  0  0  0  0  0
    5.1528    1.2945    3.4284 H   0  0  0  0  0  0  0  0  0  0  0  0
    5.1813   -0.0344    2.2162 H   0  0  0  0  0  0  0  0  0  0  0  0
   -0.2817    2.9953    0.5240 H   0  0  0  0  0  0  0  0  0  0  0  0
    0.2163    5.4886   -0.5315 H   0  0  0  0  0  0  0  0  0  0  0  0
   -0.3182    4.1061   -1.5386 H   0  0  0  0  0  0  0  0  0  0  0  0
    1.4152    4.4706   -1.3733 H   0  0  0  0  0  0  0  0  0  0  0  0
  2  1  2  0  0  0  0
  2 32  1  0  0  0  0
  3  2  1  0  0  0  0
  4  3  1  0  0  0  0
  5 47  1  0  0  0  0
  5  4  2  0  0  0  0
  6  5  1  0  0  0  0
  7 23  1  0  0  0  0
  7  6  1  0  0  0  0
  8  7  1  0  0  0  0
  9 21  1  0  0  0  0
  9  8  1  0  0  0  0
 10  9  2  0  0  0  0
 11 48  1  0  0  0  0
 11 10  1  0  0  0  0
 12 13  2  0  0  0  0
 12 10  1  0  0  0  0
 13 14  1  0  0  0  0
 14 15  1  0  0  0  0
 14 21  2  0  0  0  0
 15 16  2  0  0  0  0
 16 51  1  0  0  0  0
 17 16  1  0  0  0  0
 17 18  1  0  0  0  0
 18 52  1  0  0  0  0
 18 53  1  0  0  0  0
 19 17  1  0  0  0  0
 20 19  2  0  0  0  0
 20 15  1  0  0  0  0
 22  8  2  0  0  0  0
 22 24  1  0  0  0  0
 23 28  1  0  0  0  0
 24 23  2  0  0  0  0
 25 24  1  0  0  0  0
 25 26  2  0  0  0  0
 26 27  1  0  0  0  0
 27 28  2  0  0  0  0
 27 58  1  0  0  0  0
 28 59  1  0  0  0  0
 29  6  2  0  0  0  0
 29 30  1  0  0  0  0
 30 31  2  0  0  0  0
 31  4  1  0  0  0  0
 31 62  1  0  0  0  0
 32 63  1  0  0  0  0
 33 32  1  0  0  0  0
 33 64  1  0  0  0  0
 34 35  1  0  0  0  0
 34 33  1  0  0  0  0
 35 66  1  0  0  0  0
 36 37  1  6  0  0  0
 36 38  1  0  0  0  0
 36 35  1  0  0  0  0
 38 68  1  0  0  0  0
 39 38  1  0  0  0  0
 39 40  1  0  0  0  0
 40 70  1  0  0  0  0
 40 69  1  0  0  0  0
 41 39  2  0  0  0  0
 42 36  1  0  0  0  0
 43 72  1  0  0  0  0
 43 42  1  0  0  0  0
 44 73  1  0  0  0  0
 44 43  1  0  0  0  0
 45 42  2  0  0  0  0
 46  3  1  0  0  0  0
 49 11  1  0  0  0  0
 50 13  1  0  0  0  0
 54 18  1  0  0  0  0
 55 20  1  0  0  0  0
 56 25  1  0  0  0  0
 57 26  1  0  0  0  0
 60 29  1  0  0  0  0
 61 30  1  0  0  0  0
 65 33  1  0  0  0  0
 67 35  1  0  0  0  0
 71 40  1  0  0  0  0
 74 44  1  0  0  0  0
 75 44  1  0  0  0  0
M  END
