92
-1 1
O         1.890733   -0.921379   -4.090390
C         1.766137   -1.279791   -2.930058
N         0.617926   -0.958338   -2.236252
C         0.401226   -0.668763   -0.875471
C        -0.924330   -0.563562   -0.436536
C        -1.196132   -0.106455    0.845872
N        -2.546520    0.059477    1.272006
C        -3.145207    1.220255    1.709290
C        -2.572472    2.558589    1.486350
C        -3.020734    3.704428    2.220751
N        -4.008650    3.617261    3.137295
N        -2.446803    4.891515    2.002637
C        -1.489592    4.972644    1.084709
C        -1.075012    3.872530    0.330142
C        -0.043290    3.907854   -0.713244
C         0.303733    2.825041   -1.504457
N         1.287907    3.230196   -2.333978
C         2.002067    2.369349   -3.275443
C         2.255971    3.044501   -4.628288
C         3.443007    4.011452   -4.624433
N         4.619815    3.375020   -4.048683
C         4.416952    2.886782   -2.694678
C         3.308472    1.836528   -2.671646
C         5.693693    3.089989   -4.845094
C         6.836737    2.309630   -4.215839
O         5.754569    3.444709   -6.009841
N         1.620682    4.509888   -2.131194
C         0.820773    4.934725   -1.161091
N        -1.643915    2.685848    0.560517
N        -4.313497    1.011433    2.274668
C        -3.426736   -0.967137    1.573913
C        -4.522749   -0.348192    2.203730
C        -5.606876   -1.121655    2.645308
C        -5.548704   -2.490543    2.434716
C        -4.440240   -3.088674    1.796263
C        -3.356623   -2.344532    1.355306
C        -0.164854    0.194982    1.734315
C         1.147310    0.068520    1.302362
C         1.438589   -0.345375    0.004181
C         2.807340   -2.119256   -2.278750
C         2.532689   -3.132396   -1.453105
S        -0.645713   -4.271480   -0.152613
C         0.156606   -3.580866    1.339396
C        -0.252901   -4.224510    2.682508
H        -1.356111   -4.253640    2.714563
N         0.242251   -3.473387    3.816388
C        -0.297879   -2.324722    4.270164
C         0.395975   -1.726687    5.484168
O        -1.242027   -1.755457    3.745083
C         0.289644   -5.652100    2.868604
N        -0.048341   -6.515838    1.897878
C         0.467797   -7.857156    1.855499
O         0.977402   -5.944025    3.845439
H        -0.125838   -0.667140   -2.861459
H        -1.747573   -0.816174   -1.106129
H        -4.548930    2.751226    3.159354
H        -4.340737    4.478266    3.545623
H        -1.035534    5.958235    0.933422
H        -0.082636    1.809951   -1.500069
H         1.336602    1.511161   -3.440872
H         1.345081    3.566485   -4.957752
H         2.455272    2.238012   -5.351805
H         3.192797    4.902782   -4.031140
H         3.699013    4.314172   -5.645942
H         4.133899    3.738781   -2.054608
H         5.346812    2.470819   -2.291482
H         3.119378    1.489566   -1.644158
H         3.616750    0.963893   -3.269242
H         7.264467    2.835885   -3.349568
H         7.610455    2.192584   -4.982540
H         6.510040    1.313294   -3.882075
H         0.894905    5.965191   -0.815260
H        -6.459558   -0.647567    3.135152
H        -6.376764   -3.122202    2.766098
H        -4.426038   -4.169984    1.640700
H        -2.509543   -2.827011    0.851949
H        -0.410568    0.500903    2.750185
H         1.967701    0.303888    1.983429
H         2.475164   -0.414324   -0.322076
H         3.819214   -1.934483   -2.652438
H         1.506958   -3.383865   -1.131190
H         3.338133   -3.781694   -1.097613
H        -0.105847   -2.518382    1.432817
H         1.259167   -3.627039    1.261796
H         0.913401   -3.995374    4.375187
H        -0.363304   -1.278569    6.137961
H         1.063456   -0.920437    5.142395
H         0.992470   -2.456128    6.050178
H        -0.437284   -6.082443    1.036549
H         1.308216   -7.952055    1.146063
H        -0.319127   -8.563508    1.548862
H         0.828657   -8.131557    2.855443
