-1 1
 OpenBabel05192410563D

 92 97  0  0  1  0  0  0  0  0999 V2000
   -0.5136   -1.0660   -2.3501 O   0  0  0  0  0  0  0  0  0  0  0  0
   -0.3447   -1.6025   -1.2328 C   0  0  0  0  0  0  0  0  0  0  0  0
   -1.4756   -1.4372   -0.2944 N   0  0  0  0  0  0  0  0  0  0  0  0
   -1.5435   -0.2644    0.4362 C   0  0  0  0  0  0  0  0  0  0  0  0
   -2.7606    0.4295    0.5604 C   0  0  0  0  0  0  0  0  0  0  0  0
   -2.8275    1.6196    1.2712 C   0  0  0  0  0  0  0  0  0  0  0  0
   -4.0882    2.2965    1.3536 N   0  0  0  0  0  0  0  0  0  0  0  0
   -4.5651    3.3816    0.6502 C   0  0  0  0  0  0  0  0  0  0  0  0
   -3.8171    4.0656   -0.4172 C   0  0  0  0  0  0  0  0  0  0  0  0
   -4.2830    5.2964   -0.9782 C   0  0  0  0  0  0  0  0  0  0  0  0
   -5.4356    5.8855   -0.5952 N   0  0  0  0  0  0  0  0  0  0  0  0
   -3.5532    5.9060   -1.9220 N   0  0  0  0  0  0  0  0  0  0  0  0
   -2.4189    5.3405   -2.3009 C   0  0  0  0  0  0  0  0  0  0  0  0
   -1.9488    4.1319   -1.7618 C   0  0  0  0  0  0  0  0  0  0  0  0
   -0.6688    3.5395   -2.1675 C   0  0  0  0  0  0  0  0  0  0  0  0
   -0.3049    2.1987   -2.1715 C   0  0  0  0  0  0  0  0  0  0  0  0
    0.9815    2.1461   -2.5790 N   0  0  0  0  0  0  0  0  0  0  0  0
    1.7966    0.9317   -2.6110 C   0  0  0  0  0  0  0  0  0  0  0  0
    2.6799    0.8412   -3.8609 C   0  0  0  0  0  0  0  0  0  0  0  0
    3.9679    1.6651   -3.7845 C   0  0  0  0  0  0  0  0  0  0  0  0
    4.6709    1.3967   -2.5361 N   0  0  0  0  0  0  0  0  0  0  0  0
    3.8751    1.6896   -1.3535 C   0  0  0  0  0  0  0  0  0  0  0  0
    2.6296    0.8068   -1.3266 C   0  0  0  0  0  0  0  0  0  0  0  0
    5.8087    0.6425   -2.5505 C   0  0  0  0  0  0  0  0  0  0  0  0
    6.4138    0.2762   -1.2041 C   0  0  0  0  0  0  0  0  0  0  0  0
    6.3438    0.2813   -3.5863 O   0  0  0  0  0  0  0  0  0  0  0  0
    1.4904    3.3575   -2.8315 N   0  0  0  0  0  0  0  0  0  0  0  0
    0.5017    4.2076   -2.5991 C   0  0  0  0  0  0  0  0  0  0  0  0
   -2.6820    3.5234   -0.8317 N   0  0  0  0  0  0  0  0  0  0  0  0
   -5.7689    3.7473    1.0481 N   0  0  0  0  0  0  0  0  0  0  0  0
   -5.0750    1.9529    2.2549 C   0  0  0  0  0  0  0  0  0  0  0  0
   -6.1196    2.8747    2.0492 C   0  0  0  0  0  0  0  0  0  0  0  0
   -7.2844    2.7949    2.8253 C   0  0  0  0  0  0  0  0  0  0  0  0
   -7.3602    1.7928    3.7828 C   0  0  0  0  0  0  0  0  0  0  0  0
   -6.3028    0.8793    3.9756 C   0  0  0  0  0  0  0  0  0  0  0  0
   -5.1413    0.9420    3.2169 C   0  0  0  0  0  0  0  0  0  0  0  0
   -1.7134    2.1524    1.9125 C   0  0  0  0  0  0  0  0  0  0  0  0
   -0.5043    1.4694    1.7911 C   0  0  0  0  0  0  0  0  0  0  0  0
   -0.4105    0.2844    1.0713 C   0  0  0  0  0  0  0  0  0  0  0  0
    0.7597   -2.2882   -0.7630 C   0  0  0  0  0  3  0  0  0  0  0  0
    0.8455   -2.9864    0.5348 C   0  0  0  0  0  0  0  0  0  0  0  0
    0.7062   -4.8520    0.3445 S   0  0  0  0  0  0  0  0  0  0  0  0
    1.6893   -5.4519    1.7522 C   0  0  0  0  0  0  0  0  0  0  0  0
    3.1534   -5.8244    1.4261 C   0  0  2  0  0  0  0  0  0  0  0  0
    3.1320   -6.5726    0.6165 H   0  0  0  0  0  0  0  0  0  0  0  0
    3.8125   -6.3873    2.5790 N   0  0  0  0  0  0  0  0  0  0  0  0
    3.5937   -7.6485    3.0181 C   0  0  0  0  0  0  0  0  0  0  0  0
    4.4195   -8.0694    4.2209 C   0  0  0  0  0  0  0  0  0  0  0  0
    2.7889   -8.4037    2.5005 O   0  0  0  0  0  0  0  0  0  0  0  0
    4.0150   -4.6289    0.9883 C   0  0  0  0  0  0  0  0  0  0  0  0
    3.7622   -4.1464   -0.2440 N   0  0  0  0  0  0  0  0  0  0  0  0
    4.3723   -2.9222   -0.7048 C   0  0  0  0  0  0  0  0  0  0  0  0
    4.8794   -4.1766    1.7278 O   0  0  0  0  0  0  0  0  0  0  0  0
   -2.3268   -1.5760   -0.8309 H   0  0  0  0  0  0  0  0  0  0  0  0
   -3.6550    0.0616    0.0524 H   0  0  0  0  0  0  0  0  0  0  0  0
   -6.0313    5.3862    0.0642 H   0  0  0  0  0  0  0  0  0  0  0  0
   -5.7109    6.7276   -1.0774 H   0  0  0  0  0  0  0  0  0  0  0  0
   -1.8469    5.8537   -3.0817 H   0  0  0  0  0  0  0  0  0  0  0  0
   -0.8510    1.2803   -1.9531 H   0  0  0  0  0  0  0  0  0  0  0  0
    1.0614    0.1104   -2.6377 H   0  0  0  0  0  0  0  0  0  0  0  0
    2.0951    1.1306   -4.7469 H   0  0  0  0  0  0  0  0  0  0  0  0
    2.9506   -0.2201   -3.9854 H   0  0  0  0  0  0  0  0  0  0  0  0
    3.7265    2.7370   -3.8280 H   0  0  0  0  0  0  0  0  0  0  0  0
    4.6446    1.4085   -4.6075 H   0  0  0  0  0  0  0  0  0  0  0  0
    3.5792    2.7505   -1.3920 H   0  0  0  0  0  0  0  0  0  0  0  0
    4.4716    1.5504   -0.4444 H   0  0  0  0  0  0  0  0  0  0  0  0
    1.9945    1.0455   -0.4608 H   0  0  0  0  0  0  0  0  0  0  0  0
    2.9286   -0.2473   -1.2199 H   0  0  0  0  0  0  0  0  0  0  0  0
    6.6761    1.1706   -0.6195 H   0  0  0  0  0  0  0  0  0  0  0  0
    7.3219   -0.3041   -1.4014 H   0  0  0  0  0  0  0  0  0  0  0  0
    5.7253   -0.3311   -0.5985 H   0  0  0  0  0  0  0  0  0  0  0  0
    0.6631    5.2783   -2.7261 H   0  0  0  0  0  0  0  0  0  0  0  0
   -8.0992    3.5046    2.6710 H   0  0  0  0  0  0  0  0  0  0  0  0
   -8.2564    1.7055    4.4015 H   0  0  0  0  0  0  0  0  0  0  0  0
   -6.4009    0.1037    4.7385 H   0  0  0  0  0  0  0  0  0  0  0  0
   -4.3174    0.2398    3.3542 H   0  0  0  0  0  0  0  0  0  0  0  0
   -1.7923    3.0926    2.4594 H   0  0  0  0  0  0  0  0  0  0  0  0
    0.3925    1.8741    2.2667 H   0  0  0  0  0  0  0  0  0  0  0  0
    0.5456   -0.2303    0.9679 H   0  0  0  0  0  0  0  0  0  0  0  0
    1.5857   -2.4022   -1.4724 H   0  0  0  0  0  0  0  0  0  0  0  0
    0.0305   -2.6869    1.2067 H   0  0  0  0  0  0  0  0  0  0  0  0
    1.8054   -2.8299    1.0563 H   0  0  0  0  0  0  0  0  0  0  0  0
    1.2083   -6.3654    2.1271 H   0  0  0  0  0  0  0  0  0  0  0  0
    1.6643   -4.7022    2.5586 H   0  0  0  0  0  0  0  0  0  0  0  0
    4.5309   -5.7875    2.9761 H   0  0  0  0  0  0  0  0  0  0  0  0
    4.9621   -8.9904    3.9666 H   0  0  0  0  0  0  0  0  0  0  0  0
    3.7349   -8.3100    5.0467 H   0  0  0  0  0  0  0  0  0  0  0  0
    5.1341   -7.3050    4.5552 H   0  0  0  0  0  0  0  0  0  0  0  0
    2.8956   -4.4577   -0.6841 H   0  0  0  0  0  0  0  0  0  0  0  0
    3.8814   -2.0345   -0.2691 H   0  0  0  0  0  0  0  0  0  0  0  0
    4.2952   -2.8586   -1.7980 H   0  0  0  0  0  0  0  0  0  0  0  0
    5.4311   -2.9088   -0.4153 H   0  0  0  0  0  0  0  0  0  0  0  0
  1  2  2  0  0  0  0
  2 40  1  0  0  0  0
  2  3  1  0  0  0  0
  3  4  1  0  0  0  0
  4  5  2  0  0  0  0
  4 39  1  0  0  0  0
  5  6  1  0  0  0  0
  6  7  1  0  0  0  0
  6 37  2  0  0  0  0
  7 31  1  0  0  0  0
  8 30  2  0  0  0  0
  8  7  1  0  0  0  0
  9  8  1  0  0  0  0
 10 11  1  0  0  0  0
 10  9  2  0  0  0  0
 11 56  1  0  0  0  0
 12 10  1  0  0  0  0
 13 12  2  0  0  0  0
 13 14  1  0  0  0  0
 14 29  2  0  0  0  0
 15 14  1  0  0  0  0
 16 15  2  0  0  0  0
 16 59  1  0  0  0  0
 17 16  1  0  0  0  0
 18 17  1  0  0  0  0
 18 23  1  0  0  0  0
 19 20  1  0  0  0  0
 19 18  1  0  0  0  0
 20 21  1  0  0  0  0
 21 22  1  0  0  0  0
 22 23  1  0  0  0  0
 22 66  1  0  0  0  0
 23 68  1  0  0  0  0
 23 67  1  0  0  0  0
 24 21  1  0  0  0  0
 24 25  1  0  0  0  0
 25 69  1  0  0  0  0
 25 71  1  0  0  0  0
 26 24  2  0  0  0  0
 27 28  2  0  0  0  0
 27 17  1  0  0  0  0
 28 15  1  0  0  0  0
 29  9  1  0  0  0  0
 30 32  1  0  0  0  0
 31 36  1  0  0  0  0
 32 31  2  0  0  0  0
 32 33  1  0  0  0  0
 33 34  2  0  0  0  0
 34 35  1  0  0  0  0
 34 74  1  0  0  0  0
 35 75  1  0  0  0  0
 36 76  1  0  0  0  0
 36 35  2  0  0  0  0
 37 77  1  0  0  0  0
 38 37  1  0  0  0  0
 38 78  1  0  0  0  0
 39 38  2  0  0  0  0
 40 41  1  0  0  0  0
 41 82  1  0  0  0  0
 41 81  1  0  0  0  0
 42 41  1  0  0  0  0
 42 43  1  0  0  0  0
 43 83  1  0  0  0  0
 43 84  1  0  0  0  0
 44 45  1  6  0  0  0
 44 43  1  0  0  0  0
 44 46  1  0  0  0  0
 46 85  1  0  0  0  0
 46 47  1  0  0  0  0
 47 48  1  0  0  0  0
 48 88  1  0  0  0  0
 48 87  1  0  0  0  0
 49 47  2  0  0  0  0
 50 44  1  0  0  0  0
 50 53  2  0  0  0  0
 51 50  1  0  0  0  0
 52 92  1  0  0  0  0
 52 90  1  0  0  0  0
 52 51  1  0  0  0  0
 54  3  1  0  0  0  0
 55  5  1  0  0  0  0
 57 11  1  0  0  0  0
 58 13  1  0  0  0  0
 60 18  1  0  0  0  0
 61 19  1  0  0  0  0
 62 19  1  0  0  0  0
 63 20  1  0  0  0  0
 64 20  1  0  0  0  0
 65 22  1  0  0  0  0
 70 25  1  0  0  0  0
 72 28  1  0  0  0  0
 73 33  1  0  0  0  0
 79 39  1  0  0  0  0
 80 40  1  0  0  0  0
 86 48  1  0  0  0  0
 89 51  1  0  0  0  0
 91 52  1  0  0  0  0
M  END
