93
-1 1
C         2.836554   -1.599250    0.848872
C         2.802085   -2.978979    0.242173
C         2.704341   -4.096088    0.968358
S        -0.205818   -3.005334    2.863404
C        -1.033749   -1.921231    4.082590
C        -0.339567   -1.789309    5.460303
H        -0.229050   -2.811401    5.863019
N        -1.111467   -0.982170    6.380910
C        -2.248247   -1.385444    6.990426
C        -2.853513   -0.367273    7.946736
O        -2.784359   -2.462137    6.794866
C         1.053079   -1.139408    5.413232
N         1.953333   -1.772388    4.648312
C         3.275271   -1.236706    4.463603
O         1.307434   -0.113997    6.049221
C         2.932317   -3.123867   -1.244010
N         2.051380   -2.428516   -2.057075
C         0.801738   -1.831259   -1.839343
C         0.231799   -1.150229   -2.924186
C        -1.005832   -0.529877   -2.798938
N        -1.603801    0.072414   -3.950218
C        -1.180274    1.126095   -4.733362
C        -0.060318    2.010250   -4.379676
C         0.523876    2.895518   -5.337677
N         0.076747    2.991989   -6.609037
N         1.564002    3.657496   -4.976118
C         1.995210    3.583191   -3.727356
C         1.401285    2.752427   -2.764843
C         1.832517    2.699972   -1.367093
C         1.312949    1.865470   -0.388325
N         1.940561    2.172161    0.768010
C         1.778769    1.545269    2.089610
C         1.767664    2.605698    3.194876
C         0.465850    3.418044    3.154697
N        -0.739589    2.610159    3.246499
C        -0.759909    1.590876    2.209508
C         0.499797    0.716399    2.172481
C        -1.001480    2.101569    4.578185
N         2.847324    3.139705    0.606436
C         2.793467    3.472385   -0.673249
N         0.381086    1.978985   -3.133088
N        -1.907789    1.272127   -5.821150
C        -2.690574   -0.481140   -4.604760
C        -2.864715    0.286677   -5.772034
C        -3.895986   -0.024615   -6.668806
C        -4.714619   -1.103910   -6.367950
C        -4.517852   -1.870537   -5.200886
C        -3.502862   -1.576471   -4.299769
C        -1.707352   -0.568361   -1.596348
C        -1.153130   -1.272678   -0.528895
C         0.079111   -1.910020   -0.639530
O         3.793288   -3.804054   -1.766717
H         2.501435   -0.823818    0.144859
H         3.866978   -1.343519    1.144356
H         2.186021   -1.569510    1.736631
H         2.559685   -4.054789    2.050936
H         2.715879   -5.078131    0.489864
H        -2.032929   -2.322343    4.302178
H        -1.178106   -0.902791    3.684095
H        -0.623385   -0.144827    6.687675
H        -3.070180   -0.866718    8.901067
H        -3.812198   -0.026755    7.528716
H        -2.213273    0.507871    8.125563
H         1.538774   -2.438788    3.957927
H         3.893155   -1.976200    3.936548
H         3.737143   -1.009395    5.435612
H         3.275350   -0.301580    3.876229
H         2.318216   -2.525993   -3.031059
H         0.760495   -1.093714   -3.878559
H        -0.802959    2.531516   -6.837138
H         0.489560    3.706243   -7.190321
H         2.851754    4.213094   -3.464668
H         0.547436    1.098261   -0.469891
H         2.649989    0.884563    2.223472
H         2.638847    3.266178    3.088001
H         1.859369    2.073529    4.155967
H         0.432856    3.985973    2.207455
H         0.460062    4.161097    3.968165
H        -0.894203    2.095149    1.236215
H        -1.643608    0.949809    2.352369
H         0.435763   -0.033663    1.374115
H         0.572324    0.127558    3.096871
H        -1.114339    2.946548    5.277352
H        -0.219389    1.431983    4.985676
H        -1.947206    1.537767    4.580415
H         3.441807    4.261573   -1.052963
H        -4.037799    0.570423   -7.572686
H        -5.527409   -1.370188   -7.047403
H        -5.179030   -2.716321   -5.000181
H        -3.343749   -2.166784   -3.396007
H        -2.672642   -0.067174   -1.510602
H        -1.673802   -1.358777    0.428488
H         0.429792   -2.463421    0.233831
