-1 1
 OpenBabel05192410563D

 93 98  0  0  1  0  0  0  0  0999 V2000
   -4.3964    1.0986   -1.6434 O   0  0  0  0  0  0  0  0  0  0  0  0
   -3.3989    0.3341   -1.7912 C   0  0  0  0  0  0  0  0  0  0  0  0
   -2.4299    0.4334   -0.7366 N   0  0  0  0  0  0  0  0  0  0  0  0
   -1.0718    0.2846   -0.7327 C   0  0  0  0  0  0  0  0  0  0  0  0
   -0.4274   -0.0693    0.4705 C   0  0  0  0  0  0  0  0  0  0  0  0
    0.9369   -0.2981    0.5046 C   0  0  0  0  0  0  0  0  0  0  0  0
    1.4964   -0.8060    1.7173 N   0  0  0  0  0  0  0  0  0  0  0  0
    2.5261   -0.3247    2.4945 C   0  0  0  0  0  0  0  0  0  0  0  0
    3.1617    0.9863    2.2881 C   0  0  0  0  0  0  0  0  0  0  0  0
    4.4034    1.3206    2.9121 C   0  0  0  0  0  0  0  0  0  0  0  0
    5.0626    0.4608    3.7220 N   0  0  0  0  0  0  0  0  0  0  0  0
    4.9494    2.5206    2.6840 N   0  0  0  0  0  0  0  0  0  0  0  0
    4.2978    3.3711    1.9053 C   0  0  0  0  0  0  0  0  0  0  0  0
    3.0561    3.0736    1.3260 C   0  0  0  0  0  0  0  0  0  0  0  0
    2.3055    4.0233    0.5001 C   0  0  0  0  0  0  0  0  0  0  0  0
    1.1339    3.7639   -0.1978 C   0  0  0  0  0  0  0  0  0  0  0  0
    0.7668    4.9208   -0.7955 N   0  0  0  0  0  0  0  0  0  0  0  0
   -0.3776    5.2123   -1.6700 C   0  0  0  0  0  0  0  0  0  0  0  0
   -1.2990    4.0089   -1.8674 C   0  0  0  0  0  0  0  0  0  0  0  0
   -2.2035    3.6933   -0.6728 C   0  0  0  0  0  0  0  0  0  0  0  0
   -2.8649    4.8898   -0.1877 N   0  0  0  0  0  0  0  0  0  0  0  0
   -1.9766    5.9950    0.1175 C   0  0  0  0  0  0  0  0  0  0  0  0
   -1.1721    6.3989   -1.1129 C   0  0  0  0  0  0  0  0  0  0  0  0
   -4.2153    5.0501   -0.0234 C   0  0  0  0  0  0  0  0  0  0  0  0
   -5.1271    3.8488   -0.2915 C   0  0  0  0  0  0  0  0  0  0  0  0
   -4.7622    2.6861    0.3748 O   0  0  0  0  0  0  0  0  0  0  0  0
   -4.6958    6.1249    0.3038 O   0  0  0  0  0  0  0  0  0  0  0  0
    1.6255    5.9136   -0.5416 N   0  0  0  0  0  0  0  0  0  0  0  0
    2.5565    5.3910    0.2386 C   0  0  0  0  0  0  0  0  0  0  0  0
    2.5247    1.8702    1.5396 N   0  0  0  0  0  0  0  0  0  0  0  0
    2.8347   -1.1342    3.4860 N   0  0  0  0  0  0  0  0  0  0  0  0
    1.1075   -2.0070    2.2893 C   0  0  0  0  0  0  0  0  0  0  0  0
    1.9593   -2.1918    3.3956 C   0  0  0  0  0  0  0  0  0  0  0  0
    1.8075   -3.3191    4.2167 C   0  0  0  0  0  0  0  0  0  0  0  0
    0.8061   -4.2244    3.8963 C   0  0  0  0  0  0  0  0  0  0  0  0
   -0.0257   -4.0340    2.7735 C   0  0  0  0  0  0  0  0  0  0  0  0
    0.1103   -2.9271    1.9481 C   0  0  0  0  0  0  0  0  0  0  0  0
    1.7287   -0.1445   -0.6372 C   0  0  0  0  0  0  0  0  0  0  0  0
    1.1090    0.2814   -1.8082 C   0  0  0  0  0  0  0  0  0  0  0  0
   -0.2670    0.4942   -1.8699 C   0  0  0  0  0  0  0  0  0  0  0  0
   -3.2512   -0.5935   -2.8103 C   0  0  0  0  0  3  0  0  0  0  0  0
   -2.2031   -1.6142   -3.0256 C   0  0  0  0  0  0  0  0  0  0  0  0
   -1.8618   -2.7920   -1.5883 S   0  0  0  0  0  0  0  0  0  0  0  0
   -0.1019   -3.1434   -1.9247 C   0  0  0  0  0  0  0  0  0  0  0  0
    0.2723   -4.6319   -2.0566 C   0  0  2  0  0  0  0  0  0  0  0  0
    1.1974   -4.6988   -2.6530 H   0  0  0  0  0  0  0  0  0  0  0  0
   -0.7448   -5.3655   -2.7487 N   0  0  0  0  0  0  0  0  0  0  0  0
   -0.4980   -6.6117   -3.2315 C   0  0  0  0  0  0  0  0  0  0  0  0
   -1.7229   -7.3727   -3.6959 C   0  0  0  0  0  0  0  0  0  0  0  0
    0.6234   -7.0854   -3.2756 O   0  0  0  0  0  0  0  0  0  0  0  0
    0.5827   -5.2563   -0.6834 C   0  0  0  0  0  0  0  0  0  0  0  0
    1.8469   -5.0047   -0.2548 N   0  0  0  0  0  0  0  0  0  0  0  0
    2.3790   -5.4739    0.9990 C   0  0  0  0  0  0  0  0  0  0  0  0
   -0.2407   -5.8837   -0.0462 O   0  0  0  0  0  0  0  0  0  0  0  0
   -2.8620    0.6318    0.1586 H   0  0  0  0  0  0  0  0  0  0  0  0
   -1.0223   -0.2232    1.3725 H   0  0  0  0  0  0  0  0  0  0  0  0
    4.5489   -0.3581    4.0464 H   0  0  0  0  0  0  0  0  0  0  0  0
    5.8633    0.8252    4.2173 H   0  0  0  0  0  0  0  0  0  0  0  0
    4.7758    4.3408    1.7302 H   0  0  0  0  0  0  0  0  0  0  0  0
    0.5774    2.8344   -0.2909 H   0  0  0  0  0  0  0  0  0  0  0  0
    0.0574    5.4932   -2.6424 H   0  0  0  0  0  0  0  0  0  0  0  0
   -0.7260    3.1124   -2.1442 H   0  0  0  0  0  0  0  0  0  0  0  0
   -1.9421    4.2463   -2.7295 H   0  0  0  0  0  0  0  0  0  0  0  0
   -1.6217    3.2398    0.1500 H   0  0  0  0  0  0  0  0  0  0  0  0
   -2.9356    2.9427   -0.9778 H   0  0  0  0  0  0  0  0  0  0  0  0
   -1.2879    5.6989    0.9312 H   0  0  0  0  0  0  0  0  0  0  0  0
   -2.5955    6.8256    0.4757 H   0  0  0  0  0  0  0  0  0  0  0  0
   -0.4804    7.2192   -0.8774 H   0  0  0  0  0  0  0  0  0  0  0  0
   -1.8635    6.7483   -1.8964 H   0  0  0  0  0  0  0  0  0  0  0  0
   -5.1586    3.6873   -1.3878 H   0  0  0  0  0  0  0  0  0  0  0  0
   -6.1284    4.2018    0.0127 H   0  0  0  0  0  0  0  0  0  0  0  0
   -4.6597    1.9858   -0.3275 H   0  0  0  0  0  0  0  0  0  0  0  0
    3.3753    6.0158    0.5940 H   0  0  0  0  0  0  0  0  0  0  0  0
    2.4580   -3.4614    5.0816 H   0  0  0  0  0  0  0  0  0  0  0  0
    0.6620   -5.1110    4.5181 H   0  0  0  0  0  0  0  0  0  0  0  0
   -0.7775   -4.7837    2.5218 H   0  0  0  0  0  0  0  0  0  0  0  0
   -0.5399   -2.7821    1.0829 H   0  0  0  0  0  0  0  0  0  0  0  0
    2.8026   -0.3286   -0.5918 H   0  0  0  0  0  0  0  0  0  0  0  0
    1.7114    0.4453   -2.7050 H   0  0  0  0  0  0  0  0  0  0  0  0
   -0.7464    0.8159   -2.7959 H   0  0  0  0  0  0  0  0  0  0  0  0
   -4.0932   -0.5994   -3.5056 H   0  0  0  0  0  0  0  0  0  0  0  0
   -1.1959   -1.2134   -3.2321 H   0  0  0  0  0  0  0  0  0  0  0  0
   -2.4796   -2.2478   -3.8799 H   0  0  0  0  0  0  0  0  0  0  0  0
    0.5233   -2.6763   -1.1486 H   0  0  0  0  0  0  0  0  0  0  0  0
    0.1362   -2.6355   -2.8701 H   0  0  0  0  0  0  0  0  0  0  0  0
   -1.6964   -5.0439   -2.5823 H   0  0  0  0  0  0  0  0  0  0  0  0
   -2.1393   -7.9193   -2.8359 H   0  0  0  0  0  0  0  0  0  0  0  0
   -1.4226   -8.1016   -4.4583 H   0  0  0  0  0  0  0  0  0  0  0  0
   -2.5043   -6.7103   -4.0939 H   0  0  0  0  0  0  0  0  0  0  0  0
    2.4609   -4.4947   -0.8745 H   0  0  0  0  0  0  0  0  0  0  0  0
    1.5993   -6.0671    1.4908 H   0  0  0  0  0  0  0  0  0  0  0  0
    2.6498   -4.6390    1.6641 H   0  0  0  0  0  0  0  0  0  0  0  0
    3.2634   -6.1114    0.8386 H   0  0  0  0  0  0  0  0  0  0  0  0
  2  1  2  0  0  0  0
  2  3  1  0  0  0  0
  3  4  1  0  0  0  0
  3 55  1  0  0  0  0
  4  5  1  0  0  0  0
  5  6  2  0  0  0  0
  5 56  1  0  0  0  0
  6  7  1  0  0  0  0
  7 32  1  0  0  0  0
  7  8  1  0  0  0  0
  8 31  2  0  0  0  0
  9  8  1  0  0  0  0
  9 10  1  0  0  0  0
 10 11  1  0  0  0  0
 11 57  1  0  0  0  0
 11 58  1  0  0  0  0
 12 10  2  0  0  0  0
 13 12  1  0  0  0  0
 14 30  1  0  0  0  0
 14 13  2  0  0  0  0
 15 14  1  0  0  0  0
 16 15  2  0  0  0  0
 17 28  1  0  0  0  0
 17 16  1  0  0  0  0
 18 23  1  0  0  0  0
 18 17  1  0  0  0  0
 19 18  1  0  0  0  0
 19 20  1  0  0  0  0
 20 21  1  0  0  0  0
 20 64  1  0  0  0  0
 21 24  1  0  0  0  0
 21 22  1  0  0  0  0
 22 67  1  0  0  0  0
 22 66  1  0  0  0  0
 23 68  1  0  0  0  0
 23 22  1  0  0  0  0
 24 27  2  0  0  0  0
 25 24  1  0  0  0  0
 25 71  1  0  0  0  0
 25 26  1  0  0  0  0
 28 29  2  0  0  0  0
 29 15  1  0  0  0  0
 29 73  1  0  0  0  0
 30  9  2  0  0  0  0
 32 33  1  0  0  0  0
 33 31  1  0  0  0  0
 33 34  2  0  0  0  0
 34 74  1  0  0  0  0
 35 34  1  0  0  0  0
 35 75  1  0  0  0  0
 36 35  2  0  0  0  0
 37 32  2  0  0  0  0
 37 36  1  0  0  0  0
 38 78  1  0  0  0  0
 38  6  1  0  0  0  0
 39 38  2  0  0  0  0
 40 39  1  0  0  0  0
 40  4  2  0  0  0  0
 41  2  1  0  0  0  0
 42 41  1  0  0  0  0
 42 43  1  0  0  0  0
 44 43  1  0  0  0  0
 44 84  1  0  0  0  0
 45 46  1  6  0  0  0
 45 44  1  0  0  0  0
 45 51  1  0  0  0  0
 47 86  1  0  0  0  0
 47 45  1  0  0  0  0
 48 47  1  0  0  0  0
 49 48  1  0  0  0  0
 49 87  1  0  0  0  0
 50 48  2  0  0  0  0
 51 52  1  0  0  0  0
 51 54  2  0  0  0  0
 52 53  1  0  0  0  0
 53 91  1  0  0  0  0
 53 92  1  0  0  0  0
 59 13  1  0  0  0  0
 60 16  1  0  0  0  0
 61 18  1  0  0  0  0
 62 19  1  0  0  0  0
 63 19  1  0  0  0  0
 65 20  1  0  0  0  0
 69 23  1  0  0  0  0
 70 25  1  0  0  0  0
 72 26  1  0  0  0  0
 76 36  1  0  0  0  0
 77 37  1  0  0  0  0
 79 39  1  0  0  0  0
 80 40  1  0  0  0  0
 81 41  1  0  0  0  0
 82 42  1  0  0  0  0
 83 42  1  0  0  0  0
 85 44  1  0  0  0  0
 88 49  1  0  0  0  0
 89 49  1  0  0  0  0
 90 52  1  0  0  0  0
 93 53  1  0  0  0  0
M  END
