93
-1 1
O        -4.430839    1.356210   -1.516425
C        -3.407568    0.731818   -1.785808
N        -2.498872    0.472581   -0.795635
C        -1.131237    0.144260   -0.798757
C        -0.586732   -0.314393    0.408490
C         0.774567   -0.563536    0.519646
N         1.288814   -1.060827    1.749617
C         2.342685   -0.592900    2.510839
C         3.007960    0.705419    2.311442
C         4.262469    0.998371    2.942379
N         4.884824    0.120313    3.755241
N         4.852356    2.178017    2.717207
C         4.234659    3.052090    1.937184
C         2.988161    2.798005    1.353790
C         2.279534    3.772717    0.518966
C         1.114066    3.541655   -0.193360
N         0.779557    4.707026   -0.797751
C        -0.336947    4.995971   -1.706691
C        -1.373472    3.871368   -1.703048
C        -2.197012    3.829300   -0.414627
N        -2.778061    5.127507   -0.134522
C        -1.801773    6.198482   -0.028457
C        -1.000275    6.324642   -1.322449
C        -4.106333    5.439975   -0.237512
C        -5.114921    4.306083   -0.456688
O        -4.985105    3.221031    0.412424
O        -4.501669    6.593663   -0.198792
N         1.659761    5.677979   -0.535519
C         2.567463    5.133685    0.258194
N         2.408992    1.613296    1.561248
N         2.658031   -1.413391    3.488557
C         0.907634   -2.273303    2.316997
C         1.783351   -2.471897    3.398959
C         1.699950   -3.641931    4.167138
C         0.745192   -4.580141    3.805258
C        -0.113297   -4.367725    2.706053
C        -0.055032   -3.212332    1.941047
C         1.620928   -0.380144   -0.576625
C         1.081305    0.081944   -1.769259
C        -0.282856    0.348220   -1.891317
C        -3.204551    0.230145   -3.168724
C        -2.901131   -1.042603   -3.433688
S        -2.156803   -3.423230   -0.930892
C        -0.610955   -3.253730   -1.885900
C         0.206777   -4.554620   -2.041028
H         0.926505   -4.434704   -2.869824
N        -0.659321   -5.644319   -2.368180
C        -0.222842   -6.766262   -2.981597
C        -1.224310   -7.907319   -2.997634
O         0.886545   -6.874578   -3.479737
C         1.058657   -4.889463   -0.800453
N         2.007667   -3.950152   -0.513824
C         2.958848   -4.110904    0.554281
O         0.930544   -5.907179   -0.151761
H        -2.892379    0.630757    0.126651
H        -1.234856   -0.487941    1.268531
H         4.355567   -0.701635    4.049586
H         5.719457    0.438074    4.225458
H         4.748047    4.003880    1.762913
H         0.541953    2.622720   -0.288096
H         0.095137    5.086993   -2.716706
H        -0.902202    2.895809   -1.888983
H        -2.055933    4.056606   -2.548016
H        -1.564103    3.531832    0.439322
H        -2.982612    3.079559   -0.492921
H        -1.121340    5.983060    0.814069
H        -2.342986    7.126119    0.188457
H        -0.229267    7.100289   -1.226258
H        -1.680117    6.616709   -2.138831
H        -5.029349    3.986791   -1.513323
H        -6.096871    4.794644   -0.344443
H        -4.909377    2.420649   -0.135954
H         3.395137    5.739532    0.625390
H         2.379816   -3.801241    5.006026
H         0.662034   -5.510298    4.372101
H        -0.831834   -5.137794    2.420605
H        -0.723124   -3.092848    1.075731
H         2.689209   -0.578612   -0.477339
H         1.732166    0.242123   -2.630907
H        -0.681179    0.701612   -2.840528
H        -3.503202    0.937443   -3.948604
H        -2.705330   -1.776096   -2.628590
H        -2.897370   -1.400405   -4.467244
H         0.038112   -2.494873   -1.424191
H        -0.830001   -2.885803   -2.904994
H        -1.563495   -5.593105   -1.894394
H        -1.077910   -8.507004   -2.086249
H        -1.028412   -8.544280   -3.869279
H        -2.265035   -7.553490   -3.012715
H         2.066582   -3.132306   -1.104377
H         2.495099   -4.694288    1.361169
H         3.249831   -3.128861    0.955723
H         3.871298   -4.641137    0.227895
