-1 1
 OpenBabel05232414493D

 93 97  0  0  1  0  0  0  0  0999 V2000
    2.3021  -12.4261   -0.7689 O   0  0  0  0  0  0  0  0  0  0  0  0
    3.3393  -13.0822   -0.9811 C   0  0  0  0  0  0  0  0  0  0  0  0
    4.3950  -12.8425   -0.0978 N   0  0  0  0  0  0  0  0  0  0  0  0
    5.7585  -13.1406   -0.1221 C   0  0  0  0  0  0  0  0  0  0  0  0
    6.3722  -13.5666    1.0635 C   0  0  0  0  0  0  0  0  0  0  0  0
    7.7326  -13.8390    1.0941 C   0  0  0  0  0  0  0  0  0  0  0  0
    8.2931  -14.3653    2.2949 N   0  0  0  0  0  0  0  0  0  0  0  0
    9.3201  -13.8895    3.0827 C   0  0  0  0  0  0  0  0  0  0  0  0
    9.9773  -12.5856    2.8956 C   0  0  0  0  0  0  0  0  0  0  0  0
   11.2069  -12.2760    3.5635 C   0  0  0  0  0  0  0  0  0  0  0  0
   11.8163  -13.1419    4.4000 N   0  0  0  0  0  0  0  0  0  0  0  0
   11.7899  -11.0904    3.3505 N   0  0  0  0  0  0  0  0  0  0  0  0
   11.1852  -10.2276    2.5494 C   0  0  0  0  0  0  0  0  0  0  0  0
    9.9587  -10.4977    1.9285 C   0  0  0  0  0  0  0  0  0  0  0  0
    9.2679   -9.5208    1.0811 C   0  0  0  0  0  0  0  0  0  0  0  0
    8.1200   -9.7330    0.3323 C   0  0  0  0  0  0  0  0  0  0  0  0
    7.8123   -8.5552   -0.2622 N   0  0  0  0  0  0  0  0  0  0  0  0
    6.7174   -8.2188   -1.1805 C   0  0  0  0  0  0  0  0  0  0  0  0
    5.7328   -9.3711   -1.3680 C   0  0  0  0  0  0  0  0  0  0  0  0
    4.8143   -9.6120   -0.1680 C   0  0  0  0  0  0  0  0  0  0  0  0
    4.2047   -8.3773    0.2841 N   0  0  0  0  0  0  0  0  0  0  0  0
    5.1353   -7.2959    0.5544 C   0  0  0  0  0  0  0  0  0  0  0  0
    5.9736   -6.9766   -0.6777 C   0  0  0  0  0  0  0  0  0  0  0  0
    2.8672   -8.1862    0.5092 C   0  0  0  0  0  0  0  0  0  0  0  0
    1.9277   -9.3786    0.3127 C   0  0  0  0  0  0  0  0  0  0  0  0
    2.2973  -10.5035    1.0474 O   0  0  0  0  0  0  0  0  0  0  0  0
    2.4191   -7.0986    0.8331 O   0  0  0  0  0  0  0  0  0  0  0  0
    8.6900   -7.5944    0.0416 N   0  0  0  0  0  0  0  0  0  0  0  0
    9.5710   -8.1575    0.8507 C   0  0  0  0  0  0  0  0  0  0  0  0
    9.3901  -11.6891    2.1208 N   0  0  0  0  0  0  0  0  0  0  0  0
    9.6254  -14.7141    4.0617 N   0  0  0  0  0  0  0  0  0  0  0  0
    7.9164  -15.5861    2.8404 C   0  0  0  0  0  0  0  0  0  0  0  0
    8.7642  -15.7808    3.9464 C   0  0  0  0  0  0  0  0  0  0  0  0
    8.6437  -16.9389    4.7289 C   0  0  0  0  0  0  0  0  0  0  0  0
    7.6833  -17.8685    4.3595 C   0  0  0  0  0  0  0  0  0  0  0  0
    6.8558  -17.6649    3.2352 C   0  0  0  0  0  0  0  0  0  0  0  0
    6.9508  -16.5212    2.4553 C   0  0  0  0  0  0  0  0  0  0  0  0
    8.5162  -13.6952   -0.0525 C   0  0  0  0  0  0  0  0  0  0  0  0
    7.9155  -13.2415   -1.2213 C   0  0  0  0  0  0  0  0  0  0  0  0
    6.5510  -12.9565   -1.2618 C   0  0  0  0  0  0  0  0  0  0  0  0
    3.3773  -14.0906   -2.0052 C   0  0  0  0  0  3  0  0  0  0  0  0
    4.3783  -14.9833   -2.3156 C   0  0  0  0  0  3  0  0  0  0  0  0
    4.9665  -16.7307   -0.6475 S   0  0  0  0  0  1  0  0  0  0  0  0
    6.6786  -16.7832   -1.2580 C   0  0  0  0  0  0  0  0  0  0  0  0
    7.2714  -18.1965   -1.4476 C   0  0  2  0  0  0  0  0  0  0  0  0
    8.1347  -18.1305   -2.1318 H   0  0  0  0  0  0  0  0  0  0  0  0
    6.3049  -19.0687   -2.0408 N   0  0  0  0  0  0  0  0  0  0  0  0
    6.6606  -20.2439   -2.6127 C   0  0  0  0  0  0  0  0  0  0  0  0
    5.5037  -21.1716   -2.9316 C   0  0  0  0  0  0  0  0  0  0  0  0
    7.8189  -20.5459   -2.8472 O   0  0  0  0  0  0  0  0  0  0  0  0
    7.8115  -18.7818   -0.1289 C   0  0  0  0  0  0  0  0  0  0  0  0
    8.9728  -18.1988    0.2825 N   0  0  0  0  0  0  0  0  0  0  0  0
    9.6614  -18.5717    1.4899 C   0  0  0  0  0  0  0  0  0  0  0  0
    7.2599  -19.6753    0.4809 O   0  0  0  0  0  0  0  0  0  0  0  0
    4.0725  -12.3667    0.7390 H   0  0  0  0  0  0  0  0  0  0  0  0
    5.7680  -13.7202    1.9586 H   0  0  0  0  0  0  0  0  0  0  0  0
   11.2912  -13.9707    4.6811 H   0  0  0  0  0  0  0  0  0  0  0  0
   12.6286  -12.8077    4.8971 H   0  0  0  0  0  0  0  0  0  0  0  0
   11.6921   -9.2702    2.3882 H   0  0  0  0  0  0  0  0  0  0  0  0
    7.5406  -10.6439    0.2042 H   0  0  0  0  0  0  0  0  0  0  0  0
    7.1912   -7.9905   -2.1487 H   0  0  0  0  0  0  0  0  0  0  0  0
    6.2567  -10.3025   -1.6258 H   0  0  0  0  0  0  0  0  0  0  0  0
    5.1074   -9.1116   -2.2366 H   0  0  0  0  0  0  0  0  0  0  0  0
    5.3753  -10.0719    0.6657 H   0  0  0  0  0  0  0  0  0  0  0  0
    4.0454  -10.3325   -0.4506 H   0  0  0  0  0  0  0  0  0  0  0  0
    5.7999   -7.5835    1.3906 H   0  0  0  0  0  0  0  0  0  0  0  0
    4.5468   -6.4271    0.8700 H   0  0  0  0  0  0  0  0  0  0  0  0
    6.7005   -6.1837   -0.4563 H   0  0  0  0  0  0  0  0  0  0  0  0
    5.3135   -6.6212   -1.4851 H   0  0  0  0  0  0  0  0  0  0  0  0
    1.8775   -9.6026   -0.7718 H   0  0  0  0  0  0  0  0  0  0  0  0
    0.9358   -8.9968    0.6103 H   0  0  0  0  0  0  0  0  0  0  0  0
    2.2013  -11.2824    0.4486 H   0  0  0  0  0  0  0  0  0  0  0  0
   10.3924   -7.5635    1.2501 H   0  0  0  0  0  0  0  0  0  0  0  0
    9.2946  -17.0917    5.5916 H   0  0  0  0  0  0  0  0  0  0  0  0
    7.5695  -18.7859    4.9416 H   0  0  0  0  0  0  0  0  0  0  0  0
    6.1355  -18.4318    2.9461 H   0  0  0  0  0  0  0  0  0  0  0  0
    6.2973  -16.3824    1.5865 H   0  0  0  0  0  0  0  0  0  0  0  0
    9.5826  -13.9212   -0.0139 H   0  0  0  0  0  0  0  0  0  0  0  0
    8.5188  -13.1053   -2.1212 H   0  0  0  0  0  0  0  0  0  0  0  0
    6.0833  -12.6015   -2.1817 H   0  0  0  0  0  0  0  0  0  0  0  0
    2.3849  -14.2408   -2.4361 H   0  0  0  0  0  0  0  0  0  0  0  0
    5.4292  -14.7529   -2.1758 H   0  0  0  0  0  0  0  0  0  0  0  0
    4.1767  -15.7230   -3.0927 H   0  0  0  0  0  0  0  0  0  0  0  0
    7.3441  -16.2108   -0.5910 H   0  0  0  0  0  0  0  0  0  0  0  0
    6.7186  -16.2771   -2.2402 H   0  0  0  0  0  0  0  0  0  0  0  0
    5.3463  -18.8798   -1.7446 H   0  0  0  0  0  0  0  0  0  0  0  0
    5.3153  -21.8038   -2.0504 H   0  0  0  0  0  0  0  0  0  0  0  0
    5.7845  -21.8192   -3.7714 H   0  0  0  0  0  0  0  0  0  0  0  0
    4.5790  -20.6258   -3.1669 H   0  0  0  0  0  0  0  0  0  0  0  0
    9.3586  -17.4582   -0.2863 H   0  0  0  0  0  0  0  0  0  0  0  0
    9.0629  -19.3469    1.9836 H   0  0  0  0  0  0  0  0  0  0  0  0
    9.7617  -17.7195    2.1801 H   0  0  0  0  0  0  0  0  0  0  0  0
   10.6630  -18.9803    1.2747 H   0  0  0  0  0  0  0  0  0  0  0  0
  2  1  2  0  0  0  0
  2  3  1  0  0  0  0
  3 55  1  0  0  0  0
  4  3  1  0  0  0  0
  4  5  1  0  0  0  0
  5  6  2  0  0  0  0
  5 56  1  0  0  0  0
  6  7  1  0  0  0  0
  7 32  1  0  0  0  0
  7  8  1  0  0  0  0
  8 31  2  0  0  0  0
  9  8  1  0  0  0  0
  9 10  1  0  0  0  0
 10 11  1  0  0  0  0
 11 57  1  0  0  0  0
 11 58  1  0  0  0  0
 12 10  2  0  0  0  0
 13 12  1  0  0  0  0
 14 30  1  0  0  0  0
 14 13  2  0  0  0  0
 15 14  1  0  0  0  0
 16 15  2  0  0  0  0
 17 28  1  0  0  0  0
 17 16  1  0  0  0  0
 18 23  1  0  0  0  0
 18 17  1  0  0  0  0
 19 18  1  0  0  0  0
 19 20  1  0  0  0  0
 20 21  1  0  0  0  0
 20 64  1  0  0  0  0
 21 24  1  0  0  0  0
 21 22  1  0  0  0  0
 22 67  1  0  0  0  0
 22 66  1  0  0  0  0
 23 68  1  0  0  0  0
 23 22  1  0  0  0  0
 24 27  2  0  0  0  0
 25 24  1  0  0  0  0
 25 71  1  0  0  0  0
 25 26  1  0  0  0  0
 28 29  2  0  0  0  0
 29 15  1  0  0  0  0
 29 73  1  0  0  0  0
 30  9  2  0  0  0  0
 32 33  1  0  0  0  0
 33 31  1  0  0  0  0
 33 34  2  0  0  0  0
 34 74  1  0  0  0  0
 35 34  1  0  0  0  0
 35 75  1  0  0  0  0
 36 35  2  0  0  0  0
 37 32  2  0  0  0  0
 37 36  1  0  0  0  0
 38 78  1  0  0  0  0
 38  6  1  0  0  0  0
 39 38  2  0  0  0  0
 40 39  1  0  0  0  0
 40  4  2  0  0  0  0
 41  2  1  0  0  0  0
 42 82  1  0  0  0  0
 42 41  1  0  0  0  0
 44 43  1  0  0  0  0
 44 84  1  0  0  0  0
 45 46  1  6  0  0  0
 45 44  1  0  0  0  0
 45 51  1  0  0  0  0
 47 86  1  0  0  0  0
 47 45  1  0  0  0  0
 48 47  1  0  0  0  0
 49 48  1  0  0  0  0
 49 87  1  0  0  0  0
 50 48  2  0  0  0  0
 51 52  1  0  0  0  0
 51 54  2  0  0  0  0
 52 53  1  0  0  0  0
 53 91  1  0  0  0  0
 53 92  1  0  0  0  0
 59 13  1  0  0  0  0
 60 16  1  0  0  0  0
 61 18  1  0  0  0  0
 62 19  1  0  0  0  0
 63 19  1  0  0  0  0
 65 20  1  0  0  0  0
 69 23  1  0  0  0  0
 70 25  1  0  0  0  0
 72 26  1  0  0  0  0
 76 36  1  0  0  0  0
 77 37  1  0  0  0  0
 79 39  1  0  0  0  0
 80 40  1  0  0  0  0
 81 41  1  0  0  0  0
 83 42  1  0  0  0  0
 85 44  1  0  0  0  0
 88 49  1  0  0  0  0
 89 49  1  0  0  0  0
 90 52  1  0  0  0  0
 93 53  1  0  0  0  0
M  END
