-1 1
 OpenBabel05232413493D

 93 97  0  0  1  0  0  0  0  0999 V2000
   -4.4308    1.3562   -1.5164 O   0  0  0  0  0  0  0  0  0  0  0  0
   -3.4076    0.7318   -1.7858 C   0  0  0  0  0  0  0  0  0  0  0  0
   -2.4989    0.4726   -0.7956 N   0  0  0  0  0  0  0  0  0  0  0  0
   -1.1312    0.1443   -0.7988 C   0  0  0  0  0  0  0  0  0  0  0  0
   -0.5867   -0.3144    0.4085 C   0  0  0  0  0  0  0  0  0  0  0  0
    0.7746   -0.5635    0.5196 C   0  0  0  0  0  0  0  0  0  0  0  0
    1.2888   -1.0608    1.7496 N   0  0  0  0  0  0  0  0  0  0  0  0
    2.3427   -0.5929    2.5108 C   0  0  0  0  0  0  0  0  0  0  0  0
    3.0080    0.7054    2.3114 C   0  0  0  0  0  0  0  0  0  0  0  0
    4.2625    0.9984    2.9424 C   0  0  0  0  0  0  0  0  0  0  0  0
    4.8848    0.1203    3.7552 N   0  0  0  0  0  0  0  0  0  0  0  0
    4.8524    2.1780    2.7172 N   0  0  0  0  0  0  0  0  0  0  0  0
    4.2347    3.0521    1.9372 C   0  0  0  0  0  0  0  0  0  0  0  0
    2.9882    2.7980    1.3538 C   0  0  0  0  0  0  0  0  0  0  0  0
    2.2795    3.7727    0.5190 C   0  0  0  0  0  0  0  0  0  0  0  0
    1.1141    3.5417   -0.1934 C   0  0  0  0  0  0  0  0  0  0  0  0
    0.7796    4.7070   -0.7978 N   0  0  0  0  0  0  0  0  0  0  0  0
   -0.3369    4.9960   -1.7067 C   0  0  0  0  0  0  0  0  0  0  0  0
   -1.3735    3.8714   -1.7030 C   0  0  0  0  0  0  0  0  0  0  0  0
   -2.1970    3.8293   -0.4146 C   0  0  0  0  0  0  0  0  0  0  0  0
   -2.7781    5.1275   -0.1345 N   0  0  0  0  0  0  0  0  0  0  0  0
   -1.8018    6.1985   -0.0285 C   0  0  0  0  0  0  0  0  0  0  0  0
   -1.0003    6.3246   -1.3224 C   0  0  0  0  0  0  0  0  0  0  0  0
   -4.1063    5.4400   -0.2375 C   0  0  0  0  0  0  0  0  0  0  0  0
   -5.1149    4.3061   -0.4567 C   0  0  0  0  0  0  0  0  0  0  0  0
   -4.9851    3.2210    0.4124 O   0  0  0  0  0  0  0  0  0  0  0  0
   -4.5017    6.5937   -0.1988 O   0  0  0  0  0  0  0  0  0  0  0  0
    1.6598    5.6780   -0.5355 N   0  0  0  0  0  0  0  0  0  0  0  0
    2.5675    5.1337    0.2582 C   0  0  0  0  0  0  0  0  0  0  0  0
    2.4090    1.6133    1.5612 N   0  0  0  0  0  0  0  0  0  0  0  0
    2.6580   -1.4134    3.4886 N   0  0  0  0  0  0  0  0  0  0  0  0
    0.9076   -2.2733    2.3170 C   0  0  0  0  0  0  0  0  0  0  0  0
    1.7834   -2.4719    3.3990 C   0  0  0  0  0  0  0  0  0  0  0  0
    1.7000   -3.6419    4.1671 C   0  0  0  0  0  0  0  0  0  0  0  0
    0.7452   -4.5801    3.8053 C   0  0  0  0  0  0  0  0  0  0  0  0
   -0.1133   -4.3677    2.7061 C   0  0  0  0  0  0  0  0  0  0  0  0
   -0.0550   -3.2123    1.9410 C   0  0  0  0  0  0  0  0  0  0  0  0
    1.6209   -0.3801   -0.5766 C   0  0  0  0  0  0  0  0  0  0  0  0
    1.0813    0.0819   -1.7693 C   0  0  0  0  0  0  0  0  0  0  0  0
   -0.2829    0.3482   -1.8913 C   0  0  0  0  0  0  0  0  0  0  0  0
   -3.2046    0.2301   -3.1687 C   0  0  0  0  0  0  0  0  0  0  0  0
   -2.9011   -1.0426   -3.4337 C   0  0  0  0  0  0  0  0  0  0  0  0
   -2.1568   -3.4232   -0.9309 S   0  0  0  0  0  1  0  0  0  0  0  0
   -0.6110   -3.2537   -1.8859 C   0  0  0  0  0  0  0  0  0  0  0  0
    0.2068   -4.5546   -2.0410 C   0  0  2  0  0  0  0  0  0  0  0  0
    0.9265   -4.4347   -2.8698 H   0  0  0  0  0  0  0  0  0  0  0  0
   -0.6593   -5.6443   -2.3682 N   0  0  0  0  0  0  0  0  0  0  0  0
   -0.2228   -6.7663   -2.9816 C   0  0  0  0  0  0  0  0  0  0  0  0
   -1.2243   -7.9073   -2.9976 C   0  0  0  0  0  0  0  0  0  0  0  0
    0.8865   -6.8746   -3.4797 O   0  0  0  0  0  0  0  0  0  0  0  0
    1.0587   -4.8895   -0.8005 C   0  0  0  0  0  0  0  0  0  0  0  0
    2.0077   -3.9502   -0.5138 N   0  0  0  0  0  0  0  0  0  0  0  0
    2.9588   -4.1109    0.5543 C   0  0  0  0  0  0  0  0  0  0  0  0
    0.9305   -5.9072   -0.1518 O   0  0  0  0  0  0  0  0  0  0  0  0
   -2.8924    0.6308    0.1267 H   0  0  0  0  0  0  0  0  0  0  0  0
   -1.2349   -0.4879    1.2685 H   0  0  0  0  0  0  0  0  0  0  0  0
    4.3556   -0.7016    4.0496 H   0  0  0  0  0  0  0  0  0  0  0  0
    5.7195    0.4381    4.2255 H   0  0  0  0  0  0  0  0  0  0  0  0
    4.7480    4.0039    1.7629 H   0  0  0  0  0  0  0  0  0  0  0  0
    0.5420    2.6227   -0.2881 H   0  0  0  0  0  0  0  0  0  0  0  0
    0.0951    5.0870   -2.7167 H   0  0  0  0  0  0  0  0  0  0  0  0
   -0.9022    2.8958   -1.8890 H   0  0  0  0  0  0  0  0  0  0  0  0
   -2.0559    4.0566   -2.5480 H   0  0  0  0  0  0  0  0  0  0  0  0
   -1.5641    3.5318    0.4393 H   0  0  0  0  0  0  0  0  0  0  0  0
   -2.9826    3.0796   -0.4929 H   0  0  0  0  0  0  0  0  0  0  0  0
   -1.1213    5.9831    0.8141 H   0  0  0  0  0  0  0  0  0  0  0  0
   -2.3430    7.1261    0.1885 H   0  0  0  0  0  0  0  0  0  0  0  0
   -0.2293    7.1003   -1.2263 H   0  0  0  0  0  0  0  0  0  0  0  0
   -1.6801    6.6167   -2.1388 H   0  0  0  0  0  0  0  0  0  0  0  0
   -5.0293    3.9868   -1.5133 H   0  0  0  0  0  0  0  0  0  0  0  0
   -6.0969    4.7946   -0.3444 H   0  0  0  0  0  0  0  0  0  0  0  0
   -4.9094    2.4206   -0.1360 H   0  0  0  0  0  0  0  0  0  0  0  0
    3.3951    5.7395    0.6254 H   0  0  0  0  0  0  0  0  0  0  0  0
    2.3798   -3.8012    5.0060 H   0  0  0  0  0  0  0  0  0  0  0  0
    0.6620   -5.5103    4.3721 H   0  0  0  0  0  0  0  0  0  0  0  0
   -0.8318   -5.1378    2.4206 H   0  0  0  0  0  0  0  0  0  0  0  0
   -0.7231   -3.0928    1.0757 H   0  0  0  0  0  0  0  0  0  0  0  0
    2.6892   -0.5786   -0.4773 H   0  0  0  0  0  0  0  0  0  0  0  0
    1.7322    0.2421   -2.6309 H   0  0  0  0  0  0  0  0  0  0  0  0
   -0.6812    0.7016   -2.8405 H   0  0  0  0  0  0  0  0  0  0  0  0
   -3.5032    0.9374   -3.9486 H   0  0  0  0  0  0  0  0  0  0  0  0
   -2.7053   -1.7761   -2.6286 H   0  0  0  0  0  0  0  0  0  0  0  0
   -2.8974   -1.4004   -4.4672 H   0  0  0  0  0  0  0  0  0  0  0  0
    0.0381   -2.4949   -1.4242 H   0  0  0  0  0  0  0  0  0  0  0  0
   -0.8300   -2.8858   -2.9050 H   0  0  0  0  0  0  0  0  0  0  0  0
   -1.5635   -5.5931   -1.8944 H   0  0  0  0  0  0  0  0  0  0  0  0
   -1.0779   -8.5070   -2.0862 H   0  0  0  0  0  0  0  0  0  0  0  0
   -1.0284   -8.5443   -3.8693 H   0  0  0  0  0  0  0  0  0  0  0  0
   -2.2650   -7.5535   -3.0127 H   0  0  0  0  0  0  0  0  0  0  0  0
    2.0666   -3.1323   -1.1044 H   0  0  0  0  0  0  0  0  0  0  0  0
    2.4951   -4.6943    1.3612 H   0  0  0  0  0  0  0  0  0  0  0  0
    3.2498   -3.1289    0.9557 H   0  0  0  0  0  0  0  0  0  0  0  0
    3.8713   -4.6411    0.2279 H   0  0  0  0  0  0  0  0  0  0  0  0
  2  1  2  0  0  0  0
  2  3  1  0  0  0  0
  3 55  1  0  0  0  0
  4  3  1  0  0  0  0
  4  5  1  0  0  0  0
  5  6  2  0  0  0  0
  5 56  1  0  0  0  0
  6  7  1  0  0  0  0
  7 32  1  0  0  0  0
  7  8  1  0  0  0  0
  8 31  2  0  0  0  0
  9  8  1  0  0  0  0
  9 10  1  0  0  0  0
 10 11  1  0  0  0  0
 11 57  1  0  0  0  0
 11 58  1  0  0  0  0
 12 10  2  0  0  0  0
 13 12  1  0  0  0  0
 14 30  1  0  0  0  0
 14 13  2  0  0  0  0
 15 14  1  0  0  0  0
 16 15  2  0  0  0  0
 17 28  1  0  0  0  0
 17 16  1  0  0  0  0
 18 19  1  0  0  0  0
 18 23  1  0  0  0  0
 18 17  1  0  0  0  0
 19 20  1  0  0  0  0
 20 21  1  0  0  0  0
 20 64  1  0  0  0  0
 21 22  1  0  0  0  0
 22 67  1  0  0  0  0
 22 66  1  0  0  0  0
 23 68  1  0  0  0  0
 23 22  1  0  0  0  0
 24 27  2  0  0  0  0
 24 21  1  0  0  0  0
 25 71  1  0  0  0  0
 25 24  1  0  0  0  0
 25 26  1  0  0  0  0
 28 29  2  0  0  0  0
 29 15  1  0  0  0  0
 29 73  1  0  0  0  0
 30  9  2  0  0  0  0
 32 33  1  0  0  0  0
 33 31  1  0  0  0  0
 33 34  2  0  0  0  0
 34 74  1  0  0  0  0
 35 34  1  0  0  0  0
 35 75  1  0  0  0  0
 36 35  2  0  0  0  0
 37 32  2  0  0  0  0
 37 36  1  0  0  0  0
 38 78  1  0  0  0  0
 38  6  1  0  0  0  0
 39 38  2  0  0  0  0
 40 39  1  0  0  0  0
 40  4  2  0  0  0  0
 41  2  1  0  0  0  0
 42 41  2  0  0  0  0
 42 82  1  0  0  0  0
 44 84  1  0  0  0  0
 44 43  1  0  0  0  0
 45 46  1  6  0  0  0
 45 44  1  0  0  0  0
 45 51  1  0  0  0  0
 47 45  1  0  0  0  0
 47 86  1  0  0  0  0
 48 47  1  0  0  0  0
 49 48  1  0  0  0  0
 49 87  1  0  0  0  0
 50 48  2  0  0  0  0
 51 52  1  0  0  0  0
 51 54  2  0  0  0  0
 52 53  1  0  0  0  0
 53 92  1  0  0  0  0
 53 91  1  0  0  0  0
 59 13  1  0  0  0  0
 60 16  1  0  0  0  0
 61 18  1  0  0  0  0
 62 19  1  0  0  0  0
 63 19  1  0  0  0  0
 65 20  1  0  0  0  0
 69 23  1  0  0  0  0
 70 25  1  0  0  0  0
 72 26  1  0  0  0  0
 76 36  1  0  0  0  0
 77 37  1  0  0  0  0
 79 39  1  0  0  0  0
 80 40  1  0  0  0  0
 81 41  1  0  0  0  0
 83 42  1  0  0  0  0
 85 44  1  0  0  0  0
 88 49  1  0  0  0  0
 89 49  1  0  0  0  0
 90 52  1  0  0  0  0
 93 53  1  0  0  0  0
M  END
