-1 1
 OpenBabel05232414493D

 90 94  0  0  1  0  0  0  0  0999 V2000
    2.2670    5.8543  -10.0380 O   0  0  0  0  0  0  0  0  0  0  0  0
    1.8294    6.1357  -11.1524 C   0  0  0  0  0  0  0  0  0  0  0  0
    2.7137    6.1278  -12.2480 N   0  0  0  0  0  0  0  0  0  0  0  0
    4.0974    6.0398  -12.0970 C   0  0  0  0  0  0  0  0  0  0  0  0
    4.8489    5.1647  -12.8809 C   0  0  0  0  0  0  0  0  0  0  0  0
    6.2334    5.1215  -12.7390 C   0  0  0  0  0  0  0  0  0  0  0  0
    6.9676    4.1895  -13.5341 N   0  0  0  0  0  0  0  0  0  0  0  0
    7.0919    2.8268  -13.3780 C   0  0  0  0  0  0  0  0  0  0  0  0
    6.6047    2.0826  -12.2031 C   0  0  0  0  0  0  0  0  0  0  0  0
    6.5863    0.6519  -12.2054 C   0  0  0  0  0  0  0  0  0  0  0  0
    6.9967   -0.0869  -13.2578 N   0  0  0  0  0  0  0  0  0  0  0  0
    6.1369   -0.0027  -11.1264 N   0  0  0  0  0  0  0  0  0  0  0  0
    5.7593    0.7097  -10.0799 C   0  0  0  0  0  0  0  0  0  0  0  0
    5.8156    2.1144  -10.0415 C   0  0  0  0  0  0  0  0  0  0  0  0
    5.4870    2.8180   -8.7876 C   0  0  0  0  0  0  0  0  0  0  0  0
    4.6706    3.9130   -8.5235 C   0  0  0  0  0  0  0  0  0  0  0  0
    4.7054    4.1041   -7.1794 N   0  0  0  0  0  0  0  0  0  0  0  0
    3.9571    5.0437   -6.3259 C   0  0  0  0  0  0  0  0  0  0  0  0
    4.9219    5.8078   -5.4074 C   0  0  0  0  0  0  0  0  0  0  0  0
    5.6946    6.8847   -6.1790 C   0  0  0  0  0  0  0  0  0  0  0  0
    4.8435    7.8154   -6.8983 N   0  0  0  0  0  0  0  0  0  0  0  0
    3.9495    7.1064   -7.8047 C   0  0  0  0  0  0  0  0  0  0  0  0
    3.1042    6.0272   -7.1222 C   0  0  0  0  0  0  0  0  0  0  0  0
    4.1822    8.8073   -6.0801 C   0  0  0  0  0  0  0  0  0  0  0  0
    5.4820    3.2117   -6.5569 N   0  0  0  0  0  0  0  0  0  0  0  0
    5.9569    2.4314   -7.5099 C   0  0  0  0  0  0  0  0  0  0  0  0
    6.2293    2.7654  -11.1270 N   0  0  0  0  0  0  0  0  0  0  0  0
    7.7234    2.2644  -14.3906 N   0  0  0  0  0  0  0  0  0  0  0  0
    7.5692    4.5048  -14.7356 C   0  0  0  0  0  0  0  0  0  0  0  0
    8.0393    3.2838  -15.2562 C   0  0  0  0  0  0  0  0  0  0  0  0
    8.7074    3.2615  -16.4883 C   0  0  0  0  0  0  0  0  0  0  0  0
    8.8757    4.4657  -17.1581 C   0  0  0  0  0  0  0  0  0  0  0  0
    8.3912    5.6778  -16.6244 C   0  0  0  0  0  0  0  0  0  0  0  0
    7.7283    5.7206  -15.4046 C   0  0  0  0  0  0  0  0  0  0  0  0
    6.8990    5.9525  -11.8471 C   0  0  0  0  0  0  0  0  0  0  0  0
    6.1447    6.8260  -11.0636 C   0  0  0  0  0  0  0  0  0  0  0  0
    4.7630    6.8683  -11.1804 C   0  0  0  0  0  0  0  0  0  0  0  0
    0.4605    6.4887  -11.4274 C   0  0  0  0  0  3  0  0  0  0  0  0
   -0.0275    6.9444  -12.6337 C   0  0  0  0  0  3  0  0  0  0  0  0
    0.3475    9.3736  -12.9755 S   0  0  0  0  0  1  0  0  0  0  0  0
    1.2120    9.6560  -11.4147 C   0  0  0  0  0  0  0  0  0  0  0  0
    2.6652   10.1401  -11.5570 C   0  0  2  0  0  0  0  0  0  0  0  0
    2.6777   11.1834  -11.9238 H   0  0  0  0  0  0  0  0  0  0  0  0
    3.3374    9.3046  -12.5390 N   0  0  0  0  0  0  0  0  0  0  0  0
    4.4684    9.5911  -13.2039 C   0  0  0  0  0  0  0  0  0  0  0  0
    4.8390    8.6153  -14.3002 C   0  0  0  0  0  0  0  0  0  0  0  0
    5.2097   10.5345  -12.9274 O   0  0  0  0  0  0  0  0  0  0  0  0
    3.3708   10.1488  -10.1783 C   0  0  0  0  0  0  0  0  0  0  0  0
    4.6948   10.3970  -10.2183 N   0  0  0  0  0  0  0  0  0  0  0  0
    5.4948   10.4568   -9.0193 C   0  0  0  0  0  0  0  0  0  0  0  0
    2.7582    9.9703   -9.1336 O   0  0  0  0  0  0  0  0  0  0  0  0
    2.3271    5.9342  -13.1612 H   0  0  0  0  0  0  0  0  0  0  0  0
    4.3578    4.4868  -13.5821 H   0  0  0  0  0  0  0  0  0  0  0  0
    7.4564    0.3963  -14.0287 H   0  0  0  0  0  0  0  0  0  0  0  0
    7.0119   -1.0888  -13.1386 H   0  0  0  0  0  0  0  0  0  0  0  0
    5.3842    0.1574   -9.2112 H   0  0  0  0  0  0  0  0  0  0  0  0
    4.0584    4.5277   -9.1869 H   0  0  0  0  0  0  0  0  0  0  0  0
    3.3033    4.4091   -5.7061 H   0  0  0  0  0  0  0  0  0  0  0  0
    5.6115    5.0982   -4.9288 H   0  0  0  0  0  0  0  0  0  0  0  0
    4.3213    6.2748   -4.6092 H   0  0  0  0  0  0  0  0  0  0  0  0
    6.3549    6.3872   -6.9120 H   0  0  0  0  0  0  0  0  0  0  0  0
    6.3492    7.4468   -5.4929 H   0  0  0  0  0  0  0  0  0  0  0  0
    4.5678    6.6375   -8.5836 H   0  0  0  0  0  0  0  0  0  0  0  0
    3.2969    7.8306   -8.3110 H   0  0  0  0  0  0  0  0  0  0  0  0
    2.4805    5.5301   -7.8757 H   0  0  0  0  0  0  0  0  0  0  0  0
    2.4131    6.4988   -6.4044 H   0  0  0  0  0  0  0  0  0  0  0  0
    4.9339    9.3961   -5.5286 H   0  0  0  0  0  0  0  0  0  0  0  0
    3.4691    8.3963   -5.3317 H   0  0  0  0  0  0  0  0  0  0  0  0
    3.6224    9.4887   -6.7391 H   0  0  0  0  0  0  0  0  0  0  0  0
    6.6410    1.6178   -7.2663 H   0  0  0  0  0  0  0  0  0  0  0  0
    9.0773    2.3199  -16.8980 H   0  0  0  0  0  0  0  0  0  0  0  0
    9.3923    4.4789  -18.1206 H   0  0  0  0  0  0  0  0  0  0  0  0
    8.5401    6.6045  -17.1829 H   0  0  0  0  0  0  0  0  0  0  0  0
    7.3485    6.6531  -14.9844 H   0  0  0  0  0  0  0  0  0  0  0  0
    7.9834    5.8869  -11.7502 H   0  0  0  0  0  0  0  0  0  0  0  0
    6.6366    7.4886  -10.3487 H   0  0  0  0  0  0  0  0  0  0  0  0
    4.1833    7.5609  -10.5760 H   0  0  0  0  0  0  0  0  0  0  0  0
   -0.1779    6.4922  -10.5419 H   0  0  0  0  0  0  0  0  0  0  0  0
   -1.1024    7.0777  -12.7508 H   0  0  0  0  0  0  0  0  0  0  0  0
    0.5041    6.7762  -13.5714 H   0  0  0  0  0  0  0  0  0  0  0  0
    1.2159    8.7012  -10.8490 H   0  0  0  0  0  0  0  0  0  0  0  0
    0.6767   10.3765  -10.7835 H   0  0  0  0  0  0  0  0  0  0  0  0
    2.7031    8.6226  -12.9557 H   0  0  0  0  0  0  0  0  0  0  0  0
    5.5665    7.9007  -13.8844 H   0  0  0  0  0  0  0  0  0  0  0  0
    5.3204    9.1660  -15.1182 H   0  0  0  0  0  0  0  0  0  0  0  0
    3.9781    8.0508  -14.6829 H   0  0  0  0  0  0  0  0  0  0  0  0
    5.1035   10.6116  -11.1334 H   0  0  0  0  0  0  0  0  0  0  0  0
    5.1447   11.2522   -8.3391 H   0  0  0  0  0  0  0  0  0  0  0  0
    6.5339   10.6737   -9.3020 H   0  0  0  0  0  0  0  0  0  0  0  0
    5.4693    9.5071   -8.4581 H   0  0  0  0  0  0  0  0  0  0  0  0
  2  1  2  0  0  0  0
  3  4  1  0  0  0  0
  3  2  1  0  0  0  0
  4 37  1  0  0  0  0
  5  6  1  0  0  0  0
  5  4  2  0  0  0  0
  6 35  2  0  0  0  0
  7  8  1  0  0  0  0
  7  6  1  0  0  0  0
  8  9  1  0  0  0  0
  9 27  1  0  0  0  0
 10  9  2  0  0  0  0
 10 12  1  0  0  0  0
 11 55  1  0  0  0  0
 11 10  1  0  0  0  0
 12 13  2  0  0  0  0
 13 14  1  0  0  0  0
 13 56  1  0  0  0  0
 14 15  1  0  0  0  0
 15 16  2  0  0  0  0
 15 26  1  0  0  0  0
 16 17  1  0  0  0  0
 17 25  1  0  0  0  0
 17 18  1  0  0  0  0
 18 58  1  0  0  0  0
 18 19  1  0  0  0  0
 19 59  1  0  0  0  0
 19 60  1  0  0  0  0
 20 62  1  0  0  0  0
 20 19  1  0  0  0  0
 21 20  1  0  0  0  0
 21 24  1  0  0  0  0
 22 23  1  0  0  0  0
 22 21  1  0  0  0  0
 23 66  1  0  0  0  0
 23 18  1  0  0  0  0
 24 67  1  0  0  0  0
 24 68  1  0  0  0  0
 26 70  1  0  0  0  0
 26 25  2  0  0  0  0
 27 14  2  0  0  0  0
 28  8  2  0  0  0  0
 29  7  1  0  0  0  0
 30 29  1  0  0  0  0
 30 28  1  0  0  0  0
 31 30  2  0  0  0  0
 32 33  2  0  0  0  0
 32 31  1  0  0  0  0
 33 34  1  0  0  0  0
 34 74  1  0  0  0  0
 34 29  2  0  0  0  0
 35 75  1  0  0  0  0
 35 36  1  0  0  0  0
 36 76  1  0  0  0  0
 37 36  2  0  0  0  0
 37 77  1  0  0  0  0
 38  2  1  0  0  0  0
 38 78  1  0  0  0  0
 39 38  1  0  0  0  0
 40 41  1  0  0  0  0
 41 81  1  0  0  0  0
 41 82  1  0  0  0  0
 42 43  1  6  0  0  0
 42 41  1  0  0  0  0
 42 48  1  0  0  0  0
 44 42  1  0  0  0  0
 45 47  2  0  0  0  0
 45 44  1  0  0  0  0
 46 84  1  0  0  0  0
 46 45  1  0  0  0  0
 48 51  2  0  0  0  0
 49 48  1  0  0  0  0
 49 50  1  0  0  0  0
 50 90  1  0  0  0  0
 50 88  1  0  0  0  0
 52  3  1  0  0  0  0
 53  5  1  0  0  0  0
 54 11  1  0  0  0  0
 57 16  1  0  0  0  0
 61 20  1  0  0  0  0
 63 22  1  0  0  0  0
 64 22  1  0  0  0  0
 65 23  1  0  0  0  0
 69 24  1  0  0  0  0
 71 31  1  0  0  0  0
 72 32  1  0  0  0  0
 73 33  1  0  0  0  0
 79 39  1  0  0  0  0
 80 39  1  0  0  0  0
 83 44  1  0  0  0  0
 85 46  1  0  0  0  0
 86 46  1  0  0  0  0
 87 49  1  0  0  0  0
 89 50  1  0  0  0  0
M  END
