90
-1 1
O        -2.636833   -1.740512    0.223747
C        -3.120400   -0.685583   -0.173499
N        -2.365856    0.308921   -0.717102
C        -0.964848    0.174631   -0.845394
C        -0.407597   -0.860896   -1.602274
C         0.972711   -0.960581   -1.719655
N         1.527245   -1.971697   -2.566902
C         2.203676   -3.131820   -2.258219
C         2.389481   -3.627803   -0.886865
C         3.280304   -4.708912   -0.600939
N         3.981995   -5.349671   -1.560296
N         3.440650   -5.108593    0.667411
C         2.753635   -4.487985    1.612408
C         1.865279   -3.433933    1.345373
C         1.102293   -2.759542    2.399515
C        -0.049581   -2.000613    2.246738
N        -0.397156   -1.567584    3.480664
C        -1.599564   -0.789922    3.826364
C        -1.538955   -0.290528    5.273231
C        -0.511252    0.839535    5.445020
N        -0.695689    1.950529    4.527292
C        -0.726344    1.489554    3.148316
C        -1.769407    0.402580    2.880195
C        -1.777893    2.850746    4.867330
N         0.443380   -1.999826    4.426968
C         1.354830   -2.716643    3.791365
N         1.710270   -3.037092    0.083739
N         2.662125   -3.747572   -3.329899
C         1.562556   -1.856288   -3.943295
C         2.277123   -2.979193   -4.402501
C         2.493828   -3.154810   -5.776216
C         1.989458   -2.193702   -6.641435
C         1.281668   -1.071862   -6.162148
C         1.055457   -0.880750   -4.805299
C         1.820110   -0.039006   -1.104364
C         1.263605    0.983510   -0.345429
C        -0.119111    1.087491   -0.215794
C        -4.589872   -0.460095   -0.027234
C        -5.266519    0.663315   -0.273917
S        -3.203566    3.349048   -1.614621
C        -2.517179    3.901596   -0.017977
C        -1.143344    4.637766   -0.110854
H        -1.337271    5.694919   -0.371281
N        -0.386940    4.016127   -1.182536
C         0.856377    4.215946   -1.639263
C         1.168489    3.500017   -2.939129
O         1.731290    4.862224   -1.057525
C        -0.544738    4.655345    1.304378
N         0.757246    4.324767    1.452653
C         1.366443    4.373167    2.762585
O        -1.268558    4.934460    2.251225
H        -2.766428    1.226500   -1.018101
H        -1.051803   -1.593388   -2.088150
H         3.777659   -5.121169   -2.532333
H         4.535669   -6.144485   -1.278323
H         2.895204   -4.844412    2.638494
H        -0.654787   -1.798317    1.361779
H        -2.458079   -1.470717    3.705734
H        -1.306649   -1.119694    5.954607
H        -2.547350    0.076811    5.525135
H         0.494602    0.416757    5.290791
H        -0.544568    1.220907    6.478239
H         0.274111    1.103358    2.882329
H        -0.918021    2.355145    2.500628
H        -1.717293    0.076821    1.835432
H        -2.784907    0.805341    3.024217
H        -1.613483    3.255774    5.878898
H        -2.788737    2.386267    4.857607
H        -1.783586    3.691082    4.156977
H         2.177232   -3.163275    4.349971
H         3.044274   -4.023970   -6.140811
H         2.142204   -2.304381   -7.717447
H         0.901100   -0.336506   -6.874339
H         0.507143   -0.017174   -4.424647
H         2.900747   -0.139108   -1.219170
H         1.899123    1.722500    0.146776
H        -0.543586    1.891905    0.379153
H        -5.092031   -1.352909    0.357178
H        -6.345982    0.694856   -0.098829
H        -4.792264    1.579921   -0.654964
H        -2.391836    3.029709    0.648818
H        -3.205461    4.576922    0.503788
H        -1.052885    3.514983   -1.797275
H         0.270898    3.298703   -3.539937
H         1.648986    2.538416   -2.700075
H         1.881472    4.105597   -3.512739
H         1.345625    4.465913    0.621819
H         1.355074    5.392035    3.187172
H         2.408453    4.036305    2.678699
H         0.840301    3.711481    3.468065
