90
-1 1
O        -2.467503   -0.267677    0.938949
C        -2.924276    0.272103   -0.086314
N        -1.983126    0.419397   -1.223214
C        -0.619797    0.238851   -0.998655
C         0.131854   -0.663915   -1.753354
C         1.502945   -0.778601   -1.544699
N         2.227833   -1.731056   -2.326388
C         2.297962   -3.099297   -2.186901
C         1.745975   -3.837690   -1.038226
C         1.687764   -5.266250   -1.047994
N         2.113454   -6.012210   -2.090362
N         1.184241   -5.911754    0.012407
C         0.786547   -5.192003    1.046951
C         0.875850   -3.788996    1.091650
C         0.520282   -3.073271    2.330412
C        -0.286490   -1.961836    2.555496
N        -0.280022   -1.753243    3.897358
C        -1.025728   -0.784500    4.719544
C        -0.064014   -0.058366    5.671905
C         0.786995    0.975487    4.923806
N         0.005803    1.950564    4.181315
C        -0.894438    1.278663    3.250142
C        -1.808958    0.233421    3.893909
C        -0.636885    2.959076    4.996095
N         0.466091   -2.649725    4.553600
C         0.951304   -3.451085    3.623834
N         1.348687   -3.148056    0.025150
N         2.940608   -3.671342   -3.187561
C         2.875629   -1.422637   -3.504735
C         3.318537   -2.652634   -4.028602
C         4.021942   -2.681231   -5.240667
C         4.251262   -1.474659   -5.888336
C         3.792491   -0.253634   -5.352237
C         3.095412   -0.204555   -4.151701
C         2.166477    0.005348   -0.609567
C         1.415932    0.906537    0.145605
C         0.046013    1.022020   -0.042122
C        -4.209791    0.735208   -0.330387
C        -4.634490    1.547795   -1.482373
S        -4.881855    3.423590   -1.152191
C        -3.699991    3.728464    0.176664
C        -2.320517    4.253337   -0.227994
H        -2.405227    5.267344   -0.656992
N        -1.721814    3.412106   -1.246838
C        -0.747690    3.820713   -2.080602
C        -0.304024    2.815068   -3.120101
O        -0.206439    4.922153   -1.989436
C        -1.450911    4.383884    1.048189
N        -0.131423    4.561320    0.835490
C         0.801007    4.634852    1.935292
O        -1.942052    4.323304    2.166543
H        -2.318450   -0.081869   -2.038888
H        -0.353338   -1.310414   -2.488291
H         2.611153   -5.538476   -2.843021
H         2.100960   -7.014412   -1.974232
H         0.367193   -5.736150    1.900351
H        -0.885361   -1.357865    1.864554
H        -1.728052   -1.389843    5.315389
H         0.574406   -0.794586    6.179727
H        -0.671963    0.441719    6.443986
H         1.440334    0.442758    4.209816
H         1.450119    1.503442    5.628840
H        -0.277302    0.781676    2.489339
H        -1.500920    2.032711    2.730420
H        -2.411307   -0.234423    3.102594
H        -2.511385    0.726881    4.585787
H         0.123652    3.498633    5.584861
H        -1.392481    2.567861    5.712524
H        -1.140511    3.679877    4.334706
H         1.615714   -4.272184    3.895773
H         4.371307   -3.629542   -5.653067
H         4.796387   -1.466846   -6.835049
H         3.989171    0.674353   -5.893730
H         2.733740    0.733578   -3.727488
H         3.239086   -0.119402   -0.456950
H         1.901798    1.526966    0.902005
H        -0.522981    1.738363    0.545020
H        -4.930028    0.561431    0.473057
H        -5.635359    1.283019   -1.855544
H        -3.936543    1.492971   -2.328740
H        -3.588934    2.771828    0.715677
H        -4.150811    4.434673    0.883143
H        -2.034851    2.439041   -1.317331
H         0.588247    2.294360   -2.739082
H        -0.027651    3.355653   -4.034087
H        -1.070940    2.061060   -3.337272
H         0.157988    4.795500   -0.115447
H         0.626912    5.524413    2.564892
H         1.820315    4.686040    1.529919
H         0.719557    3.744358    2.581568
