-1 1
 OpenBabel05192410563D

 90 95  0  0  1  0  0  0  0  0999 V2000
    1.4888   -4.1806    0.3338 O   0  0  0  0  0  0  0  0  0  0  0  0
    1.9412   -3.1129   -0.1096 C   0  0  0  0  0  0  0  0  0  0  0  0
    1.8643   -1.9829    0.7934 N   0  0  0  0  0  0  0  0  0  0  0  0
    1.4001   -0.7037    0.5565 C   0  0  0  0  0  0  0  0  0  0  0  0
    1.4889    0.2647    1.5770 C   0  0  0  0  0  0  0  0  0  0  0  0
    1.0164    1.5604    1.3850 C   0  0  0  0  0  0  0  0  0  0  0  0
    1.2020    2.5527    2.3891 N   0  0  0  0  0  0  0  0  0  0  0  0
    0.2667    3.3707    2.9852 C   0  0  0  0  0  0  0  0  0  0  0  0
   -1.1837    3.1640    2.8635 C   0  0  0  0  0  0  0  0  0  0  0  0
   -2.1073    4.2188    3.1357 C   0  0  0  0  0  0  0  0  0  0  0  0
   -1.7126    5.4368    3.5691 N   0  0  0  0  0  0  0  0  0  0  0  0
   -3.4155    4.0090    2.9489 N   0  0  0  0  0  0  0  0  0  0  0  0
   -3.8078    2.8057    2.5609 C   0  0  0  0  0  0  0  0  0  0  0  0
   -2.9172    1.7409    2.3586 C   0  0  0  0  0  0  0  0  0  0  0  0
   -3.3618    0.3838    2.0312 C   0  0  0  0  0  0  0  0  0  0  0  0
   -2.5567   -0.6994    1.7099 C   0  0  0  0  0  0  0  0  0  0  0  0
   -3.3710   -1.7691    1.5592 N   0  0  0  0  0  0  0  0  0  0  0  0
   -3.0036   -3.1883    1.4111 C   0  0  0  0  0  0  0  0  0  0  0  0
   -3.9848   -3.9010    0.4725 C   0  0  0  0  0  0  0  0  0  0  0  0
   -3.7365   -3.5175   -0.9926 C   0  0  0  0  0  0  0  0  0  0  0  0
   -2.3737   -3.7481   -1.4298 N   0  0  0  0  0  0  0  0  0  0  0  0
   -1.4322   -3.0332   -0.5845 C   0  0  0  0  0  0  0  0  0  0  0  0
   -1.5726   -3.3631    0.9053 C   0  0  0  0  0  0  0  0  0  0  0  0
   -2.0315   -5.1337   -1.6597 C   0  0  0  0  0  0  0  0  0  0  0  0
   -4.6539   -1.4552    1.7664 N   0  0  0  0  0  0  0  0  0  0  0  0
   -4.6673   -0.1623    2.0428 C   0  0  0  0  0  0  0  0  0  0  0  0
   -1.6113    1.9642    2.5072 N   0  0  0  0  0  0  0  0  0  0  0  0
    0.8130    4.3409    3.6861 N   0  0  0  0  0  0  0  0  0  0  0  0
    2.4399    3.0589    2.7452 C   0  0  0  0  0  0  0  0  0  0  0  0
    2.1727    4.1740    3.5630 C   0  0  0  0  0  0  0  0  0  0  0  0
    3.2317    4.9200    4.0972 C   0  0  0  0  0  0  0  0  0  0  0  0
    4.5264    4.5291    3.7837 C   0  0  0  0  0  0  0  0  0  0  0  0
    4.7752    3.4197    2.9504 C   0  0  0  0  0  0  0  0  0  0  0  0
    3.7386    2.6658    2.4145 C   0  0  0  0  0  0  0  0  0  0  0  0
    0.4385    1.9182    0.1703 C   0  0  0  0  0  0  0  0  0  0  0  0
   -0.0118    3.1702    0.0007 F   0  0  0  0  0  0  0  0  0  0  0  0
    0.3088    0.9782   -0.8379 C   0  0  0  0  0  0  0  0  0  0  0  0
    0.7974   -0.3085   -0.6543 C   0  0  0  0  0  0  0  0  0  0  0  0
    2.5498   -2.8933   -1.3512 C   0  0  0  0  0  3  0  0  0  0  0  0
    2.7449   -4.0112   -2.2901 C   0  0  0  0  0  0  0  0  0  0  0  0
    1.4026   -4.3582   -3.6304 S   0  0  0  0  0  0  0  0  0  0  0  0
    0.3432   -2.8958   -3.5988 C   0  0  0  0  0  0  0  0  0  0  0  0
    0.8109   -1.7282   -4.4586 C   0  0  2  0  0  0  0  0  0  0  0  0
    0.9073   -2.0382   -5.5120 H   0  0  0  0  0  0  0  0  0  0  0  0
    2.1190   -1.2886   -4.0068 N   0  0  0  0  0  0  0  0  0  0  0  0
    3.0123   -0.6714   -4.8007 C   0  0  0  0  0  0  0  0  0  0  0  0
    4.3873   -0.4716   -4.2008 C   0  0  0  0  0  0  0  0  0  0  0  0
    2.7540   -0.3051   -5.9452 O   0  0  0  0  0  0  0  0  0  0  0  0
   -0.1681   -0.5387   -4.3875 C   0  0  0  0  0  0  0  0  0  0  0  0
    0.0200    0.3682   -5.3785 N   0  0  0  0  0  0  0  0  0  0  0  0
   -0.6741    1.6295   -5.3920 C   0  0  0  0  0  0  0  0  0  0  0  0
   -1.0064   -0.4199   -3.5094 O   0  0  0  0  0  0  0  0  0  0  0  0
    1.7837   -2.3037    1.7514 H   0  0  0  0  0  0  0  0  0  0  0  0
    1.9397    0.0082    2.5382 H   0  0  0  0  0  0  0  0  0  0  0  0
   -0.7432    5.5458    3.8602 H   0  0  0  0  0  0  0  0  0  0  0  0
   -2.4351    6.0987    3.8097 H   0  0  0  0  0  0  0  0  0  0  0  0
   -4.8827    2.6668    2.4037 H   0  0  0  0  0  0  0  0  0  0  0  0
   -1.4788   -0.7427    1.5775 H   0  0  0  0  0  0  0  0  0  0  0  0
   -3.0926   -3.6251    2.4204 H   0  0  0  0  0  0  0  0  0  0  0  0
   -5.0157   -3.6659    0.7705 H   0  0  0  0  0  0  0  0  0  0  0  0
   -3.8382   -4.9852    0.6072 H   0  0  0  0  0  0  0  0  0  0  0  0
   -3.9653   -2.4450   -1.1227 H   0  0  0  0  0  0  0  0  0  0  0  0
   -4.4281   -4.0710   -1.6487 H   0  0  0  0  0  0  0  0  0  0  0  0
   -1.5648   -1.9521   -0.7612 H   0  0  0  0  0  0  0  0  0  0  0  0
   -0.4116   -3.2973   -0.8818 H   0  0  0  0  0  0  0  0  0  0  0  0
   -0.8471   -2.7828    1.4928 H   0  0  0  0  0  0  0  0  0  0  0  0
   -1.2822   -4.4120    1.0657 H   0  0  0  0  0  0  0  0  0  0  0  0
   -2.7180   -5.5638   -2.4075 H   0  0  0  0  0  0  0  0  0  0  0  0
   -2.0718   -5.7849   -0.7584 H   0  0  0  0  0  0  0  0  0  0  0  0
   -1.0084   -5.1974   -2.0620 H   0  0  0  0  0  0  0  0  0  0  0  0
   -5.6142    0.3347    2.2526 H   0  0  0  0  0  0  0  0  0  0  0  0
    3.0301    5.7822    4.7354 H   0  0  0  0  0  0  0  0  0  0  0  0
    5.3719    5.0921    4.1856 H   0  0  0  0  0  0  0  0  0  0  0  0
    5.8072    3.1462    2.7196 H   0  0  0  0  0  0  0  0  0  0  0  0
    3.9221    1.8077    1.7660 H   0  0  0  0  0  0  0  0  0  0  0  0
   -0.1960    1.2325   -1.7716 H   0  0  0  0  0  0  0  0  0  0  0  0
    0.6812   -1.0297   -1.4568 H   0  0  0  0  0  0  0  0  0  0  0  0
    3.1362   -1.9757   -1.4671 H   0  0  0  0  0  0  0  0  0  0  0  0
    2.7595   -4.9729   -1.7584 H   0  0  0  0  0  0  0  0  0  0  0  0
    3.6680   -3.9020   -2.8760 H   0  0  0  0  0  0  0  0  0  0  0  0
    0.2663   -2.5703   -2.5550 H   0  0  0  0  0  0  0  0  0  0  0  0
   -0.6689   -3.2051   -3.8904 H   0  0  0  0  0  0  0  0  0  0  0  0
    2.3687   -1.5682   -3.0567 H   0  0  0  0  0  0  0  0  0  0  0  0
    5.0789   -1.1793   -4.6812 H   0  0  0  0  0  0  0  0  0  0  0  0
    4.4110   -0.6380   -3.1154 H   0  0  0  0  0  0  0  0  0  0  0  0
    4.7331    0.5446   -4.4312 H   0  0  0  0  0  0  0  0  0  0  0  0
    0.8700    0.2518   -5.9346 H   0  0  0  0  0  0  0  0  0  0  0  0
   -0.0883    2.4348   -4.9147 H   0  0  0  0  0  0  0  0  0  0  0  0
   -1.6137    1.5185   -4.8355 H   0  0  0  0  0  0  0  0  0  0  0  0
   -0.9014    1.9315   -6.4251 H   0  0  0  0  0  0  0  0  0  0  0  0
  2  1  2  0  0  0  0
  2  3  1  0  0  0  0
  3 53  1  0  0  0  0
  4  3  1  0  0  0  0
  4  5  1  0  0  0  0
  5 54  1  0  0  0  0
  6  5  2  0  0  0  0
  6  7  1  0  0  0  0
  7 29  1  0  0  0  0
  7  8  1  0  0  0  0
  8 28  2  0  0  0  0
  9  8  1  0  0  0  0
  9 10  1  0  0  0  0
 10 11  1  0  0  0  0
 11 56  1  0  0  0  0
 11 55  1  0  0  0  0
 12 10  2  0  0  0  0
 13 12  1  0  0  0  0
 14 27  1  0  0  0  0
 14 13  2  0  0  0  0
 15 26  1  0  0  0  0
 15 14  1  0  0  0  0
 16 15  2  0  0  0  0
 17 16  1  0  0  0  0
 17 25  1  0  0  0  0
 18 17  1  0  0  0  0
 18 59  1  0  0  0  0
 19 61  1  0  0  0  0
 19 60  1  0  0  0  0
 19 18  1  0  0  0  0
 20 19  1  0  0  0  0
 21 20  1  0  0  0  0
 21 22  1  0  0  0  0
 22 23  1  0  0  0  0
 23 67  1  0  0  0  0
 23 18  1  0  0  0  0
 23 66  1  0  0  0  0
 24 21  1  0  0  0  0
 24 69  1  0  0  0  0
 25 26  2  0  0  0  0
 26 71  1  0  0  0  0
 27  9  2  0  0  0  0
 29 30  1  0  0  0  0
 30 28  1  0  0  0  0
 30 31  2  0  0  0  0
 31 72  1  0  0  0  0
 32 31  1  0  0  0  0
 32 73  1  0  0  0  0
 33 32  2  0  0  0  0
 34 29  2  0  0  0  0
 34 33  1  0  0  0  0
 35  6  1  0  0  0  0
 36 35  1  0  0  0  0
 37 38  1  0  0  0  0
 37 35  2  0  0  0  0
 38  4  2  0  0  0  0
 39  2  1  0  0  0  0
 40 79  1  0  0  0  0
 40 39  1  0  0  0  0
 41 42  1  0  0  0  0
 41 40  1  0  0  0  0
 42 81  1  0  0  0  0
 43 44  1  6  0  0  0
 43 49  1  0  0  0  0
 43 45  1  0  0  0  0
 43 42  1  0  0  0  0
 45 83  1  0  0  0  0
 46 47  1  0  0  0  0
 46 45  1  0  0  0  0
 47 85  1  0  0  0  0
 48 46  2  0  0  0  0
 49 52  2  0  0  0  0
 50 49  1  0  0  0  0
 51 50  1  0  0  0  0
 51 88  1  0  0  0  0
 51 89  1  0  0  0  0
 57 13  1  0  0  0  0
 58 16  1  0  0  0  0
 62 20  1  0  0  0  0
 63 20  1  0  0  0  0
 64 22  1  0  0  0  0
 65 22  1  0  0  0  0
 68 24  1  0  0  0  0
 70 24  1  0  0  0  0
 74 33  1  0  0  0  0
 75 34  1  0  0  0  0
 76 37  1  0  0  0  0
 77 38  1  0  0  0  0
 78 39  1  0  0  0  0
 80 40  1  0  0  0  0
 82 42  1  0  0  0  0
 84 47  1  0  0  0  0
 86 47  1  0  0  0  0
 87 50  1  0  0  0  0
 90 51  1  0  0  0  0
M  END
