90
-1 1
O         1.488803   -4.180641    0.333797
C         1.941173   -3.112921   -0.109578
N         1.864334   -1.982902    0.793422
C         1.400068   -0.703658    0.556511
C         1.488857    0.264702    1.577041
C         1.016438    1.560424    1.384993
N         1.201988    2.552729    2.389111
C         0.266681    3.370730    2.985213
C        -1.183743    3.163995    2.863478
C        -2.107329    4.218761    3.135691
N        -1.712591    5.436821    3.569093
N        -3.415536    4.009002    2.948883
C        -3.807829    2.805735    2.560919
C        -2.917240    1.740925    2.358642
C        -3.361767    0.383786    2.031203
C        -2.556725   -0.699414    1.709879
N        -3.370996   -1.769074    1.559238
C        -3.003617   -3.188339    1.411066
C        -3.984833   -3.901047    0.472462
C        -3.736543   -3.517515   -0.992639
N        -2.373697   -3.748143   -1.429833
C        -1.432166   -3.033237   -0.584545
C        -1.572604   -3.363112    0.905330
C        -2.031453   -5.133699   -1.659713
N        -4.653887   -1.455191    1.766433
C        -4.667288   -0.162277    2.042783
N        -1.611253    1.964235    2.507230
N         0.813030    4.340935    3.686122
C         2.439863    3.058940    2.745207
C         2.172718    4.174005    3.562964
C         3.231710    4.919980    4.097164
C         4.526371    4.529065    3.783711
C         4.775215    3.419665    2.950424
C         3.738599    2.665792    2.414529
C         0.438484    1.918245    0.170259
F        -0.011806    3.170150    0.000729
C         0.308782    0.978239   -0.837934
C         0.797426   -0.308536   -0.654271
C         2.549811   -2.893313   -1.351194
C         2.744945   -4.011152   -2.290094
S         1.402610   -4.358205   -3.630416
C         0.343153   -2.895833   -3.598834
C         0.810939   -1.728176   -4.458585
H         0.907344   -2.038201   -5.512038
N         2.118961   -1.288591   -4.006829
C         3.012324   -0.671402   -4.800731
C         4.387262   -0.471579   -4.200785
O         2.753976   -0.305143   -5.945176
C        -0.168111   -0.538662   -4.387454
N         0.019968    0.368160   -5.378525
C        -0.674094    1.629540   -5.392007
O        -1.006412   -0.419942   -3.509405
H         1.783700   -2.303691    1.751365
H         1.939710    0.008155    2.538172
H        -0.743175    5.545845    3.860172
H        -2.435066    6.098650    3.809662
H        -4.882729    2.666832    2.403726
H        -1.478838   -0.742719    1.577516
H        -3.092608   -3.625116    2.420394
H        -5.015663   -3.665892    0.770482
H        -3.838194   -4.985190    0.607169
H        -3.965273   -2.445015   -1.122714
H        -4.428128   -4.071025   -1.648721
H        -1.564773   -1.952149   -0.761183
H        -0.411594   -3.297327   -0.881797
H        -0.847131   -2.782806    1.492795
H        -1.282202   -4.412024    1.065695
H        -2.717964   -5.563829   -2.407490
H        -2.071752   -5.784876   -0.758444
H        -1.008377   -5.197413   -2.061977
H        -5.614180    0.334678    2.252620
H         3.030081    5.782157    4.735387
H         5.371900    5.092079    4.185640
H         5.807188    3.146174    2.719591
H         3.922097    1.807690    1.766012
H        -0.196018    1.232537   -1.771647
H         0.681204   -1.029683   -1.456763
H         3.136154   -1.975694   -1.467120
H         2.759549   -4.972914   -1.758382
H         3.667993   -3.901972   -2.875996
H         0.266278   -2.570300   -2.554968
H        -0.668934   -3.205100   -3.890404
H         2.368670   -1.568161   -3.056702
H         5.078859   -1.179347   -4.681230
H         4.411023   -0.638022   -3.115426
H         4.733107    0.544552   -4.431181
H         0.869989    0.251831   -5.934557
H        -0.088277    2.434781   -4.914685
H        -1.613688    1.518545   -4.835460
H        -0.901358    1.931462   -6.425143
