-1 1
 OpenBabel05232413493D

 90 94  0  0  1  0  0  0  0  0999 V2000
    2.0996   -4.1140    1.9230 O   0  0  0  0  0  0  0  0  0  0  0  0
    2.0662   -3.1350    1.2013 C   0  0  0  0  0  0  0  0  0  0  0  0
    1.8222   -1.9002    1.7896 N   0  0  0  0  0  0  0  0  0  0  0  0
    1.4195   -0.6493    1.2970 C   0  0  0  0  0  0  0  0  0  0  0  0
    1.4434    0.4257    2.1996 C   0  0  0  0  0  0  0  0  0  0  0  0
    0.9953    1.6855    1.8226 C   0  0  0  0  0  0  0  0  0  0  0  0
    1.0486    2.7754    2.7317 N   0  0  0  0  0  0  0  0  0  0  0  0
    0.0198    3.5665    3.2029 C   0  0  0  0  0  0  0  0  0  0  0  0
   -1.4030    3.2564    3.0024 C   0  0  0  0  0  0  0  0  0  0  0  0
   -2.4128    4.2404    3.2348 C   0  0  0  0  0  0  0  0  0  0  0  0
   -2.1348    5.4789    3.6920 N   0  0  0  0  0  0  0  0  0  0  0  0
   -3.6935    3.9361    2.9866 N   0  0  0  0  0  0  0  0  0  0  0  0
   -3.9794    2.7135    2.5738 C   0  0  0  0  0  0  0  0  0  0  0  0
   -3.0049    1.7173    2.4004 C   0  0  0  0  0  0  0  0  0  0  0  0
   -3.3432    0.3431    2.0176 C   0  0  0  0  0  0  0  0  0  0  0  0
   -2.4615   -0.6745    1.6851 C   0  0  0  0  0  0  0  0  0  0  0  0
   -3.2006   -1.7821    1.4445 N   0  0  0  0  0  0  0  0  0  0  0  0
   -2.7241   -3.1609    1.2246 C   0  0  0  0  0  0  0  0  0  0  0  0
   -3.7265   -3.9538    0.3792 C   0  0  0  0  0  0  0  0  0  0  0  0
   -3.6922   -3.5097   -1.0899 C   0  0  0  0  0  0  0  0  0  0  0  0
   -2.3722   -3.5765   -1.6860 N   0  0  0  0  0  0  0  0  0  0  0  0
   -1.4207   -2.7866   -0.9270 C   0  0  0  0  0  0  0  0  0  0  0  0
   -1.3484   -3.1826    0.5544 C   0  0  0  0  0  0  0  0  0  0  0  0
   -1.9175   -4.9120   -2.0126 C   0  0  0  0  0  0  0  0  0  0  0  0
   -4.5070   -1.5548    1.6089 N   0  0  0  0  0  0  0  0  0  0  0  0
   -4.6120   -0.2804    1.9443 C   0  0  0  0  0  0  0  0  0  0  0  0
   -1.7280    2.0322    2.6140 N   0  0  0  0  0  0  0  0  0  0  0  0
    0.4569    4.6150    3.8658 N   0  0  0  0  0  0  0  0  0  0  0  0
    2.2246    3.3878    3.1293 C   0  0  0  0  0  0  0  0  0  0  0  0
    1.8300    4.5346    3.8439 C   0  0  0  0  0  0  0  0  0  0  0  0
    2.7993    5.3852    4.3912 C   0  0  0  0  0  0  0  0  0  0  0  0
    4.1348    5.0610    4.1944 C   0  0  0  0  0  0  0  0  0  0  0  0
    4.5116    3.9160    3.4641 C   0  0  0  0  0  0  0  0  0  0  0  0
    3.5648    3.0592    2.9164 C   0  0  0  0  0  0  0  0  0  0  0  0
    0.5406    1.8940    0.5220 C   0  0  0  0  0  0  0  0  0  0  0  0
    0.1141    3.1106    0.1763 F   0  0  0  0  0  0  0  0  0  0  0  0
    0.4985    0.8493   -0.3803 C   0  0  0  0  0  0  0  0  0  0  0  0
    0.9294   -0.4186    0.0039 C   0  0  0  0  0  0  0  0  0  0  0  0
    2.3000   -3.2001   -0.2638 C   0  0  0  0  0  0  0  0  0  0  0  0
    2.1187   -4.3496   -0.9212 C   0  0  0  0  0  0  0  0  0  0  0  0
    1.3287   -4.4828   -4.4450 S   0  0  0  0  0  1  0  0  0  0  0  0
    0.5928   -2.8974   -3.9202 C   0  0  0  0  0  0  0  0  0  0  0  0
    0.8400   -1.7326   -4.8925 C   0  0  2  0  0  0  0  0  0  0  0  0
    0.1734   -1.8375   -5.7693 H   0  0  0  0  0  0  0  0  0  0  0  0
    2.2219   -1.8071   -5.3499 N   0  0  0  0  0  0  0  0  0  0  0  0
    2.6887   -1.2500   -6.4817 C   0  0  0  0  0  0  0  0  0  0  0  0
    3.9847   -1.8401   -6.9983 C   0  0  0  0  0  0  0  0  0  0  0  0
    2.1274   -0.3391   -7.0928 O   0  0  0  0  0  0  0  0  0  0  0  0
    0.4967   -0.3848   -4.2274 C   0  0  0  0  0  0  0  0  0  0  0  0
    0.6581    0.6998   -5.0089 N   0  0  0  0  0  0  0  0  0  0  0  0
    0.4012    2.0235   -4.5079 C   0  0  0  0  0  0  0  0  0  0  0  0
    0.0684   -0.3059   -3.0810 O   0  0  0  0  0  0  0  0  0  0  0  0
    1.7760   -1.9997    2.7982 H   0  0  0  0  0  0  0  0  0  0  0  0
    1.7944    0.2817    3.2237 H   0  0  0  0  0  0  0  0  0  0  0  0
   -1.1805    5.6804    3.9843 H   0  0  0  0  0  0  0  0  0  0  0  0
   -2.9122    6.0987    3.8629 H   0  0  0  0  0  0  0  0  0  0  0  0
   -5.0333    2.4994    2.3668 H   0  0  0  0  0  0  0  0  0  0  0  0
   -1.3791   -0.6493    1.6015 H   0  0  0  0  0  0  0  0  0  0  0  0
   -2.6511   -3.6216    2.2245 H   0  0  0  0  0  0  0  0  0  0  0  0
   -4.7359   -3.8461    0.7970 H   0  0  0  0  0  0  0  0  0  0  0  0
   -3.4448   -5.0165    0.4565 H   0  0  0  0  0  0  0  0  0  0  0  0
   -4.0534   -2.4681   -1.1515 H   0  0  0  0  0  0  0  0  0  0  0  0
   -4.3888   -4.1229   -1.6835 H   0  0  0  0  0  0  0  0  0  0  0  0
   -1.6927   -1.7212   -1.0213 H   0  0  0  0  0  0  0  0  0  0  0  0
   -0.4309   -2.8920   -1.3880 H   0  0  0  0  0  0  0  0  0  0  0  0
   -0.6339   -2.5488    1.0969 H   0  0  0  0  0  0  0  0  0  0  0  0
   -0.9570   -4.2080    0.6478 H   0  0  0  0  0  0  0  0  0  0  0  0
   -2.6469   -5.3935   -2.6824 H   0  0  0  0  0  0  0  0  0  0  0  0
   -1.7781   -5.5848   -1.1367 H   0  0  0  0  0  0  0  0  0  0  0  0
   -0.9593   -4.8675   -2.5548 H   0  0  0  0  0  0  0  0  0  0  0  0
   -5.5965    0.1478    2.1307 H   0  0  0  0  0  0  0  0  0  0  0  0
    2.4999    6.2739    4.9494 H   0  0  0  0  0  0  0  0  0  0  0  0
    4.9127    5.7062    4.6087 H   0  0  0  0  0  0  0  0  0  0  0  0
    5.5724    3.6979    3.3231 H   0  0  0  0  0  0  0  0  0  0  0  0
    3.8491    2.1740    2.3451 H   0  0  0  0  0  0  0  0  0  0  0  0
    0.1266    0.9802   -1.3989 H   0  0  0  0  0  0  0  0  0  0  0  0
    0.8413   -1.2106   -0.7366 H   0  0  0  0  0  0  0  0  0  0  0  0
    2.6213   -2.2990   -0.7908 H   0  0  0  0  0  0  0  0  0  0  0  0
    1.7878   -5.2330   -0.3663 H   0  0  0  0  0  0  0  0  0  0  0  0
    2.2406   -4.4430   -2.0111 H   0  0  0  0  0  0  0  0  0  0  0  0
    1.0077   -2.5939   -2.9448 H   0  0  0  0  0  0  0  0  0  0  0  0
   -0.4951   -2.9757   -3.7773 H   0  0  0  0  0  0  0  0  0  0  0  0
    2.5951   -2.7418   -5.0996 H   0  0  0  0  0  0  0  0  0  0  0  0
    3.7398   -2.6566   -7.6950 H   0  0  0  0  0  0  0  0  0  0  0  0
    4.6037   -2.2564   -6.1924 H   0  0  0  0  0  0  0  0  0  0  0  0
    4.5389   -1.0683   -7.5466 H   0  0  0  0  0  0  0  0  0  0  0  0
    1.0854    0.5466   -5.9306 H   0  0  0  0  0  0  0  0  0  0  0  0
    1.0905    2.2991   -3.6909 H   0  0  0  0  0  0  0  0  0  0  0  0
   -0.6233    2.1056   -4.1111 H   0  0  0  0  0  0  0  0  0  0  0  0
    0.5222    2.7479   -5.3242 H   0  0  0  0  0  0  0  0  0  0  0  0
  2  3  1  0  0  0  0
  2  1  2  0  0  0  0
  3 53  1  0  0  0  0
  4  3  1  0  0  0  0
  4  5  1  0  0  0  0
  5 54  1  0  0  0  0
  6  5  2  0  0  0  0
  6  7  1  0  0  0  0
  7 29  1  0  0  0  0
  7  8  1  0  0  0  0
  8 28  2  0  0  0  0
  9  8  1  0  0  0  0
  9 10  1  0  0  0  0
 10 11  1  0  0  0  0
 11 56  1  0  0  0  0
 11 55  1  0  0  0  0
 12 10  2  0  0  0  0
 13 12  1  0  0  0  0
 14 13  2  0  0  0  0
 14 27  1  0  0  0  0
 15 14  1  0  0  0  0
 16 15  2  0  0  0  0
 17 25  1  0  0  0  0
 17 16  1  0  0  0  0
 18 17  1  0  0  0  0
 18 59  1  0  0  0  0
 19 61  1  0  0  0  0
 19 60  1  0  0  0  0
 19 18  1  0  0  0  0
 20 19  1  0  0  0  0
 21 20  1  0  0  0  0
 21 22  1  0  0  0  0
 22 23  1  0  0  0  0
 23 67  1  0  0  0  0
 23 66  1  0  0  0  0
 23 18  1  0  0  0  0
 24 21  1  0  0  0  0
 24 69  1  0  0  0  0
 25 26  2  0  0  0  0
 26 15  1  0  0  0  0
 26 71  1  0  0  0  0
 27  9  2  0  0  0  0
 29 30  1  0  0  0  0
 30 28  1  0  0  0  0
 30 31  2  0  0  0  0
 31 72  1  0  0  0  0
 32 31  1  0  0  0  0
 32 73  1  0  0  0  0
 33 32  2  0  0  0  0
 34 29  2  0  0  0  0
 34 33  1  0  0  0  0
 35  6  1  0  0  0  0
 36 35  1  0  0  0  0
 37 38  1  0  0  0  0
 37 35  2  0  0  0  0
 38  4  2  0  0  0  0
 39  2  1  0  0  0  0
 40 79  1  0  0  0  0
 40 39  2  0  0  0  0
 41 42  1  0  0  0  0
 42 82  1  0  0  0  0
 42 81  1  0  0  0  0
 43 44  1  6  0  0  0
 43 49  1  0  0  0  0
 43 42  1  0  0  0  0
 45 83  1  0  0  0  0
 45 43  1  0  0  0  0
 46 45  1  0  0  0  0
 47 46  1  0  0  0  0
 47 85  1  0  0  0  0
 48 46  2  0  0  0  0
 49 52  2  0  0  0  0
 50 51  1  0  0  0  0
 50 49  1  0  0  0  0
 51 89  1  0  0  0  0
 51 88  1  0  0  0  0
 57 13  1  0  0  0  0
 58 16  1  0  0  0  0
 62 20  1  0  0  0  0
 63 20  1  0  0  0  0
 64 22  1  0  0  0  0
 65 22  1  0  0  0  0
 68 24  1  0  0  0  0
 70 24  1  0  0  0  0
 74 33  1  0  0  0  0
 75 34  1  0  0  0  0
 76 37  1  0  0  0  0
 77 38  1  0  0  0  0
 78 39  1  0  0  0  0
 80 40  1  0  0  0  0
 84 47  1  0  0  0  0
 86 47  1  0  0  0  0
 87 50  1  0  0  0  0
 90 51  1  0  0  0  0
M  END
