90
-1 1
O         2.099556   -4.114033    1.923038
C         2.066235   -3.134975    1.201274
N         1.822157   -1.900213    1.789632
C         1.419510   -0.649252    1.296986
C         1.443442    0.425716    2.199623
C         0.995264    1.685485    1.822619
N         1.048629    2.775407    2.731699
C         0.019848    3.566454    3.202907
C        -1.402984    3.256362    3.002384
C        -2.412808    4.240389    3.234789
N        -2.134753    5.478874    3.691967
N        -3.693544    3.936149    2.986623
C        -3.979450    2.713505    2.573796
C        -3.004892    1.717257    2.400360
C        -3.343157    0.343104    2.017642
C        -2.461473   -0.674520    1.685122
N        -3.200621   -1.782089    1.444464
C        -2.724146   -3.160901    1.224563
C        -3.726454   -3.953835    0.379238
C        -3.692152   -3.509731   -1.089892
N        -2.372164   -3.576545   -1.685960
C        -1.420698   -2.786636   -0.927049
C        -1.348388   -3.182609    0.554419
C        -1.917484   -4.912011   -2.012626
N        -4.507045   -1.554838    1.608858
C        -4.612042   -0.280443    1.944279
N        -1.727968    2.032174    2.613977
N         0.456945    4.614954    3.865844
C         2.224627    3.387761    3.129272
C         1.830037    4.534583    3.843850
C         2.799309    5.385188    4.391164
C         4.134808    5.060998    4.194360
C         4.511627    3.916019    3.464070
C         3.564804    3.059191    2.916448
C         0.540640    1.893986    0.522036
F         0.114116    3.110591    0.176334
C         0.498505    0.849255   -0.380254
C         0.929374   -0.418629    0.003931
C         2.299994   -3.200081   -0.263790
C         2.118685   -4.349628   -0.921199
S         1.328720   -4.482809   -4.444998
C         0.592816   -2.897428   -3.920153
C         0.840036   -1.732572   -4.892495
H         0.173385   -1.837507   -5.769279
N         2.221865   -1.807118   -5.349899
C         2.688741   -1.250041   -6.481707
C         3.984679   -1.840119   -6.998340
O         2.127445   -0.339116   -7.092828
C         0.496739   -0.384826   -4.227447
N         0.658136    0.699754   -5.008870
C         0.401156    2.023533   -4.507875
O         0.068396   -0.305934   -3.080956
H         1.775972   -1.999734    2.798212
H         1.794406    0.281656    3.223696
H        -1.180503    5.680443    3.984304
H        -2.912221    6.098656    3.862859
H        -5.033256    2.499406    2.366788
H        -1.379126   -0.649346    1.601542
H        -2.651149   -3.621576    2.224522
H        -4.735916   -3.846119    0.797001
H        -3.444768   -5.016465    0.456527
H        -4.053378   -2.468076   -1.151487
H        -4.388757   -4.122911   -1.683520
H        -1.692659   -1.721245   -1.021314
H        -0.430898   -2.891974   -1.387952
H        -0.633851   -2.548772    1.096931
H        -0.957025   -4.207992    0.647824
H        -2.646923   -5.393542   -2.682434
H        -1.778117   -5.584814   -1.136689
H        -0.959278   -4.867493   -2.554828
H        -5.596477    0.147781    2.130685
H         2.499926    6.273884    4.949390
H         4.912671    5.706248    4.608659
H         5.572444    3.697894    3.323126
H         3.849120    2.173969    2.345147
H         0.126592    0.980232   -1.398938
H         0.841255   -1.210597   -0.736601
H         2.621262   -2.298971   -0.790823
H         1.787803   -5.233035   -0.366304
H         2.240585   -4.443018   -2.011113
H         1.007750   -2.593939   -2.944799
H        -0.495107   -2.975743   -3.777277
H         2.595103   -2.741785   -5.099576
H         3.739811   -2.656620   -7.694968
H         4.603715   -2.256445   -6.192424
H         4.538949   -1.068329   -7.546650
H         1.085389    0.546601   -5.930566
H         1.090538    2.299120   -3.690921
H        -0.623329    2.105649   -4.111139
H         0.522171    2.747881   -5.324164
