-1 1
 OpenBabel05232414493D

 90 94  0  0  1  0  0  0  0  0999 V2000
    7.3181    8.4910   -5.4273 O   0  0  0  0  0  0  0  0  0  0  0  0
    8.1555    9.3943   -5.5294 C   0  0  0  0  0  0  0  0  0  0  0  0
    8.3316    9.9942   -6.8008 N   0  0  0  0  0  0  0  0  0  0  0  0
    8.3165   11.3920   -7.0312 C   0  0  0  0  0  0  0  0  0  0  0  0
    7.3108   12.2085   -6.5047 C   0  0  0  0  0  0  0  0  0  0  0  0
    6.3991   11.6793   -5.6989 F   0  0  0  0  0  0  0  0  0  0  0  0
    7.2263   13.5614   -6.8216 C   0  0  0  0  0  0  0  0  0  0  0  0
    6.1882   14.3740   -6.2832 N   0  0  0  0  0  0  0  0  0  0  0  0
    4.8978   14.5490   -6.7387 C   0  0  0  0  0  0  0  0  0  0  0  0
    4.2709   13.7240   -7.7850 C   0  0  0  0  0  0  0  0  0  0  0  0
    3.1693   14.2237   -8.5512 C   0  0  0  0  0  0  0  0  0  0  0  0
    2.6344   15.4468   -8.3349 N   0  0  0  0  0  0  0  0  0  0  0  0
    2.6496   13.4710   -9.5264 N   0  0  0  0  0  0  0  0  0  0  0  0
    3.1479   12.2574   -9.7134 C   0  0  0  0  0  0  0  0  0  0  0  0
    4.1904   11.7357   -8.9378 C   0  0  0  0  0  0  0  0  0  0  0  0
    4.6711   10.3575   -9.0955 C   0  0  0  0  0  0  0  0  0  0  0  0
    5.2463    9.5525   -8.1217 C   0  0  0  0  0  0  0  0  0  0  0  0
    5.4986    8.3543   -8.6982 N   0  0  0  0  0  0  0  0  0  0  0  0
    6.0848    7.1958   -8.0238 C   0  0  0  0  0  0  0  0  0  0  0  0
    5.0952    6.0256   -7.9235 C   0  0  0  0  0  0  0  0  0  0  0  0
    5.0092    5.2063   -9.2186 C   0  0  0  0  0  0  0  0  0  0  0  0
    6.3051    4.7542   -9.7038 N   0  0  0  0  0  0  0  0  0  0  0  0
    7.1954    5.8850   -9.9254 C   0  0  0  0  0  0  0  0  0  0  0  0
    7.4034    6.7516   -8.6757 C   0  0  0  0  0  0  0  0  0  0  0  0
    6.8874    3.6784   -8.9371 C   0  0  0  0  0  0  0  0  0  0  0  0
    5.1278    8.3217   -9.9810 N   0  0  0  0  0  0  0  0  0  0  0  0
    4.6241    9.5207  -10.2349 C   0  0  0  0  0  0  0  0  0  0  0  0
    4.7367   12.5044   -7.9927 N   0  0  0  0  0  0  0  0  0  0  0  0
    4.2830   15.5474   -6.1438 N   0  0  0  0  0  0  0  0  0  0  0  0
    6.3920   15.3473   -5.3163 C   0  0  0  0  0  0  0  0  0  0  0  0
    5.1845   16.0633   -5.2395 C   0  0  0  0  0  0  0  0  0  0  0  0
    5.0580   17.1229   -4.3292 C   0  0  0  0  0  0  0  0  0  0  0  0
    6.1518   17.4222   -3.5295 C   0  0  0  0  0  0  0  0  0  0  0  0
    7.3593   16.6973   -3.6262 C   0  0  0  0  0  0  0  0  0  0  0  0
    7.5042   15.6515   -4.5285 C   0  0  0  0  0  0  0  0  0  0  0  0
    8.1901   14.1298   -7.6504 C   0  0  0  0  0  0  0  0  0  0  0  0
    9.2126   13.3424   -8.1692 C   0  0  0  0  0  0  0  0  0  0  0  0
    9.2670   11.9863   -7.8630 C   0  0  0  0  0  0  0  0  0  0  0  0
    9.0053    9.8156   -4.4539 C   0  0  0  0  0  0  0  0  0  0  0  0
   10.1375   10.5946   -4.5852 C   0  0  0  0  0  0  0  0  0  0  0  0
    9.9303   12.9898   -4.2960 S   0  0  0  0  0  1  0  0  0  0  0  0
   10.1011   13.1504   -2.4898 C   0  0  0  0  0  0  0  0  0  0  0  0
    8.8305   13.6431   -1.7630 C   0  0  2  0  0  0  0  0  0  0  0  0
    8.3981   14.4584   -2.3617 H   0  0  0  0  0  0  0  0  0  0  0  0
    9.1208   14.1539   -0.4422 N   0  0  0  0  0  0  0  0  0  0  0  0
    9.5170   15.4257   -0.2223 C   0  0  0  0  0  0  0  0  0  0  0  0
    9.6161   15.8303    1.2396 C   0  0  0  0  0  0  0  0  0  0  0  0
    9.7880   16.2164   -1.1132 O   0  0  0  0  0  0  0  0  0  0  0  0
    7.7477   12.5684   -1.5742 C   0  0  0  0  0  0  0  0  0  0  0  0
    7.2886   12.0088   -2.7034 N   0  0  0  0  0  0  0  0  0  0  0  0
    6.2434   11.0140   -2.7100 C   0  0  0  0  0  0  0  0  0  0  0  0
    7.3422   12.2839   -0.4500 O   0  0  0  0  0  0  0  0  0  0  0  0
    7.7974    9.4882   -7.5009 H   0  0  0  0  0  0  0  0  0  0  0  0
    2.8855   15.9133   -7.4633 H   0  0  0  0  0  0  0  0  0  0  0  0
    1.7883   15.6673   -8.8394 H   0  0  0  0  0  0  0  0  0  0  0  0
    2.6879   11.6513  -10.5015 H   0  0  0  0  0  0  0  0  0  0  0  0
    5.4834    9.7441   -7.0764 H   0  0  0  0  0  0  0  0  0  0  0  0
    6.3207    7.5642   -7.0142 H   0  0  0  0  0  0  0  0  0  0  0  0
    4.1025    6.4077   -7.6387 H   0  0  0  0  0  0  0  0  0  0  0  0
    5.4330    5.3820   -7.0945 H   0  0  0  0  0  0  0  0  0  0  0  0
    4.5503    5.8278  -10.0029 H   0  0  0  0  0  0  0  0  0  0  0  0
    4.3585    4.3288   -9.0689 H   0  0  0  0  0  0  0  0  0  0  0  0
    6.7621    6.5086  -10.7220 H   0  0  0  0  0  0  0  0  0  0  0  0
    8.1655    5.5085  -10.2894 H   0  0  0  0  0  0  0  0  0  0  0  0
    8.0158    7.6344   -8.9184 H   0  0  0  0  0  0  0  0  0  0  0  0
    7.9657    6.1899   -7.9119 H   0  0  0  0  0  0  0  0  0  0  0  0
    6.1874    2.8280   -8.9011 H   0  0  0  0  0  0  0  0  0  0  0  0
    7.1542    3.9287   -7.8870 H   0  0  0  0  0  0  0  0  0  0  0  0
    7.8082    3.3282   -9.4307 H   0  0  0  0  0  0  0  0  0  0  0  0
    4.2580    9.7555  -11.2342 H   0  0  0  0  0  0  0  0  0  0  0  0
    4.1213   17.6789   -4.2572 H   0  0  0  0  0  0  0  0  0  0  0  0
    6.0799   18.2342   -2.8019 H   0  0  0  0  0  0  0  0  0  0  0  0
    8.1938   16.9342   -2.9604 H   0  0  0  0  0  0  0  0  0  0  0  0
    8.4259   15.0642   -4.5983 H   0  0  0  0  0  0  0  0  0  0  0  0
    8.1259   15.1960   -7.8739 H   0  0  0  0  0  0  0  0  0  0  0  0
    9.9736   13.7899   -8.8103 H   0  0  0  0  0  0  0  0  0  0  0  0
   10.0601   11.3502   -8.2599 H   0  0  0  0  0  0  0  0  0  0  0  0
    8.7219    9.4272   -3.4739 H   0  0  0  0  0  0  0  0  0  0  0  0
   10.5625   10.7748   -5.5737 H   0  0  0  0  0  0  0  0  0  0  0  0
   10.8613   10.6119   -3.7686 H   0  0  0  0  0  0  0  0  0  0  0  0
   10.8874   13.8880   -2.2757 H   0  0  0  0  0  0  0  0  0  0  0  0
   10.4227   12.1905   -2.0455 H   0  0  0  0  0  0  0  0  0  0  0  0
    8.7099   13.5952    0.3026 H   0  0  0  0  0  0  0  0  0  0  0  0
    9.4269   15.0039    1.9383 H   0  0  0  0  0  0  0  0  0  0  0  0
    8.8933   16.6372    1.4287 H   0  0  0  0  0  0  0  0  0  0  0  0
   10.6197   16.2393    1.4213 H   0  0  0  0  0  0  0  0  0  0  0  0
    7.7916   12.2347   -3.5670 H   0  0  0  0  0  0  0  0  0  0  0  0
    6.1304   10.6156   -1.6936 H   0  0  0  0  0  0  0  0  0  0  0  0
    6.4922   10.1973   -3.4006 H   0  0  0  0  0  0  0  0  0  0  0  0
    5.2806   11.4500   -3.0237 H   0  0  0  0  0  0  0  0  0  0  0  0
  2  1  2  0  0  0  0
  2 39  1  0  0  0  0
  3  2  1  0  0  0  0
  4  3  1  0  0  0  0
  4  5  1  0  0  0  0
  5  6  1  0  0  0  0
  7  5  2  0  0  0  0
  7  8  1  0  0  0  0
  8 30  1  0  0  0  0
  9  8  1  0  0  0  0
  9 29  2  0  0  0  0
 10  9  1  0  0  0  0
 11 12  1  0  0  0  0
 11 10  2  0  0  0  0
 12 54  1  0  0  0  0
 13 11  1  0  0  0  0
 14 13  2  0  0  0  0
 14 15  1  0  0  0  0
 15 28  2  0  0  0  0
 16 15  1  0  0  0  0
 16 17  2  0  0  0  0
 17 57  1  0  0  0  0
 18 17  1  0  0  0  0
 18 19  1  0  0  0  0
 19 20  1  0  0  0  0
 19 58  1  0  0  0  0
 20 59  1  0  0  0  0
 20 60  1  0  0  0  0
 21 62  1  0  0  0  0
 21 20  1  0  0  0  0
 22 21  1  0  0  0  0
 22 25  1  0  0  0  0
 23 22  1  0  0  0  0
 23 24  1  0  0  0  0
 24 19  1  0  0  0  0
 24 66  1  0  0  0  0
 25 67  1  0  0  0  0
 25 68  1  0  0  0  0
 26 18  1  0  0  0  0
 27 26  2  0  0  0  0
 27 16  1  0  0  0  0
 28 10  1  0  0  0  0
 29 31  1  0  0  0  0
 30 31  2  0  0  0  0
 30 35  1  0  0  0  0
 31 32  1  0  0  0  0
 32 71  1  0  0  0  0
 32 33  2  0  0  0  0
 33 72  1  0  0  0  0
 34 33  1  0  0  0  0
 34 73  1  0  0  0  0
 35 34  2  0  0  0  0
 36  7  1  0  0  0  0
 37 38  1  0  0  0  0
 37 36  2  0  0  0  0
 38  4  2  0  0  0  0
 39 78  1  0  0  0  0
 40 39  2  0  0  0  0
 40 80  1  0  0  0  0
 41 42  1  0  0  0  0
 42 81  1  0  0  0  0
 42 82  1  0  0  0  0
 42 43  1  0  0  0  0
 43 44  1  6  0  0  0
 43 49  1  0  0  0  0
 43 45  1  0  0  0  0
 45 46  1  0  0  0  0
 45 83  1  0  0  0  0
 46 47  1  0  0  0  0
 47 86  1  0  0  0  0
 47 85  1  0  0  0  0
 47 84  1  0  0  0  0
 48 46  2  0  0  0  0
 49 52  2  0  0  0  0
 50 49  1  0  0  0  0
 51 50  1  0  0  0  0
 51 88  1  0  0  0  0
 53  3  1  0  0  0  0
 55 12  1  0  0  0  0
 56 14  1  0  0  0  0
 61 21  1  0  0  0  0
 63 23  1  0  0  0  0
 64 23  1  0  0  0  0
 65 24  1  0  0  0  0
 69 25  1  0  0  0  0
 70 27  1  0  0  0  0
 74 35  1  0  0  0  0
 75 36  1  0  0  0  0
 76 37  1  0  0  0  0
 77 38  1  0  0  0  0
 79 40  1  0  0  0  0
 87 50  1  0  0  0  0
 89 51  1  0  0  0  0
 90 51  1  0  0  0  0
M  END
