-1 1
 OpenBabel05192410563D

 95 97  0  0  1  0  0  0  0  0999 V2000
    2.0219    3.8525    6.7657 C   0  0  0  0  0  0  0  0  0  0  0  0
    0.6373    3.9822    6.1491 C   0  0  0  0  0  0  0  0  0  0  0  0
    0.4489    3.1041    5.0685 O   0  0  0  0  0  0  0  0  0  0  0  0
    0.9320    3.5205    3.8268 C   0  0  0  0  0  0  0  0  0  0  0  0
    1.5534    4.6044    3.7693 O   0  0  0  0  0  0  0  0  0  0  0  0
    0.6222    2.6402    2.8011 C   0  0  0  0  0  3  0  0  0  0  0  0
    1.1081    2.8782    1.4360 C   0  0  1  0  0  0  0  0  0  0  0  0
    2.3961    1.6022    0.7731 S   0  0  0  0  0  0  0  0  0  0  0  0
    2.5250    0.5032    2.1950 C   0  0  0  0  0  0  0  0  0  0  0  0
    1.4191   -0.5768    2.2605 C   0  0  2  0  0  0  0  0  0  0  0  0
    0.5383   -0.1943    1.7359 H   0  0  0  0  0  0  0  0  0  0  0  0
    0.9962   -0.8138    3.6182 N   0  0  0  0  0  0  0  0  0  0  0  0
   -0.2392   -0.4841    4.0677 C   0  0  0  0  0  0  0  0  0  0  0  0
   -0.3847   -0.4146    5.5685 C   0  0  0  0  0  0  0  0  0  0  0  0
   -1.1623   -0.1784    3.3252 O   0  0  0  0  0  0  0  0  0  0  0  0
    1.8853   -1.8741    1.6047 C   0  0  0  0  0  0  0  0  0  0  0  0
    1.7205   -1.9130    0.2622 N   0  0  0  0  0  0  0  0  0  0  0  0
    2.1568   -3.0309   -0.5305 C   0  0  0  0  0  0  0  0  0  0  0  0
    2.3917   -2.7771    2.2511 O   0  0  0  0  0  0  0  0  0  0  0  0
    0.0157    3.0157    0.3607 C   0  0  1  0  0  0  0  0  0  0  0  0
    0.4744    3.1135   -0.6362 H   0  0  0  0  0  0  0  0  0  0  0  0
   -0.7995    1.8094    0.3082 N   0  0  0  0  0  0  0  0  0  0  0  0
   -1.3285    1.3767   -0.8503 C   0  0  0  0  0  0  0  0  0  0  0  0
   -2.1553    0.0700   -0.7953 C   0  0  1  0  0  0  0  0  0  0  0  0
   -3.2028    0.3991   -0.7157 H   0  0  0  0  0  0  0  0  0  0  0  0
   -2.0489   -0.5962   -2.0965 N   0  0  0  0  0  0  0  0  0  0  0  0
   -3.1752   -0.8841   -2.8147 C   0  0  0  0  0  0  0  0  0  0  0  0
   -3.1219   -1.5910   -3.9750 C   0  0  0  0  0  0  0  0  0  0  0  0
   -1.8657   -2.0415   -4.4638 C   0  0  0  0  0  0  0  0  0  0  0  0
   -0.7355   -1.7398   -3.7557 C   0  0  0  0  0  0  0  0  0  0  0  0
    0.5739   -2.1030   -4.0655 N   0  0  0  0  0  0  0  0  0  0  0  0
    1.0024   -2.9819   -5.0138 C   0  0  0  0  0  0  0  0  0  0  0  0
    2.5023   -3.2863   -4.9302 C   0  0  1  0  0  0  0  0  0  0  0  0
    2.7386   -4.5291   -4.0229 C   0  0  0  0  0  0  0  0  0  0  0  0
    3.5032   -5.4892   -4.9426 C   0  0  0  0  0  0  0  0  0  0  0  0
    3.0785   -5.0043   -6.3262 C   0  0  0  0  0  0  0  0  0  0  0  0
    3.0147   -3.6017   -6.1958 O   0  0  0  0  0  0  0  0  0  0  0  0
    0.2772   -3.5388   -5.8131 O   0  0  0  0  0  0  0  0  0  0  0  0
   -0.7942   -0.9838   -2.5115 C   0  0  0  0  0  0  0  0  0  0  0  0
    0.2217   -0.7389   -1.8573 O   0  0  0  0  0  0  0  0  0  0  0  0
   -1.8678   -0.9129    0.3501 C   0  0  0  0  0  0  0  0  0  0  0  0
   -2.6597   -2.1848    0.1945 C   0  0  0  0  0  0  0  0  0  0  0  0
   -2.0737   -3.3156   -0.3852 C   0  0  0  0  0  0  0  0  0  0  0  0
   -2.8210   -4.4688   -0.6167 C   0  0  0  0  0  0  0  0  0  0  0  0
   -4.1692   -4.5111   -0.2643 C   0  0  0  0  0  0  0  0  0  0  0  0
   -4.7614   -3.3954    0.3272 C   0  0  0  0  0  0  0  0  0  0  0  0
   -4.0108   -2.2430    0.5537 C   0  0  0  0  0  0  0  0  0  0  0  0
   -1.2475    1.9726   -1.9081 O   0  0  0  0  0  0  0  0  0  0  0  0
   -0.8530    4.2538    0.6278 C   0  0  0  0  0  0  0  0  0  0  0  0
   -0.1054    5.5850    0.4290 C   0  0  0  0  0  0  0  0  0  0  0  0
   -0.6065    6.6672    1.3745 C   0  0  0  0  0  0  0  0  0  0  0  0
   -0.0818    6.6063    2.6203 N   0  0  0  0  0  0  0  0  0  0  0  0
   -1.4307    7.5027    1.0353 O   0  0  0  0  0  0  0  0  0  0  0  0
    2.1179    4.4986    7.6534 H   0  0  0  0  0  0  0  0  0  0  0  0
    2.7765    4.1534    6.0259 H   0  0  0  0  0  0  0  0  0  0  0  0
    2.2168    2.8122    7.0704 H   0  0  0  0  0  0  0  0  0  0  0  0
    0.4752    5.0231    5.8267 H   0  0  0  0  0  0  0  0  0  0  0  0
   -0.1399    3.7220    6.8869 H   0  0  0  0  0  0  0  0  0  0  0  0
   -0.0547    1.8193    3.0289 H   0  0  0  0  0  0  0  0  0  0  0  0
    1.6921    3.8060    1.4532 H   0  0  0  0  0  0  0  0  0  0  0  0
    2.4219    1.1385    3.0887 H   0  0  0  0  0  0  0  0  0  0  0  0
    3.5277    0.0499    2.1885 H   0  0  0  0  0  0  0  0  0  0  0  0
    1.7002   -1.1216    4.2751 H   0  0  0  0  0  0  0  0  0  0  0  0
   -0.1754    0.6341    5.8383 H   0  0  0  0  0  0  0  0  0  0  0  0
    0.3149   -1.0713    6.1051 H   0  0  0  0  0  0  0  0  0  0  0  0
   -1.4181   -0.6519    5.8477 H   0  0  0  0  0  0  0  0  0  0  0  0
    1.3354   -1.1087   -0.2328 H   0  0  0  0  0  0  0  0  0  0  0  0
    1.5472   -3.0788   -1.4440 H   0  0  0  0  0  0  0  0  0  0  0  0
    2.0359   -3.9610    0.0421 H   0  0  0  0  0  0  0  0  0  0  0  0
    3.2196   -2.9508   -0.8214 H   0  0  0  0  0  0  0  0  0  0  0  0
   -0.9486    1.3028    1.1757 H   0  0  0  0  0  0  0  0  0  0  0  0
   -4.1094   -0.5232   -2.3859 H   0  0  0  0  0  0  0  0  0  0  0  0
   -4.0411   -1.8062   -4.5178 H   0  0  0  0  0  0  0  0  0  0  0  0
   -1.7839   -2.6232   -5.3803 H   0  0  0  0  0  0  0  0  0  0  0  0
    1.2444   -1.6717   -3.4309 H   0  0  0  0  0  0  0  0  0  0  0  0
    3.0426   -2.3996   -4.5590 H   0  0  0  0  0  0  0  0  0  0  0  0
    1.7795   -4.9674   -3.7088 H   0  0  0  0  0  0  0  0  0  0  0  0
    3.2963   -4.2706   -3.1133 H   0  0  0  0  0  0  0  0  0  0  0  0
    3.2574   -6.5444   -4.7584 H   0  0  0  0  0  0  0  0  0  0  0  0
    4.5894   -5.3623   -4.8181 H   0  0  0  0  0  0  0  0  0  0  0  0
    2.0916   -5.4135   -6.6076 H   0  0  0  0  0  0  0  0  0  0  0  0
    3.8004   -5.2408   -7.1209 H   0  0  0  0  0  0  0  0  0  0  0  0
   -2.0932   -0.4415    1.3163 H   0  0  0  0  0  0  0  0  0  0  0  0
   -0.7991   -1.1519    0.3574 H   0  0  0  0  0  0  0  0  0  0  0  0
   -1.0148   -3.2827   -0.6559 H   0  0  0  0  0  0  0  0  0  0  0  0
   -2.3463   -5.3393   -1.0752 H   0  0  0  0  0  0  0  0  0  0  0  0
   -4.7568   -5.4142   -0.4453 H   0  0  0  0  0  0  0  0  0  0  0  0
   -5.8145   -3.4238    0.6174 H   0  0  0  0  0  0  0  0  0  0  0  0
   -4.4774   -1.3719    1.0228 H   0  0  0  0  0  0  0  0  0  0  0  0
   -1.2178    4.1760    1.6646 H   0  0  0  0  0  0  0  0  0  0  0  0
   -1.7279    4.2218   -0.0382 H   0  0  0  0  0  0  0  0  0  0  0  0
   -0.2385    5.9529   -0.5973 H   0  0  0  0  0  0  0  0  0  0  0  0
    0.9731    5.4472    0.5981 H   0  0  0  0  0  0  0  0  0  0  0  0
    0.5783    5.8809    2.9473 H   0  0  0  0  0  0  0  0  0  0  0  0
   -0.4525    7.2598    3.2973 H   0  0  0  0  0  0  0  0  0  0  0  0
  1 56  1  0  0  0  0
  1 54  1  0  0  0  0
  2  1  1  0  0  0  0
  2 58  1  0  0  0  0
  3  2  1  0  0  0  0
  4  3  1  0  0  0  0
  5  4  2  0  0  0  0
  6 59  1  0  0  0  0
  6  4  1  0  0  0  0
  7 60  1  1  0  0  0
  7  6  1  0  0  0  0
  8  7  1  0  0  0  0
  8  9  1  0  0  0  0
  9 10  1  0  0  0  0
  9 61  1  0  0  0  0
 10 11  1  6  0  0  0
 10 12  1  0  0  0  0
 12 13  1  0  0  0  0
 12 63  1  0  0  0  0
 13 14  1  0  0  0  0
 14 64  1  0  0  0  0
 14 66  1  0  0  0  0
 14 65  1  0  0  0  0
 15 13  2  0  0  0  0
 16 19  2  0  0  0  0
 16 10  1  0  0  0  0
 17 16  1  0  0  0  0
 18 69  1  0  0  0  0
 18 17  1  0  0  0  0
 20 21  1  6  0  0  0
 20 49  1  0  0  0  0
 20  7  1  0  0  0  0
 22 20  1  0  0  0  0
 22 71  1  0  0  0  0
 23 24  1  0  0  0  0
 23 22  1  0  0  0  0
 24 25  1  1  0  0  0
 24 41  1  0  0  0  0
 26 24  1  0  0  0  0
 27 72  1  0  0  0  0
 27 26  1  0  0  0  0
 28 27  2  0  0  0  0
 29 28  1  0  0  0  0
 29 30  2  0  0  0  0
 30 39  1  0  0  0  0
 31 30  1  0  0  0  0
 31 75  1  0  0  0  0
 32 33  1  0  0  0  0
 32 31  1  0  0  0  0
 33 76  1  1  0  0  0
 33 34  1  0  0  0  0
 34 77  1  0  0  0  0
 34 78  1  0  0  0  0
 35 80  1  0  0  0  0
 35 79  1  0  0  0  0
 35 34  1  0  0  0  0
 36 37  1  0  0  0  0
 36 35  1  0  0  0  0
 37 33  1  0  0  0  0
 38 32  2  0  0  0  0
 39 26  1  0  0  0  0
 39 40  2  0  0  0  0
 41 84  1  0  0  0  0
 41 83  1  0  0  0  0
 42 41  1  0  0  0  0
 42 47  1  0  0  0  0
 43 42  2  0  0  0  0
 44 43  1  0  0  0  0
 44 45  2  0  0  0  0
 45 46  1  0  0  0  0
 46 47  2  0  0  0  0
 46 88  1  0  0  0  0
 47 89  1  0  0  0  0
 48 23  2  0  0  0  0
 49 90  1  0  0  0  0
 50 93  1  0  0  0  0
 50 49  1  0  0  0  0
 50 51  1  0  0  0  0
 51 52  1  0  0  0  0
 52 94  1  0  0  0  0
 52 95  1  0  0  0  0
 53 51  2  0  0  0  0
 55  1  1  0  0  0  0
 57  2  1  0  0  0  0
 62  9  1  0  0  0  0
 67 17  1  0  0  0  0
 68 18  1  0  0  0  0
 70 18  1  0  0  0  0
 73 28  1  0  0  0  0
 74 29  1  0  0  0  0
 81 36  1  0  0  0  0
 82 36  1  0  0  0  0
 85 43  1  0  0  0  0
 86 44  1  0  0  0  0
 87 45  1  0  0  0  0
 91 49  1  0  0  0  0
 92 50  1  0  0  0  0
M  END
