-1 1
 OpenBabel05232413493D

 95 96  0  0  1  0  0  0  0  0999 V2000
    1.6177    2.1623    6.8842 C   0  0  0  0  0  0  0  0  0  0  0  0
    0.3961    3.0568    6.7705 C   0  0  0  0  0  0  0  0  0  0  0  0
   -0.3015    2.8557    5.5481 O   0  0  0  0  0  0  0  0  0  0  0  0
    0.2191    3.4512    4.4502 C   0  0  0  0  0  0  0  0  0  0  0  0
    1.2039    4.1474    4.5019 O   0  0  0  0  0  0  0  0  0  0  0  0
   -0.5438    3.0980    3.2389 C   0  0  0  0  0  0  0  0  0  0  0  0
   -0.0311    3.4003    2.0421 C   0  0  0  0  0  0  0  0  0  0  0  0
    3.0435    1.8735    0.2643 S   0  0  0  0  0  1  0  0  0  0  0  0
    2.6325    1.2140    1.9233 C   0  0  0  0  0  0  0  0  0  0  0  0
    1.4317    0.2524    1.9812 C   0  0  2  0  0  0  0  0  0  0  0  0
    0.5803    0.7260    1.4757 H   0  0  0  0  0  0  0  0  0  0  0  0
    1.0427    0.0157    3.3613 N   0  0  0  0  0  0  0  0  0  0  0  0
   -0.2285   -0.1031    3.7927 C   0  0  0  0  0  0  0  0  0  0  0  0
   -0.4114   -0.6002    5.2099 C   0  0  0  0  0  0  0  0  0  0  0  0
   -1.2087    0.2152    3.1300 O   0  0  0  0  0  0  0  0  0  0  0  0
    1.5950   -1.1200    1.2931 C   0  0  0  0  0  0  0  0  0  0  0  0
    2.4364   -1.1580    0.2520 N   0  0  0  0  0  0  0  0  0  0  0  0
    2.5481   -2.3416   -0.5513 C   0  0  0  0  0  0  0  0  0  0  0  0
    0.9705   -2.0976    1.6966 O   0  0  0  0  0  0  0  0  0  0  0  0
   -0.5464    3.0572    0.6821 C   0  0  1  0  0  0  0  0  0  0  0  0
    0.3394    2.7146    0.1101 H   0  0  0  0  0  0  0  0  0  0  0  0
   -1.5040    1.9479    0.6872 N   0  0  0  0  0  0  0  0  0  0  0  0
   -1.8732    1.4191   -0.5067 C   0  0  0  0  0  0  0  0  0  0  0  0
   -2.6403    0.0715   -0.4938 C   0  0  1  0  0  0  0  0  0  0  0  0
   -3.7065    0.3469   -0.4948 H   0  0  0  0  0  0  0  0  0  0  0  0
   -2.4018   -0.5764   -1.7826 N   0  0  0  0  0  0  0  0  0  0  0  0
   -3.4348   -0.8242   -2.6418 C   0  0  0  0  0  0  0  0  0  0  0  0
   -3.2375   -1.4430   -3.8351 C   0  0  0  0  0  0  0  0  0  0  0  0
   -1.9206   -1.8277   -4.2156 C   0  0  0  0  0  0  0  0  0  0  0  0
   -0.8825   -1.5626   -3.3680 C   0  0  0  0  0  0  0  0  0  0  0  0
    0.4643   -1.8530   -3.5720 N   0  0  0  0  0  0  0  0  0  0  0  0
    1.0201   -2.5986   -4.5641 C   0  0  0  0  0  0  0  0  0  0  0  0
    2.5175   -2.8644   -4.3777 C   0  0  1  0  0  0  0  0  0  0  0  0
    2.7266   -4.2567   -3.7158 C   0  0  0  0  0  0  0  0  0  0  0  0
    3.6330   -4.9848   -4.7160 C   0  0  0  0  0  0  0  0  0  0  0  0
    3.3207   -4.2483   -6.0156 C   0  0  0  0  0  0  0  0  0  0  0  0
    3.1664   -2.9040   -5.6222 O   0  0  0  0  0  0  0  0  0  0  0  0
    0.4009   -3.0825   -5.4924 O   0  0  0  0  0  0  0  0  0  0  0  0
   -1.0944   -0.9112   -2.0777 C   0  0  0  0  0  0  0  0  0  0  0  0
   -0.1740   -0.6832   -1.2989 O   0  0  0  0  0  0  0  0  0  0  0  0
   -2.3711   -0.8724    0.6889 C   0  0  0  0  0  0  0  0  0  0  0  0
   -2.8527   -2.2794    0.4407 C   0  0  0  0  0  0  0  0  0  0  0  0
   -1.9250   -3.3240    0.3546 C   0  0  0  0  0  0  0  0  0  0  0  0
   -2.3505   -4.6241    0.0812 C   0  0  0  0  0  0  0  0  0  0  0  0
   -3.7037   -4.9000   -0.1093 C   0  0  0  0  0  0  0  0  0  0  0  0
   -4.6362   -3.8668   -0.0135 C   0  0  0  0  0  0  0  0  0  0  0  0
   -4.2107   -2.5690    0.2614 C   0  0  0  0  0  0  0  0  0  0  0  0
   -1.6983    1.9724   -1.5757 O   0  0  0  0  0  0  0  0  0  0  0  0
   -1.0740    4.3450   -0.0055 C   0  0  0  0  0  0  0  0  0  0  0  0
   -0.0030    5.0385   -0.8568 C   0  0  0  0  0  0  0  0  0  0  0  0
    1.0380    5.7930   -0.0385 C   0  0  0  0  0  0  0  0  0  0  0  0
    2.1803    5.1228    0.2444 N   0  0  0  0  0  0  0  0  0  0  0  0
    0.8290    6.9353    0.3398 O   0  0  0  0  0  0  0  0  0  0  0  0
    2.1016    2.3081    7.8619 H   0  0  0  0  0  0  0  0  0  0  0  0
    2.3440    2.4086    6.0978 H   0  0  0  0  0  0  0  0  0  0  0  0
    1.3382    1.1032    6.7909 H   0  0  0  0  0  0  0  0  0  0  0  0
    0.6881    4.1146    6.8526 H   0  0  0  0  0  0  0  0  0  0  0  0
   -0.3369    2.8291    7.5578 H   0  0  0  0  0  0  0  0  0  0  0  0
   -1.4472    2.5054    3.3767 H   0  0  0  0  0  0  0  0  0  0  0  0
    0.8959    3.9819    2.0268 H   0  0  0  0  0  0  0  0  0  0  0  0
    2.3968    2.0442    2.6075 H   0  0  0  0  0  0  0  0  0  0  0  0
    3.5134    0.6981    2.3481 H   0  0  0  0  0  0  0  0  0  0  0  0
    1.7641   -0.3722    3.9547 H   0  0  0  0  0  0  0  0  0  0  0  0
   -0.8085    0.2333    5.8065 H   0  0  0  0  0  0  0  0  0  0  0  0
    0.5126   -0.9752    5.6714 H   0  0  0  0  0  0  0  0  0  0  0  0
   -1.1610   -1.4024    5.1961 H   0  0  0  0  0  0  0  0  0  0  0  0
    2.7912   -0.2448   -0.0900 H   0  0  0  0  0  0  0  0  0  0  0  0
    1.5890   -2.5893   -1.0390 H   0  0  0  0  0  0  0  0  0  0  0  0
    2.8420   -3.2121    0.0564 H   0  0  0  0  0  0  0  0  0  0  0  0
    3.3154   -2.1758   -1.3212 H   0  0  0  0  0  0  0  0  0  0  0  0
   -1.4814    1.3312    1.5053 H   0  0  0  0  0  0  0  0  0  0  0  0
   -4.4180   -0.5026   -2.2995 H   0  0  0  0  0  0  0  0  0  0  0  0
   -4.0851   -1.6327   -4.4923 H   0  0  0  0  0  0  0  0  0  0  0  0
   -1.7226   -2.3237   -5.1641 H   0  0  0  0  0  0  0  0  0  0  0  0
    1.0505   -1.4671   -2.8324 H   0  0  0  0  0  0  0  0  0  0  0  0
    2.9749   -2.0543   -3.7864 H   0  0  0  0  0  0  0  0  0  0  0  0
    1.7652   -4.7796   -3.6060 H   0  0  0  0  0  0  0  0  0  0  0  0
    3.1725   -4.1714   -2.7165 H   0  0  0  0  0  0  0  0  0  0  0  0
    3.4308   -6.0640   -4.7699 H   0  0  0  0  0  0  0  0  0  0  0  0
    4.6926   -4.8456   -4.4519 H   0  0  0  0  0  0  0  0  0  0  0  0
    2.3905   -4.6283   -6.4750 H   0  0  0  0  0  0  0  0  0  0  0  0
    4.1300   -4.2962   -6.7586 H   0  0  0  0  0  0  0  0  0  0  0  0
   -2.8584   -0.4571    1.5817 H   0  0  0  0  0  0  0  0  0  0  0  0
   -1.2991   -0.9025    0.9079 H   0  0  0  0  0  0  0  0  0  0  0  0
   -0.8659   -3.1058    0.5255 H   0  0  0  0  0  0  0  0  0  0  0  0
   -1.6142   -5.4289    0.0170 H   0  0  0  0  0  0  0  0  0  0  0  0
   -4.0332   -5.9186   -0.3283 H   0  0  0  0  0  0  0  0  0  0  0  0
   -5.7004   -4.0738   -0.1530 H   0  0  0  0  0  0  0  0  0  0  0  0
   -4.9485   -1.7640    0.3388 H   0  0  0  0  0  0  0  0  0  0  0  0
   -1.4756    5.0473    0.7427 H   0  0  0  0  0  0  0  0  0  0  0  0
   -1.8947    4.0581   -0.6712 H   0  0  0  0  0  0  0  0  0  0  0  0
   -0.4887    5.7982   -1.4850 H   0  0  0  0  0  0  0  0  0  0  0  0
    0.4637    4.2920   -1.5173 H   0  0  0  0  0  0  0  0  0  0  0  0
    2.3315    4.1149    0.0866 H   0  0  0  0  0  0  0  0  0  0  0  0
    2.8283    5.5809    0.8735 H   0  0  0  0  0  0  0  0  0  0  0  0
  1 54  1  0  0  0  0
  2 57  1  0  0  0  0
  2  1  1  0  0  0  0
  2 58  1  0  0  0  0
  3  2  1  0  0  0  0
  4  5  2  0  0  0  0
  4  3  1  0  0  0  0
  6 59  1  0  0  0  0
  6  4  1  0  0  0  0
  7  6  2  0  0  0  0
  8  9  1  0  0  0  0
  9 10  1  0  0  0  0
  9 62  1  0  0  0  0
  9 61  1  0  0  0  0
 10 11  1  6  0  0  0
 10 12  1  0  0  0  0
 12 13  1  0  0  0  0
 12 63  1  0  0  0  0
 13 14  1  0  0  0  0
 14 65  1  0  0  0  0
 14 64  1  0  0  0  0
 15 13  2  0  0  0  0
 16 19  2  0  0  0  0
 16 10  1  0  0  0  0
 17 16  1  0  0  0  0
 18 69  1  0  0  0  0
 18 17  1  0  0  0  0
 20 21  1  6  0  0  0
 20 22  1  0  0  0  0
 20  7  1  0  0  0  0
 22 71  1  0  0  0  0
 23 24  1  0  0  0  0
 23 22  1  0  0  0  0
 24 25  1  1  0  0  0
 24 41  1  0  0  0  0
 26 24  1  0  0  0  0
 27 72  1  0  0  0  0
 27 26  1  0  0  0  0
 28 27  2  0  0  0  0
 29 28  1  0  0  0  0
 29 30  2  0  0  0  0
 30 39  1  0  0  0  0
 31 30  1  0  0  0  0
 31 75  1  0  0  0  0
 32 33  1  0  0  0  0
 32 31  1  0  0  0  0
 33 76  1  1  0  0  0
 33 34  1  0  0  0  0
 34 77  1  0  0  0  0
 34 78  1  0  0  0  0
 35 80  1  0  0  0  0
 35 34  1  0  0  0  0
 36 37  1  0  0  0  0
 36 35  1  0  0  0  0
 37 33  1  0  0  0  0
 38 32  2  0  0  0  0
 39 26  1  0  0  0  0
 39 40  2  0  0  0  0
 41 84  1  0  0  0  0
 41 83  1  0  0  0  0
 42 41  1  0  0  0  0
 43 42  1  0  0  0  0
 43 85  1  0  0  0  0
 44 43  2  0  0  0  0
 45 46  2  0  0  0  0
 45 44  1  0  0  0  0
 46 47  1  0  0  0  0
 47 89  1  0  0  0  0
 47 42  2  0  0  0  0
 48 23  2  0  0  0  0
 49 20  1  0  0  0  0
 49 90  1  0  0  0  0
 50 51  1  0  0  0  0
 50 49  1  0  0  0  0
 51 52  1  0  0  0  0
 51 53  2  0  0  0  0
 52 95  1  0  0  0  0
 55  1  1  0  0  0  0
 56  1  1  0  0  0  0
 60  7  1  0  0  0  0
 66 14  1  0  0  0  0
 67 17  1  0  0  0  0
 68 18  1  0  0  0  0
 70 18  1  0  0  0  0
 73 28  1  0  0  0  0
 74 29  1  0  0  0  0
 79 35  1  0  0  0  0
 81 36  1  0  0  0  0
 82 36  1  0  0  0  0
 86 44  1  0  0  0  0
 87 45  1  0  0  0  0
 88 46  1  0  0  0  0
 91 49  1  0  0  0  0
 92 50  1  0  0  0  0
 93 50  1  0  0  0  0
 94 52  1  0  0  0  0
M  END
