95
-1 1
C         1.617676    2.162322    6.884244
C         0.396056    3.056777    6.770529
O        -0.301536    2.855747    5.548064
C         0.219114    3.451210    4.450188
O         1.203882    4.147416    4.501894
C        -0.543802    3.098016    3.238854
C        -0.031052    3.400320    2.042080
S         3.043465    1.873473    0.264326
C         2.632484    1.214030    1.923348
C         1.431676    0.252367    1.981242
H         0.580256    0.725978    1.475727
N         1.042741    0.015675    3.361268
C        -0.228454   -0.103069    3.792678
C        -0.411441   -0.600245    5.209854
O        -1.208720    0.215208    3.130007
C         1.594981   -1.120034    1.293115
N         2.436402   -1.158025    0.252007
C         2.548085   -2.341560   -0.551300
O         0.970537   -2.097623    1.696586
C        -0.546362    3.057187    0.682096
H         0.339361    2.714643    0.110078
N        -1.504024    1.947877    0.687248
C        -1.873173    1.419149   -0.506735
C        -2.640277    0.071501   -0.493845
H        -3.706495    0.346866   -0.494817
N        -2.401779   -0.576443   -1.782601
C        -3.434796   -0.824208   -2.641760
C        -3.237515   -1.443007   -3.835118
C        -1.920591   -1.827651   -4.215638
C        -0.882535   -1.562554   -3.368021
N         0.464273   -1.853003   -3.572028
C         1.020094   -2.598562   -4.564098
C         2.517491   -2.864428   -4.377697
C         2.726649   -4.256708   -3.715833
C         3.633001   -4.984818   -4.715975
C         3.320698   -4.248254   -6.015635
O         3.166432   -2.903990   -5.622177
O         0.400929   -3.082508   -5.492364
C        -1.094407   -0.911157   -2.077701
O        -0.174017   -0.683249   -1.298880
C        -2.371059   -0.872362    0.688858
C        -2.852680   -2.279392    0.440710
C        -1.925005   -3.324031    0.354623
C        -2.350529   -4.624075    0.081175
C        -3.703669   -4.899960   -0.109276
C        -4.636245   -3.866837   -0.013451
C        -4.210676   -2.569010    0.261409
O        -1.698285    1.972386   -1.575672
C        -1.074009    4.344968   -0.005510
C        -0.002954    5.038499   -0.856838
C         1.037967    5.793036   -0.038468
N         2.180306    5.122791    0.244397
O         0.829036    6.935253    0.339782
H         2.101646    2.308088    7.861900
H         2.344008    2.408556    6.097799
H         1.338172    1.103241    6.790875
H         0.688130    4.114575    6.852557
H        -0.336876    2.829076    7.557795
H        -1.447250    2.505388    3.376741
H         0.895878    3.981874    2.026759
H         2.396844    2.044196    2.607482
H         3.513378    0.698051    2.348133
H         1.764065   -0.372175    3.954675
H        -0.808548    0.233252    5.806506
H         0.512574   -0.975178    5.671368
H        -1.160992   -1.402369    5.196114
H         2.791179   -0.244822   -0.090034
H         1.589013   -2.589317   -1.038955
H         2.841976   -3.212128    0.056379
H         3.315420   -2.175778   -1.321176
H        -1.481401    1.331191    1.505255
H        -4.418036   -0.502597   -2.299504
H        -4.085095   -1.632722   -4.492318
H        -1.722643   -2.323664   -5.164100
H         1.050501   -1.467081   -2.832387
H         2.974910   -2.054284   -3.786364
H         1.765184   -4.779551   -3.606045
H         3.172494   -4.171429   -2.716455
H         3.430824   -6.064007   -4.769876
H         4.692555   -4.845618   -4.451855
H         2.390536   -4.628343   -6.475011
H         4.130023   -4.296213   -6.758639
H        -2.858397   -0.457096    1.581683
H        -1.299136   -0.902530    0.907890
H        -0.865863   -3.105830    0.525493
H        -1.614166   -5.428933    0.017009
H        -4.033183   -5.918617   -0.328311
H        -5.700380   -4.073793   -0.152966
H        -4.948451   -1.764006    0.338835
H        -1.475564    5.047333    0.742730
H        -1.894732    4.058076   -0.671152
H        -0.488732    5.798237   -1.485034
H         0.463667    4.291961   -1.517309
H         2.331547    4.114930    0.086588
H         2.828297    5.580893    0.873451
