93
-1 1
O        -0.261823    1.288179    2.928598
C        -0.509566    1.861466    1.831995
N        -0.761975    0.966940    0.731378
C        -0.226659    0.937024   -0.528902
C        -0.598649   -0.111339   -1.400416
C        -0.016650   -0.223092   -2.655836
N        -0.438389   -1.275876   -3.535083
C         0.215647   -2.425164   -3.923567
C         1.471581   -2.892726   -3.316506
C         2.273931   -3.904825   -3.928944
N         1.925624   -4.503266   -5.091314
N         3.420278   -4.273924   -3.345569
C         3.761675   -3.698181   -2.201503
C         2.969217   -2.726931   -1.574571
C         3.291282   -2.093011   -0.294358
C         2.429751   -1.265054    0.409162
N         3.071440   -0.873758    1.524903
C         2.527749    0.083728    2.489735
C         2.839722   -0.290948    3.941544
C         4.236125    0.151927    4.400337
N         4.522796    1.555657    4.126413
C         4.379683    1.817226    2.699882
C         2.974605    1.517420    2.170927
C         3.812134    2.506961    4.965527
C         4.280588    2.485426    6.415243
N         4.306011   -1.379587    1.601880
C         4.452125   -2.126046    0.514308
N         1.834908   -2.353031   -2.167533
N        -0.415701   -3.068562   -4.884737
C        -1.572926   -1.196589   -4.317805
C        -1.543720   -2.330575   -5.152937
C        -2.574960   -2.543254   -6.078546
C        -3.596984   -1.606214   -6.140689
C        -3.602494   -0.469308   -5.305911
C        -2.590417   -0.241662   -4.382891
C         0.922456    0.698917   -3.112252
C         1.281453    1.740904   -2.258211
C         0.720980    1.874054   -0.994472
C        -0.609667    3.228948    1.613281
C        -1.454892    3.833394    0.571826
S        -3.178642    4.389518    1.213569
C        -3.382987    3.325355    2.668806
C        -3.813666    1.828133    2.596340
H        -4.877680    1.755178    2.875961
N        -3.089577    1.113205    3.613745
C        -3.703419    0.238586    4.448783
C        -2.746926   -0.628881    5.243631
O        -4.914691    0.137514    4.555126
C        -3.739493    1.031798    1.272129
N        -4.187232    1.662219    0.163642
C        -4.088929    1.036262   -1.131196
O        -3.383457   -0.137339    1.266072
H        -1.295684    0.148849    1.012405
H        -1.327092   -0.855179   -1.070475
H         0.979806   -4.344416   -5.435474
H         2.490516   -5.283251   -5.393068
H         4.703018   -4.025409   -1.746743
H         1.422071   -0.934983    0.173912
H         1.437114    0.044063    2.363713
H         2.718866   -1.376568    4.079945
H         2.063951    0.196958    4.553130
H         4.989623   -0.454171    3.875757
H         4.356888   -0.045098    5.476814
H         5.113106    1.189931    2.165829
H         4.645949    2.868383    2.499972
H         2.917081    1.682334    1.083605
H         2.233930    2.191884    2.628183
H         2.708012    2.383290    4.939365
H         4.006650    3.509652    4.549641
H         4.011414    1.546667    6.922801
H         3.815160    3.306403    6.981723
H         5.374683    2.595633    6.463396
H         5.388914   -2.656978    0.346452
H        -2.561993   -3.422660   -6.724953
H        -4.415070   -1.747337   -6.850769
H        -4.421753    0.248548   -5.387101
H        -2.582478    0.635721   -3.735059
H         1.360817    0.589974   -4.105007
H         2.022438    2.473799   -2.586717
H         1.009350    2.692794   -0.334713
H        -0.303637    3.857692    2.454732
H        -1.659045    3.143422   -0.256981
H        -1.070890    4.776140    0.153409
H        -4.096191    3.859832    3.311033
H        -2.410956    3.347456    3.177610
H        -2.065050    1.078127    3.513019
H        -3.217051   -0.908461    6.194765
H        -1.781550   -0.134318    5.419575
H        -2.556587   -1.545312    4.664470
H        -4.231498    2.681634    0.206268
H        -4.340092   -0.029089   -1.045913
H        -3.067264    1.106321   -1.543248
H        -4.788365    1.515734   -1.830438
