93
-1 1
O        -0.233404    3.543076    2.287504
C        -0.070137    3.371160    1.083814
N        -0.045550    2.127265    0.542762
C         0.313519    1.729813   -0.764916
C        -0.543706    0.887503   -1.478820
C        -0.119829    0.369970   -2.698912
N        -0.903133   -0.605950   -3.384452
C        -0.476934   -1.858081   -3.775858
C         0.726373   -2.492409   -3.213134
C         1.426272   -3.530511   -3.894649
N         0.996043   -4.020099   -5.084292
N         2.544673   -4.027957   -3.358175
C         2.949072   -3.552808   -2.185863
C         2.242991   -2.568868   -1.481539
C         2.622887   -2.042831   -0.167019
C         1.770912   -1.345296    0.677476
N         2.486260   -1.009793    1.768757
C         1.969751   -0.200476    2.873844
C         2.319063   -0.794054    4.245430
C         3.728344   -0.422715    4.726368
N         4.000115    1.008706    4.671755
C         3.832874    1.487717    3.306280
C         2.421697    1.263944    2.754195
C         3.302948    1.814173    5.659723
C         3.759380    1.537525    7.086368
N         3.755451   -1.426672    1.697217
C         3.850939   -2.061556    0.535819
N         1.135206   -2.068598   -2.031806
N        -1.285600   -2.431457   -4.636138
C        -2.111638   -0.392486   -4.028219
C        -2.324002   -1.541881   -4.815950
C        -3.475643   -1.643469   -5.608867
C        -4.377441   -0.589791   -5.575360
C        -4.154502    0.543787   -4.766245
C        -3.019240    0.667227   -3.977777
C         1.093758    0.764900   -3.262326
C         1.925835    1.628978   -2.559307
C         1.552747    2.089227   -1.300905
C         0.012787    4.563995    0.186156
C        -0.661776    4.683985   -0.957680
S        -4.336343    1.374477   -0.683017
C        -3.498212    1.977615    0.822603
C        -3.090761    0.915933    1.872646
H        -4.003532    0.436529    2.257085
N        -2.407446    1.556352    2.972770
C        -2.197901    0.912030    4.150055
C        -1.177337    1.573374    5.060275
O        -2.759720   -0.123390    4.458449
C        -2.208407   -0.210449    1.310297
N        -2.804139   -1.048308    0.459909
C        -2.062150   -2.089345   -0.210910
O        -1.010873   -0.311676    1.617482
H        -0.318852    1.355885    1.171683
H        -1.535699    0.638192   -1.090377
H         0.035238   -3.805866   -5.347377
H         1.455383   -4.853055   -5.423191
H         3.867900   -3.980847   -1.770476
H         0.714576   -1.089309    0.599416
H         0.880739   -0.240958    2.739017
H         2.197407   -1.887387    4.213800
H         1.570901   -0.419446    4.963272
H         4.464835   -0.929844    4.085993
H         3.884049   -0.790764    5.751907
H         4.558225    0.955372    2.669690
H         4.088127    2.559581    3.268056
H         2.363890    1.568602    1.698237
H         1.693349    1.894099    3.290124
H         2.195717    1.717642    5.612408
H         3.514930    2.869557    5.420503
H         3.458180    0.536742    7.431098
H         3.314808    2.267701    7.779378
H         4.855752    1.605316    7.154548
H         4.802957   -2.499444    0.236081
H        -3.648939   -2.532833   -6.217446
H        -5.290820   -0.643775   -6.172499
H        -4.905777    1.335173   -4.731744
H        -2.885936    1.511871   -3.300050
H         1.393475    0.360364   -4.230782
H         2.888873    1.921797   -2.982116
H         2.222049    2.727201   -0.721111
H         0.549599    5.411511    0.621745
H        -1.252667    3.861577   -1.372476
H        -0.666098    5.626918   -1.510095
H        -4.144287    2.687696    1.361709
H        -2.590559    2.537548    0.543167
H        -1.797912    2.344477    2.761902
H        -1.544338    1.544966    6.094733
H        -0.931996    2.602051    4.764823
H        -0.255220    0.973085    5.017040
H        -3.645494   -0.643467    0.003923
H        -1.662680   -2.809467    0.518829
H        -1.206329   -1.697891   -0.786512
H        -2.734606   -2.616688   -0.899572
