93
-1 1
O         4.156283    9.786663   -3.461585
C         4.010954   10.224700   -4.612040
N         3.908183    9.262920   -5.635305
C         4.360858    9.251837   -6.941355
C         3.921090    8.212722   -7.781041
C         4.452307    8.073854   -9.056600
N         3.977503    7.025181   -9.910970
C         4.527617    5.795364  -10.204666
C         5.710489    5.242855   -9.525912
C         6.421806    4.120830  -10.056945
N         6.044547    3.491682  -11.191841
N         7.511117    3.674045   -9.420186
C         7.878027    4.275970   -8.298792
C         7.172704    5.356000   -7.750715
C         7.531816    6.012096   -6.490715
C         6.724711    6.899242   -5.795979
N         7.403151    7.283758   -4.697890
C         6.933056    8.294839   -3.748637
C         7.300237    7.964081   -2.298467
C         8.739290    8.354536   -1.927845
N         9.083407    9.726631   -2.281859
C         8.869819    9.941005   -3.706618
C         7.421323    9.696955   -4.139509
C         8.491570   10.750745   -1.437160
C         9.093598   10.785454   -0.037760
N         8.611014    6.716747   -4.626751
C         8.701261    5.938355   -5.697101
N         6.099216    5.810839   -8.398030
N         3.874808    5.165507  -11.160046
C         2.893876    7.174155  -10.754121
C         2.841718    5.996019  -11.523393
C         1.835445    5.833651  -12.485800
C         0.919965    6.863830  -12.648989
C         0.996521    8.043369  -11.879415
C         1.985900    8.222398  -10.921822
C         5.394804    8.969818   -9.553976
C         5.815639   10.010333   -8.727288
C         5.316309   10.156930   -7.439082
C         3.863181   11.621370   -4.923615
C         3.106413   12.108830   -5.974995
S         0.721275   12.288454   -5.314113
C         0.952480   11.207686   -3.884766
C         0.589924    9.695784   -3.941331
H        -0.488478    9.575967   -3.753229
N         1.282093    9.040220   -2.859668
C         0.745909    7.987641   -2.189716
C         1.744331    7.219302   -1.343056
O        -0.427761    7.668762   -2.257967
C         0.841638    8.916635   -5.252057
N         0.246585    9.430699   -6.343274
C         0.440886    8.863040   -7.651526
O         1.483417    7.867325   -5.266932
H         3.370535    8.445432   -5.342378
H         3.184551    7.497757   -7.409046
H         5.134668    3.731701  -11.583449
H         6.544238    2.650801  -11.440202
H         8.767167    3.880767   -7.795536
H         5.730474    7.272575   -6.019642
H         5.838230    8.287380   -3.836460
H         7.135403    6.892506   -2.107601
H         6.584581    8.513915   -1.666089
H         9.433198    7.683972   -2.455111
H         8.899572    8.202404   -0.849493
H         9.535491    9.255399   -4.257025
H         9.177003   10.967473   -3.965448
H         7.301906    9.833767   -5.225966
H         6.749148   10.421747   -3.654060
H         7.385728   10.672384   -1.354015
H         8.682368   11.721347   -1.924173
H         8.852080    9.879450    0.538511
H         8.703096   11.644997    0.528073
H        10.189395   10.866956   -0.097366
H         9.607488    5.357501   -5.866767
H         1.784986    4.920491  -13.081482
H         0.122836    6.764127  -13.389157
H         0.260615    8.834300  -12.039746
H         2.056539    9.133202  -10.325846
H         5.790839    8.842226  -10.562321
H         6.560185   10.721689   -9.091799
H         5.658747   10.971720   -6.801556
H         4.159999   12.292468   -4.113562
H         2.857817   11.467126   -6.821295
H         3.108965   13.177069   -6.188902
H         0.405478   11.619638   -3.024962
H         2.022163   11.275399   -3.621221
H         2.295844    9.159754   -2.848231
H         1.208794    6.688222   -0.546730
H         2.516854    7.872846   -0.913222
H         2.244980    6.480236   -1.987257
H         0.020215   10.434099   -6.276586
H         0.500103    7.769163   -7.575932
H         1.373500    9.218936   -8.121408
H        -0.402581    9.129735   -8.304195
