83
-1 1
O         0.289837    0.710741   -3.710793
C         0.892603   -0.118787   -3.042986
N         0.615125   -0.273450   -1.712664
C         1.365011   -0.843781   -0.679686
C         0.671693   -1.315966    0.439865
C         1.382134   -1.789934    1.530015
O         0.703541   -2.257303    2.652972
C         0.132379   -1.375809    3.475818
N         0.174014   -0.095738    3.225370
C        -0.406703    0.754386    4.096590
N        -0.351202    2.080525    3.786501
C         0.105850    2.626272    2.560110
C        -0.409405    2.196320    1.333408
C         0.047003    2.729635    0.140470
C         1.042167    3.729090    0.106176
N         1.469039    4.269411   -1.110101
C         2.630176    5.141829   -1.140704
C         3.923066    4.315933   -1.216497
N         3.939449    3.416038   -2.360286
C         2.724065    2.608588   -2.409316
C         1.440791    3.441143   -2.315045
C         4.276345    4.052213   -3.611618
C         1.540661    4.166204    1.349594
C         1.080977    3.619067    2.547216
N        -1.013595    0.424114    5.234759
C        -0.500258   -1.857608    4.637786
C        -1.051687   -0.892051    5.496590
C        -1.647083   -1.511691    6.654681
C        -1.528927   -2.866321    6.626486
S        -0.706582   -3.474565    5.225797
C         2.769595   -1.853324    1.538349
C         3.453344   -1.395079    0.414301
C         2.767361   -0.876635   -0.678950
C         1.876215   -1.027845   -3.703742
C         1.874652   -2.348136   -3.511759
S        -1.099401   -3.861610   -1.852428
C        -2.392842   -2.604850   -1.558006
C        -2.590357   -1.597300   -2.712498
H        -1.599093   -1.243947   -3.040164
N        -3.409171   -0.459972   -2.334855
C        -3.044256    0.517919   -1.505798
C        -4.042263    1.638850   -1.306150
O        -1.964461    0.549218   -0.908358
C        -3.304366   -2.209249   -3.930251
N        -2.715329   -3.302474   -4.431345
C        -3.295274   -4.064146   -5.503269
O        -4.334033   -1.701825   -4.375474
H        -0.311762    0.085165   -1.439728
H        -0.417410   -1.293946    0.454273
H        -0.749740    2.692766    4.485766
H        -1.177063    1.422979    1.284739
H        -0.409625    2.348414   -0.770419
H         2.632934    5.824752   -0.281327
H         2.544859    5.781553   -2.036343
H         4.004595    3.710932   -0.296483
H         4.808080    4.972607   -1.258125
H         2.735867    1.901428   -1.561407
H         2.718930    2.012799   -3.333994
H         0.566643    2.783392   -2.353070
H         1.354312    4.113480   -3.185490
H         5.255091    4.551312   -3.523698
H         3.549169    4.813185   -3.972428
H         4.362589    3.289339   -4.400946
H         2.321235    4.923918    1.406172
H         1.511620    3.959197    3.492648
H        -2.134711   -0.945427    7.446887
H        -1.895187   -3.572668    7.370724
H         3.290042   -2.242944    2.413928
H         4.545246   -1.421250    0.397159
H         3.322374   -0.494518   -1.534976
H         2.488194   -0.553710   -4.477759
H         1.186643   -2.824304   -2.795968
H         2.524860   -2.996188   -4.106802
H        -2.137602   -2.008825   -0.669105
H        -3.368428   -3.078315   -1.348791
H        -4.263390   -0.397425   -2.888838
H        -3.579020    2.578795   -1.638655
H        -4.247073    1.736757   -0.230925
H        -4.985835    1.485284   -1.846586
H        -1.974591   -3.721481   -3.826570
H        -3.759035   -4.995849   -5.136280
H        -2.528360   -4.333844   -6.246294
H        -4.070624   -3.458778   -5.991033
