-1 1
 OpenBabel05192410563D

 80 84  0  0  1  0  0  0  0  0999 V2000
    1.9621   -5.4965    2.8336 C   0  0  0  0  0  0  0  0  0  0  0  0
    2.2946   -4.1309    2.2765 C   0  0  0  0  0  0  0  0  0  0  0  0
    0.6610   -3.2191    2.1089 S   0  0  0  0  0  0  0  0  0  0  0  0
    1.0391   -1.4428    2.0716 C   0  0  0  0  0  0  0  0  0  0  0  0
    0.8362   -0.7268    3.4231 C   0  0  2  0  0  0  0  0  0  0  0  0
    0.0650   -1.2880    3.9814 H   0  0  0  0  0  0  0  0  0  0  0  0
    0.4238    0.6523    3.2907 N   0  0  0  0  0  0  0  0  0  0  0  0
   -0.7540    1.0841    2.8020 C   0  0  0  0  0  0  0  0  0  0  0  0
   -1.0459    2.5481    3.0865 C   0  0  0  0  0  0  0  0  0  0  0  0
   -1.5541    0.3719    2.2066 O   0  0  0  0  0  0  0  0  0  0  0  0
    2.1085   -0.6699    4.3027 C   0  0  0  0  0  0  0  0  0  0  0  0
    2.7679   -1.8239    4.4663 N   0  0  0  0  0  0  0  0  0  0  0  0
    4.0892   -1.8701    5.0503 C   0  0  0  0  0  0  0  0  0  0  0  0
    2.4401    0.3897    4.8275 O   0  0  0  0  0  0  0  0  0  0  0  0
    3.4976   -3.7187    1.9153 C   0  0  0  0  0  3  0  0  0  0  0  0
    3.9345   -2.5131    1.3095 C   0  0  0  0  0  0  0  0  0  0  0  0
    3.7490   -2.4301   -0.0653 N   0  0  0  0  0  0  0  0  0  0  0  0
    3.2140   -3.4962   -0.8953 C   0  0  0  0  0  0  0  0  0  0  0  0
    3.3395   -2.9589   -2.3320 C   0  0  0  0  0  0  0  0  0  0  0  0
    4.3222   -1.7857   -2.2220 C   0  0  0  0  0  0  0  0  0  0  0  0
    4.0628   -1.2311   -0.8142 C   0  0  1  0  0  0  0  0  0  0  0  0
    4.9502   -0.7523   -0.3762 H   0  0  0  0  0  0  0  0  0  0  0  0
    2.9151   -0.2450   -0.7988 C   0  0  0  0  0  0  0  0  0  0  0  0
    1.8819   -0.2781   -1.6223 N   0  0  0  0  0  0  0  0  0  0  0  0
    1.0168    0.6913   -1.2371 C   0  0  0  0  0  0  0  0  0  0  0  0
   -0.2951    0.8559   -1.8830 C   0  0  0  0  0  0  0  0  0  0  0  0
   -1.4638    0.9598   -1.1116 C   0  0  0  0  0  0  0  0  0  0  0  0
   -2.7009    1.1219   -1.7296 C   0  0  0  0  0  0  0  0  0  0  0  0
   -2.8040    1.1647   -3.1253 C   0  0  0  0  0  0  0  0  0  0  0  0
   -4.0958    1.3359   -3.8663 C   0  0  0  0  0  0  0  0  0  0  0  0
   -5.1395    1.8307   -3.1159 N   0  0  0  0  0  0  0  0  0  0  0  0
   -6.4561    2.0780   -3.4983 C   0  0  0  0  0  0  0  0  0  0  0  0
   -7.1969    2.6077   -2.5237 N   0  0  0  0  0  0  0  0  0  0  0  0
   -8.4741    2.8799   -2.7716 C   0  0  0  0  0  0  0  0  0  0  0  0
   -9.0851    2.6427   -3.9993 C   0  0  0  0  0  0  0  0  0  0  0  0
   -8.3019    2.0907   -5.0137 C   0  0  0  0  0  0  0  0  0  0  0  0
   -6.9653    1.7983   -4.7783 C   0  0  0  0  0  0  0  0  0  0  0  0
   -4.2002    1.0741   -5.0494 O   0  0  0  0  0  0  0  0  0  0  0  0
   -1.6429    1.0022   -3.8924 C   0  0  0  0  0  0  0  0  0  0  0  0
   -0.4065    0.8511   -3.2812 C   0  0  0  0  0  0  0  0  0  0  0  0
    2.7575    0.7511    0.1224 N   0  0  0  0  0  0  0  0  0  0  0  0
    1.5572    1.3862   -0.1576 C   0  0  0  0  0  0  0  0  0  0  0  0
    1.2670    2.5905    0.5815 C   0  0  0  0  0  0  0  0  0  0  0  0
    0.2281    3.3821    0.1846 N   0  0  0  0  0  0  0  0  0  0  0  0
    2.0085    2.9776    1.5844 N   0  0  0  0  0  0  0  0  0  0  0  0
    3.0892    2.2038    1.9254 C   0  0  0  0  0  0  0  0  0  0  0  0
    3.5122    1.1210    1.2306 C   0  0  0  0  0  0  0  0  0  0  0  0
    4.5214   -1.5698    1.8866 O   0  0  0  0  0  0  0  0  0  0  0  0
    1.1888   -6.0064    2.2315 H   0  0  0  0  0  0  0  0  0  0  0  0
    1.5760   -5.4364    3.8661 H   0  0  0  0  0  0  0  0  0  0  0  0
    2.8717   -6.1125    2.8271 H   0  0  0  0  0  0  0  0  0  0  0  0
    0.3413   -1.0066    1.3459 H   0  0  0  0  0  0  0  0  0  0  0  0
    2.0569   -1.2909    1.6976 H   0  0  0  0  0  0  0  0  0  0  0  0
    1.0322    1.2830    3.8126 H   0  0  0  0  0  0  0  0  0  0  0  0
   -1.7442    2.9276    2.3306 H   0  0  0  0  0  0  0  0  0  0  0  0
   -0.1262    3.1509    3.0990 H   0  0  0  0  0  0  0  0  0  0  0  0
   -1.5319    2.6228    4.0720 H   0  0  0  0  0  0  0  0  0  0  0  0
    2.5501   -2.5984    3.8392 H   0  0  0  0  0  0  0  0  0  0  0  0
    4.1949   -2.7709    5.6727 H   0  0  0  0  0  0  0  0  0  0  0  0
    4.2322   -0.9777    5.6717 H   0  0  0  0  0  0  0  0  0  0  0  0
    4.8370   -1.8874    4.2420 H   0  0  0  0  0  0  0  0  0  0  0  0
    2.1688   -3.7317   -0.6373 H   0  0  0  0  0  0  0  0  0  0  0  0
    3.8005   -4.4171   -0.7284 H   0  0  0  0  0  0  0  0  0  0  0  0
    2.3690   -2.5810   -2.6793 H   0  0  0  0  0  0  0  0  0  0  0  0
    3.6834   -3.7314   -3.0357 H   0  0  0  0  0  0  0  0  0  0  0  0
    4.1816   -1.0330   -3.0101 H   0  0  0  0  0  0  0  0  0  0  0  0
    5.3630   -2.1432   -2.2631 H   0  0  0  0  0  0  0  0  0  0  0  0
   -1.4194    0.8567   -0.0220 H   0  0  0  0  0  0  0  0  0  0  0  0
   -3.5865    1.1582   -1.0898 H   0  0  0  0  0  0  0  0  0  0  0  0
   -4.9616    2.1014   -2.1562 H   0  0  0  0  0  0  0  0  0  0  0  0
   -9.0438    3.3127   -1.9418 H   0  0  0  0  0  0  0  0  0  0  0  0
  -10.1380    2.8828   -4.1538 H   0  0  0  0  0  0  0  0  0  0  0  0
   -8.7321    1.8852   -5.9968 H   0  0  0  0  0  0  0  0  0  0  0  0
   -6.3122    1.3726   -5.5360 H   0  0  0  0  0  0  0  0  0  0  0  0
   -1.7372    1.0031   -4.9797 H   0  0  0  0  0  0  0  0  0  0  0  0
    0.4981    0.7275   -3.8794 H   0  0  0  0  0  0  0  0  0  0  0  0
   -0.4931    3.0046   -0.4134 H   0  0  0  0  0  0  0  0  0  0  0  0
   -0.0279    4.1204    0.8250 H   0  0  0  0  0  0  0  0  0  0  0  0
    3.6220    2.4880    2.8345 H   0  0  0  0  0  0  0  0  0  0  0  0
    4.3048    0.4308    1.5284 H   0  0  0  0  0  0  0  0  0  0  0  0
  1 50  1  0  0  0  0
  2  1  1  0  0  0  0
  3  2  1  0  0  0  0
  4  3  1  0  0  0  0
  4  5  1  0  0  0  0
  5  6  1  1  0  0  0
  5 11  1  0  0  0  0
  7  5  1  0  0  0  0
  7 54  1  0  0  0  0
  8  9  1  0  0  0  0
  8  7  1  0  0  0  0
  9 56  1  0  0  0  0
  9 57  1  0  0  0  0
 10  8  2  0  0  0  0
 11 12  1  0  0  0  0
 11 14  2  0  0  0  0
 12 13  1  0  0  0  0
 13 60  1  0  0  0  0
 13 59  1  0  0  0  0
 15  2  2  0  0  0  0
 16 48  2  0  0  0  0
 16 15  1  0  0  0  0
 17 16  1  0  0  0  0
 18 63  1  0  0  0  0
 18 62  1  0  0  0  0
 18 17  1  0  0  0  0
 19 20  1  0  0  0  0
 19 18  1  0  0  0  0
 20 21  1  0  0  0  0
 21 23  1  0  0  0  0
 21 22  1  1  0  0  0
 21 17  1  0  0  0  0
 23 41  1  0  0  0  0
 24 25  1  0  0  0  0
 24 23  2  0  0  0  0
 25 42  2  0  0  0  0
 26 25  1  0  0  0  0
 26 27  1  0  0  0  0
 27 68  1  0  0  0  0
 28 27  2  0  0  0  0
 28 69  1  0  0  0  0
 29 28  1  0  0  0  0
 30 29  1  0  0  0  0
 30 31  1  0  0  0  0
 31 70  1  0  0  0  0
 32 31  1  0  0  0  0
 32 33  1  0  0  0  0
 34 33  2  0  0  0  0
 34 71  1  0  0  0  0
 35 34  1  0  0  0  0
 36 37  1  0  0  0  0
 36 35  2  0  0  0  0
 37 32  2  0  0  0  0
 38 30  2  0  0  0  0
 39 40  1  0  0  0  0
 39 29  2  0  0  0  0
 40 26  2  0  0  0  0
 41 47  1  0  0  0  0
 42 41  1  0  0  0  0
 42 43  1  0  0  0  0
 43 45  2  0  0  0  0
 44 43  1  0  0  0  0
 44 78  1  0  0  0  0
 45 46  1  0  0  0  0
 46 79  1  0  0  0  0
 47 80  1  0  0  0  0
 47 46  2  0  0  0  0
 49  1  1  0  0  0  0
 51  1  1  0  0  0  0
 52  4  1  0  0  0  0
 53  4  1  0  0  0  0
 55  9  1  0  0  0  0
 58 12  1  0  0  0  0
 61 13  1  0  0  0  0
 64 19  1  0  0  0  0
 65 19  1  0  0  0  0
 66 20  1  0  0  0  0
 67 20  1  0  0  0  0
 72 35  1  0  0  0  0
 73 36  1  0  0  0  0
 74 37  1  0  0  0  0
 75 39  1  0  0  0  0
 76 40  1  0  0  0  0
 77 44  1  0  0  0  0
M  END
