80
-1 1
C         5.081790   -6.264028    2.221147
C         5.536457   -4.983265    1.647346
S         3.288418   -3.948615    1.647370
C         3.574546   -2.173161    1.343781
C         3.419469   -1.311987    2.617982
H         2.608297   -1.772268    3.209722
N         3.108356    0.084186    2.392352
C         1.918339    0.569949    1.988987
C         1.712779    2.047589    2.286408
O         1.039514   -0.102722    1.464683
C         4.704778   -1.288568    3.472741
N         5.228614   -2.489373    3.747945
C         6.554832   -2.633755    4.297972
O         5.187175   -0.224744    3.854625
C         6.480810   -4.303148    1.192315
C         6.885970   -3.092122    0.545822
N         6.540235   -3.022280   -0.781834
C         5.896358   -4.091182   -1.538456
C         5.965667   -3.615608   -3.001382
C         6.962249   -2.448128   -2.988374
C         6.780004   -1.841175   -1.590880
H         7.682176   -1.333296   -1.221019
C         5.616626   -0.879211   -1.551490
N         4.579566   -0.915629   -2.369335
C         3.721336    0.059555   -1.985974
C         2.406627    0.228925   -2.625677
C         1.243206    0.336240   -1.847376
C         0.003338    0.503618   -2.458412
C        -0.107445    0.548951   -3.853298
C        -1.402183    0.727010   -4.588082
N        -2.443938    1.212697   -3.829563
C        -3.761078    1.464980   -4.206476
N        -4.499819    1.983370   -3.224260
C        -5.777326    2.258985   -3.466157
C        -6.390922    2.036960   -4.695440
C        -5.610028    1.496948   -5.717937
C        -4.273075    1.200998   -5.488799
O        -1.509665    0.477981   -5.773790
C         1.048859    0.384647   -4.627335
C         2.288052    0.227882   -4.023211
N         5.469452    0.119996   -0.635015
C         4.273163    0.760014   -0.915478
C         4.005923    1.983758   -0.201603
N         2.970677    2.775812   -0.604296
N         4.768983    2.389180    0.778431
C         5.844002    1.612257    1.124979
C         6.242116    0.504811    0.454701
O         7.510352   -2.174274    1.091125
H         4.272270   -6.696348    1.614765
H         4.692223   -6.127177    3.240591
H         5.926661   -6.970406    2.251228
H         2.838959   -1.817840    0.609067
H         4.577531   -2.023704    0.910034
H         3.777998    0.698242    2.856678
H         1.007784    2.467068    1.557824
H         2.658922    2.607763    2.279215
H         1.260305    2.134882    3.286856
H         4.796605   -3.286767    3.267918
H         6.633445   -3.599897    4.816478
H         6.740517   -1.821477    5.013533
H         7.312414   -2.588635    3.498056
H         4.861860   -4.253210   -1.197297
H         6.444864   -5.033094   -1.374024
H         4.984581   -3.245388   -3.324645
H         6.274739   -4.422168   -3.682031
H         6.782011   -1.722783   -3.793023
H         7.997294   -2.814718   -3.071689
H         1.290421    0.234680   -0.757736
H        -0.876952    0.543170   -1.811457
H        -2.264854    1.469151   -2.866178
H        -6.345038    2.681819   -2.629919
H        -7.444063    2.279311   -4.844832
H        -6.042290    1.303465   -6.702592
H        -3.621776    0.783798   -6.252707
H         0.948188    0.389002   -5.714031
H         3.188730    0.103818   -4.627207
H         2.230446    2.384038   -1.169632
H         2.731385    3.530831    0.023146
H         6.393438    1.913322    2.018284
H         7.045595   -0.171610    0.752477
