-1 1
 OpenBabel05232413493D

 80 83  0  0  1  0  0  0  0  0999 V2000
    3.4418   -5.6288    3.4644 C   0  0  0  0  0  0  0  0  0  0  0  0
    4.0391   -4.5779    2.6563 C   0  0  0  0  0  0  0  0  0  0  0  0
    0.5161   -3.2956    2.0994 S   0  0  0  0  0  1  0  0  0  0  0  0
    0.4656   -1.4765    1.8604 C   0  0  0  0  0  0  0  0  0  0  0  0
    0.3901   -0.6883    3.1818 C   0  0  2  0  0  0  0  0  0  0  0  0
   -0.3435   -1.2185    3.8179 H   0  0  0  0  0  0  0  0  0  0  0  0
    0.0002    0.7064    3.0552 N   0  0  0  0  0  0  0  0  0  0  0  0
   -1.1808    1.1979    2.6437 C   0  0  0  0  0  0  0  0  0  0  0  0
   -1.3901    2.6675    2.9879 C   0  0  0  0  0  0  0  0  0  0  0  0
   -2.0520    0.5576    2.0675 O   0  0  0  0  0  0  0  0  0  0  0  0
    1.7219   -0.6227    3.9626 C   0  0  0  0  0  0  0  0  0  0  0  0
    2.4489   -1.7437    3.9785 N   0  0  0  0  0  0  0  0  0  0  0  0
    3.7148   -1.8143    4.6620 C   0  0  0  0  0  0  0  0  0  0  0  0
    2.0617    0.4185    4.5284 O   0  0  0  0  0  0  0  0  0  0  0  0
    4.4219   -3.6556    1.9736 C   0  0  0  0  0  0  0  0  0  0  0  0
    4.6467   -2.4614    1.1707 C   0  0  0  0  0  0  0  0  0  0  0  0
    3.9187   -2.4273    0.0304 N   0  0  0  0  0  0  0  0  0  0  0  0
    3.1250   -3.5470   -0.4999 C   0  0  0  0  0  0  0  0  0  0  0  0
    2.9621   -3.2161   -1.9924 C   0  0  0  0  0  0  0  0  0  0  0  0
    3.9996   -2.1199   -2.2686 C   0  0  0  0  0  0  0  0  0  0  0  0
    4.0441   -1.3462   -0.9448 C   0  0  1  0  0  0  0  0  0  0  0  0
    4.9998   -0.8318   -0.7665 H   0  0  0  0  0  0  0  0  0  0  0  0
    2.9093   -0.3545   -0.8659 C   0  0  0  0  0  0  0  0  0  0  0  0
    1.8826   -0.3236   -1.6965 N   0  0  0  0  0  0  0  0  0  0  0  0
    1.0453    0.6521   -1.2758 C   0  0  0  0  0  0  0  0  0  0  0  0
   -0.2628    0.8767   -1.9139 C   0  0  0  0  0  0  0  0  0  0  0  0
   -1.4305    0.9322   -1.1384 C   0  0  0  0  0  0  0  0  0  0  0  0
   -2.6659    1.1510   -1.7414 C   0  0  0  0  0  0  0  0  0  0  0  0
   -2.7674    1.2999   -3.1296 C   0  0  0  0  0  0  0  0  0  0  0  0
   -4.0555    1.5401   -3.8589 C   0  0  0  0  0  0  0  0  0  0  0  0
   -5.1078    1.9503   -3.0715 N   0  0  0  0  0  0  0  0  0  0  0  0
   -6.4205    2.2353   -3.4402 C   0  0  0  0  0  0  0  0  0  0  0  0
   -7.1733    2.6577   -2.4233 N   0  0  0  0  0  0  0  0  0  0  0  0
   -8.4481    2.9535   -2.6546 C   0  0  0  0  0  0  0  0  0  0  0  0
   -9.0454    2.8482   -3.9073 C   0  0  0  0  0  0  0  0  0  0  0  0
   -8.2500    2.4084   -4.9659 C   0  0  0  0  0  0  0  0  0  0  0  0
   -6.9155    2.0934   -4.7483 C   0  0  0  0  0  0  0  0  0  0  0  0
   -4.1487    1.4004   -5.0638 O   0  0  0  0  0  0  0  0  0  0  0  0
   -1.6063    1.1891   -3.9062 C   0  0  0  0  0  0  0  0  0  0  0  0
   -0.3715    0.9815   -3.3080 C   0  0  0  0  0  0  0  0  0  0  0  0
    2.7830    0.6084    0.0912 N   0  0  0  0  0  0  0  0  0  0  0  0
    1.6006    1.2832   -0.1644 C   0  0  0  0  0  0  0  0  0  0  0  0
    1.3208    2.4448    0.6413 C   0  0  0  0  0  0  0  0  0  0  0  0
    0.2933    3.2674    0.2856 N   0  0  0  0  0  0  0  0  0  0  0  0
    2.0659    2.7677    1.6648 N   0  0  0  0  0  0  0  0  0  0  0  0
    3.1461    1.9778    1.9529 C   0  0  0  0  0  0  0  0  0  0  0  0
    3.5565    0.9269    1.2010 C   0  0  0  0  0  0  0  0  0  0  0  0
    5.4104   -1.5654    1.5214 O   0  0  0  0  0  0  0  0  0  0  0  0
    2.3589   -5.4249    3.5206 H   0  0  0  0  0  0  0  0  0  0  0  0
    3.8588   -5.6484    4.4821 H   0  0  0  0  0  0  0  0  0  0  0  0
    3.5873   -6.6177    3.0051 H   0  0  0  0  0  0  0  0  0  0  0  0
   -0.4289   -1.2108    1.2815 H   0  0  0  0  0  0  0  0  0  0  0  0
    1.3462   -1.1352    1.2909 H   0  0  0  0  0  0  0  0  0  0  0  0
    0.6400    1.3140    3.5680 H   0  0  0  0  0  0  0  0  0  0  0  0
   -1.9989    3.1368    2.2040 H   0  0  0  0  0  0  0  0  0  0  0  0
   -0.4420    3.2091    3.1192 H   0  0  0  0  0  0  0  0  0  0  0  0
   -1.9572    2.7236    3.9303 H   0  0  0  0  0  0  0  0  0  0  0  0
    2.0687   -2.5482    3.4386 H   0  0  0  0  0  0  0  0  0  0  0  0
    3.8442   -2.8123    5.1066 H   0  0  0  0  0  0  0  0  0  0  0  0
    3.7362   -1.0565    5.4570 H   0  0  0  0  0  0  0  0  0  0  0  0
    4.5610   -1.6305    3.9792 H   0  0  0  0  0  0  0  0  0  0  0  0
    2.1689   -3.6253    0.0484 H   0  0  0  0  0  0  0  0  0  0  0  0
    3.6829   -4.4830   -0.3451 H   0  0  0  0  0  0  0  0  0  0  0  0
    1.9577   -2.8189   -2.1871 H   0  0  0  0  0  0  0  0  0  0  0  0
    3.1104   -4.1025   -2.6255 H   0  0  0  0  0  0  0  0  0  0  0  0
    3.7309   -1.4815   -3.1194 H   0  0  0  0  0  0  0  0  0  0  0  0
    4.9954   -2.5548   -2.4488 H   0  0  0  0  0  0  0  0  0  0  0  0
   -1.3975    0.7574   -0.0585 H   0  0  0  0  0  0  0  0  0  0  0  0
   -3.5453    1.1500   -1.0920 H   0  0  0  0  0  0  0  0  0  0  0  0
   -4.9431    2.1107   -2.0850 H   0  0  0  0  0  0  0  0  0  0  0  0
   -9.0275    3.2943   -1.7894 H   0  0  0  0  0  0  0  0  0  0  0  0
  -10.0971    3.1024   -4.0467 H   0  0  0  0  0  0  0  0  0  0  0  0
   -8.6691    2.3083   -5.9700 H   0  0  0  0  0  0  0  0  0  0  0  0
   -6.2539    1.7507   -5.5398 H   0  0  0  0  0  0  0  0  0  0  0  0
   -1.7000    1.2761   -4.9900 H   0  0  0  0  0  0  0  0  0  0  0  0
    0.5321    0.8997   -3.9151 H   0  0  0  0  0  0  0  0  0  0  0  0
   -0.4432    2.9176   -0.3117 H   0  0  0  0  0  0  0  0  0  0  0  0
    0.0438    3.9677    0.9700 H   0  0  0  0  0  0  0  0  0  0  0  0
    3.6958    2.2224    2.8629 H   0  0  0  0  0  0  0  0  0  0  0  0
    4.4092    0.2825    1.4208 H   0  0  0  0  0  0  0  0  0  0  0  0
  1 49  1  0  0  0  0
  1 50  1  0  0  0  0
  2  1  1  0  0  0  0
  4  3  1  0  0  0  0
  4  5  1  0  0  0  0
  5  6  1  1  0  0  0
  5 11  1  0  0  0  0
  7  5  1  0  0  0  0
  7 54  1  0  0  0  0
  8  9  1  0  0  0  0
  8  7  1  0  0  0  0
  9 56  1  0  0  0  0
  9 57  1  0  0  0  0
 10  8  2  0  0  0  0
 11 12  1  0  0  0  0
 11 14  2  0  0  0  0
 12 13  1  0  0  0  0
 13 59  1  0  0  0  0
 13 60  1  0  0  0  0
 15  2  3  0  0  0  0
 16 48  2  0  0  0  0
 16 15  1  0  0  0  0
 17 16  1  0  0  0  0
 18 63  1  0  0  0  0
 18 17  1  0  0  0  0
 18 62  1  0  0  0  0
 19 18  1  0  0  0  0
 20 19  1  0  0  0  0
 20 21  1  0  0  0  0
 21 23  1  0  0  0  0
 21 22  1  1  0  0  0
 21 17  1  0  0  0  0
 23 41  1  0  0  0  0
 24 25  1  0  0  0  0
 24 23  2  0  0  0  0
 25 42  2  0  0  0  0
 26 25  1  0  0  0  0
 26 27  1  0  0  0  0
 27 68  1  0  0  0  0
 28 27  2  0  0  0  0
 28 69  1  0  0  0  0
 29 28  1  0  0  0  0
 30 29  1  0  0  0  0
 30 31  1  0  0  0  0
 31 70  1  0  0  0  0
 32 31  1  0  0  0  0
 32 33  1  0  0  0  0
 34 33  2  0  0  0  0
 34 71  1  0  0  0  0
 35 34  1  0  0  0  0
 36 37  1  0  0  0  0
 36 35  2  0  0  0  0
 37 32  2  0  0  0  0
 38 30  2  0  0  0  0
 39 40  1  0  0  0  0
 39 29  2  0  0  0  0
 40 26  2  0  0  0  0
 41 47  1  0  0  0  0
 42 41  1  0  0  0  0
 42 43  1  0  0  0  0
 43 45  2  0  0  0  0
 44 43  1  0  0  0  0
 44 78  1  0  0  0  0
 45 46  1  0  0  0  0
 46 79  1  0  0  0  0
 47 80  1  0  0  0  0
 47 46  2  0  0  0  0
 51  1  1  0  0  0  0
 52  4  1  0  0  0  0
 53  4  1  0  0  0  0
 55  9  1  0  0  0  0
 58 12  1  0  0  0  0
 61 13  1  0  0  0  0
 64 19  1  0  0  0  0
 65 19  1  0  0  0  0
 66 20  1  0  0  0  0
 67 20  1  0  0  0  0
 72 35  1  0  0  0  0
 73 36  1  0  0  0  0
 74 37  1  0  0  0  0
 75 39  1  0  0  0  0
 76 40  1  0  0  0  0
 77 44  1  0  0  0  0
M  END
