82
-1 1
O         9.092008   11.698789   -0.821607
C         8.571464   11.087270   -1.757463
N         7.530525   10.169379   -1.479575
C         7.048584   10.187551   -0.113872
C         5.716327    9.444132    0.013248
C         5.809430    8.008761   -0.530782
C         6.299649    8.095389   -1.976901
C         7.622451    8.829948   -2.047600
N         6.701823    7.243648    0.347964
C         6.362549    6.176252    1.112083
C         5.497049    5.139473    0.687887
C         5.216804    4.752704   -0.714161
C         6.320882    4.754409   -1.720942
C         7.683366    4.863284   -1.393850
C         8.660732    4.834705   -2.373982
C         8.298866    4.662396   -3.718591
O         9.320313    4.573829   -4.596711
C         9.082644    4.343597   -5.976624
C         8.814990    5.622363   -6.745388
C         6.944380    4.564061   -4.066079
C         5.977232    4.600037   -3.067506
O         4.117902    4.304001   -1.034417
C         4.975316    4.326636    1.745260
N         3.974982    3.453585    1.518917
C         3.459713    2.551300    2.522111
C         2.442919    3.199536    3.457221
N         5.493129    4.371842    2.985228
C         6.480725    5.235572    3.176506
N         6.913467    6.161907    2.344890
C         8.955128   11.289857   -3.138257
C         8.122895   11.091850   -4.240294
S         8.299272    9.128783   -5.513766
C        10.094417    8.873220   -5.492433
C        10.597557    7.905106   -4.411912
H         9.889477    7.063996   -4.335546
N        10.676045    8.571275   -3.131444
C        10.990633    7.886975   -2.013589
C        10.983450    8.670694   -0.717954
O        11.287846    6.695611   -2.037601
C        11.973381    7.353728   -4.810323
N        11.983869    6.006199   -5.022224
C        13.218218    5.308674   -5.266598
O        12.940012    8.069829   -4.989172
H         6.938846   11.230811    0.208632
H         7.804181    9.759407    0.582327
H         4.950995    9.984737   -0.565678
H         5.394687    9.431854    1.067155
H         4.820932    7.523394   -0.488942
H         5.544594    8.636579   -2.570284
H         6.415975    7.102412   -2.422528
H         7.954740    8.873918   -3.091777
H         8.374768    8.228772   -1.496281
H         7.408485    7.802519    0.815959
H         7.995519    4.970344   -0.355250
H         9.714990    4.973095   -2.124891
H         8.268024    3.608968   -6.094198
H        10.003023    3.863080   -6.340872
H         9.712975    6.254347   -6.743997
H         8.001303    6.216128   -6.303292
H         8.557010    5.388000   -7.789293
H         6.632854    4.474213   -5.106098
H         4.919863    4.521420   -3.325808
H         3.552133    3.512906    0.595548
H         4.304688    2.167270    3.112275
H         3.006049    1.696877    1.995854
H         2.919806    4.021451    4.010059
H         2.059960    2.466849    4.184567
H         1.589239    3.605716    2.893134
H         6.971405    5.197775    4.157881
H         9.874030   11.869972   -3.259032
H         8.318513   11.679472   -5.137838
H         7.064462   10.883086   -4.060381
H        10.622179    9.833949   -5.362358
H        10.402924    8.491165   -6.477471
H        10.318184    9.527245   -3.072229
H        10.386507    8.111626    0.016928
H        10.591251    9.693143   -0.804237
H        12.014321    8.709719   -0.336072
H        11.222702    5.490152   -4.589320
H        13.718636    5.008315   -4.329090
H        13.896796    5.979218   -5.809841
H        13.037846    4.407912   -5.872714
