-1 1
 OpenBabel05232414493D

 82 83  0  0  1  0  0  0  0  0999 V2000
    9.0920   11.6988   -0.8216 O   0  0  0  0  0  0  0  0  0  0  0  0
    8.5715   11.0873   -1.7575 C   0  0  0  0  0  0  0  0  0  0  0  0
    7.5305   10.1694   -1.4796 N   0  0  0  0  0  0  0  0  0  0  0  0
    7.0486   10.1876   -0.1139 C   0  0  0  0  0  0  0  0  0  0  0  0
    5.7163    9.4441    0.0132 C   0  0  0  0  0  0  0  0  0  0  0  0
    5.8094    8.0088   -0.5308 C   0  0  0  0  0  0  0  0  0  0  0  0
    6.2996    8.0954   -1.9769 C   0  0  0  0  0  0  0  0  0  0  0  0
    7.6225    8.8299   -2.0476 C   0  0  0  0  0  0  0  0  0  0  0  0
    6.7018    7.2436    0.3480 N   0  0  0  0  0  0  0  0  0  0  0  0
    6.3625    6.1763    1.1121 C   0  0  0  0  0  0  0  0  0  0  0  0
    5.4970    5.1395    0.6879 C   0  0  1  0  0  3  0  0  0  0  0  0
    5.2168    4.7527   -0.7142 C   0  0  0  0  0  0  0  0  0  0  0  0
    6.3209    4.7544   -1.7209 C   0  0  0  0  0  0  0  0  0  0  0  0
    7.6834    4.8633   -1.3939 C   0  0  0  0  0  0  0  0  0  0  0  0
    8.6607    4.8347   -2.3740 C   0  0  0  0  0  0  0  0  0  0  0  0
    8.2989    4.6624   -3.7186 C   0  0  0  0  0  0  0  0  0  0  0  0
    9.3203    4.5738   -4.5967 O   0  0  0  0  0  0  0  0  0  0  0  0
    9.0826    4.3436   -5.9766 C   0  0  0  0  0  0  0  0  0  0  0  0
    8.8150    5.6224   -6.7454 C   0  0  0  0  0  0  0  0  0  0  0  0
    6.9444    4.5641   -4.0661 C   0  0  0  0  0  0  0  0  0  0  0  0
    5.9772    4.6000   -3.0675 C   0  0  0  0  0  0  0  0  0  0  0  0
    4.1179    4.3040   -1.0344 O   0  0  0  0  0  0  0  0  0  0  0  0
    4.9753    4.3266    1.7453 C   0  0  1  0  0  3  0  0  0  0  0  0
    3.9750    3.4536    1.5189 N   0  0  0  0  0  0  0  0  0  0  0  0
    3.4597    2.5513    2.5221 C   0  0  0  0  0  0  0  0  0  0  0  0
    2.4429    3.1995    3.4572 C   0  0  0  0  0  0  0  0  0  0  0  0
    5.4931    4.3718    2.9852 N   0  0  0  0  0  0  0  0  0  0  0  0
    6.4807    5.2356    3.1765 C   0  0  0  0  0  0  0  0  0  0  0  0
    6.9135    6.1619    2.3449 N   0  0  0  0  0  0  0  0  0  0  0  0
    8.9551   11.2899   -3.1383 C   0  0  0  0  0  3  0  0  0  0  0  0
    8.1229   11.0919   -4.2403 C   0  0  0  0  0  3  0  0  0  0  0  0
    8.2993    9.1288   -5.5138 S   0  0  0  0  0  1  0  0  0  0  0  0
   10.0944    8.8732   -5.4924 C   0  0  0  0  0  0  0  0  0  0  0  0
   10.5976    7.9051   -4.4119 C   0  0  2  0  0  0  0  0  0  0  0  0
    9.8895    7.0640   -4.3355 H   0  0  0  0  0  0  0  0  0  0  0  0
   10.6760    8.5713   -3.1314 N   0  0  0  0  0  0  0  0  0  0  0  0
   10.9906    7.8870   -2.0136 C   0  0  0  0  0  0  0  0  0  0  0  0
   10.9834    8.6707   -0.7180 C   0  0  0  0  0  0  0  0  0  0  0  0
   11.2878    6.6956   -2.0376 O   0  0  0  0  0  0  0  0  0  0  0  0
   11.9734    7.3537   -4.8103 C   0  0  0  0  0  0  0  0  0  0  0  0
   11.9839    6.0062   -5.0222 N   0  0  0  0  0  0  0  0  0  0  0  0
   13.2182    5.3087   -5.2666 C   0  0  0  0  0  0  0  0  0  0  0  0
   12.9400    8.0698   -4.9892 O   0  0  0  0  0  0  0  0  0  0  0  0
    6.9388   11.2308    0.2086 H   0  0  0  0  0  0  0  0  0  0  0  0
    7.8042    9.7594    0.5823 H   0  0  0  0  0  0  0  0  0  0  0  0
    4.9510    9.9847   -0.5657 H   0  0  0  0  0  0  0  0  0  0  0  0
    5.3947    9.4319    1.0672 H   0  0  0  0  0  0  0  0  0  0  0  0
    4.8209    7.5234   -0.4889 H   0  0  0  0  0  0  0  0  0  0  0  0
    5.5446    8.6366   -2.5703 H   0  0  0  0  0  0  0  0  0  0  0  0
    6.4160    7.1024   -2.4225 H   0  0  0  0  0  0  0  0  0  0  0  0
    7.9547    8.8739   -3.0918 H   0  0  0  0  0  0  0  0  0  0  0  0
    8.3748    8.2288   -1.4963 H   0  0  0  0  0  0  0  0  0  0  0  0
    7.4085    7.8025    0.8160 H   0  0  0  0  0  0  0  0  0  0  0  0
    7.9955    4.9703   -0.3553 H   0  0  0  0  0  0  0  0  0  0  0  0
    9.7150    4.9731   -2.1249 H   0  0  0  0  0  0  0  0  0  0  0  0
    8.2680    3.6090   -6.0942 H   0  0  0  0  0  0  0  0  0  0  0  0
   10.0030    3.8631   -6.3409 H   0  0  0  0  0  0  0  0  0  0  0  0
    9.7130    6.2543   -6.7440 H   0  0  0  0  0  0  0  0  0  0  0  0
    8.0013    6.2161   -6.3033 H   0  0  0  0  0  0  0  0  0  0  0  0
    8.5570    5.3880   -7.7893 H   0  0  0  0  0  0  0  0  0  0  0  0
    6.6329    4.4742   -5.1061 H   0  0  0  0  0  0  0  0  0  0  0  0
    4.9199    4.5214   -3.3258 H   0  0  0  0  0  0  0  0  0  0  0  0
    3.5521    3.5129    0.5955 H   0  0  0  0  0  0  0  0  0  0  0  0
    4.3047    2.1673    3.1123 H   0  0  0  0  0  0  0  0  0  0  0  0
    3.0060    1.6969    1.9959 H   0  0  0  0  0  0  0  0  0  0  0  0
    2.9198    4.0215    4.0101 H   0  0  0  0  0  0  0  0  0  0  0  0
    2.0600    2.4668    4.1846 H   0  0  0  0  0  0  0  0  0  0  0  0
    1.5892    3.6057    2.8931 H   0  0  0  0  0  0  0  0  0  0  0  0
    6.9714    5.1978    4.1579 H   0  0  0  0  0  0  0  0  0  0  0  0
    9.8740   11.8700   -3.2590 H   0  0  0  0  0  0  0  0  0  0  0  0
    8.3185   11.6795   -5.1378 H   0  0  0  0  0  0  0  0  0  0  0  0
    7.0645   10.8831   -4.0604 H   0  0  0  0  0  0  0  0  0  0  0  0
   10.6222    9.8339   -5.3624 H   0  0  0  0  0  0  0  0  0  0  0  0
   10.4029    8.4912   -6.4775 H   0  0  0  0  0  0  0  0  0  0  0  0
   10.3182    9.5272   -3.0722 H   0  0  0  0  0  0  0  0  0  0  0  0
   10.3865    8.1116    0.0169 H   0  0  0  0  0  0  0  0  0  0  0  0
   10.5913    9.6931   -0.8042 H   0  0  0  0  0  0  0  0  0  0  0  0
   12.0143    8.7097   -0.3361 H   0  0  0  0  0  0  0  0  0  0  0  0
   11.2227    5.4902   -4.5893 H   0  0  0  0  0  0  0  0  0  0  0  0
   13.7186    5.0083   -4.3291 H   0  0  0  0  0  0  0  0  0  0  0  0
   13.8968    5.9792   -5.8098 H   0  0  0  0  0  0  0  0  0  0  0  0
   13.0378    4.4079   -5.8727 H   0  0  0  0  0  0  0  0  0  0  0  0
  2  3  1  0  0  0  0
  2  1  2  0  0  0  0
  3  4  1  0  0  0  0
  4  5  1  0  0  0  0
  4 44  1  0  0  0  0
  4 45  1  0  0  0  0
  5 47  1  0  0  0  0
  6 48  1  0  0  0  0
  6  5  1  0  0  0  0
  6  9  1  0  0  0  0
  7  6  1  0  0  0  0
  8  7  1  0  0  0  0
  8 52  1  0  0  0  0
  8  3  1  0  0  0  0
  9 53  1  0  0  0  0
  9 10  1  0  0  0  0
 10 29  2  0  0  0  0
 11 12  1  6  0  0  0
 11 10  1  0  0  0  0
 11 23  1  0  0  0  0
 13 14  1  0  0  0  0
 13 12  1  0  0  0  0
 14 54  1  0  0  0  0
 15 55  1  0  0  0  0
 15 14  2  0  0  0  0
 16 15  1  0  0  0  0
 17 16  1  0  0  0  0
 18 17  1  0  0  0  0
 19 58  1  0  0  0  0
 19 59  1  0  0  0  0
 19 18  1  0  0  0  0
 20 16  2  0  0  0  0
 20 21  1  0  0  0  0
 21 13  2  0  0  0  0
 22 12  2  0  0  0  0
 23 24  1  6  0  0  0
 23 27  1  0  0  0  0
 24 25  1  0  0  0  0
 25 64  1  0  0  0  0
 25 26  1  0  0  0  0
 26 66  1  0  0  0  0
 26 67  1  0  0  0  0
 27 28  2  0  0  0  0
 28 69  1  0  0  0  0
 29 28  1  0  0  0  0
 30  2  1  0  0  0  0
 31 72  1  0  0  0  0
 31 30  1  0  0  0  0
 32 33  1  0  0  0  0
 33 73  1  0  0  0  0
 33 34  1  0  0  0  0
 34 35  1  1  0  0  0
 34 36  1  0  0  0  0
 36 75  1  0  0  0  0
 36 37  1  0  0  0  0
 37 38  1  0  0  0  0
 38 78  1  0  0  0  0
 38 76  1  0  0  0  0
 39 37  2  0  0  0  0
 40 34  1  0  0  0  0
 41 40  1  0  0  0  0
 41 79  1  0  0  0  0
 42 41  1  0  0  0  0
 42 80  1  0  0  0  0
 43 40  2  0  0  0  0
 46  5  1  0  0  0  0
 49  7  1  0  0  0  0
 50  7  1  0  0  0  0
 51  8  1  0  0  0  0
 56 18  1  0  0  0  0
 57 18  1  0  0  0  0
 60 19  1  0  0  0  0
 61 20  1  0  0  0  0
 62 21  1  0  0  0  0
 63 24  1  0  0  0  0
 65 25  1  0  0  0  0
 68 26  1  0  0  0  0
 70 30  1  0  0  0  0
 71 31  1  0  0  0  0
 74 33  1  0  0  0  0
 77 38  1  0  0  0  0
 81 42  1  0  0  0  0
 82 42  1  0  0  0  0
M  END
