-1 1
 OpenBabel05192410563D

 82 84  0  0  1  0  0  0  0  0999 V2000
   -1.0920   -1.1157    3.9150 O   0  0  0  0  0  0  0  0  0  0  0  0
   -0.4010   -0.9439    2.8966 C   0  0  0  0  0  0  0  0  0  0  0  0
   -0.9896   -0.1759    1.8112 N   0  0  0  0  0  0  0  0  0  0  0  0
   -0.3507    1.1016    1.5250 C   0  0  0  0  0  0  0  0  0  0  0  0
   -0.8357    1.6667    0.1961 C   0  0  0  0  0  0  0  0  0  0  0  0
   -2.3607    1.7340    0.1288 C   0  0  0  0  0  0  0  0  0  0  0  0
   -2.9796    0.3895    0.5370 C   0  0  2  0  0  0  0  0  0  0  0  0
   -4.0728    0.4694    0.5760 H   0  0  0  0  0  0  0  0  0  0  0  0
   -2.4295   -0.0389    1.8998 C   0  0  0  0  0  0  0  0  0  0  0  0
   -2.6603   -0.6423   -0.4378 N   0  0  0  0  0  0  0  0  0  0  0  0
   -3.5005   -1.1851   -1.3283 C   0  0  0  0  0  0  0  0  0  0  0  0
   -3.0613   -2.1567   -2.2833 C   0  0  0  0  0  0  0  0  0  0  0  0
   -1.6616   -2.3722   -2.6742 C   0  0  0  0  0  0  0  0  0  0  0  0
   -0.7320   -1.1976   -2.6827 C   0  0  0  0  0  0  0  0  0  0  0  0
   -1.1472    0.0509   -3.1721 C   0  0  0  0  0  0  0  0  0  0  0  0
   -0.2652    1.1158   -3.2341 C   0  0  0  0  0  0  0  0  0  0  0  0
    1.0496    0.9771   -2.7568 C   0  0  0  0  0  0  0  0  0  0  0  0
    1.8055    2.0841   -2.7656 O   0  0  0  0  0  0  0  0  0  0  0  0
    3.0397    2.0905   -2.0559 C   0  0  0  0  0  0  0  0  0  0  0  0
    3.5719    3.5037   -2.0415 C   0  0  0  0  0  0  0  0  0  0  0  0
    1.4806   -0.2717   -2.2887 C   0  0  0  0  0  0  0  0  0  0  0  0
    0.5951   -1.3472   -2.2772 C   0  0  0  0  0  0  0  0  0  0  0  0
   -1.2506   -3.4571   -3.0831 O   0  0  0  0  0  0  0  0  0  0  0  0
   -4.1038   -2.9196   -2.8898 C   0  0  0  0  0  0  0  0  0  0  0  0
   -3.8233   -4.0155   -3.6193 N   0  0  0  0  0  0  0  0  0  0  0  0
   -4.8104   -4.7379   -4.3871 C   0  0  0  0  0  0  0  0  0  0  0  0
   -5.1442   -4.0769   -5.7214 C   0  0  0  0  0  0  0  0  0  0  0  0
   -5.3979   -2.5583   -2.7805 N   0  0  0  0  0  0  0  0  0  0  0  0
   -5.6422   -1.5040   -2.0174 C   0  0  0  0  0  0  0  0  0  0  0  0
   -4.7996   -0.8209   -1.2667 N   0  0  0  0  0  0  0  0  0  0  0  0
    0.9212   -1.4003    2.7113 C   0  0  0  0  0  3  0  0  0  0  0  0
    1.5908   -1.5498    1.4045 C   0  0  0  0  0  0  0  0  0  0  0  0
    2.9869   -0.3381    0.9151 S   0  0  0  0  0  0  0  0  0  0  0  0
    3.6774    0.1806    2.5074 C   0  0  0  0  0  0  0  0  0  0  0  0
    3.3292    1.6360    2.9211 C   0  0  2  0  0  0  0  0  0  0  0  0
    2.6085    2.0274    2.1821 H   0  0  0  0  0  0  0  0  0  0  0  0
    4.4758    2.5112    2.9719 N   0  0  0  0  0  0  0  0  0  0  0  0
    5.1492    2.9274    1.8816 C   0  0  0  0  0  0  0  0  0  0  0  0
    6.2363    3.9563    2.1387 C   0  0  0  0  0  0  0  0  0  0  0  0
    4.9228    2.5178    0.7522 O   0  0  0  0  0  0  0  0  0  0  0  0
    2.6602    1.7551    4.3091 C   0  0  0  0  0  0  0  0  0  0  0  0
    1.6083    0.9568    4.5020 N   0  0  0  0  0  0  0  0  0  0  0  0
    0.8405    0.9614    5.7251 C   0  0  0  0  0  0  0  0  0  0  0  0
    3.0771    2.5651    5.1341 O   0  0  0  0  0  0  0  0  0  0  0  0
    0.7366    0.9619    1.4785 H   0  0  0  0  0  0  0  0  0  0  0  0
   -0.5589    1.8281    2.3440 H   0  0  0  0  0  0  0  0  0  0  0  0
   -0.4620    1.0161   -0.6068 H   0  0  0  0  0  0  0  0  0  0  0  0
   -0.3916    2.6598    0.0220 H   0  0  0  0  0  0  0  0  0  0  0  0
   -2.7019    2.0130   -0.8813 H   0  0  0  0  0  0  0  0  0  0  0  0
   -2.7328    2.5050    0.8260 H   0  0  0  0  0  0  0  0  0  0  0  0
   -2.8613   -0.9984    2.2107 H   0  0  0  0  0  0  0  0  0  0  0  0
   -2.7318    0.7074    2.6640 H   0  0  0  0  0  0  0  0  0  0  0  0
   -1.7076   -0.9870   -0.3784 H   0  0  0  0  0  0  0  0  0  0  0  0
   -2.1798    0.1826   -3.5049 H   0  0  0  0  0  0  0  0  0  0  0  0
   -0.5799    2.0935   -3.6027 H   0  0  0  0  0  0  0  0  0  0  0  0
    3.7567    1.4091   -2.5483 H   0  0  0  0  0  0  0  0  0  0  0  0
    2.8886    1.7236   -1.0272 H   0  0  0  0  0  0  0  0  0  0  0  0
    3.7840    3.8633   -3.0600 H   0  0  0  0  0  0  0  0  0  0  0  0
    4.4866    3.5288   -1.4342 H   0  0  0  0  0  0  0  0  0  0  0  0
    2.8363    4.1795   -1.5805 H   0  0  0  0  0  0  0  0  0  0  0  0
    2.4914   -0.4069   -1.9053 H   0  0  0  0  0  0  0  0  0  0  0  0
    0.9341   -2.3215   -1.9185 H   0  0  0  0  0  0  0  0  0  0  0  0
   -2.8361   -4.2666   -3.6500 H   0  0  0  0  0  0  0  0  0  0  0  0
   -5.7263   -4.8276   -3.7848 H   0  0  0  0  0  0  0  0  0  0  0  0
   -4.4193   -5.7541   -4.5499 H   0  0  0  0  0  0  0  0  0  0  0  0
   -5.5717   -3.0795   -5.5439 H   0  0  0  0  0  0  0  0  0  0  0  0
   -5.8808   -4.6749   -6.2803 H   0  0  0  0  0  0  0  0  0  0  0  0
   -4.2430   -3.9657   -6.3437 H   0  0  0  0  0  0  0  0  0  0  0  0
   -6.6878   -1.1676   -1.9890 H   0  0  0  0  0  0  0  0  0  0  0  0
    1.2831   -2.0231    3.5355 H   0  0  0  0  0  0  0  0  0  0  0  0
    0.8910   -1.4067    0.5666 H   0  0  0  0  0  0  0  0  0  0  0  0
    2.0608   -2.5380    1.2959 H   0  0  0  0  0  0  0  0  0  0  0  0
    4.7701    0.0871    2.4536 H   0  0  0  0  0  0  0  0  0  0  0  0
    3.3160   -0.5350    3.2603 H   0  0  0  0  0  0  0  0  0  0  0  0
    4.5797    2.9658    3.8783 H   0  0  0  0  0  0  0  0  0  0  0  0
    6.3874    4.1792    3.2037 H   0  0  0  0  0  0  0  0  0  0  0  0
    5.9721    4.8831    1.6092 H   0  0  0  0  0  0  0  0  0  0  0  0
    7.1764    3.5870    1.7059 H   0  0  0  0  0  0  0  0  0  0  0  0
    1.3797    0.2252    3.8002 H   0  0  0  0  0  0  0  0  0  0  0  0
    0.5020    1.9806    5.9684 H   0  0  0  0  0  0  0  0  0  0  0  0
    1.4342    0.5963    6.5800 H   0  0  0  0  0  0  0  0  0  0  0  0
   -0.0262    0.3052    5.5702 H   0  0  0  0  0  0  0  0  0  0  0  0
  2  1  2  0  0  0  0
  3  9  1  0  0  0  0
  3  2  1  0  0  0  0
  4  3  1  0  0  0  0
  4 46  1  0  0  0  0
  5  4  1  0  0  0  0
  6  5  1  0  0  0  0
  6  7  1  0  0  0  0
  6 50  1  0  0  0  0
  7  8  1  1  0  0  0
  7  9  1  0  0  0  0
  9 51  1  0  0  0  0
  9 52  1  0  0  0  0
 10 53  1  0  0  0  0
 10  7  1  0  0  0  0
 11 30  2  0  0  0  0
 11 10  1  0  0  0  0
 12 11  1  0  0  0  0
 13 12  1  0  0  0  0
 14 13  1  0  0  0  0
 14 22  1  0  0  0  0
 15 14  2  0  0  0  0
 16 15  1  0  0  0  0
 16 17  2  0  0  0  0
 17 21  1  0  0  0  0
 18 17  1  0  0  0  0
 18 19  1  0  0  0  0
 19 20  1  0  0  0  0
 19 57  1  0  0  0  0
 20 60  1  0  0  0  0
 20 59  1  0  0  0  0
 21 22  2  0  0  0  0
 21 61  1  0  0  0  0
 22 62  1  0  0  0  0
 23 13  2  0  0  0  0
 24 28  1  0  0  0  0
 24 12  2  0  0  0  0
 25 24  1  0  0  0  0
 26 64  1  0  0  0  0
 26 25  1  0  0  0  0
 27 66  1  0  0  0  0
 27 26  1  0  0  0  0
 28 29  2  0  0  0  0
 29 69  1  0  0  0  0
 29 30  1  0  0  0  0
 31  2  1  0  0  0  0
 31 70  1  0  0  0  0
 32 31  1  0  0  0  0
 33 32  1  0  0  0  0
 33 34  1  0  0  0  0
 34 35  1  0  0  0  0
 34 74  1  0  0  0  0
 35 36  1  6  0  0  0
 35 37  1  0  0  0  0
 35 41  1  0  0  0  0
 37 75  1  0  0  0  0
 38 39  1  0  0  0  0
 38 37  1  0  0  0  0
 39 76  1  0  0  0  0
 40 38  2  0  0  0  0
 41 42  1  0  0  0  0
 41 44  2  0  0  0  0
 42 43  1  0  0  0  0
 43 80  1  0  0  0  0
 43 81  1  0  0  0  0
 45  4  1  0  0  0  0
 47  5  1  0  0  0  0
 48  5  1  0  0  0  0
 49  6  1  0  0  0  0
 54 15  1  0  0  0  0
 55 16  1  0  0  0  0
 56 19  1  0  0  0  0
 58 20  1  0  0  0  0
 63 25  1  0  0  0  0
 65 26  1  0  0  0  0
 67 27  1  0  0  0  0
 68 27  1  0  0  0  0
 71 32  1  0  0  0  0
 72 32  1  0  0  0  0
 73 34  1  0  0  0  0
 77 39  1  0  0  0  0
 78 39  1  0  0  0  0
 79 42  1  0  0  0  0
 82 43  1  0  0  0  0
M  END
