82
-1 1
O         6.621945  -10.758979    1.291826
C         6.985146  -10.095023    0.314346
N         5.968277   -9.426815   -0.458014
C         6.050097   -7.982757   -0.612540
C         5.203343   -7.515681   -1.792792
C         3.764726   -8.017866   -1.676839
C         3.727261   -9.522967   -1.381970
H         2.692868   -9.827001   -1.178859
C         4.612914   -9.849597   -0.179600
N         4.192412  -10.310318   -2.516449
C         3.388633  -10.853818   -3.444027
C         3.868161  -11.701796   -4.492768
C         5.278487  -11.864334   -4.884093
C         6.215108  -10.700064   -4.828967
C         5.786869   -9.379786   -5.041919
C         6.700190   -8.342969   -5.121231
C         8.075487   -8.592240   -4.974374
O         8.881335   -7.526451   -5.047411
C        10.276210   -7.683613   -4.845078
C        10.900660   -6.309016   -4.809736
C         8.514531   -9.908688   -4.770993
C         7.586599  -10.942256   -4.710879
O         5.698431  -12.919438   -5.359309
C         2.856931  -12.454274   -5.168151
N         3.176285  -13.455244   -6.009309
C         2.208651  -14.159398   -6.818444
C         1.785403  -13.389398   -8.065893
N         1.545607  -12.182327   -5.010984
C         1.250710  -11.248147   -4.123343
N         2.067294  -10.602164   -3.314256
C         8.333638   -9.996596   -0.133629
C         8.766747   -9.459360   -1.363991
S         9.536861   -7.426193   -1.358255
C        10.945924   -7.717225   -0.246437
C        11.033107   -6.729500    0.936558
H        10.774870   -5.725140    0.557652
N        12.356154   -6.695281    1.515742
C        13.417495   -6.099101    0.930389
C        14.688888   -6.083624    1.764991
O        13.391017   -5.611785   -0.187671
C        10.084552   -7.082823    2.101807
N         8.795596   -7.244075    1.769424
C         7.797902   -7.708673    2.705191
O        10.524238   -7.195798    3.242343
H         7.091998   -7.674685   -0.758604
H         5.691076   -7.481522    0.315857
H         5.660007   -7.898976   -2.718104
H         5.227635   -6.416107   -1.856722
H         3.183039   -7.807623   -2.588401
H         3.258227   -7.499179   -0.843724
H         4.609706  -10.925683    0.032483
H         4.197745   -9.347559    0.719590
H         5.194815  -10.469879   -2.547556
H         4.721880   -9.166984   -5.159161
H         6.378317   -7.314008   -5.287587
H        10.695746   -8.298932   -5.663523
H        10.451411   -8.189637   -3.881198
H        10.682687   -5.750924   -5.732463
H        11.990930   -6.397447   -4.697603
H        10.514437   -5.751625   -3.944691
H         9.572876  -10.130523   -4.641809
H         7.924182  -11.970271   -4.567625
H         4.169241  -13.676922   -6.053713
H         1.321810  -14.375060   -6.204349
H         2.659772  -15.123675   -7.098866
H         1.301471  -12.446800   -7.772475
H         1.068985  -13.975918   -8.661985
H         2.654649  -13.154884   -8.699202
H         0.186583  -10.989767   -4.034840
H         9.058342  -10.468596    0.534134
H         8.003287   -9.297553   -2.132679
H         9.682829   -9.884661   -1.788082
H        11.877098   -7.616186   -0.818963
H        10.883568   -8.747279    0.145164
H        12.363811   -6.958848    2.499111
H        14.573499   -6.546391    2.754691
H        15.014951   -5.040806    1.885462
H        15.477256   -6.610912    1.209172
H         8.585665   -7.260944    0.768448
H         6.922299   -7.040136    2.698046
H         8.239444   -7.704282    3.709313
H         7.463206   -8.728858    2.460627
