-1 1
 OpenBabel05232414493D

 82 84  0  0  1  0  0  0  0  0999 V2000
    6.3852   -7.1812   -0.7352 O   0  0  0  0  0  0  0  0  0  0  0  0
    5.4765   -7.7738   -0.1162 C   0  0  0  0  0  0  0  0  0  0  0  0
    5.8562   -8.7206    0.8349 N   0  0  0  0  0  0  0  0  0  0  0  0
    4.9495   -9.2501    1.8346 C   0  0  0  0  0  0  0  0  0  0  0  0
    5.7026   -9.7260    3.0728 C   0  0  0  0  0  0  0  0  0  0  0  0
    6.6932  -10.8300    2.6863 C   0  0  1  0  0  0  0  0  0  0  0  0
    7.5306  -10.4043    1.4515 C   0  0  0  0  0  0  0  0  0  0  0  0
    7.2723   -8.9595    1.0430 C   0  0  0  0  0  0  0  0  0  0  0  0
    7.4822  -11.3068    3.8203 N   0  0  0  0  0  0  0  0  0  0  0  0
    8.4441  -10.6361    4.4597 C   0  0  0  0  0  0  0  0  0  0  0  0
    9.2515  -11.2751    5.4677 C   0  0  1  0  0  3  0  0  0  0  0  0
    9.3053  -12.7433    5.5188 C   0  0  0  0  0  0  0  0  0  0  0  0
   10.6049  -13.4267    5.8331 C   0  0  0  0  0  0  0  0  0  0  0  0
   10.5604  -14.7329    6.3219 C   0  0  0  0  0  0  0  0  0  0  0  0
   11.7230  -15.4365    6.6279 C   0  0  0  0  0  0  0  0  0  0  0  0
   12.9689  -14.8306    6.4217 C   0  0  0  0  0  0  0  0  0  0  0  0
   14.1533  -15.4176    6.6837 O   0  0  0  0  0  0  0  0  0  0  0  0
   14.1824  -16.7375    7.1764 C   0  0  0  0  0  0  0  0  0  0  0  0
   15.6295  -17.1386    7.3591 C   0  0  0  0  0  0  0  0  0  0  0  0
   13.0257  -13.5289    5.8999 C   0  0  0  0  0  0  0  0  0  0  0  0
   11.8597  -12.8396    5.6100 C   0  0  0  0  0  0  0  0  0  0  0  0
    8.3397  -13.4443    5.2255 O   0  0  0  0  0  0  0  0  0  0  0  0
   10.0478  -10.3888    6.2448 C   0  0  2  0  0  3  0  0  0  0  0  0
   10.5895  -10.7414    7.4503 N   0  0  0  0  0  0  0  0  0  0  0  0
   11.6390   -9.9441    8.0451 C   0  0  0  0  0  0  0  0  0  0  0  0
   10.0486  -11.7684    8.3079 C   0  0  0  0  0  0  0  0  0  0  0  0
   10.2893   -9.1347    5.8335 N   0  0  0  0  0  0  0  0  0  0  0  0
    9.6287   -8.7219    4.7609 C   0  0  0  0  0  0  0  0  0  0  0  0
    8.6795   -9.3569    4.1046 N   0  0  0  0  0  0  0  0  0  0  0  0
    4.0820   -7.4907   -0.3486 C   0  0  0  0  0  3  0  0  0  0  0  0
    3.0095   -8.4074   -0.3967 C   0  0  0  0  0  0  0  0  0  0  0  0
    2.9793   -9.6723   -2.1956 S   0  0  0  0  0  0  0  0  0  0  0  0
    3.7065   -8.4392   -3.3027 C   0  0  0  0  0  0  0  0  0  0  0  0
    4.6154   -9.0169   -4.3860 C   0  0  2  0  0  0  0  0  0  0  0  0
    4.9539   -8.1954   -5.0388 H   0  0  0  0  0  0  0  0  0  0  0  0
    3.8935   -9.9348   -5.2306 N   0  0  0  0  0  0  0  0  0  0  0  0
    4.1799  -10.0874   -6.5489 C   0  0  0  0  0  0  0  0  0  0  0  0
    3.6289  -11.3631   -7.1619 C   0  0  0  0  0  0  0  0  0  0  0  0
    4.8209   -9.2833   -7.2015 O   0  0  0  0  0  0  0  0  0  0  0  0
    5.9010   -9.7073   -3.8781 C   0  0  0  0  0  0  0  0  0  0  0  0
    6.6487   -9.0140   -2.9908 N   0  0  0  0  0  0  0  0  0  0  0  0
    7.8821   -9.5738   -2.5038 C   0  0  0  0  0  0  0  0  0  0  0  0
    6.2543  -10.7839   -4.3344 O   0  0  0  0  0  0  0  0  0  0  0  0
    4.3706  -10.1069    1.4372 H   0  0  0  0  0  0  0  0  0  0  0  0
    4.2154   -8.4734    2.1050 H   0  0  0  0  0  0  0  0  0  0  0  0
    4.9846  -10.1142    3.8121 H   0  0  0  0  0  0  0  0  0  0  0  0
    6.2453   -8.8929    3.5406 H   0  0  0  0  0  0  0  0  0  0  0  0
    6.0936  -11.7070    2.3982 H   0  0  0  0  0  0  0  0  0  0  0  0
    7.2781  -11.0615    0.6049 H   0  0  0  0  0  0  0  0  0  0  0  0
    8.6021  -10.5365    1.6583 H   0  0  0  0  0  0  0  0  0  0  0  0
    7.7866   -8.7180    0.1084 H   0  0  0  0  0  0  0  0  0  0  0  0
    7.6890   -8.2860    1.8138 H   0  0  0  0  0  0  0  0  0  0  0  0
    7.3370  -12.2553    4.1573 H   0  0  0  0  0  0  0  0  0  0  0  0
    9.5832  -15.1988    6.4637 H   0  0  0  0  0  0  0  0  0  0  0  0
   11.6453  -16.4512    7.0180 H   0  0  0  0  0  0  0  0  0  0  0  0
   13.6758  -17.4180    6.4674 H   0  0  0  0  0  0  0  0  0  0  0  0
   13.6377  -16.7960    8.1372 H   0  0  0  0  0  0  0  0  0  0  0  0
   16.1669  -17.0895    6.4014 H   0  0  0  0  0  0  0  0  0  0  0  0
   15.6934  -18.1664    7.7442 H   0  0  0  0  0  0  0  0  0  0  0  0
   16.1297  -16.4662    8.0705 H   0  0  0  0  0  0  0  0  0  0  0  0
   14.0063  -13.0855    5.7196 H   0  0  0  0  0  0  0  0  0  0  0  0
   11.9247  -11.8358    5.1861 H   0  0  0  0  0  0  0  0  0  0  0  0
   12.0537   -9.2629    7.2959 H   0  0  0  0  0  0  0  0  0  0  0  0
   12.4311  -10.6095    8.4274 H   0  0  0  0  0  0  0  0  0  0  0  0
   11.2584   -9.3370    8.8860 H   0  0  0  0  0  0  0  0  0  0  0  0
   10.7132  -12.6456    8.3840 H   0  0  0  0  0  0  0  0  0  0  0  0
    9.0709  -12.1056    7.9423 H   0  0  0  0  0  0  0  0  0  0  0  0
    9.9061  -11.3529    9.3204 H   0  0  0  0  0  0  0  0  0  0  0  0
    9.8769   -7.7165    4.3979 H   0  0  0  0  0  0  0  0  0  0  0  0
    3.9579   -6.5538   -0.8999 H   0  0  0  0  0  0  0  0  0  0  0  0
    2.0182   -7.9671   -0.5367 H   0  0  0  0  0  0  0  0  0  0  0  0
    2.9775   -9.2593    0.2847 H   0  0  0  0  0  0  0  0  0  0  0  0
    4.2752   -7.7362   -2.6670 H   0  0  0  0  0  0  0  0  0  0  0  0
    2.9177   -7.8557   -3.8030 H   0  0  0  0  0  0  0  0  0  0  0  0
    3.4790  -10.7165   -4.7339 H   0  0  0  0  0  0  0  0  0  0  0  0
    4.3201  -12.1852   -6.9202 H   0  0  0  0  0  0  0  0  0  0  0  0
    3.5784  -11.2470   -8.2513 H   0  0  0  0  0  0  0  0  0  0  0  0
    2.6365  -11.6198   -6.7632 H   0  0  0  0  0  0  0  0  0  0  0  0
    6.2913   -8.2112   -2.4678 H   0  0  0  0  0  0  0  0  0  0  0  0
    8.4313  -10.0442   -3.3317 H   0  0  0  0  0  0  0  0  0  0  0  0
    7.7148  -10.3485   -1.7346 H   0  0  0  0  0  0  0  0  0  0  0  0
    8.4878   -8.7696   -2.0659 H   0  0  0  0  0  0  0  0  0  0  0  0
  1  2  2  0  0  0  0
  2  3  1  0  0  0  0
  3  8  1  0  0  0  0
  3  4  1  0  0  0  0
  4 45  1  0  0  0  0
  4  5  1  0  0  0  0
  5 47  1  0  0  0  0
  5 46  1  0  0  0  0
  6 48  1  6  0  0  0
  6  5  1  0  0  0  0
  6  9  1  0  0  0  0
  7 50  1  0  0  0  0
  7  6  1  0  0  0  0
  8  7  1  0  0  0  0
  8 52  1  0  0  0  0
  9 53  1  0  0  0  0
  9 10  1  0  0  0  0
 10 11  1  0  0  0  0
 11 12  1  6  0  0  0
 11 23  1  0  0  0  0
 12 13  1  0  0  0  0
 13 14  1  0  0  0  0
 14 54  1  0  0  0  0
 14 15  2  0  0  0  0
 15 55  1  0  0  0  0
 16 15  1  0  0  0  0
 16 17  1  0  0  0  0
 17 18  1  0  0  0  0
 18 19  1  0  0  0  0
 18 57  1  0  0  0  0
 19 59  1  0  0  0  0
 19 60  1  0  0  0  0
 20 16  2  0  0  0  0
 21 13  2  0  0  0  0
 21 20  1  0  0  0  0
 22 12  2  0  0  0  0
 23 24  1  1  0  0  0
 24 25  1  0  0  0  0
 24 26  1  0  0  0  0
 25 64  1  0  0  0  0
 25 65  1  0  0  0  0
 26 66  1  0  0  0  0
 26 68  1  0  0  0  0
 27 23  1  0  0  0  0
 28 27  2  0  0  0  0
 29 10  2  0  0  0  0
 29 28  1  0  0  0  0
 30  2  1  0  0  0  0
 31 30  1  0  0  0  0
 31 72  1  0  0  0  0
 32 31  1  0  0  0  0
 33 73  1  0  0  0  0
 33 32  1  0  0  0  0
 34 35  1  6  0  0  0
 34 40  1  0  0  0  0
 34 33  1  0  0  0  0
 36 75  1  0  0  0  0
 36 34  1  0  0  0  0
 37 36  1  0  0  0  0
 38 76  1  0  0  0  0
 38 78  1  0  0  0  0
 38 37  1  0  0  0  0
 39 37  2  0  0  0  0
 40 41  1  0  0  0  0
 41 42  1  0  0  0  0
 41 79  1  0  0  0  0
 42 82  1  0  0  0  0
 42 81  1  0  0  0  0
 43 40  2  0  0  0  0
 44  4  1  0  0  0  0
 49  7  1  0  0  0  0
 51  8  1  0  0  0  0
 56 18  1  0  0  0  0
 58 19  1  0  0  0  0
 61 20  1  0  0  0  0
 62 21  1  0  0  0  0
 63 25  1  0  0  0  0
 67 26  1  0  0  0  0
 69 28  1  0  0  0  0
 70 30  1  0  0  0  0
 71 31  1  0  0  0  0
 74 33  1  0  0  0  0
 77 38  1  0  0  0  0
 80 42  1  0  0  0  0
M  END
