82
-1 1
O        -2.085131    4.457624   -2.785528
C        -2.850304    4.037588   -1.915481
N        -2.428909    3.360236   -0.823345
C        -3.341412    2.707625    0.122163
C        -2.560941    1.963511    1.198057
C        -1.619159    0.933879    0.557359
C        -0.766357    1.571725   -0.563731
C        -1.007333    3.069311   -0.671903
N        -0.845724    0.205393    1.560914
C         0.138752    0.697871    2.313288
C         0.931339   -0.154288    3.163660
C         0.932479   -1.606861    2.923341
C         2.216703   -2.375730    3.050783
C         2.140086   -3.754385    3.250805
C         3.285628   -4.538243    3.368476
C         4.545612   -3.935893    3.263539
O         5.716303   -4.597733    3.362331
C         5.711826   -5.994323    3.546535
C         7.148597   -6.465816    3.594934
C         4.633833   -2.554824    3.030754
C         3.484663   -1.788530    2.924862
O        -0.066127   -2.205114    2.536909
C         1.759850    0.527125    4.094226
N         2.301198   -0.085727    5.192798
C         3.390024    0.530325    5.915920
C         1.732352   -1.249768    5.827736
N         2.037647    1.832731    3.950740
C         1.385074    2.474686    2.992109
N         0.416630    2.018228    2.226140
C        -4.309319    4.366484   -2.061624
C        -5.311916    3.498195   -2.195559
S        -3.671856    0.169023   -2.458157
C        -3.474275    1.123601   -4.007452
C        -2.370725    0.592298   -4.934674
H        -2.438204    1.097673   -5.913775
N        -2.565428   -0.810239   -5.162869
C        -2.191042   -1.442621   -6.295110
C        -2.221605   -2.959678   -6.202184
O        -1.846644   -0.870670   -7.317186
C        -0.928561    0.845083   -4.448729
N        -0.639931    2.120277   -4.075567
C         0.705651    2.473855   -3.708491
O        -0.069878   -0.018269   -4.482880
H        -3.947859    1.969689   -0.425737
H        -4.009306    3.455338    0.579195
H        -3.280596    1.446495    1.851352
H        -1.983076    2.656088    1.827283
H        -2.250693    0.176221    0.070049
H        -1.052533    1.097860   -1.515305
H         0.303449    1.391654   -0.388538
H        -0.496861    3.490674   -1.542174
H        -0.621562    3.576643    0.227386
H        -1.026711   -0.786991    1.688535
H         1.151105   -4.212833    3.313201
H         3.183145   -5.610796    3.532429
H         5.168722   -6.484635    2.717756
H         5.185776   -6.252473    4.484600
H         7.666870   -6.218256    2.657669
H         7.186808   -7.555131    3.739122
H         7.685541   -5.983307    4.424152
H         5.624210   -2.110061    2.921609
H         3.572448   -0.719927    2.720598
H         3.800108    1.356110    5.326477
H         4.175062   -0.220532    6.109048
H         3.052181    0.936461    6.886500
H         2.368760   -2.143946    5.715068
H         0.742823   -1.474987    5.411416
H         1.608256   -1.047620    6.905973
H         1.662587    3.526397    2.843405
H        -4.479544    5.439406   -2.207181
H        -6.320362    3.858343   -2.420570
H        -5.156671    2.412022   -2.129430
H        -3.283551    2.189131   -3.803397
H        -4.414767    1.095964   -4.582133
H        -2.799917   -1.323010   -4.313043
H        -1.253321   -3.299412   -5.803606
H        -2.354408   -3.378321   -7.207724
H        -3.014814   -3.323204   -5.532931
H        -1.368132    2.806459   -3.896665
H         1.413202    2.177731   -4.498513
H         1.029374    1.972610   -2.779639
H         0.757741    3.561517   -3.564427
