-1 1
 OpenBabel05192410563D

 82 84  0  0  1  0  0  0  0  0999 V2000
   -1.5517    3.8907   -2.6090 O   0  0  0  0  0  0  0  0  0  0  0  0
   -2.4592    3.2645   -2.0067 C   0  0  0  0  0  0  0  0  0  0  0  0
   -2.0508    2.3085   -1.0630 N   0  0  0  0  0  0  0  0  0  0  0  0
   -2.9475    1.7705   -0.0621 C   0  0  0  0  0  0  0  0  0  0  0  0
   -2.1857    1.2561    1.1556 C   0  0  0  0  0  0  0  0  0  0  0  0
   -1.1808    0.1818    0.7256 C   0  0  1  0  0  0  0  0  0  0  0  0
   -0.3197    0.6802   -0.4651 C   0  0  0  0  0  0  0  0  0  0  0  0
   -0.6323    2.1252   -0.8340 C   0  0  0  0  0  0  0  0  0  0  0  0
   -0.4102   -0.3527    1.8474 N   0  0  0  0  0  0  0  0  0  0  0  0
    0.5267    0.2908    2.5474 C   0  0  0  0  0  0  0  0  0  0  0  0
    1.3103   -0.3927    3.5458 C   0  0  1  0  0  3  0  0  0  0  0  0
    1.3760   -1.8607    3.5262 C   0  0  0  0  0  0  0  0  0  0  0  0
    2.6705   -2.5492    3.8525 C   0  0  0  0  0  0  0  0  0  0  0  0
    2.6206   -3.8764    4.2798 C   0  0  0  0  0  0  0  0  0  0  0  0
    3.7783   -4.5853    4.5933 C   0  0  0  0  0  0  0  0  0  0  0  0
    5.0251   -3.9619    4.4573 C   0  0  0  0  0  0  0  0  0  0  0  0
    6.2053   -4.5519    4.7332 O   0  0  0  0  0  0  0  0  0  0  0  0
    6.2285   -5.8919    5.1682 C   0  0  0  0  0  0  0  0  0  0  0  0
    7.6718   -6.2901    5.3848 C   0  0  0  0  0  0  0  0  0  0  0  0
    5.0885   -2.6376    3.9968 C   0  0  0  0  0  0  0  0  0  0  0  0
    3.9270   -1.9440    3.6988 C   0  0  0  0  0  0  0  0  0  0  0  0
    0.4282   -2.5545    3.1656 O   0  0  0  0  0  0  0  0  0  0  0  0
    2.0720    0.4597    4.3924 C   0  0  2  0  0  3  0  0  0  0  0  0
    2.5763    0.0494    5.5965 N   0  0  0  0  0  0  0  0  0  0  0  0
    3.5965    0.8234    6.2675 C   0  0  0  0  0  0  0  0  0  0  0  0
    2.0096   -1.0186    6.3844 C   0  0  0  0  0  0  0  0  0  0  0  0
    2.3145    1.7348    4.0541 N   0  0  0  0  0  0  0  0  0  0  0  0
    1.6843    2.1960    2.9822 C   0  0  0  0  0  0  0  0  0  0  0  0
    0.7622    1.5885    2.2652 N   0  0  0  0  0  0  0  0  0  0  0  0
   -3.8459    3.4991   -2.2416 C   0  0  0  0  0  3  0  0  0  0  0  0
   -4.9131    2.5240   -2.2993 C   0  0  0  0  0  0  0  0  0  0  0  0
   -4.8082    1.2128   -3.8243 S   0  0  0  0  0  0  0  0  0  0  0  0
   -4.2221    2.3599   -5.0979 C   0  0  0  0  0  0  0  0  0  0  0  0
   -3.2988    1.7314   -6.1359 C   0  0  2  0  0  0  0  0  0  0  0  0
   -3.0671    2.4949   -6.8967 H   0  0  0  0  0  0  0  0  0  0  0  0
   -3.9491    0.6557   -6.8444 N   0  0  0  0  0  0  0  0  0  0  0  0
   -3.7525    0.4467   -8.1739 C   0  0  0  0  0  0  0  0  0  0  0  0
   -4.1421   -0.9414   -8.6493 C   0  0  0  0  0  0  0  0  0  0  0  0
   -3.3048    1.2872   -8.9319 O   0  0  0  0  0  0  0  0  0  0  0  0
   -1.9286    1.2318   -5.6224 C   0  0  0  0  0  0  0  0  0  0  0  0
   -1.2346    2.0566   -4.8118 N   0  0  0  0  0  0  0  0  0  0  0  0
    0.0822    1.6725   -4.3717 C   0  0  0  0  0  0  0  0  0  0  0  0
   -1.4703    0.1735   -6.0296 O   0  0  0  0  0  0  0  0  0  0  0  0
   -3.5425    0.9282   -0.4683 H   0  0  0  0  0  0  0  0  0  0  0  0
   -3.6706    2.5497    0.2365 H   0  0  0  0  0  0  0  0  0  0  0  0
   -2.8978    0.8281    1.8790 H   0  0  0  0  0  0  0  0  0  0  0  0
   -1.6532    2.0752    1.6583 H   0  0  0  0  0  0  0  0  0  0  0  0
   -1.7699   -0.6808    0.3779 H   0  0  0  0  0  0  0  0  0  0  0  0
   -0.5140    0.0405   -1.3399 H   0  0  0  0  0  0  0  0  0  0  0  0
    0.7485    0.5897   -0.2219 H   0  0  0  0  0  0  0  0  0  0  0  0
   -0.1142    2.4209   -1.7505 H   0  0  0  0  0  0  0  0  0  0  0  0
   -0.2542    2.7905   -0.0348 H   0  0  0  0  0  0  0  0  0  0  0  0
   -0.5573   -1.3181    2.1312 H   0  0  0  0  0  0  0  0  0  0  0  0
    1.6431   -4.3550    4.3670 H   0  0  0  0  0  0  0  0  0  0  0  0
    3.6961   -5.6172    4.9341 H   0  0  0  0  0  0  0  0  0  0  0  0
    5.7535   -6.5443    4.4125 H   0  0  0  0  0  0  0  0  0  0  0  0
    5.6507   -5.9969    6.1054 H   0  0  0  0  0  0  0  0  0  0  0  0
    8.2423   -6.1948    4.4500 H   0  0  0  0  0  0  0  0  0  0  0  0
    7.7312   -7.3335    5.7265 H   0  0  0  0  0  0  0  0  0  0  0  0
    8.1405   -5.6460    6.1425 H   0  0  0  0  0  0  0  0  0  0  0  0
    6.0708   -2.1798    3.8700 H   0  0  0  0  0  0  0  0  0  0  0  0
    3.9977   -0.9218    3.3225 H   0  0  0  0  0  0  0  0  0  0  0  0
    4.0371    1.5392    5.5670 H   0  0  0  0  0  0  0  0  0  0  0  0
    4.3767    0.1445    6.6508 H   0  0  0  0  0  0  0  0  0  0  0  0
    3.1800    1.3909    7.1191 H   0  0  0  0  0  0  0  0  0  0  0  0
    2.6792   -1.8930    6.4499 H   0  0  0  0  0  0  0  0  0  0  0  0
    1.0520   -1.3469    5.9620 H   0  0  0  0  0  0  0  0  0  0  0  0
    1.8202   -0.6502    7.4076 H   0  0  0  0  0  0  0  0  0  0  0  0
    1.9348    3.2204    2.6784 H   0  0  0  0  0  0  0  0  0  0  0  0
   -3.9902    4.3948   -2.8541 H   0  0  0  0  0  0  0  0  0  0  0  0
   -5.8952    2.9843   -2.4681 H   0  0  0  0  0  0  0  0  0  0  0  0
   -5.0053    1.7933   -1.4876 H   0  0  0  0  0  0  0  0  0  0  0  0
   -3.6979    3.1685   -4.5597 H   0  0  0  0  0  0  0  0  0  0  0  0
   -5.0752    2.8118   -5.6269 H   0  0  0  0  0  0  0  0  0  0  0  0
   -4.1670   -0.1528   -6.2727 H   0  0  0  0  0  0  0  0  0  0  0  0
   -3.3213   -1.6319   -8.4010 H   0  0  0  0  0  0  0  0  0  0  0  0
   -4.2798   -0.9246   -9.7370 H   0  0  0  0  0  0  0  0  0  0  0  0
   -5.0572   -1.3042   -8.1587 H   0  0  0  0  0  0  0  0  0  0  0  0
   -1.6511    2.8370   -4.2930 H   0  0  0  0  0  0  0  0  0  0  0  0
    0.6873    1.3351   -5.2262 H   0  0  0  0  0  0  0  0  0  0  0  0
    0.0518    0.8450   -3.6416 H   0  0  0  0  0  0  0  0  0  0  0  0
    0.5539    2.5432   -3.8995 H   0  0  0  0  0  0  0  0  0  0  0  0
  1  2  2  0  0  0  0
  2  3  1  0  0  0  0
  3  8  1  0  0  0  0
  3  4  1  0  0  0  0
  4 45  1  0  0  0  0
  4  5  1  0  0  0  0
  5 47  1  0  0  0  0
  5 46  1  0  0  0  0
  6 48  1  6  0  0  0
  6  5  1  0  0  0  0
  6  9  1  0  0  0  0
  7 50  1  0  0  0  0
  7  6  1  0  0  0  0
  8  7  1  0  0  0  0
  8 52  1  0  0  0  0
  9 53  1  0  0  0  0
  9 10  1  0  0  0  0
 10 11  1  0  0  0  0
 11 12  1  6  0  0  0
 11 23  1  0  0  0  0
 12 13  1  0  0  0  0
 13 14  1  0  0  0  0
 14 54  1  0  0  0  0
 14 15  2  0  0  0  0
 15 55  1  0  0  0  0
 16 15  1  0  0  0  0
 16 17  1  0  0  0  0
 17 18  1  0  0  0  0
 18 19  1  0  0  0  0
 18 57  1  0  0  0  0
 19 59  1  0  0  0  0
 19 60  1  0  0  0  0
 20 16  2  0  0  0  0
 21 13  2  0  0  0  0
 21 20  1  0  0  0  0
 22 12  2  0  0  0  0
 23 24  1  1  0  0  0
 24 25  1  0  0  0  0
 24 26  1  0  0  0  0
 25 64  1  0  0  0  0
 25 65  1  0  0  0  0
 26 66  1  0  0  0  0
 26 68  1  0  0  0  0
 27 23  1  0  0  0  0
 28 27  2  0  0  0  0
 29 10  2  0  0  0  0
 29 28  1  0  0  0  0
 30  2  1  0  0  0  0
 31 30  1  0  0  0  0
 31 72  1  0  0  0  0
 32 31  1  0  0  0  0
 33 73  1  0  0  0  0
 33 32  1  0  0  0  0
 34 35  1  6  0  0  0
 34 40  1  0  0  0  0
 34 33  1  0  0  0  0
 36 75  1  0  0  0  0
 36 34  1  0  0  0  0
 37 36  1  0  0  0  0
 38 76  1  0  0  0  0
 38 37  1  0  0  0  0
 38 78  1  0  0  0  0
 39 37  2  0  0  0  0
 40 41  1  0  0  0  0
 41 42  1  0  0  0  0
 41 79  1  0  0  0  0
 42 82  1  0  0  0  0
 42 81  1  0  0  0  0
 43 40  2  0  0  0  0
 44  4  1  0  0  0  0
 49  7  1  0  0  0  0
 51  8  1  0  0  0  0
 56 18  1  0  0  0  0
 58 19  1  0  0  0  0
 61 20  1  0  0  0  0
 62 21  1  0  0  0  0
 63 25  1  0  0  0  0
 67 26  1  0  0  0  0
 69 28  1  0  0  0  0
 70 30  1  0  0  0  0
 71 31  1  0  0  0  0
 74 33  1  0  0  0  0
 77 38  1  0  0  0  0
 80 42  1  0  0  0  0
M  END
