-1 1
 OpenBabel05232413493D

 89 91  0  0  1  0  0  0  0  0999 V2000
    0.4753   -4.1968   -1.0002 O   0  0  0  0  0  0  0  0  0  0  0  0
   -0.3354   -3.3192   -0.7131 C   0  0  0  0  0  0  0  0  0  0  0  0
    0.0688   -2.0278   -0.5043 N   0  0  0  0  0  0  0  0  0  0  0  0
    1.4594   -1.6755   -0.7505 C   0  0  0  0  0  0  0  0  0  0  0  0
    1.5606   -0.5614   -1.7884 C   0  0  0  0  0  0  0  0  0  0  0  0
    0.7068    0.6584   -1.4142 C   0  0  0  0  0  0  0  0  0  0  0  0
   -0.7147    0.2234   -1.0543 C   0  0  0  0  0  0  0  0  0  0  0  0
   -0.7298   -0.9062   -0.0296 C   0  0  0  0  0  0  0  0  0  0  0  0
    1.2632    1.3968   -0.2829 N   0  0  0  0  0  0  0  0  0  0  0  0
    2.2933    2.2573   -0.3572 C   0  0  0  0  0  0  0  0  0  0  0  0
    2.7096    3.0658    0.7512 C   0  0  0  0  0  0  0  0  0  0  0  0
    2.2290    2.9162    2.1296 C   0  0  0  0  0  0  0  0  0  0  0  0
    1.8048    1.5654    2.6271 C   0  0  0  0  0  0  0  0  0  0  0  0
    0.6871    1.4493    3.4624 C   0  0  0  0  0  0  0  0  0  0  0  0
    0.3163    0.2162    3.9818 C   0  0  0  0  0  0  0  0  0  0  0  0
    1.0920   -0.9157    3.7100 C   0  0  0  0  0  0  0  0  0  0  0  0
    0.7029   -2.0746    4.2979 O   0  0  0  0  0  0  0  0  0  0  0  0
    1.1384   -3.2852    3.8137 C   0  0  0  0  0  0  0  0  0  0  0  0
    0.9140   -3.6519    2.4871 C   0  0  0  0  0  0  0  0  0  0  0  0
    1.3376   -4.9011    2.0387 C   0  0  0  0  0  0  0  0  0  0  0  0
    1.9661   -5.7832    2.9200 C   0  0  0  0  0  0  0  0  0  0  0  0
    2.1733   -5.4114    4.2479 C   0  0  0  0  0  0  0  0  0  0  0  0
    1.7659   -4.1564    4.7004 C   0  0  0  0  0  0  0  0  0  0  0  0
    2.2314   -0.8083    2.9049 C   0  0  0  0  0  0  0  0  0  0  0  0
    2.5673    0.4244    2.3575 C   0  0  0  0  0  0  0  0  0  0  0  0
    2.2241    3.8463    2.9338 O   0  0  0  0  0  0  0  0  0  0  0  0
    3.6216    4.1195    0.4189 C   0  0  0  0  0  0  0  0  0  0  0  0
    3.9345    5.0748    1.3083 N   0  0  0  0  0  0  0  0  0  0  0  0
    4.9315    6.1066    1.0819 C   0  0  0  0  0  0  0  0  0  0  0  0
    4.6172    7.2965    1.9815 C   0  0  0  0  0  0  0  0  0  0  0  0
    6.3476    5.5720    1.2982 C   0  0  0  0  0  0  0  0  0  0  0  0
    4.2163    4.1842   -0.7902 N   0  0  0  0  0  0  0  0  0  0  0  0
    3.8323    3.2857   -1.6787 C   0  0  0  0  0  0  0  0  0  0  0  0
    2.8952    2.3624   -1.5581 N   0  0  0  0  0  0  0  0  0  0  0  0
   -1.7711   -3.7112   -0.5860 C   0  0  0  0  0  0  0  0  0  0  0  0
   -2.8550   -3.0422   -0.9869 C   0  0  0  0  0  0  0  0  0  0  0  0
   -4.1846    0.4355   -0.8176 S   0  0  0  0  0  1  0  0  0  0  0  0
   -3.9857    1.1208   -2.4962 C   0  0  0  0  0  0  0  0  0  0  0  0
   -4.5737    0.2160   -3.5980 C   0  0  2  0  0  0  0  0  0  0  0  0
   -4.5300    0.7264   -4.5763 H   0  0  0  0  0  0  0  0  0  0  0  0
   -5.9503   -0.0516   -3.3053 N   0  0  0  0  0  0  0  0  0  0  0  0
   -6.8523   -0.3863   -4.2547 C   0  0  0  0  0  0  0  0  0  0  0  0
   -8.1641   -0.9253   -3.7114 C   0  0  0  0  0  0  0  0  0  0  0  0
   -6.6468   -0.2781   -5.4530 O   0  0  0  0  0  0  0  0  0  0  0  0
   -3.8102   -1.1131   -3.7643 C   0  0  0  0  0  0  0  0  0  0  0  0
   -2.4766   -0.9686   -4.0322 N   0  0  0  0  0  0  0  0  0  0  0  0
   -1.5795   -2.0876   -4.1609 C   0  0  0  0  0  0  0  0  0  0  0  0
   -4.3468   -2.2005   -3.6979 O   0  0  0  0  0  0  0  0  0  0  0  0
    1.9836   -2.5803   -1.0771 H   0  0  0  0  0  0  0  0  0  0  0  0
    1.9122   -1.3424    0.2009 H   0  0  0  0  0  0  0  0  0  0  0  0
    1.2054   -0.9434   -2.7597 H   0  0  0  0  0  0  0  0  0  0  0  0
    2.6060   -0.2476   -1.9232 H   0  0  0  0  0  0  0  0  0  0  0  0
    0.6843    1.3459   -2.2727 H   0  0  0  0  0  0  0  0  0  0  0  0
   -1.2234   -0.1416   -1.9571 H   0  0  0  0  0  0  0  0  0  0  0  0
   -1.3274    1.0615   -0.6898 H   0  0  0  0  0  0  0  0  0  0  0  0
   -1.7646   -1.1962    0.1718 H   0  0  0  0  0  0  0  0  0  0  0  0
   -0.2996   -0.5687    0.9355 H   0  0  0  0  0  0  0  0  0  0  0  0
    0.7562    1.3435    0.5897 H   0  0  0  0  0  0  0  0  0  0  0  0
    0.0992    2.3403    3.6911 H   0  0  0  0  0  0  0  0  0  0  0  0
   -0.5703    0.1053    4.6072 H   0  0  0  0  0  0  0  0  0  0  0  0
    0.4174   -2.9570    1.8074 H   0  0  0  0  0  0  0  0  0  0  0  0
    1.1659   -5.1635    0.9917 H   0  0  0  0  0  0  0  0  0  0  0  0
    2.2932   -6.7638    2.5681 H   0  0  0  0  0  0  0  0  0  0  0  0
    2.6622   -6.1002    4.9410 H   0  0  0  0  0  0  0  0  0  0  0  0
    1.9223   -3.8397    5.7329 H   0  0  0  0  0  0  0  0  0  0  0  0
    2.8451   -1.6863    2.7010 H   0  0  0  0  0  0  0  0  0  0  0  0
    3.4470    0.5043    1.7141 H   0  0  0  0  0  0  0  0  0  0  0  0
    3.4241    5.0265    2.1901 H   0  0  0  0  0  0  0  0  0  0  0  0
    4.8448    6.4143    0.0286 H   0  0  0  0  0  0  0  0  0  0  0  0
    4.6820    7.0140    3.0453 H   0  0  0  0  0  0  0  0  0  0  0  0
    3.6038    7.6785    1.7895 H   0  0  0  0  0  0  0  0  0  0  0  0
    5.3340    8.1119    1.8065 H   0  0  0  0  0  0  0  0  0  0  0  0
    6.4774    5.2221    2.3349 H   0  0  0  0  0  0  0  0  0  0  0  0
    7.0955    6.3554    1.0994 H   0  0  0  0  0  0  0  0  0  0  0  0
    6.5381    4.7321    0.6155 H   0  0  0  0  0  0  0  0  0  0  0  0
    4.3448    3.3213   -2.6493 H   0  0  0  0  0  0  0  0  0  0  0  0
   -1.8628   -4.7512   -0.2577 H   0  0  0  0  0  0  0  0  0  0  0  0
   -3.8387   -3.5160   -0.9526 H   0  0  0  0  0  0  0  0  0  0  0  0
   -2.8638   -2.0112   -1.3540 H   0  0  0  0  0  0  0  0  0  0  0  0
   -2.9208    1.3188   -2.7236 H   0  0  0  0  0  0  0  0  0  0  0  0
   -4.4933    2.0959   -2.5803 H   0  0  0  0  0  0  0  0  0  0  0  0
   -6.1105   -0.2447   -2.3154 H   0  0  0  0  0  0  0  0  0  0  0  0
   -8.0544   -2.0100   -3.5591 H   0  0  0  0  0  0  0  0  0  0  0  0
   -8.9569   -0.7525   -4.4498 H   0  0  0  0  0  0  0  0  0  0  0  0
   -8.4368   -0.4696   -2.7486 H   0  0  0  0  0  0  0  0  0  0  0  0
   -2.0966   -0.0325   -4.0321 H   0  0  0  0  0  0  0  0  0  0  0  0
   -2.1861   -3.0014   -4.1315 H   0  0  0  0  0  0  0  0  0  0  0  0
   -0.8547   -2.1314   -3.3302 H   0  0  0  0  0  0  0  0  0  0  0  0
   -1.0253   -2.0561   -5.1130 H   0  0  0  0  0  0  0  0  0  0  0  0
  1  2  2  0  0  0  0
  2 35  1  0  0  0  0
  2  3  1  0  0  0  0
  3  8  1  0  0  0  0
  4  3  1  0  0  0  0
  4 50  1  0  0  0  0
  5  6  1  0  0  0  0
  5  4  1  0  0  0  0
  6  7  1  0  0  0  0
  6  9  1  0  0  0  0
  7 55  1  0  0  0  0
  7  8  1  0  0  0  0
  8 56  1  0  0  0  0
  8 57  1  0  0  0  0
  9 58  1  0  0  0  0
 10  9  1  0  0  0  0
 10 11  1  0  0  0  0
 11 12  1  0  0  0  0
 12 13  1  0  0  0  0
 12 26  2  0  0  0  0
 13 14  1  0  0  0  0
 14 59  1  0  0  0  0
 14 15  2  0  0  0  0
 15 60  1  0  0  0  0
 16 15  1  0  0  0  0
 16 17  1  0  0  0  0
 18 17  1  0  0  0  0
 18 23  1  0  0  0  0
 19 18  2  0  0  0  0
 20 19  1  0  0  0  0
 20 21  2  0  0  0  0
 21 22  1  0  0  0  0
 22 23  2  0  0  0  0
 22 64  1  0  0  0  0
 23 65  1  0  0  0  0
 24 16  2  0  0  0  0
 25 13  2  0  0  0  0
 25 24  1  0  0  0  0
 27 11  2  0  0  0  0
 27 28  1  0  0  0  0
 28 68  1  0  0  0  0
 29 31  1  0  0  0  0
 29 28  1  0  0  0  0
 29 30  1  0  0  0  0
 30 70  1  0  0  0  0
 31 73  1  0  0  0  0
 32 27  1  0  0  0  0
 33 34  1  0  0  0  0
 33 32  2  0  0  0  0
 34 10  2  0  0  0  0
 35 77  1  0  0  0  0
 36 78  1  0  0  0  0
 36 35  2  0  0  0  0
 38 37  1  0  0  0  0
 39 40  1  6  0  0  0
 39 41  1  0  0  0  0
 39 38  1  0  0  0  0
 41 82  1  0  0  0  0
 42 43  1  0  0  0  0
 42 41  1  0  0  0  0
 43 83  1  0  0  0  0
 43 85  1  0  0  0  0
 44 42  2  0  0  0  0
 45 48  2  0  0  0  0
 45 39  1  0  0  0  0
 46 86  1  0  0  0  0
 46 45  1  0  0  0  0
 47 87  1  0  0  0  0
 47 46  1  0  0  0  0
 47 88  1  0  0  0  0
 49  4  1  0  0  0  0
 51  5  1  0  0  0  0
 52  5  1  0  0  0  0
 53  6  1  0  0  0  0
 54  7  1  0  0  0  0
 61 19  1  0  0  0  0
 62 20  1  0  0  0  0
 63 21  1  0  0  0  0
 66 24  1  0  0  0  0
 67 25  1  0  0  0  0
 69 29  1  0  0  0  0
 71 30  1  0  0  0  0
 72 30  1  0  0  0  0
 74 31  1  0  0  0  0
 75 31  1  0  0  0  0
 76 33  1  0  0  0  0
 79 36  1  0  0  0  0
 80 38  1  0  0  0  0
 81 38  1  0  0  0  0
 84 43  1  0  0  0  0
 89 47  1  0  0  0  0
M  END
