-1 1
 OpenBabel05192410563D

 89 92  0  0  1  0  0  0  0  0999 V2000
   -1.6484   -1.1739    1.6521 O   0  0  0  0  0  0  0  0  0  0  0  0
   -1.8040   -1.7274    0.5386 C   0  0  0  0  0  0  0  0  0  0  0  0
   -1.1858   -1.0103   -0.6246 N   0  0  0  0  0  0  0  0  0  0  0  0
    0.2668   -1.2101   -0.5355 C   0  0  0  0  0  0  0  0  0  0  0  0
    1.0353   -0.4436   -1.6059 C   0  0  0  0  0  0  0  0  0  0  0  0
    0.6918    1.0494   -1.6099 C   0  0  1  0  0  0  0  0  0  0  0  0
   -0.8280    1.2214   -1.6320 C   0  0  0  0  0  0  0  0  0  0  0  0
   -1.5045    0.4167   -0.5278 C   0  0  0  0  0  0  0  0  0  0  0  0
    1.2563    1.7452   -0.4591 N   0  0  0  0  0  0  0  0  0  0  0  0
    2.4044    2.4483   -0.4864 C   0  0  0  0  0  0  0  0  0  0  0  0
    2.9046    3.1577    0.6506 C   0  0  0  0  0  0  0  0  0  0  0  0
    2.4036    3.0185    2.0290 C   0  0  0  0  0  0  0  0  0  0  0  0
    1.9248    1.6940    2.5309 C   0  0  0  0  0  0  0  0  0  0  0  0
    0.9924    1.6666    3.5793 C   0  0  0  0  0  0  0  0  0  0  0  0
    0.6162    0.4707    4.1660 C   0  0  0  0  0  0  0  0  0  0  0  0
    1.1953   -0.7280    3.7349 C   0  0  0  0  0  0  0  0  0  0  0  0
    0.8553   -1.8495    4.4099 O   0  0  0  0  0  0  0  0  0  0  0  0
    0.9841   -3.0746    3.7889 C   0  0  0  0  0  0  0  0  0  0  0  0
    0.1135   -3.4061    2.7536 C   0  0  0  0  0  0  0  0  0  0  0  0
    0.2393   -4.6575    2.1532 C   0  0  0  0  0  0  0  0  0  0  0  0
    1.2116   -5.5607    2.5896 C   0  0  0  0  0  0  0  0  0  0  0  0
    2.0656   -5.2133    3.6366 C   0  0  0  0  0  0  0  0  0  0  0  0
    1.9580   -3.9606    4.2424 C   0  0  0  0  0  0  0  0  0  0  0  0
    2.1282   -0.7206    2.6923 C   0  0  0  0  0  0  0  0  0  0  0  0
    2.4827    0.4846    2.0985 C   0  0  0  0  0  0  0  0  0  0  0  0
    2.4469    3.9546    2.8270 O   0  0  0  0  0  0  0  0  0  0  0  0
    3.9431    4.0997    0.3649 C   0  0  0  0  0  0  0  0  0  0  0  0
    4.3504    4.9905    1.2857 N   0  0  0  0  0  0  0  0  0  0  0  0
    5.4796    5.8853    1.1102 C   0  0  0  0  0  0  0  0  0  0  0  0
    5.3038    7.0831    2.0369 C   0  0  0  0  0  0  0  0  0  0  0  0
    6.8079    5.1633    1.3402 C   0  0  0  0  0  0  0  0  0  0  0  0
    4.5705    4.1215   -0.8292 N   0  0  0  0  0  0  0  0  0  0  0  0
    4.0991    3.2971   -1.7474 C   0  0  0  0  0  0  0  0  0  0  0  0
    3.0489    2.5020   -1.6703 N   0  0  0  0  0  0  0  0  0  0  0  0
   -2.4100   -2.9498    0.2992 C   0  0  0  0  0  3  0  0  0  0  0  0
   -2.6010   -3.6401   -0.9892 C   0  0  0  0  0  0  0  0  0  0  0  0
   -4.3081   -3.4510   -1.7943 S   0  0  0  0  0  0  0  0  0  0  0  0
   -4.4644   -1.6483   -1.7817 C   0  0  0  0  0  0  0  0  0  0  0  0
   -4.3104   -0.9435   -3.1387 C   0  0  2  0  0  0  0  0  0  0  0  0
   -4.1024    0.1227   -2.9274 H   0  0  0  0  0  0  0  0  0  0  0  0
   -5.5036   -1.0271   -3.9453 N   0  0  0  0  0  0  0  0  0  0  0  0
   -6.6139   -0.2962   -3.7018 C   0  0  0  0  0  0  0  0  0  0  0  0
   -7.7513   -0.5033   -4.6875 C   0  0  0  0  0  0  0  0  0  0  0  0
   -6.7249    0.4573   -2.7488 O   0  0  0  0  0  0  0  0  0  0  0  0
   -3.1721   -1.4889   -4.0176 C   0  0  0  0  0  0  0  0  0  0  0  0
   -1.9537   -1.5466   -3.4507 N   0  0  0  0  0  0  0  0  0  0  0  0
   -0.8565   -2.1646   -4.1533 C   0  0  0  0  0  0  0  0  0  0  0  0
   -3.3913   -1.8264   -5.1749 O   0  0  0  0  0  0  0  0  0  0  0  0
    0.4661   -2.2898   -0.6202 H   0  0  0  0  0  0  0  0  0  0  0  0
    0.6152   -0.9029    0.4704 H   0  0  0  0  0  0  0  0  0  0  0  0
    0.7993   -0.8486   -2.6011 H   0  0  0  0  0  0  0  0  0  0  0  0
    2.1192   -0.5697   -1.4569 H   0  0  0  0  0  0  0  0  0  0  0  0
    1.1403    1.5187   -2.4932 H   0  0  0  0  0  0  0  0  0  0  0  0
   -1.1968    0.8846   -2.6139 H   0  0  0  0  0  0  0  0  0  0  0  0
   -1.0849    2.2876   -1.5328 H   0  0  0  0  0  0  0  0  0  0  0  0
   -2.5980    0.5353   -0.5937 H   0  0  0  0  0  0  0  0  0  0  0  0
   -1.2264    0.7927    0.4773 H   0  0  0  0  0  0  0  0  0  0  0  0
    0.7719    1.6509    0.4251 H   0  0  0  0  0  0  0  0  0  0  0  0
    0.5689    2.6103    3.9277 H   0  0  0  0  0  0  0  0  0  0  0  0
   -0.1278    0.4317    4.9620 H   0  0  0  0  0  0  0  0  0  0  0  0
   -0.6437   -2.6712    2.4411 H   0  0  0  0  0  0  0  0  0  0  0  0
   -0.4432   -4.9101    1.3387 H   0  0  0  0  0  0  0  0  0  0  0  0
    1.3015   -6.5407    2.1148 H   0  0  0  0  0  0  0  0  0  0  0  0
    2.8247   -5.9185    3.9844 H   0  0  0  0  0  0  0  0  0  0  0  0
    2.6163   -3.6603    5.0601 H   0  0  0  0  0  0  0  0  0  0  0  0
    2.5750   -1.6562    2.3541 H   0  0  0  0  0  0  0  0  0  0  0  0
    3.2246    0.4854    1.2966 H   0  0  0  0  0  0  0  0  0  0  0  0
    3.8109    4.9921    2.1508 H   0  0  0  0  0  0  0  0  0  0  0  0
    5.4611    6.2291    0.0645 H   0  0  0  0  0  0  0  0  0  0  0  0
    5.3035    6.7665    3.0931 H   0  0  0  0  0  0  0  0  0  0  0  0
    4.3547    7.6010    1.8347 H   0  0  0  0  0  0  0  0  0  0  0  0
    6.1264    7.8003    1.9016 H   0  0  0  0  0  0  0  0  0  0  0  0
    6.8654    4.7730    2.3690 H   0  0  0  0  0  0  0  0  0  0  0  0
    7.6576    5.8450    1.1782 H   0  0  0  0  0  0  0  0  0  0  0  0
    6.9007    4.3227    0.6383 H   0  0  0  0  0  0  0  0  0  0  0  0
    4.6391    3.2841   -2.7038 H   0  0  0  0  0  0  0  0  0  0  0  0
   -2.8668   -3.4091    1.1812 H   0  0  0  0  0  0  0  0  0  0  0  0
   -2.5464   -4.7351   -0.8853 H   0  0  0  0  0  0  0  0  0  0  0  0
   -1.8687   -3.3455   -1.7496 H   0  0  0  0  0  0  0  0  0  0  0  0
   -3.7210   -1.2887   -1.0537 H   0  0  0  0  0  0  0  0  0  0  0  0
   -5.4439   -1.3657   -1.3747 H   0  0  0  0  0  0  0  0  0  0  0  0
   -5.3687   -1.5296   -4.8188 H   0  0  0  0  0  0  0  0  0  0  0  0
   -8.1795    0.4755   -4.9412 H   0  0  0  0  0  0  0  0  0  0  0  0
   -8.5375   -1.0919   -4.1919 H   0  0  0  0  0  0  0  0  0  0  0  0
   -7.4459   -1.0251   -5.6050 H   0  0  0  0  0  0  0  0  0  0  0  0
   -1.8163   -1.3556   -2.4405 H   0  0  0  0  0  0  0  0  0  0  0  0
   -1.2518   -2.8367   -4.9266 H   0  0  0  0  0  0  0  0  0  0  0  0
   -0.2451   -2.7450   -3.4467 H   0  0  0  0  0  0  0  0  0  0  0  0
   -0.2061   -1.4228   -4.6484 H   0  0  0  0  0  0  0  0  0  0  0  0
  2  1  2  0  0  0  0
  3  4  1  0  0  0  0
  3  8  1  0  0  0  0
  3  2  1  0  0  0  0
  4 50  1  0  0  0  0
  5 52  1  0  0  0  0
  5  4  1  0  0  0  0
  6 53  1  6  0  0  0
  6  5  1  0  0  0  0
  6  9  1  0  0  0  0
  7  6  1  0  0  0  0
  7 55  1  0  0  0  0
  7  8  1  0  0  0  0
  8 57  1  0  0  0  0
  9 58  1  0  0  0  0
 10  9  1  0  0  0  0
 10 11  1  0  0  0  0
 11 12  1  0  0  0  0
 12 13  1  0  0  0  0
 12 26  2  0  0  0  0
 13 14  1  0  0  0  0
 14 59  1  0  0  0  0
 14 15  2  0  0  0  0
 15 60  1  0  0  0  0
 16 15  1  0  0  0  0
 16 17  1  0  0  0  0
 18 23  1  0  0  0  0
 18 17  1  0  0  0  0
 19 18  2  0  0  0  0
 20 21  2  0  0  0  0
 20 19  1  0  0  0  0
 21 22  1  0  0  0  0
 22 64  1  0  0  0  0
 22 23  2  0  0  0  0
 23 65  1  0  0  0  0
 24 16  2  0  0  0  0
 25 13  2  0  0  0  0
 25 24  1  0  0  0  0
 27 11  2  0  0  0  0
 27 28  1  0  0  0  0
 28 68  1  0  0  0  0
 29 28  1  0  0  0  0
 29 31  1  0  0  0  0
 29 30  1  0  0  0  0
 30 70  1  0  0  0  0
 31 73  1  0  0  0  0
 32 27  1  0  0  0  0
 33 34  1  0  0  0  0
 33 32  2  0  0  0  0
 34 10  2  0  0  0  0
 35  2  1  0  0  0  0
 35 77  1  0  0  0  0
 36 78  1  0  0  0  0
 36 35  1  0  0  0  0
 37 38  1  0  0  0  0
 37 36  1  0  0  0  0
 38 81  1  0  0  0  0
 38 80  1  0  0  0  0
 39 40  1  1  0  0  0
 39 38  1  0  0  0  0
 41 42  1  0  0  0  0
 41 39  1  0  0  0  0
 42 44  2  0  0  0  0
 43 84  1  0  0  0  0
 43 42  1  0  0  0  0
 45 46  1  0  0  0  0
 45 39  1  0  0  0  0
 46 86  1  0  0  0  0
 47 46  1  0  0  0  0
 47 88  1  0  0  0  0
 48 45  2  0  0  0  0
 49  4  1  0  0  0  0
 51  5  1  0  0  0  0
 54  7  1  0  0  0  0
 56  8  1  0  0  0  0
 61 19  1  0  0  0  0
 62 20  1  0  0  0  0
 63 21  1  0  0  0  0
 66 24  1  0  0  0  0
 67 25  1  0  0  0  0
 69 29  1  0  0  0  0
 71 30  1  0  0  0  0
 72 30  1  0  0  0  0
 74 31  1  0  0  0  0
 75 31  1  0  0  0  0
 76 33  1  0  0  0  0
 79 36  1  0  0  0  0
 82 41  1  0  0  0  0
 83 43  1  0  0  0  0
 85 43  1  0  0  0  0
 87 47  1  0  0  0  0
 89 47  1  0  0  0  0
M  END
