89
-1 1
O        -1.648447   -1.173945    1.652050
C        -1.804033   -1.727438    0.538636
N        -1.185807   -1.010273   -0.624559
C         0.266758   -1.210080   -0.535466
C         1.035275   -0.443645   -1.605933
C         0.691822    1.049397   -1.609871
C        -0.828042    1.221371   -1.631954
C        -1.504538    0.416665   -0.527825
N         1.256348    1.745205   -0.459088
C         2.404447    2.448253   -0.486358
C         2.904638    3.157699    0.650572
C         2.403605    3.018493    2.029006
C         1.924847    1.694018    2.530930
C         0.992433    1.666612    3.579315
C         0.616196    0.470709    4.165967
C         1.195274   -0.728024    3.734910
O         0.855348   -1.849453    4.409865
C         0.984110   -3.074609    3.788862
C         0.113457   -3.406088    2.753645
C         0.239311   -4.657492    2.153208
C         1.211557   -5.560732    2.589605
C         2.065635   -5.213252    3.636600
C         1.958010   -3.960558    4.242447
C         2.128239   -0.720615    2.692297
C         2.482697    0.484644    2.098471
O         2.446932    3.954588    2.827040
C         3.943097    4.099672    0.364875
N         4.350406    4.990489    1.285719
C         5.479616    5.885297    1.110216
C         5.303787    7.083087    2.036906
C         6.807900    5.163264    1.340218
N         4.570459    4.121536   -0.829176
C         4.099066    3.297053   -1.747421
N         3.048852    2.502042   -1.670276
C        -2.409952   -2.949762    0.299156
C        -2.601002   -3.640106   -0.989247
S        -4.308121   -3.450985   -1.794270
C        -4.464379   -1.648291   -1.781715
C        -4.310419   -0.943507   -3.138657
H        -4.102444    0.122656   -2.927420
N        -5.503648   -1.027067   -3.945278
C        -6.613874   -0.296205   -3.701812
C        -7.751300   -0.503324   -4.687491
O        -6.724931    0.457281   -2.748832
C        -3.172149   -1.488898   -4.017585
N        -1.953734   -1.546640   -3.450673
C        -0.856504   -2.164611   -4.153348
O        -3.391310   -1.826391   -5.174940
H         0.466119   -2.289806   -0.620161
H         0.615158   -0.902908    0.470403
H         0.799270   -0.848554   -2.601138
H         2.119204   -0.569729   -1.456853
H         1.140264    1.518653   -2.493238
H        -1.196759    0.884611   -2.613883
H        -1.084912    2.287642   -1.532809
H        -2.597964    0.535326   -0.593671
H        -1.226353    0.792721    0.477284
H         0.771875    1.650945    0.425059
H         0.568858    2.610337    3.927741
H        -0.127755    0.431689    4.961959
H        -0.643673   -2.671159    2.441082
H        -0.443186   -4.910141    1.338654
H         1.301492   -6.540705    2.114778
H         2.824677   -5.918455    3.984350
H         2.616276   -3.660319    5.060092
H         2.574957   -1.656241    2.354085
H         3.224631    0.485374    1.296580
H         3.810900    4.992067    2.150772
H         5.461145    6.229106    0.064498
H         5.303482    6.766516    3.093098
H         4.354677    7.601036    1.834702
H         6.126428    7.800346    1.901609
H         6.865411    4.772956    2.368952
H         7.657593    5.845009    1.178204
H         6.900691    4.322728    0.638269
H         4.639135    3.284123   -2.703781
H        -2.866771   -3.409104    1.181186
H        -2.546392   -4.735112   -0.885261
H        -1.868723   -3.345488   -1.749618
H        -3.721014   -1.288655   -1.053742
H        -5.443881   -1.365738   -1.374750
H        -5.368667   -1.529608   -4.818779
H        -8.179457    0.475547   -4.941166
H        -8.537530   -1.091900   -4.191898
H        -7.445878   -1.025053   -5.604974
H        -1.816331   -1.355582   -2.440480
H        -1.251814   -2.836658   -4.926627
H        -0.245129   -2.745012   -3.446734
H        -0.206129   -1.422812   -4.648438
