89
-1 1
O        -5.606019    1.051693    8.825089
C        -6.132840    1.773183    7.961878
N        -5.312532    2.759093    7.322615
C        -3.888904    2.642986    7.550027
C        -3.116279    3.343016    6.434169
C        -3.542519    4.806184    6.252648
C        -5.070996    4.897873    6.176196
C        -5.750753    4.139386    7.313091
N        -3.041233    5.647393    7.333769
C        -2.050578    6.550544    7.214048
C        -1.595979    7.345869    8.315328
C        -1.933811    7.115136    9.727221
C        -2.160799    5.723878   10.233923
C        -3.038471    5.531337   11.310154
C        -3.207683    4.276701   11.874111
C        -2.472387    3.189326   11.387524
O        -2.647734    2.005834   12.016824
C        -2.298943    0.836765   11.370295
C        -3.099721    0.355509   10.338065
C        -2.744982   -0.845696    9.726551
C        -1.615173   -1.552929   10.141279
C        -0.830031   -1.056758   11.182479
C        -1.169152    0.145935   11.802736
C        -1.578595    3.367618   10.324912
C        -1.433661    4.627391    9.756065
O        -1.961587    8.031559   10.548401
C        -0.777445    8.464748    7.954234
N        -0.464638    9.417013    8.848494
C         0.462316   10.504656    8.591658
C         0.145505   11.652766    9.543384
C         1.914998   10.040605    8.704743
N        -0.269303    8.597666    6.712088
C        -0.652061    7.693427    5.828175
N        -1.525606    6.716908    5.983339
C        -7.469554    1.620933    7.505984
C        -7.985019    2.135990    6.295881
S        -9.246243    3.922252    6.432944
C        -8.720255    4.941615    5.017391
C        -9.114534    4.401464    3.630111
H        -8.892355    5.165095    2.865677
N       -10.521900    4.137871    3.586071
C       -11.204981    4.092739    2.413068
C       -12.585037    3.471907    2.511380
O       -10.751495    4.509793    1.362283
C        -8.323623    3.134796    3.241905
N        -6.975210    3.322592    3.148178
C        -6.043555    2.225762    3.047579
O        -8.860668    2.065472    3.040991
H        -3.621428    1.580074    7.596733
H        -3.601751    3.069335    8.535529
H        -3.306674    2.810235    5.487693
H        -2.031976    3.299619    6.625736
H        -3.093402    5.208591    5.337574
H        -5.390788    4.438879    5.226682
H        -5.383713    5.954092    6.164597
H        -6.843458    4.195908    7.218212
H        -5.509437    4.630121    8.286932
H        -3.441063    5.502049    8.252008
H        -3.589745    6.389952   11.698185
H        -3.905897    4.107667   12.694776
H        -3.999528    0.885243    9.995053
H        -3.381885   -1.220959    8.922360
H        -1.348102   -2.495080    9.656874
H         0.053355   -1.606719   11.515972
H        -0.572234    0.557358   12.619015
H        -1.006808    2.520572    9.944476
H        -0.732745    4.762534    8.928973
H        -0.909015    9.313450    9.760506
H         0.294290   10.835056    7.555222
H         0.291126   11.346005   10.592401
H        -0.896167   11.985732    9.425441
H         0.807651   12.509033    9.349066
H         2.127322    9.670950    9.720736
H         2.608147   10.867220    8.483258
H         2.104500    9.229781    7.987464
H        -0.200000    7.776085    4.830628
H        -8.070746    0.924131    8.093837
H        -8.746015    1.543618    5.784350
H        -7.245464    2.547558    5.601687
H        -7.630965    5.099026    5.058989
H        -9.183440    5.932788    5.137335
H       -10.876694    3.657053    4.410110
H       -12.478043    2.378712    2.438792
H       -13.197580    3.823373    1.672458
H       -13.079681    3.705266    3.465144
H        -6.610501    4.233153    3.392585
H        -6.618059    1.325138    2.798521
H        -5.521138    2.051869    4.004545
H        -5.299382    2.406590    2.256697
