-1 1
 OpenBabel05232414493D

 89 92  0  0  1  0  0  0  0  0999 V2000
   -5.6060    1.0517    8.8251 O   0  0  0  0  0  0  0  0  0  0  0  0
   -6.1328    1.7732    7.9619 C   0  0  0  0  0  0  0  0  0  0  0  0
   -5.3125    2.7591    7.3226 N   0  0  0  0  0  0  0  0  0  0  0  0
   -3.8889    2.6430    7.5500 C   0  0  0  0  0  0  0  0  0  0  0  0
   -3.1163    3.3430    6.4342 C   0  0  0  0  0  0  0  0  0  0  0  0
   -3.5425    4.8062    6.2526 C   0  0  1  0  0  0  0  0  0  0  0  0
   -5.0710    4.8979    6.1762 C   0  0  0  0  0  0  0  0  0  0  0  0
   -5.7508    4.1394    7.3131 C   0  0  0  0  0  0  0  0  0  0  0  0
   -3.0412    5.6474    7.3338 N   0  0  0  0  0  0  0  0  0  0  0  0
   -2.0506    6.5505    7.2140 C   0  0  0  0  0  0  0  0  0  0  0  0
   -1.5960    7.3459    8.3153 C   0  0  0  0  0  0  0  0  0  0  0  0
   -1.9338    7.1151    9.7272 C   0  0  0  0  0  0  0  0  0  0  0  0
   -2.1608    5.7239   10.2339 C   0  0  0  0  0  0  0  0  0  0  0  0
   -3.0385    5.5313   11.3102 C   0  0  0  0  0  0  0  0  0  0  0  0
   -3.2077    4.2767   11.8741 C   0  0  0  0  0  0  0  0  0  0  0  0
   -2.4724    3.1893   11.3875 C   0  0  0  0  0  0  0  0  0  0  0  0
   -2.6477    2.0058   12.0168 O   0  0  0  0  0  0  0  0  0  0  0  0
   -2.2989    0.8368   11.3703 C   0  0  0  0  0  0  0  0  0  0  0  0
   -3.0997    0.3555   10.3381 C   0  0  0  0  0  0  0  0  0  0  0  0
   -2.7450   -0.8457    9.7266 C   0  0  0  0  0  0  0  0  0  0  0  0
   -1.6152   -1.5529   10.1413 C   0  0  0  0  0  0  0  0  0  0  0  0
   -0.8300   -1.0568   11.1825 C   0  0  0  0  0  0  0  0  0  0  0  0
   -1.1692    0.1459   11.8027 C   0  0  0  0  0  0  0  0  0  0  0  0
   -1.5786    3.3676   10.3249 C   0  0  0  0  0  0  0  0  0  0  0  0
   -1.4337    4.6274    9.7561 C   0  0  0  0  0  0  0  0  0  0  0  0
   -1.9616    8.0316   10.5484 O   0  0  0  0  0  0  0  0  0  0  0  0
   -0.7774    8.4647    7.9542 C   0  0  0  0  0  0  0  0  0  0  0  0
   -0.4646    9.4170    8.8485 N   0  0  0  0  0  0  0  0  0  0  0  0
    0.4623   10.5047    8.5917 C   0  0  0  0  0  0  0  0  0  0  0  0
    0.1455   11.6528    9.5434 C   0  0  0  0  0  0  0  0  0  0  0  0
    1.9150   10.0406    8.7047 C   0  0  0  0  0  0  0  0  0  0  0  0
   -0.2693    8.5977    6.7121 N   0  0  0  0  0  0  0  0  0  0  0  0
   -0.6521    7.6934    5.8282 C   0  0  0  0  0  0  0  0  0  0  0  0
   -1.5256    6.7169    5.9833 N   0  0  0  0  0  0  0  0  0  0  0  0
   -7.4696    1.6209    7.5060 C   0  0  0  0  0  3  0  0  0  0  0  0
   -7.9850    2.1360    6.2959 C   0  0  0  0  0  0  0  0  0  0  0  0
   -9.2462    3.9223    6.4329 S   0  0  0  0  0  0  0  0  0  0  0  0
   -8.7203    4.9416    5.0174 C   0  0  0  0  0  0  0  0  0  0  0  0
   -9.1145    4.4015    3.6301 C   0  0  2  0  0  0  0  0  0  0  0  0
   -8.8924    5.1651    2.8657 H   0  0  0  0  0  0  0  0  0  0  0  0
  -10.5219    4.1379    3.5861 N   0  0  0  0  0  0  0  0  0  0  0  0
  -11.2050    4.0927    2.4131 C   0  0  0  0  0  0  0  0  0  0  0  0
  -12.5850    3.4719    2.5114 C   0  0  0  0  0  0  0  0  0  0  0  0
  -10.7515    4.5098    1.3623 O   0  0  0  0  0  0  0  0  0  0  0  0
   -8.3236    3.1348    3.2419 C   0  0  0  0  0  0  0  0  0  0  0  0
   -6.9752    3.3226    3.1482 N   0  0  0  0  0  0  0  0  0  0  0  0
   -6.0436    2.2258    3.0476 C   0  0  0  0  0  0  0  0  0  0  0  0
   -8.8607    2.0655    3.0410 O   0  0  0  0  0  0  0  0  0  0  0  0
   -3.6214    1.5801    7.5967 H   0  0  0  0  0  0  0  0  0  0  0  0
   -3.6018    3.0693    8.5355 H   0  0  0  0  0  0  0  0  0  0  0  0
   -3.3067    2.8102    5.4877 H   0  0  0  0  0  0  0  0  0  0  0  0
   -2.0320    3.2996    6.6257 H   0  0  0  0  0  0  0  0  0  0  0  0
   -3.0934    5.2086    5.3376 H   0  0  0  0  0  0  0  0  0  0  0  0
   -5.3908    4.4389    5.2267 H   0  0  0  0  0  0  0  0  0  0  0  0
   -5.3837    5.9541    6.1646 H   0  0  0  0  0  0  0  0  0  0  0  0
   -6.8435    4.1959    7.2182 H   0  0  0  0  0  0  0  0  0  0  0  0
   -5.5094    4.6301    8.2869 H   0  0  0  0  0  0  0  0  0  0  0  0
   -3.4411    5.5020    8.2520 H   0  0  0  0  0  0  0  0  0  0  0  0
   -3.5897    6.3900   11.6982 H   0  0  0  0  0  0  0  0  0  0  0  0
   -3.9059    4.1077   12.6948 H   0  0  0  0  0  0  0  0  0  0  0  0
   -3.9995    0.8852    9.9951 H   0  0  0  0  0  0  0  0  0  0  0  0
   -3.3819   -1.2210    8.9224 H   0  0  0  0  0  0  0  0  0  0  0  0
   -1.3481   -2.4951    9.6569 H   0  0  0  0  0  0  0  0  0  0  0  0
    0.0534   -1.6067   11.5160 H   0  0  0  0  0  0  0  0  0  0  0  0
   -0.5722    0.5574   12.6190 H   0  0  0  0  0  0  0  0  0  0  0  0
   -1.0068    2.5206    9.9445 H   0  0  0  0  0  0  0  0  0  0  0  0
   -0.7327    4.7625    8.9290 H   0  0  0  0  0  0  0  0  0  0  0  0
   -0.9090    9.3134    9.7605 H   0  0  0  0  0  0  0  0  0  0  0  0
    0.2943   10.8351    7.5552 H   0  0  0  0  0  0  0  0  0  0  0  0
    0.2911   11.3460   10.5924 H   0  0  0  0  0  0  0  0  0  0  0  0
   -0.8962   11.9857    9.4254 H   0  0  0  0  0  0  0  0  0  0  0  0
    0.8077   12.5090    9.3491 H   0  0  0  0  0  0  0  0  0  0  0  0
    2.1273    9.6709    9.7207 H   0  0  0  0  0  0  0  0  0  0  0  0
    2.6081   10.8672    8.4833 H   0  0  0  0  0  0  0  0  0  0  0  0
    2.1045    9.2298    7.9875 H   0  0  0  0  0  0  0  0  0  0  0  0
   -0.2000    7.7761    4.8306 H   0  0  0  0  0  0  0  0  0  0  0  0
   -8.0707    0.9241    8.0938 H   0  0  0  0  0  0  0  0  0  0  0  0
   -8.7460    1.5436    5.7843 H   0  0  0  0  0  0  0  0  0  0  0  0
   -7.2455    2.5476    5.6017 H   0  0  0  0  0  0  0  0  0  0  0  0
   -7.6310    5.0990    5.0590 H   0  0  0  0  0  0  0  0  0  0  0  0
   -9.1834    5.9328    5.1373 H   0  0  0  0  0  0  0  0  0  0  0  0
  -10.8767    3.6571    4.4101 H   0  0  0  0  0  0  0  0  0  0  0  0
  -12.4780    2.3787    2.4388 H   0  0  0  0  0  0  0  0  0  0  0  0
  -13.1976    3.8234    1.6725 H   0  0  0  0  0  0  0  0  0  0  0  0
  -13.0797    3.7053    3.4651 H   0  0  0  0  0  0  0  0  0  0  0  0
   -6.6105    4.2332    3.3926 H   0  0  0  0  0  0  0  0  0  0  0  0
   -6.6181    1.3251    2.7985 H   0  0  0  0  0  0  0  0  0  0  0  0
   -5.5211    2.0519    4.0045 H   0  0  0  0  0  0  0  0  0  0  0  0
   -5.2994    2.4066    2.2567 H   0  0  0  0  0  0  0  0  0  0  0  0
  2  1  2  0  0  0  0
  3  4  1  0  0  0  0
  3  2  1  0  0  0  0
  4 49  1  0  0  0  0
  4 50  1  0  0  0  0
  5 52  1  0  0  0  0
  5  4  1  0  0  0  0
  6 53  1  6  0  0  0
  6  5  1  0  0  0  0
  6  9  1  0  0  0  0
  7  6  1  0  0  0  0
  7  8  1  0  0  0  0
  8  3  1  0  0  0  0
  8 57  1  0  0  0  0
  9 58  1  0  0  0  0
 10  9  1  0  0  0  0
 10 11  1  0  0  0  0
 11 12  1  0  0  0  0
 12 13  1  0  0  0  0
 12 26  2  0  0  0  0
 13 14  1  0  0  0  0
 14 59  1  0  0  0  0
 14 15  2  0  0  0  0
 15 60  1  0  0  0  0
 16 15  1  0  0  0  0
 16 17  1  0  0  0  0
 18 23  1  0  0  0  0
 18 17  1  0  0  0  0
 19 18  2  0  0  0  0
 20 21  2  0  0  0  0
 20 19  1  0  0  0  0
 21 22  1  0  0  0  0
 22 64  1  0  0  0  0
 22 23  2  0  0  0  0
 23 65  1  0  0  0  0
 24 16  2  0  0  0  0
 25 13  2  0  0  0  0
 25 24  1  0  0  0  0
 27 11  2  0  0  0  0
 27 28  1  0  0  0  0
 28 68  1  0  0  0  0
 29 31  1  0  0  0  0
 29 28  1  0  0  0  0
 29 30  1  0  0  0  0
 30 70  1  0  0  0  0
 31 73  1  0  0  0  0
 32 27  1  0  0  0  0
 33 34  1  0  0  0  0
 33 32  2  0  0  0  0
 34 10  2  0  0  0  0
 35  2  1  0  0  0  0
 35 77  1  0  0  0  0
 36 37  1  0  0  0  0
 36 35  1  0  0  0  0
 38 80  1  0  0  0  0
 38 81  1  0  0  0  0
 38 37  1  0  0  0  0
 39 40  1  6  0  0  0
 39 38  1  0  0  0  0
 41 39  1  0  0  0  0
 41 82  1  0  0  0  0
 42 43  1  0  0  0  0
 42 41  1  0  0  0  0
 43 85  1  0  0  0  0
 44 42  2  0  0  0  0
 45 39  1  0  0  0  0
 46 45  1  0  0  0  0
 46 86  1  0  0  0  0
 47 46  1  0  0  0  0
 47 88  1  0  0  0  0
 48 45  2  0  0  0  0
 51  5  1  0  0  0  0
 54  7  1  0  0  0  0
 55  7  1  0  0  0  0
 56  8  1  0  0  0  0
 61 19  1  0  0  0  0
 62 20  1  0  0  0  0
 63 21  1  0  0  0  0
 66 24  1  0  0  0  0
 67 25  1  0  0  0  0
 69 29  1  0  0  0  0
 71 30  1  0  0  0  0
 72 30  1  0  0  0  0
 74 31  1  0  0  0  0
 75 31  1  0  0  0  0
 76 33  1  0  0  0  0
 78 36  1  0  0  0  0
 79 36  1  0  0  0  0
 83 43  1  0  0  0  0
 84 43  1  0  0  0  0
 87 47  1  0  0  0  0
 89 47  1  0  0  0  0
M  END
