89
-1 1
O         0.475314   -4.196766   -1.000238
C        -0.335353   -3.319153   -0.713076
N         0.068801   -2.027805   -0.504321
C         1.459377   -1.675498   -0.750485
C         1.560635   -0.561388   -1.788428
C         0.706776    0.658387   -1.414220
C        -0.714685    0.223414   -1.054346
C        -0.729803   -0.906230   -0.029638
N         1.263172    1.396839   -0.282946
C         2.293300    2.257292   -0.357212
C         2.709589    3.065838    0.751158
C         2.228973    2.916166    2.129553
C         1.804845    1.565374    2.627084
C         0.687133    1.449287    3.462384
C         0.316305    0.216195    3.981796
C         1.091987   -0.915747    3.709993
O         0.702878   -2.074636    4.297917
C         1.138385   -3.285242    3.813660
C         0.914006   -3.651921    2.487093
C         1.337601   -4.901073    2.038688
C         1.966056   -5.783182    2.919997
C         2.173265   -5.411435    4.247874
C         1.765917   -4.156424    4.700361
C         2.231410   -0.808333    2.904891
C         2.567302    0.424416    2.357530
O         2.224095    3.846262    2.933835
C         3.621602    4.119480    0.418889
N         3.934518    5.074765    1.308348
C         4.931495    6.106561    1.081894
C         4.617186    7.296538    1.981477
C         6.347637    5.572031    1.298202
N         4.216287    4.184187   -0.790163
C         3.832342    3.285699   -1.678703
N         2.895223    2.362392   -1.558112
C        -1.771079   -3.711182   -0.585967
C        -2.855001   -3.042248   -0.986929
S        -4.184577    0.435546   -0.817556
C        -3.985656    1.120775   -2.496225
C        -4.573724    0.215994   -3.597997
H        -4.530008    0.726406   -4.576270
N        -5.950262   -0.051645   -3.305339
C        -6.852321   -0.386319   -4.254693
C        -8.164125   -0.925253   -3.711365
O        -6.646757   -0.278050   -5.452950
C        -3.810208   -1.113113   -3.764268
N        -2.476622   -0.968574   -4.032236
C        -1.579498   -2.087560   -4.160886
O        -4.346762   -2.200471   -3.697912
H         1.983646   -2.580258   -1.077050
H         1.912166   -1.342356    0.200854
H         1.205364   -0.943362   -2.759652
H         2.605963   -0.247579   -1.923200
H         0.684281    1.345924   -2.272721
H        -1.223421   -0.141585   -1.957068
H        -1.327412    1.061461   -0.689760
H        -1.764574   -1.196234    0.171775
H        -0.299594   -0.568725    0.935534
H         0.756184    1.343484    0.589748
H         0.099169    2.340316    3.691064
H        -0.570323    0.105282    4.607245
H         0.417442   -2.956997    1.807420
H         1.165936   -5.163480    0.991736
H         2.293238   -6.763823    2.568099
H         2.662172   -6.100182    4.940955
H         1.922305   -3.839667    5.732890
H         2.845143   -1.686318    2.701043
H         3.446961    0.504258    1.714113
H         3.424121    5.026464    2.190055
H         4.844848    6.414250    0.028649
H         4.681977    7.013983    3.045276
H         3.603760    7.678473    1.789475
H         5.334003    8.111902    1.806533
H         6.477431    5.222136    2.334878
H         7.095530    6.355448    1.099431
H         6.538100    4.732082    0.615503
H         4.344843    3.321338   -2.649258
H        -1.862810   -4.751186   -0.257662
H        -3.838667   -3.515950   -0.952628
H        -2.863773   -2.011229   -1.354015
H        -2.920790    1.318835   -2.723597
H        -4.493327    2.095869   -2.580318
H        -6.110452   -0.244744   -2.315409
H        -8.054419   -2.009976   -3.559078
H        -8.956854   -0.752505   -4.449815
H        -8.436757   -0.469634   -2.748633
H        -2.096562   -0.032476   -4.032136
H        -2.186100   -3.001376   -4.131548
H        -0.854734   -2.131438   -3.330220
H        -1.025342   -2.056093   -5.113023
