-1 1
 OpenBabel05192410563D

 93 95  0  0  1  0  0  0  0  0999 V2000
    4.9923    0.6046   -2.3748 C   0  0  0  0  0  0  0  0  0  0  0  0
    5.4642    1.6468   -1.3727 C   0  0  0  0  0  0  0  0  0  0  0  0
    5.3697    1.2060   -0.0418 O   0  0  0  0  0  0  0  0  0  0  0  0
    4.1883    1.2878    0.6650 C   0  0  0  0  0  0  0  0  0  0  0  0
    4.2644    0.8068    1.8171 O   0  0  0  0  0  0  0  0  0  0  0  0
    3.0497    1.8523    0.0752 C   0  0  0  0  0  3  0  0  0  0  0  0
    1.7938    1.8655    0.8645 C   0  0  1  0  0  0  0  0  0  0  0  0
    0.7468    3.4330    0.7826 S   0  0  0  0  0  0  0  0  0  0  0  0
    1.5962    4.4589   -0.4353 C   0  0  0  0  0  0  0  0  0  0  0  0
    1.1606    4.2692   -1.8962 C   0  0  2  0  0  0  0  0  0  0  0  0
    1.2352    3.2104   -2.1788 H   0  0  0  0  0  0  0  0  0  0  0  0
    2.0342    5.0194   -2.7783 N   0  0  0  0  0  0  0  0  0  0  0  0
    3.0863    4.4674   -3.4295 C   0  0  0  0  0  0  0  0  0  0  0  0
    3.9271    5.4350   -4.2410 C   0  0  0  0  0  0  0  0  0  0  0  0
    3.3639    3.2828   -3.3642 O   0  0  0  0  0  0  0  0  0  0  0  0
   -0.2466    4.8177   -2.1385 C   0  0  0  0  0  0  0  0  0  0  0  0
   -1.1865    3.9246   -2.4948 N   0  0  0  0  0  0  0  0  0  0  0  0
   -2.5419    4.3298   -2.7667 C   0  0  0  0  0  0  0  0  0  0  0  0
   -0.4489    6.0224   -2.0434 O   0  0  0  0  0  0  0  0  0  0  0  0
    0.8315    0.6793    0.5956 C   0  0  1  0  0  0  0  0  0  0  0  0
   -0.0536    0.8176    1.2249 H   0  0  0  0  0  0  0  0  0  0  0  0
    0.4273    0.7071   -0.8004 N   0  0  0  0  0  0  0  0  0  0  0  0
   -0.7673    0.7073   -1.3962 C   0  0  0  0  0  0  0  0  0  0  0  0
   -2.0754    0.2641   -0.7026 C   0  0  1  0  0  0  0  0  0  0  0  0
   -2.4343   -0.4986   -1.4075 H   0  0  0  0  0  0  0  0  0  0  0  0
   -1.9766   -0.4264    0.5837 N   0  0  0  0  0  0  0  0  0  0  0  0
   -2.2794    0.1886    1.7663 C   0  0  0  0  0  0  0  0  0  0  0  0
   -2.1317   -0.4404    2.9607 C   0  0  0  0  0  0  0  0  0  0  0  0
   -1.6290   -1.7717    2.9722 C   0  0  0  0  0  0  0  0  0  0  0  0
   -1.3210   -2.4101    1.8106 C   0  0  0  0  0  0  0  0  0  0  0  0
   -0.6972   -3.6728    1.8016 N   0  0  0  0  0  0  0  0  0  0  0  0
   -1.3174   -4.7320    1.2249 C   0  0  0  0  0  0  0  0  0  0  0  0
   -0.5058   -5.9870    1.1041 C   0  0  0  0  0  0  0  0  0  0  0  0
    0.6680   -6.1536    1.6536 N   0  0  0  0  0  0  0  0  0  0  0  0
    1.0588   -7.4146    1.3254 O   0  0  0  0  0  0  0  0  0  0  0  0
    0.1177   -8.0106    0.5748 C   0  0  0  0  0  0  0  0  0  0  0  0
    0.3995   -9.3982    0.1222 C   0  0  0  0  0  0  0  0  0  0  0  0
   -0.9208   -7.1513    0.3968 C   0  0  0  0  0  0  0  0  0  0  0  0
   -2.4680   -4.7264    0.8319 O   0  0  0  0  0  0  0  0  0  0  0  0
   -1.5243   -1.7592    0.5115 C   0  0  0  0  0  0  0  0  0  0  0  0
   -1.2820   -2.2654   -0.5687 O   0  0  0  0  0  0  0  0  0  0  0  0
   -3.0474    1.4445   -0.7127 C   0  0  0  0  0  0  0  0  0  0  0  0
   -4.4510    1.1577   -0.2329 C   0  0  0  0  0  0  0  0  0  0  0  0
   -5.2141    2.1946    0.3176 C   0  0  0  0  0  0  0  0  0  0  0  0
   -6.5243    1.9779    0.7394 C   0  0  0  0  0  0  0  0  0  0  0  0
   -7.0938    0.7106    0.6255 C   0  0  0  0  0  0  0  0  0  0  0  0
   -6.3415   -0.3320    0.0872 C   0  0  0  0  0  0  0  0  0  0  0  0
   -5.0327   -0.1110   -0.3385 C   0  0  0  0  0  0  0  0  0  0  0  0
   -0.8986    1.0614   -2.5711 O   0  0  0  0  0  0  0  0  0  0  0  0
    1.4974   -0.6528    0.9307 C   0  0  0  0  0  0  0  0  0  0  0  0
    1.7390   -0.8495    2.4262 C   0  0  0  0  0  0  0  0  0  0  0  0
    2.5500   -2.1081    2.6216 C   0  0  0  0  0  0  0  0  0  0  0  0
    3.8780   -1.9041    2.5532 N   0  0  0  0  0  0  0  0  0  0  0  0
    2.0297   -3.2132    2.7731 O   0  0  0  0  0  0  0  0  0  0  0  0
    5.0851    0.9931   -3.3994 H   0  0  0  0  0  0  0  0  0  0  0  0
    3.9344    0.3591   -2.2058 H   0  0  0  0  0  0  0  0  0  0  0  0
    5.5823   -0.3200   -2.2783 H   0  0  0  0  0  0  0  0  0  0  0  0
    4.9161    2.5905   -1.5257 H   0  0  0  0  0  0  0  0  0  0  0  0
    6.5337    1.8607   -1.5380 H   0  0  0  0  0  0  0  0  0  0  0  0
    3.0426    2.1522   -0.9727 H   0  0  0  0  0  0  0  0  0  0  0  0
    2.0745    1.8045    1.9241 H   0  0  0  0  0  0  0  0  0  0  0  0
    2.6702    4.2336   -0.3495 H   0  0  0  0  0  0  0  0  0  0  0  0
    1.4271    5.5073   -0.1476 H   0  0  0  0  0  0  0  0  0  0  0  0
    1.8292    6.0087   -2.8560 H   0  0  0  0  0  0  0  0  0  0  0  0
    4.8662    5.6191   -3.6982 H   0  0  0  0  0  0  0  0  0  0  0  0
    3.4299    6.3972   -4.4277 H   0  0  0  0  0  0  0  0  0  0  0  0
    4.1833    4.9590   -5.1963 H   0  0  0  0  0  0  0  0  0  0  0  0
   -0.9471    2.9324   -2.5791 H   0  0  0  0  0  0  0  0  0  0  0  0
   -3.1724    4.3097   -1.8608 H   0  0  0  0  0  0  0  0  0  0  0  0
   -2.9853    3.6558   -3.5128 H   0  0  0  0  0  0  0  0  0  0  0  0
   -2.5454    5.3581   -3.1532 H   0  0  0  0  0  0  0  0  0  0  0  0
    1.1923    0.9335   -1.4358 H   0  0  0  0  0  0  0  0  0  0  0  0
   -2.6221    1.2194    1.7025 H   0  0  0  0  0  0  0  0  0  0  0  0
   -2.3788    0.0829    3.8827 H   0  0  0  0  0  0  0  0  0  0  0  0
   -1.4506   -2.2910    3.9161 H   0  0  0  0  0  0  0  0  0  0  0  0
    0.2811   -3.7172    2.1394 H   0  0  0  0  0  0  0  0  0  0  0  0
    1.3063   -9.4277   -0.5002 H   0  0  0  0  0  0  0  0  0  0  0  0
   -0.4438   -9.7794   -0.4668 H   0  0  0  0  0  0  0  0  0  0  0  0
    0.5606  -10.0647    0.9826 H   0  0  0  0  0  0  0  0  0  0  0  0
   -1.8477   -7.2870   -0.1507 H   0  0  0  0  0  0  0  0  0  0  0  0
   -3.0862    1.7597   -1.7652 H   0  0  0  0  0  0  0  0  0  0  0  0
   -2.6210    2.3021   -0.1662 H   0  0  0  0  0  0  0  0  0  0  0  0
   -4.7690    3.1887    0.4191 H   0  0  0  0  0  0  0  0  0  0  0  0
   -7.0998    2.8027    1.1662 H   0  0  0  0  0  0  0  0  0  0  0  0
   -8.1176    0.5339    0.9628 H   0  0  0  0  0  0  0  0  0  0  0  0
   -6.7711   -1.3327    0.0032 H   0  0  0  0  0  0  0  0  0  0  0  0
   -4.4598   -0.9480   -0.7441 H   0  0  0  0  0  0  0  0  0  0  0  0
    2.4603   -0.6847    0.3982 H   0  0  0  0  0  0  0  0  0  0  0  0
    0.8960   -1.4810    0.5321 H   0  0  0  0  0  0  0  0  0  0  0  0
    0.7897   -0.9565    2.9663 H   0  0  0  0  0  0  0  0  0  0  0  0
    2.3012    0.0048    2.8226 H   0  0  0  0  0  0  0  0  0  0  0  0
    4.2337   -0.9641    2.3021 H   0  0  0  0  0  0  0  0  0  0  0  0
    4.4825   -2.7146    2.5385 H   0  0  0  0  0  0  0  0  0  0  0  0
  1 57  1  0  0  0  0
  1 56  1  0  0  0  0
  1  2  1  0  0  0  0
  2  3  1  0  0  0  0
  3  4  1  0  0  0  0
  4  5  2  0  0  0  0
  6  4  1  0  0  0  0
  6  7  1  0  0  0  0
  7 61  1  1  0  0  0
  8  7  1  0  0  0  0
  9 62  1  0  0  0  0
  9 63  1  0  0  0  0
  9  8  1  0  0  0  0
 10 11  1  6  0  0  0
 10  9  1  0  0  0  0
 12 10  1  0  0  0  0
 13 15  2  0  0  0  0
 13 12  1  0  0  0  0
 14 65  1  0  0  0  0
 14 13  1  0  0  0  0
 16 19  2  0  0  0  0
 16 10  1  0  0  0  0
 17 16  1  0  0  0  0
 18 17  1  0  0  0  0
 18 69  1  0  0  0  0
 20  7  1  0  0  0  0
 20 50  1  0  0  0  0
 20 21  1  1  0  0  0
 22 20  1  0  0  0  0
 23 22  1  0  0  0  0
 23 24  1  0  0  0  0
 24 25  1  6  0  0  0
 24 26  1  0  0  0  0
 26 27  1  0  0  0  0
 27 28  2  0  0  0  0
 28 29  1  0  0  0  0
 28 74  1  0  0  0  0
 29 75  1  0  0  0  0
 30 29  2  0  0  0  0
 31 30  1  0  0  0  0
 31 76  1  0  0  0  0
 32 31  1  0  0  0  0
 33 32  1  0  0  0  0
 33 34  2  0  0  0  0
 35 34  1  0  0  0  0
 36 35  1  0  0  0  0
 37 36  1  0  0  0  0
 37 79  1  0  0  0  0
 38 36  2  0  0  0  0
 38 33  1  0  0  0  0
 39 32  2  0  0  0  0
 40 26  1  0  0  0  0
 40 30  1  0  0  0  0
 41 40  2  0  0  0  0
 42 24  1  0  0  0  0
 42 43  1  0  0  0  0
 42 82  1  0  0  0  0
 43 44  1  0  0  0  0
 44 83  1  0  0  0  0
 44 45  2  0  0  0  0
 45 84  1  0  0  0  0
 46 45  1  0  0  0  0
 46 85  1  0  0  0  0
 47 46  2  0  0  0  0
 48 43  2  0  0  0  0
 48 47  1  0  0  0  0
 49 23  2  0  0  0  0
 50 51  1  0  0  0  0
 51 52  1  0  0  0  0
 51 91  1  0  0  0  0
 51 90  1  0  0  0  0
 52 54  2  0  0  0  0
 53 52  1  0  0  0  0
 55  1  1  0  0  0  0
 58  2  1  0  0  0  0
 59  2  1  0  0  0  0
 60  6  1  0  0  0  0
 64 12  1  0  0  0  0
 66 14  1  0  0  0  0
 67 14  1  0  0  0  0
 68 17  1  0  0  0  0
 70 18  1  0  0  0  0
 71 18  1  0  0  0  0
 72 22  1  0  0  0  0
 73 27  1  0  0  0  0
 77 37  1  0  0  0  0
 78 37  1  0  0  0  0
 80 38  1  0  0  0  0
 81 42  1  0  0  0  0
 86 47  1  0  0  0  0
 87 48  1  0  0  0  0
 88 50  1  0  0  0  0
 89 50  1  0  0  0  0
 92 53  1  0  0  0  0
 93 53  1  0  0  0  0
M  END
