-1 1
 OpenBabel05232414493D

 93 94  0  0  1  0  0  0  0  0999 V2000
   10.3264    4.4203    3.2848 C   0  0  0  0  0  0  0  0  0  0  0  0
    9.8067    5.5485    4.1607 C   0  0  0  0  0  0  0  0  0  0  0  0
    9.7824    5.2112    5.5272 O   0  0  0  0  0  0  0  0  0  0  0  0
    8.6936    4.6183    6.1167 C   0  0  0  0  0  0  0  0  0  0  0  0
    8.7349    4.5154    7.3266 O   0  0  0  0  0  0  0  0  0  0  0  0
    7.6240    4.1219    5.2697 C   0  0  0  0  0  3  0  0  0  0  0  0
    6.4707    3.6573    5.8730 C   0  0  0  0  0  3  0  0  0  0  0  0
    4.6715    5.3283    5.8621 S   0  0  0  0  0  1  0  0  0  0  0  0
    5.5876    6.4077    4.7495 C   0  0  0  0  0  0  0  0  0  0  0  0
    5.2845    6.2032    3.2556 C   0  0  2  0  0  0  0  0  0  0  0  0
    5.1939    5.1343    3.0461 H   0  0  0  0  0  0  0  0  0  0  0  0
    6.3543    6.6918    2.4017 N   0  0  0  0  0  0  0  0  0  0  0  0
    7.2299    5.8739    1.7785 C   0  0  0  0  0  0  0  0  0  0  0  0
    8.2503    6.5757    0.9003 C   0  0  0  0  0  0  0  0  0  0  0  0
    7.2482    4.6589    1.9244 O   0  0  0  0  0  0  0  0  0  0  0  0
    4.0172    6.9382    2.8255 C   0  0  0  0  0  0  0  0  0  0  0  0
    2.9910    6.1428    2.4613 N   0  0  0  0  0  0  0  0  0  0  0  0
    1.7071    6.6595    2.0733 C   0  0  0  0  0  0  0  0  0  0  0  0
    3.9869    8.1620    2.8047 O   0  0  0  0  0  0  0  0  0  0  0  0
    5.6493    2.5160    5.3099 C   0  0  1  0  0  0  0  0  0  0  0  0
    4.7811    2.4386    5.9548 H   0  0  0  0  0  0  0  0  0  0  0  0
    5.1909    2.7254    3.9466 N   0  0  0  0  0  0  0  0  0  0  0  0
    3.9415    2.8634    3.4700 C   0  0  0  0  0  0  0  0  0  0  0  0
    2.6608    2.3668    4.1807 C   0  0  1  0  0  0  0  0  0  0  0  0
    2.3470    1.5539    3.5106 H   0  0  0  0  0  0  0  0  0  0  0  0
    2.7837    1.7252    5.4876 N   0  0  0  0  0  0  0  0  0  0  0  0
    2.6514    2.4410    6.6432 C   0  0  0  0  0  0  0  0  0  0  0  0
    2.8543    1.8724    7.8621 C   0  0  0  0  0  0  0  0  0  0  0  0
    3.1987    0.4945    7.9204 C   0  0  0  0  0  0  0  0  0  0  0  0
    3.3193   -0.2430    6.7810 C   0  0  0  0  0  0  0  0  0  0  0  0
    3.7093   -1.5988    6.8003 N   0  0  0  0  0  0  0  0  0  0  0  0
    2.8476   -2.5556    6.3787 C   0  0  0  0  0  0  0  0  0  0  0  0
    3.4206   -3.9359    6.2420 C   0  0  0  0  0  0  0  0  0  0  0  0
    4.6298   -4.2644    6.6142 N   0  0  0  0  0  0  0  0  0  0  0  0
    4.7605   -5.5901    6.3349 O   0  0  0  0  0  0  0  0  0  0  0  0
    3.6257   -6.0623    5.7927 C   0  0  0  0  0  0  0  0  0  0  0  0
    3.6072   -7.5014    5.4208 C   0  0  0  0  0  0  0  0  0  0  0  0
    2.7186   -5.0531    5.7070 C   0  0  0  0  0  0  0  0  0  0  0  0
    1.6701   -2.3731    6.1377 O   0  0  0  0  0  0  0  0  0  0  0  0
    3.1046    0.3561    5.4650 C   0  0  0  0  0  0  0  0  0  0  0  0
    3.2269   -0.2377    4.4059 O   0  0  0  0  0  0  0  0  0  0  0  0
    1.6056    3.4773    4.1542 C   0  0  0  0  0  0  0  0  0  0  0  0
    0.2705    3.1145    4.7590 C   0  0  0  0  0  0  0  0  0  0  0  0
   -0.4978    4.1108    5.3730 C   0  0  0  0  0  0  0  0  0  0  0  0
   -1.7496    3.8227    5.9138 C   0  0  0  0  0  0  0  0  0  0  0  0
   -2.2516    2.5234    5.8603 C   0  0  0  0  0  0  0  0  0  0  0  0
   -1.4908    1.5194    5.2627 C   0  0  0  0  0  0  0  0  0  0  0  0
   -0.2428    1.8120    4.7159 C   0  0  0  0  0  0  0  0  0  0  0  0
    3.7464    3.3438    2.3525 O   0  0  0  0  0  0  0  0  0  0  0  0
    6.4134    1.1874    5.4196 C   0  0  0  0  0  0  0  0  0  0  0  0
    6.8360    0.9048    6.8652 C   0  0  0  0  0  0  0  0  0  0  0  0
    7.3276   -0.5141    7.0228 C   0  0  0  0  0  0  0  0  0  0  0  0
    8.6738   -0.6738    6.9718 N   0  0  0  0  0  0  0  0  0  0  0  0
    6.5773   -1.4691    7.1566 O   0  0  0  0  0  0  0  0  0  0  0  0
   10.4008    4.7475    2.2367 H   0  0  0  0  0  0  0  0  0  0  0  0
    9.6517    3.5540    3.3121 H   0  0  0  0  0  0  0  0  0  0  0  0
   11.3230    4.1031    3.6279 H   0  0  0  0  0  0  0  0  0  0  0  0
    8.8104    5.8808    3.8288 H   0  0  0  0  0  0  0  0  0  0  0  0
   10.4805    6.4180    4.0844 H   0  0  0  0  0  0  0  0  0  0  0  0
    7.7284    4.0943    4.1844 H   0  0  0  0  0  0  0  0  0  0  0  0
    6.4959    3.6652    6.9649 H   0  0  0  0  0  0  0  0  0  0  0  0
    6.6611    6.1715    4.8913 H   0  0  0  0  0  0  0  0  0  0  0  0
    5.4404    7.4662    5.0134 H   0  0  0  0  0  0  0  0  0  0  0  0
    6.3616    7.6895    2.2240 H   0  0  0  0  0  0  0  0  0  0  0  0
    9.1397    6.8137    1.5038 H   0  0  0  0  0  0  0  0  0  0  0  0
    7.8663    7.5104    0.4673 H   0  0  0  0  0  0  0  0  0  0  0  0
    8.5536    5.8909    0.0991 H   0  0  0  0  0  0  0  0  0  0  0  0
    3.1662    5.1373    2.4091 H   0  0  0  0  0  0  0  0  0  0  0  0
    0.9030    6.2284    2.6923 H   0  0  0  0  0  0  0  0  0  0  0  0
    1.4823    6.4415    1.0159 H   0  0  0  0  0  0  0  0  0  0  0  0
    1.7202    7.7482    2.2126 H   0  0  0  0  0  0  0  0  0  0  0  0
    5.8832    3.0940    3.2903 H   0  0  0  0  0  0  0  0  0  0  0  0
    2.4398    3.5037    6.5284 H   0  0  0  0  0  0  0  0  0  0  0  0
    2.7626    2.4782    8.7614 H   0  0  0  0  0  0  0  0  0  0  0  0
    3.3797    0.0062    8.8804 H   0  0  0  0  0  0  0  0  0  0  0  0
    4.7122   -1.7942    6.9259 H   0  0  0  0  0  0  0  0  0  0  0  0
    4.3821   -7.7198    4.6710 H   0  0  0  0  0  0  0  0  0  0  0  0
    2.6288   -7.7683    5.0030 H   0  0  0  0  0  0  0  0  0  0  0  0
    3.8014   -8.1345    6.2994 H   0  0  0  0  0  0  0  0  0  0  0  0
    1.7035   -5.0627    5.3238 H   0  0  0  0  0  0  0  0  0  0  0  0
    1.4633    3.7192    3.0912 H   0  0  0  0  0  0  0  0  0  0  0  0
    2.0113    4.3905    4.6202 H   0  0  0  0  0  0  0  0  0  0  0  0
   -0.0997    5.1277    5.4331 H   0  0  0  0  0  0  0  0  0  0  0  0
   -2.3301    4.6171    6.3894 H   0  0  0  0  0  0  0  0  0  0  0  0
   -3.2275    2.2909    6.2931 H   0  0  0  0  0  0  0  0  0  0  0  0
   -1.8632    0.4931    5.2290 H   0  0  0  0  0  0  0  0  0  0  0  0
    0.3399    1.0029    4.2685 H   0  0  0  0  0  0  0  0  0  0  0  0
    7.3009    1.2205    4.7661 H   0  0  0  0  0  0  0  0  0  0  0  0
    5.7628    0.3767    5.0550 H   0  0  0  0  0  0  0  0  0  0  0  0
    5.9628    1.0144    7.5260 H   0  0  0  0  0  0  0  0  0  0  0  0
    7.5960    1.6323    7.1891 H   0  0  0  0  0  0  0  0  0  0  0  0
    9.2956    0.1121    6.8493 H   0  0  0  0  0  0  0  0  0  0  0  0
    9.0520   -1.6108    7.0116 H   0  0  0  0  0  0  0  0  0  0  0  0
  1 56  1  0  0  0  0
  1 57  1  0  0  0  0
  1  2  1  0  0  0  0
  2  3  1  0  0  0  0
  3  4  1  0  0  0  0
  4  5  2  0  0  0  0
  6  7  1  0  0  0  0
  6  4  1  0  0  0  0
  7 61  1  0  0  0  0
  9 62  1  0  0  0  0
  9 63  1  0  0  0  0
  9  8  1  0  0  0  0
 10 11  1  6  0  0  0
 10  9  1  0  0  0  0
 12 10  1  0  0  0  0
 13 15  2  0  0  0  0
 13 12  1  0  0  0  0
 14 65  1  0  0  0  0
 14 13  1  0  0  0  0
 16 10  1  0  0  0  0
 17 16  1  0  0  0  0
 18 71  1  0  0  0  0
 18 17  1  0  0  0  0
 18 69  1  0  0  0  0
 19 16  2  0  0  0  0
 20 50  1  0  0  0  0
 20  7  1  0  0  0  0
 20 21  1  1  0  0  0
 22 20  1  0  0  0  0
 23 22  1  0  0  0  0
 23 24  1  0  0  0  0
 24 25  1  6  0  0  0
 24 26  1  0  0  0  0
 26 27  1  0  0  0  0
 27 28  2  0  0  0  0
 28 29  1  0  0  0  0
 28 74  1  0  0  0  0
 29 75  1  0  0  0  0
 30 31  1  0  0  0  0
 30 29  2  0  0  0  0
 31 76  1  0  0  0  0
 32 31  1  0  0  0  0
 33 32  1  0  0  0  0
 33 34  2  0  0  0  0
 35 34  1  0  0  0  0
 36 35  1  0  0  0  0
 37 36  1  0  0  0  0
 37 79  1  0  0  0  0
 38 36  2  0  0  0  0
 38 33  1  0  0  0  0
 39 32  2  0  0  0  0
 40 26  1  0  0  0  0
 40 30  1  0  0  0  0
 41 40  2  0  0  0  0
 42 24  1  0  0  0  0
 42 82  1  0  0  0  0
 42 43  1  0  0  0  0
 43 44  1  0  0  0  0
 44 83  1  0  0  0  0
 44 45  2  0  0  0  0
 45 84  1  0  0  0  0
 46 45  1  0  0  0  0
 46 85  1  0  0  0  0
 47 46  2  0  0  0  0
 48 43  2  0  0  0  0
 48 47  1  0  0  0  0
 49 23  2  0  0  0  0
 50 51  1  0  0  0  0
 51 52  1  0  0  0  0
 51 91  1  0  0  0  0
 51 90  1  0  0  0  0
 52 54  2  0  0  0  0
 53 93  1  0  0  0  0
 53 52  1  0  0  0  0
 55  1  1  0  0  0  0
 58  2  1  0  0  0  0
 59  2  1  0  0  0  0
 60  6  1  0  0  0  0
 64 12  1  0  0  0  0
 66 14  1  0  0  0  0
 67 14  1  0  0  0  0
 68 17  1  0  0  0  0
 70 18  1  0  0  0  0
 72 22  1  0  0  0  0
 73 27  1  0  0  0  0
 77 37  1  0  0  0  0
 78 37  1  0  0  0  0
 80 38  1  0  0  0  0
 81 42  1  0  0  0  0
 86 47  1  0  0  0  0
 87 48  1  0  0  0  0
 88 50  1  0  0  0  0
 89 50  1  0  0  0  0
 92 53  1  0  0  0  0
M  END
