93
-1 1
C         6.153069    3.236391   -1.768311
C         5.606485    4.113120   -0.658561
O         5.777049    3.524913    0.621764
C         4.972242    2.565887    1.113720
O         5.257376    2.082266    2.179422
C         3.774488    2.145738    0.319025
C         3.029076    1.163523    0.834456
S        -0.930327    3.747780    0.432462
C         0.448499    4.578450   -0.421496
C         0.470061    4.391767   -1.950170
H         0.600834    3.333265   -2.194678
N         1.566901    5.114092   -2.570888
C         2.748187    4.558745   -2.861080
C         3.744849    5.461487   -3.564991
O         3.050440    3.401445   -2.566315
C        -0.800169    4.909742   -2.615633
N        -1.680115    3.951079   -2.960783
C        -3.022837    4.237448   -3.383280
O        -0.948183    6.106227   -2.836123
C         1.810613    0.477481    0.303983
H         1.046548    0.661406    1.073453
N         1.327172    0.986475   -0.962332
C         0.100472    0.866674   -1.529241
C        -1.080508    0.052679   -0.958644
H        -1.064129   -0.867296   -1.560078
N        -1.052272   -0.438310    0.421134
C        -1.220518    0.440046    1.452289
C        -1.380363    0.003565    2.734944
C        -1.430582   -1.389672    2.979569
C        -1.285165   -2.279414    1.953462
N        -1.239992   -3.676492    2.163688
C        -2.075631   -4.521245    1.508897
C        -1.598158   -5.943846    1.437536
N        -0.329114   -6.263749    1.457042
O        -0.274407   -7.614891    1.308546
C        -1.515280   -8.112480    1.193160
C        -1.635288   -9.583574    1.022352
C        -2.415187   -7.093429    1.261110
O        -3.142377   -4.223089    1.014275
C        -1.059263   -1.828813    0.590639
O        -0.862928   -2.585346   -0.359490
C        -2.392147    0.828179   -1.240543
C        -3.604939    0.304676   -0.510792
C        -4.415419    1.202762    0.194102
C        -5.530996    0.754211    0.900171
C        -5.839436   -0.604999    0.932511
C        -5.031047   -1.511465    0.247032
C        -3.932007   -1.057217   -0.478435
O        -0.111235    1.361875   -2.631013
C         2.066856   -1.047960    0.253019
C         2.176868   -1.668756    1.646614
C         1.780704   -3.126416    1.830310
N         1.673331   -3.908236    0.730617
O         1.578444   -3.563815    2.956480
H         6.111008    3.771890   -2.727208
H         5.555356    2.321565   -1.881832
H         7.197822    2.963149   -1.557813
H         4.551054    4.363118   -0.836303
H         6.166518    5.058130   -0.603101
H         3.531044    2.624081   -0.633160
H         3.362451    0.771536    1.801571
H         1.419507    4.207299   -0.049164
H         0.417922    5.663249   -0.221271
H         1.342236    6.063391   -2.853061
H         4.497127    5.804183   -2.838322
H         3.277135    6.343471   -4.023476
H         4.263543    4.876708   -4.335827
H        -1.422696    2.994765   -2.729722
H        -3.752577    3.965111   -2.602390
H        -3.275470    3.692426   -4.306906
H        -3.098138    5.315850   -3.573298
H         1.941518    1.582793   -1.520362
H        -1.157864    1.509100    1.178768
H        -1.485727    0.732800    3.536175
H        -1.574771   -1.774924    3.991220
H        -0.374269   -4.040507    2.573684
H        -1.099166   -9.914029    0.120534
H        -2.690962   -9.865471    0.928878
H        -1.202150  -10.111881    1.884531
H        -3.497635   -7.124440    1.191446
H        -2.554854    0.794448   -2.327195
H        -2.227380    1.882608   -0.960553
H        -4.147925    2.263473    0.202784
H        -6.148826    1.471546    1.446176
H        -6.699481   -0.960449    1.505782
H        -5.226915   -2.583990    0.295853
H        -3.301094   -1.789345   -0.989004
H         2.970829   -1.241034   -0.347530
H         1.227682   -1.492316   -0.298546
H         1.538316   -1.121585    2.358951
H         3.199613   -1.579200    2.047369
H         1.473677   -3.476582   -0.162905
H         1.228121   -4.813085    0.888258
