-1 1
 OpenBabel05232413493D

 80 82  0  0  1  0  0  0  0  0999 V2000
   -0.4992    1.1548    0.8611 O   0  0  0  0  0  0  0  0  0  0  0  0
   -0.3982   -0.0450    0.6055 C   0  0  0  0  0  0  0  0  0  0  0  0
   -1.4874   -0.8311    0.3677 N   0  0  0  0  0  0  0  0  0  0  0  0
   -2.8172   -0.2543    0.5245 C   0  0  0  0  0  0  0  0  0  0  0  0
   -3.4394    0.1163   -0.8233 C   0  0  0  0  0  0  0  0  0  0  0  0
   -3.3788   -1.0633   -1.8041 C   0  0  0  0  0  0  0  0  0  0  0  0
   -1.9589   -1.6304   -1.8946 C   0  0  2  0  0  0  0  0  0  0  0  0
   -1.9401   -2.5361   -2.5201 H   0  0  0  0  0  0  0  0  0  0  0  0
   -1.4732   -2.0146   -0.4811 C   0  0  0  0  0  0  0  0  0  0  0  0
   -1.1110   -0.6005   -2.4902 N   0  0  0  0  0  0  0  0  0  0  0  0
    0.2247   -0.6425   -2.5617 C   0  0  0  0  0  0  0  0  0  0  0  0
    1.0008    0.5720   -2.6070 C   0  0  0  0  0  0  0  0  0  0  0  0
    0.3290    1.8716   -2.5285 C   0  0  0  0  0  0  0  0  0  0  0  0
    1.0937    3.0790   -2.0455 C   0  0  0  0  0  0  0  0  0  0  0  0
    1.4115    3.1934   -0.6864 C   0  0  0  0  0  0  0  0  0  0  0  0
    2.1111    4.3070   -0.2325 C   0  0  0  0  0  0  0  0  0  0  0  0
    2.5074    5.2928   -1.1365 C   0  0  0  0  0  0  0  0  0  0  0  0
    3.2057    6.3949   -0.7050 O   0  0  0  0  0  0  0  0  0  0  0  0
    4.5116    6.2696   -0.3441 C   0  0  0  0  0  0  0  0  0  0  0  0
    5.2623    5.1063   -0.5375 C   0  0  0  0  0  0  0  0  0  0  0  0
    6.6027    5.0854   -0.1509 C   0  0  0  0  0  0  0  0  0  0  0  0
    7.2016    6.2056    0.4200 C   0  0  0  0  0  0  0  0  0  0  0  0
    6.4427    7.3630    0.6062 C   0  0  0  0  0  0  0  0  0  0  0  0
    5.1051    7.3995    0.2291 C   0  0  0  0  0  0  0  0  0  0  0  0
    2.1663    5.2046   -2.4834 C   0  0  0  0  0  0  0  0  0  0  0  0
    1.4395    4.1018   -2.9315 C   0  0  0  0  0  0  0  0  0  0  0  0
   -0.8579    2.0322   -2.7912 O   0  0  0  0  0  0  0  0  0  0  0  0
    2.4134    0.3759   -2.6485 C   0  0  0  0  0  0  0  0  0  0  0  0
    3.3236    1.3712   -2.7599 N   0  0  0  0  0  0  0  0  0  0  0  0
    2.9602   -0.8500   -2.6064 N   0  0  0  0  0  0  0  0  0  0  0  0
    2.1248   -1.8767   -2.5389 C   0  0  0  0  0  0  0  0  0  0  0  0
    0.8086   -1.8549   -2.5314 N   0  0  0  0  0  0  0  0  0  0  0  0
    0.9685   -0.6534    0.6155 C   0  0  0  0  0  0  0  0  0  0  0  0
    1.2995   -1.8179    1.1756 C   0  0  0  0  0  0  0  0  0  0  0  0
   -0.7755   -4.5436    2.5411 S   0  0  0  0  0  1  0  0  0  0  0  0
   -2.4023   -3.7531    2.8082 C   0  0  0  0  0  0  0  0  0  0  0  0
   -3.6081   -4.6753    2.5175 C   0  0  2  0  0  0  0  0  0  0  0  0
   -3.4121   -5.1704    1.5510 H   0  0  0  0  0  0  0  0  0  0  0  0
   -4.8639   -3.9573    2.4397 N   0  0  0  0  0  0  0  0  0  0  0  0
   -5.2786   -3.2861    1.3542 C   0  0  0  0  0  0  0  0  0  0  0  0
   -6.6541   -2.6511    1.4588 C   0  0  0  0  0  0  0  0  0  0  0  0
   -4.6030   -3.1488    0.3405 O   0  0  0  0  0  0  0  0  0  0  0  0
   -3.8196   -5.7459    3.6018 C   0  0  0  0  0  0  0  0  0  0  0  0
   -2.7568   -6.5305    3.8315 N   0  0  0  0  0  0  0  0  0  0  0  0
   -2.7349   -7.4994    4.8929 C   0  0  0  0  0  0  0  0  0  0  0  0
   -4.8954   -5.8397    4.1930 O   0  0  0  0  0  0  0  0  0  0  0  0
   -2.7350    0.6247    1.1737 H   0  0  0  0  0  0  0  0  0  0  0  0
   -3.4428   -1.0160    1.0151 H   0  0  0  0  0  0  0  0  0  0  0  0
   -2.9188    1.0016   -1.2252 H   0  0  0  0  0  0  0  0  0  0  0  0
   -4.4882    0.4148   -0.6665 H   0  0  0  0  0  0  0  0  0  0  0  0
   -3.7309   -0.7585   -2.8039 H   0  0  0  0  0  0  0  0  0  0  0  0
   -4.0371   -1.8632   -1.4356 H   0  0  0  0  0  0  0  0  0  0  0  0
   -0.4739   -2.4504   -0.5263 H   0  0  0  0  0  0  0  0  0  0  0  0
   -2.1553   -2.7714   -0.0656 H   0  0  0  0  0  0  0  0  0  0  0  0
   -1.4967    0.3364   -2.5889 H   0  0  0  0  0  0  0  0  0  0  0  0
    1.0668    2.4262    0.0169 H   0  0  0  0  0  0  0  0  0  0  0  0
    2.3610    4.4152    0.8247 H   0  0  0  0  0  0  0  0  0  0  0  0
    4.8026    4.2202   -0.9768 H   0  0  0  0  0  0  0  0  0  0  0  0
    7.1824    4.1716   -0.3003 H   0  0  0  0  0  0  0  0  0  0  0  0
    8.2505    6.1777    0.7211 H   0  0  0  0  0  0  0  0  0  0  0  0
    6.8970    8.2495    1.0549 H   0  0  0  0  0  0  0  0  0  0  0  0
    4.4948    8.2933    0.3688 H   0  0  0  0  0  0  0  0  0  0  0  0
    2.4695    6.0031   -3.1624 H   0  0  0  0  0  0  0  0  0  0  0  0
    1.1575    4.0243   -3.9843 H   0  0  0  0  0  0  0  0  0  0  0  0
    3.0769    2.3479   -2.7644 H   0  0  0  0  0  0  0  0  0  0  0  0
    4.2915    1.0837   -2.7393 H   0  0  0  0  0  0  0  0  0  0  0  0
    2.5906   -2.8693   -2.4914 H   0  0  0  0  0  0  0  0  0  0  0  0
    1.7415    0.0213    0.2328 H   0  0  0  0  0  0  0  0  0  0  0  0
    2.3522   -2.1132    1.2232 H   0  0  0  0  0  0  0  0  0  0  0  0
    0.5698   -2.5220    1.6060 H   0  0  0  0  0  0  0  0  0  0  0  0
   -2.5052   -2.8840    2.1401 H   0  0  0  0  0  0  0  0  0  0  0  0
   -2.4982   -3.3718    3.8402 H   0  0  0  0  0  0  0  0  0  0  0  0
   -5.5073   -4.1983    3.1911 H   0  0  0  0  0  0  0  0  0  0  0  0
   -6.5296   -1.5593    1.5144 H   0  0  0  0  0  0  0  0  0  0  0  0
   -7.2273   -2.9880    2.3336 H   0  0  0  0  0  0  0  0  0  0  0  0
   -7.2147   -2.8733    0.5407 H   0  0  0  0  0  0  0  0  0  0  0  0
   -1.8648   -6.1981    3.4048 H   0  0  0  0  0  0  0  0  0  0  0  0
   -2.1431   -7.1465    5.7550 H   0  0  0  0  0  0  0  0  0  0  0  0
   -2.2969   -8.4480    4.5442 H   0  0  0  0  0  0  0  0  0  0  0  0
   -3.7640   -7.6812    5.2297 H   0  0  0  0  0  0  0  0  0  0  0  0
  2 33  1  0  0  0  0
  2  1  2  0  0  0  0
  3  4  1  0  0  0  0
  3  2  1  0  0  0  0
  4 48  1  0  0  0  0
  4 47  1  0  0  0  0
  5 50  1  0  0  0  0
  5  4  1  0  0  0  0
  6 52  1  0  0  0  0
  6  5  1  0  0  0  0
  7  8  1  6  0  0  0
  7  6  1  0  0  0  0
  7  9  1  0  0  0  0
  9 54  1  0  0  0  0
  9  3  1  0  0  0  0
 10  7  1  0  0  0  0
 11 32  2  0  0  0  0
 11 10  1  0  0  0  0
 12 11  1  0  0  0  0
 12 13  1  0  0  0  0
 13 14  1  0  0  0  0
 14 15  1  0  0  0  0
 15 16  2  0  0  0  0
 15 56  1  0  0  0  0
 16 57  1  0  0  0  0
 17 18  1  0  0  0  0
 17 16  1  0  0  0  0
 18 19  1  0  0  0  0
 19 24  1  0  0  0  0
 20 19  2  0  0  0  0
 20 21  1  0  0  0  0
 21 22  2  0  0  0  0
 22 23  1  0  0  0  0
 22 60  1  0  0  0  0
 23 61  1  0  0  0  0
 24 62  1  0  0  0  0
 24 23  2  0  0  0  0
 25 17  2  0  0  0  0
 26 25  1  0  0  0  0
 26 14  2  0  0  0  0
 27 13  2  0  0  0  0
 28 12  2  0  0  0  0
 28 30  1  0  0  0  0
 29 66  1  0  0  0  0
 29 28  1  0  0  0  0
 30 31  2  0  0  0  0
 31 32  1  0  0  0  0
 31 67  1  0  0  0  0
 33 34  2  0  0  0  0
 34 69  1  0  0  0  0
 34 70  1  0  0  0  0
 35 36  1  0  0  0  0
 36 72  1  0  0  0  0
 37 38  1  6  0  0  0
 37 36  1  0  0  0  0
 37 43  1  0  0  0  0
 39 37  1  0  0  0  0
 39 73  1  0  0  0  0
 40 41  1  0  0  0  0
 40 39  1  0  0  0  0
 41 74  1  0  0  0  0
 41 75  1  0  0  0  0
 42 40  2  0  0  0  0
 43 44  1  0  0  0  0
 43 46  2  0  0  0  0
 44 45  1  0  0  0  0
 45 80  1  0  0  0  0
 45 78  1  0  0  0  0
 49  5  1  0  0  0  0
 51  6  1  0  0  0  0
 53  9  1  0  0  0  0
 55 10  1  0  0  0  0
 58 20  1  0  0  0  0
 59 21  1  0  0  0  0
 63 25  1  0  0  0  0
 64 26  1  0  0  0  0
 65 29  1  0  0  0  0
 68 33  1  0  0  0  0
 71 36  1  0  0  0  0
 76 41  1  0  0  0  0
 77 44  1  0  0  0  0
 79 45  1  0  0  0  0
M  END
