80
-1 1
O        -0.499246    1.154755    0.861118
C        -0.398159   -0.044999    0.605538
N        -1.487441   -0.831081    0.367746
C        -2.817203   -0.254308    0.524542
C        -3.439373    0.116293   -0.823292
C        -3.378834   -1.063312   -1.804059
C        -1.958933   -1.630372   -1.894616
H        -1.940113   -2.536090   -2.520124
C        -1.473200   -2.014648   -0.481144
N        -1.110954   -0.600539   -2.490197
C         0.224708   -0.642475   -2.561720
C         1.000785    0.571980   -2.606955
C         0.329034    1.871647   -2.528457
C         1.093716    3.078970   -2.045545
C         1.411467    3.193408   -0.686358
C         2.111069    4.307019   -0.232514
C         2.507379    5.292754   -1.136542
O         3.205711    6.394912   -0.705011
C         4.511630    6.269625   -0.344094
C         5.262279    5.106253   -0.537471
C         6.602672    5.085389   -0.150875
C         7.201565    6.205560    0.419991
C         6.442681    7.362976    0.606224
C         5.105112    7.399505    0.229053
C         2.166321    5.204550   -2.483350
C         1.439507    4.101807   -2.931535
O        -0.857905    2.032220   -2.791233
C         2.413401    0.375949   -2.648500
N         3.323631    1.371211   -2.759881
N         2.960249   -0.849953   -2.606404
C         2.124820   -1.876666   -2.538905
N         0.808606   -1.854880   -2.531359
C         0.968507   -0.653365    0.615510
C         1.299530   -1.817930    1.175578
S        -0.775546   -4.543621    2.541088
C        -2.402324   -3.753112    2.808213
C        -3.608086   -4.675275    2.517508
H        -3.412063   -5.170425    1.550983
N        -4.863887   -3.957298    2.439720
C        -5.278574   -3.286123    1.354153
C        -6.654147   -2.651148    1.458775
O        -4.602995   -3.148841    0.340454
C        -3.819566   -5.745916    3.601790
N        -2.756844   -6.530494    3.831505
C        -2.734897   -7.499377    4.892861
O        -4.895409   -5.839671    4.193027
H        -2.734973    0.624721    1.173723
H        -3.442827   -1.016018    1.015096
H        -2.918787    1.001634   -1.225232
H        -4.488191    0.414794   -0.666454
H        -3.730916   -0.758533   -2.803856
H        -4.037113   -1.863197   -1.435567
H        -0.473900   -2.450416   -0.526311
H        -2.155334   -2.771448   -0.065647
H        -1.496668    0.336367   -2.588878
H         1.066775    2.426247    0.016888
H         2.360987    4.415226    0.824708
H         4.802569    4.220183   -0.976755
H         7.182378    4.171600   -0.300322
H         8.250451    6.177714    0.721092
H         6.896995    8.249484    1.054895
H         4.494815    8.293279    0.368809
H         2.469490    6.003127   -3.162415
H         1.157547    4.024348   -3.984329
H         3.076941    2.347920   -2.764408
H         4.291480    1.083661   -2.739272
H         2.590635   -2.869254   -2.491353
H         1.741471    0.021308    0.232799
H         2.352182   -2.113210    1.223243
H         0.569771   -2.521979    1.606036
H        -2.505183   -2.884043    2.140086
H        -2.498195   -3.371760    3.840204
H        -5.507253   -4.198317    3.191137
H        -6.529582   -1.559295    1.514392
H        -7.227287   -2.987953    2.333576
H        -7.214727   -2.873254    0.540736
H        -1.864814   -6.198091    3.404768
H        -2.143098   -7.146470    5.754997
H        -2.296924   -8.448027    4.544199
H        -3.764046   -7.681175    5.229706
