83
-1 1
O         1.375707   -1.042696    4.911909
C         0.545306   -0.113449    4.996587
N         0.446597    0.757169    3.868110
C        -0.831410    1.256238    3.386485
C        -1.193296    0.670435    2.004728
C        -0.589935   -0.723084    1.871379
C         0.946696   -0.635673    1.882243
H         1.356731   -1.582814    2.250464
C         1.397497    0.510267    2.816475
N         1.489607   -0.383999    0.550804
C         1.639747   -1.300399   -0.401453
C         2.044422   -0.946349   -1.739625
C         2.086005    0.457686   -2.143993
C         1.879683    0.838653   -3.589524
C         2.570722    1.942190   -4.098696
C         2.371325    2.374581   -5.406170
C         1.445983    1.706774   -6.212393
O         1.155071    2.105187   -7.485441
C         2.110473    2.671641   -8.280457
C         1.752680    3.802233   -9.014018
C         2.674016    4.375676   -9.888072
C         3.950445    3.831492  -10.025248
C         4.298918    2.700367   -9.286341
C         3.383797    2.112453   -8.416652
C         0.722392    0.623580   -5.709201
C         0.942037    0.194255   -4.406233
O         2.213953    1.380395   -1.343168
C         2.389292   -2.055667   -2.571951
N         3.028126   -1.909650   -3.758955
C         3.320961   -3.023469   -4.626025
N         2.135920   -3.319246   -2.210850
C         1.598717   -3.491065   -1.004825
N         1.367673   -2.588050   -0.081789
C        -0.301795    0.090090    6.114227
C        -0.980714    1.345675    6.505079
S        -2.876189    1.482200    6.313427
C        -3.439744   -0.218255    6.607099
C        -3.958179   -0.969716    5.348794
H        -3.812208   -0.301587    4.481373
N        -5.349319   -1.344061    5.439871
C        -6.372745   -0.463576    5.424641
C        -7.760032   -1.088951    5.418350
O        -6.227568    0.746590    5.430168
C        -3.208779   -2.287812    5.041845
N        -1.877620   -2.197199    5.006060
C        -1.034770   -3.339415    4.736793
O        -3.834449   -3.323924    4.824767
H        -0.843146    2.362816    3.340292
H        -1.610411    0.974206    4.105352
H        -0.811300    1.311362    1.189725
H        -2.288286    0.647639    1.891534
H        -0.923317   -1.241189    0.959871
H        -0.913706   -1.338713    2.723932
H         1.506815    1.440700    2.225189
H         2.370211    0.267216    3.258679
H         1.737722    0.566413    0.281576
H         3.264554    2.473022   -3.443657
H         2.918972    3.234427   -5.795697
H         0.750220    4.213871   -8.887182
H         2.391144    5.260848  -10.462063
H         4.672226    4.286126  -10.706530
H         5.294458    2.263355   -9.391321
H         3.649671    1.224073   -7.840662
H        -0.011421    0.136401   -6.352900
H         0.376340   -0.652942   -4.012169
H         3.270575   -0.980581   -4.065301
H         2.412240   -3.598321   -4.860854
H         4.037624   -3.722098   -4.166779
H         3.749562   -2.634945   -5.559564
H         1.336694   -4.525112   -0.744455
H        -0.065304   -0.602732    6.928143
H        -0.647338    2.218771    5.921244
H        -0.807688    1.578578    7.566046
H        -4.254763   -0.179373    7.341490
H        -2.600882   -0.761087    7.066849
H        -5.493377   -2.341724    5.291458
H        -8.301670   -0.745727    6.311335
H        -7.749617   -2.187576    5.401562
H        -8.306521   -0.716219    4.540455
H        -1.405680   -1.322017    5.327097
H        -1.206945   -4.148579    5.466190
H         0.007199   -2.996896    4.794210
H        -1.233895   -3.749851    3.733520
