-1 1
 OpenBabel05232414493D

 86 88  0  0  1  0  0  0  0  0999 V2000
    4.0462   -8.3212    8.3917 O   0  0  0  0  0  0  0  0  0  0  0  0
    4.2317   -7.6293    7.3715 C   0  0  0  0  0  0  0  0  0  0  0  0
    4.2396   -6.2331    7.5009 N   0  0  0  0  0  0  0  0  0  0  0  0
    3.5046   -5.3504    6.6070 C   0  0  0  0  0  0  0  0  0  0  0  0
    2.1378   -5.0029    7.2023 C   0  0  0  0  0  0  0  0  0  0  0  0
    2.2692   -4.4260    8.6114 C   0  0  0  0  0  0  0  0  0  0  0  0
    3.1213   -5.3221    9.5226 C   0  0  2  0  0  0  0  0  0  0  0  0
    3.3351   -4.7724   10.4517 H   0  0  0  0  0  0  0  0  0  0  0  0
    4.4364   -5.6669    8.8217 C   0  0  0  0  0  0  0  0  0  0  0  0
    2.4567   -6.5695    9.8770 N   0  0  0  0  0  0  0  0  0  0  0  0
    1.5715   -6.6677   10.8753 C   0  0  0  0  0  0  0  0  0  0  0  0
    1.0118   -7.9195   11.2895 C   0  0  0  0  0  0  0  0  0  0  0  0
    1.0507   -9.1665   10.5122 C   0  0  0  0  0  0  0  0  0  0  0  0
    0.9625   -9.1261    9.0171 C   0  0  0  0  0  0  0  0  0  0  0  0
    0.2350   -8.1400    8.3447 C   0  0  0  0  0  0  0  0  0  0  0  0
    0.0565   -8.2013    6.9672 C   0  0  0  0  0  0  0  0  0  0  0  0
    0.6238   -9.2565    6.2492 C   0  0  0  0  0  0  0  0  0  0  0  0
    0.4282   -9.3970    4.9040 O   0  0  0  0  0  0  0  0  0  0  0  0
    0.4472   -8.2797    4.1126 C   0  0  0  0  0  0  0  0  0  0  0  0
   -0.6140   -8.0688    3.2347 C   0  0  0  0  0  0  0  0  0  0  0  0
   -0.5893   -6.9609    2.3869 C   0  0  0  0  0  0  0  0  0  0  0  0
    0.4815   -6.0687    2.4238 C   0  0  0  0  0  0  0  0  0  0  0  0
    1.5392   -6.2949    3.3075 C   0  0  0  0  0  0  0  0  0  0  0  0
    1.5305   -7.4008    4.1523 C   0  0  0  0  0  0  0  0  0  0  0  0
    1.3646  -10.2403    6.9038 C   0  0  0  0  0  0  0  0  0  0  0  0
    1.5211  -10.1761    8.2807 C   0  0  0  0  0  0  0  0  0  0  0  0
    1.0359  -10.2709   11.0555 O   0  0  0  0  0  0  0  0  0  0  0  0
    0.3776   -7.9012   12.5696 C   0  0  0  0  0  0  0  0  0  0  0  0
    0.0182   -9.0431   13.1862 N   0  0  0  0  0  0  0  0  0  0  0  0
   -0.7537   -9.0839   14.4059 C   0  0  0  0  0  0  0  0  0  0  0  0
   -2.2479   -8.8638   14.1868 C   0  0  0  0  0  0  0  0  0  0  0  0
    0.0906   -6.7454   13.2026 N   0  0  0  0  0  0  0  0  0  0  0  0
    0.5115   -5.6403   12.6098 C   0  0  0  0  0  0  0  0  0  0  0  0
    1.2523   -5.5242   11.5252 N   0  0  0  0  0  0  0  0  0  0  0  0
    4.4755   -8.2107    6.0784 C   0  0  0  0  0  3  0  0  0  0  0  0
    5.1651   -7.6219    5.0229 C   0  0  0  0  0  3  0  0  0  0  0  0
    7.5599   -7.8559    5.0650 S   0  0  0  0  0  1  0  0  0  0  0  0
    8.1040   -6.2091    5.6419 C   0  0  0  0  0  0  0  0  0  0  0  0
    7.3637   -5.6502    6.8726 C   0  0  2  0  0  0  0  0  0  0  0  0
    6.2843   -5.7298    6.6767 H   0  0  0  0  0  0  0  0  0  0  0  0
    7.6738   -4.2580    7.1137 N   0  0  0  0  0  0  0  0  0  0  0  0
    7.0144   -3.2542    6.4960 C   0  0  0  0  0  0  0  0  0  0  0  0
    7.2942   -1.8636    7.0401 C   0  0  0  0  0  0  0  0  0  0  0  0
    6.2302   -3.4269    5.5744 O   0  0  0  0  0  0  0  0  0  0  0  0
    7.6003   -6.3799    8.2024 C   0  0  0  0  0  0  0  0  0  0  0  0
    7.2964   -7.6849    8.1871 N   0  0  0  0  0  0  0  0  0  0  0  0
    7.2512   -8.5096    9.3657 C   0  0  0  0  0  0  0  0  0  0  0  0
    7.9679   -5.7625    9.2004 O   0  0  0  0  0  0  0  0  0  0  0  0
    3.3754   -5.8413    5.6385 H   0  0  0  0  0  0  0  0  0  0  0  0
    4.1049   -4.4407    6.4257 H   0  0  0  0  0  0  0  0  0  0  0  0
    1.5329   -5.9234    7.2332 H   0  0  0  0  0  0  0  0  0  0  0  0
    1.6129   -4.2936    6.5418 H   0  0  0  0  0  0  0  0  0  0  0  0
    1.2870   -4.2660    9.0811 H   0  0  0  0  0  0  0  0  0  0  0  0
    2.7632   -3.4393    8.5580 H   0  0  0  0  0  0  0  0  0  0  0  0
    5.0234   -6.3682    9.4269 H   0  0  0  0  0  0  0  0  0  0  0  0
    5.0327   -4.7435    8.7144 H   0  0  0  0  0  0  0  0  0  0  0  0
    2.8651   -7.4135    9.4432 H   0  0  0  0  0  0  0  0  0  0  0  0
   -0.2169   -7.3205    8.9079 H   0  0  0  0  0  0  0  0  0  0  0  0
   -0.5240   -7.4379    6.4463 H   0  0  0  0  0  0  0  0  0  0  0  0
   -1.4439   -8.7775    3.2283 H   0  0  0  0  0  0  0  0  0  0  0  0
   -1.4192   -6.7929    1.6963 H   0  0  0  0  0  0  0  0  0  0  0  0
    0.4962   -5.2004    1.7616 H   0  0  0  0  0  0  0  0  0  0  0  0
    2.3902   -5.6098    3.3346 H   0  0  0  0  0  0  0  0  0  0  0  0
    2.3646   -7.6077    4.8316 H   0  0  0  0  0  0  0  0  0  0  0  0
    1.8147  -11.0395    6.3140 H   0  0  0  0  0  0  0  0  0  0  0  0
    2.0957  -10.9383    8.8076 H   0  0  0  0  0  0  0  0  0  0  0  0
    0.2930   -9.8952   12.7001 H   0  0  0  0  0  0  0  0  0  0  0  0
   -0.3691   -8.3162   15.0934 H   0  0  0  0  0  0  0  0  0  0  0  0
   -0.5761  -10.0655   14.8719 H   0  0  0  0  0  0  0  0  0  0  0  0
   -2.4159   -7.8653   13.7585 H   0  0  0  0  0  0  0  0  0  0  0  0
   -2.7963   -8.9290   15.1396 H   0  0  0  0  0  0  0  0  0  0  0  0
   -2.6606   -9.6151   13.4961 H   0  0  0  0  0  0  0  0  0  0  0  0
    0.2235   -4.6977   13.0956 H   0  0  0  0  0  0  0  0  0  0  0  0
    4.2954   -9.2882    6.0526 H   0  0  0  0  0  0  0  0  0  0  0  0
    5.2641   -6.5370    4.9415 H   0  0  0  0  0  0  0  0  0  0  0  0
    5.1682   -8.1323    4.0591 H   0  0  0  0  0  0  0  0  0  0  0  0
    7.9510   -5.4751    4.8372 H   0  0  0  0  0  0  0  0  0  0  0  0
    9.1852   -6.2456    5.8539 H   0  0  0  0  0  0  0  0  0  0  0  0
    8.1406   -4.1005    8.0045 H   0  0  0  0  0  0  0  0  0  0  0  0
    7.4075   -1.1708    6.1959 H   0  0  0  0  0  0  0  0  0  0  0  0
    8.1871   -1.8185    7.6787 H   0  0  0  0  0  0  0  0  0  0  0  0
    6.4218   -1.5351    7.6251 H   0  0  0  0  0  0  0  0  0  0  0  0
    7.1192   -8.1031    7.2648 H   0  0  0  0  0  0  0  0  0  0  0  0
    6.2488   -8.9562    9.4595 H   0  0  0  0  0  0  0  0  0  0  0  0
    7.4558   -7.8792   10.2406 H   0  0  0  0  0  0  0  0  0  0  0  0
    8.0052   -9.3125    9.3259 H   0  0  0  0  0  0  0  0  0  0  0  0
  2  3  1  0  0  0  0
  2  1  2  0  0  0  0
  3  9  1  0  0  0  0
  4  5  1  0  0  0  0
  4  3  1  0  0  0  0
  5 51  1  0  0  0  0
  5  6  1  0  0  0  0
  6 53  1  0  0  0  0
  6  7  1  0  0  0  0
  7 10  1  0  0  0  0
  7  8  1  1  0  0  0
  9 55  1  0  0  0  0
  9  7  1  0  0  0  0
 10 11  1  0  0  0  0
 11 12  1  0  0  0  0
 11 34  2  0  0  0  0
 12 28  2  0  0  0  0
 13 27  2  0  0  0  0
 13 12  1  0  0  0  0
 14 13  1  0  0  0  0
 15 58  1  0  0  0  0
 15 14  1  0  0  0  0
 16 15  2  0  0  0  0
 17 25  2  0  0  0  0
 17 16  1  0  0  0  0
 18 17  1  0  0  0  0
 19 24  1  0  0  0  0
 19 18  1  0  0  0  0
 20 19  2  0  0  0  0
 21 22  2  0  0  0  0
 21 20  1  0  0  0  0
 22 23  1  0  0  0  0
 23 63  1  0  0  0  0
 23 24  2  0  0  0  0
 24 64  1  0  0  0  0
 25 26  1  0  0  0  0
 26 66  1  0  0  0  0
 26 14  2  0  0  0  0
 28 29  1  0  0  0  0
 28 32  1  0  0  0  0
 29 30  1  0  0  0  0
 30 69  1  0  0  0  0
 30 68  1  0  0  0  0
 31 30  1  0  0  0  0
 31 71  1  0  0  0  0
 33 73  1  0  0  0  0
 33 32  2  0  0  0  0
 34 33  1  0  0  0  0
 35  2  1  0  0  0  0
 36 35  1  0  0  0  0
 37 38  1  0  0  0  0
 38 78  1  0  0  0  0
 38 39  1  0  0  0  0
 39 40  1  6  0  0  0
 39 41  1  0  0  0  0
 39 45  1  0  0  0  0
 41 79  1  0  0  0  0
 42 43  1  0  0  0  0
 42 41  1  0  0  0  0
 43 82  1  0  0  0  0
 43 81  1  0  0  0  0
 44 42  2  0  0  0  0
 45 48  2  0  0  0  0
 46 45  1  0  0  0  0
 46 47  1  0  0  0  0
 47 84  1  0  0  0  0
 47 85  1  0  0  0  0
 49  4  1  0  0  0  0
 50  4  1  0  0  0  0
 52  5  1  0  0  0  0
 54  6  1  0  0  0  0
 56  9  1  0  0  0  0
 57 10  1  0  0  0  0
 59 16  1  0  0  0  0
 60 20  1  0  0  0  0
 61 21  1  0  0  0  0
 62 22  1  0  0  0  0
 65 25  1  0  0  0  0
 67 29  1  0  0  0  0
 70 31  1  0  0  0  0
 72 31  1  0  0  0  0
 74 35  1  0  0  0  0
 75 36  1  0  0  0  0
 76 36  1  0  0  0  0
 77 38  1  0  0  0  0
 80 43  1  0  0  0  0
 83 46  1  0  0  0  0
 86 47  1  0  0  0  0
M  END
