86
-1 1
O         0.808936   -0.880586    0.462646
C         1.027515   -0.244115   -0.613463
N         0.962533    1.184118   -0.552505
C         0.111391    1.941803   -1.452064
C        -1.288756    2.139892   -0.865625
C        -1.217830    2.791715    0.514374
C        -0.265832    2.032546    1.450760
H        -0.109505    2.639788    2.355571
C         1.081145    1.810367    0.748886
N        -0.794696    0.738776    1.855576
C        -1.647511    0.587222    2.867704
C        -2.081042   -0.702820    3.324144
C        -1.945444   -1.955584    2.572413
C        -2.070474   -1.961584    1.078052
C        -2.924245   -1.085120    0.403059
C        -3.134753   -1.214422   -0.966159
C        -2.472525   -2.222549   -1.667253
O        -2.717707   -2.431408   -3.000947
C        -2.567195   -1.396579   -3.877898
C        -3.478695   -1.304531   -4.930581
C        -3.330865   -0.296324   -5.881500
C        -2.284415    0.619933   -5.780413
C        -1.379401    0.514706   -4.722785
C        -1.510370   -0.490136   -3.766942
C        -1.597161   -3.086157   -1.013403
C        -1.408093   -2.957994    0.355509
O        -1.850997   -3.047136    3.135957
C        -2.679822   -0.714662    4.620625
N        -2.915312   -1.872421    5.269222
C        -3.650912   -1.957340    6.508010
C        -5.163519   -1.867150    6.324833
N        -3.057623    0.421989    5.240084
C        -2.761463    1.548438    4.609678
N        -2.066077    1.711041    3.503273
C         1.420649   -0.847358   -1.806169
C         2.022447   -0.207889   -3.006420
S         3.858777   -0.510242   -3.269165
C         4.584307    0.978505   -2.523904
C         4.197576    1.297371   -1.067181
H         3.099111    1.359424   -1.004345
N         4.747865    2.575890   -0.675855
C         4.128717    3.751426   -0.916543
C         4.785105    4.968670   -0.287803
O         3.104255    3.851417   -1.573735
C         4.721857    0.280484   -0.043438
N         3.968474   -0.814215    0.103568
C         4.237586   -1.846352    1.068426
O         5.746735    0.516037    0.593640
H         0.037558    1.418634   -2.410510
H         0.594874    2.916784   -1.647333
H        -1.772266    1.152699   -0.787081
H        -1.902706    2.747828   -1.550872
H        -2.208698    2.859848    0.988836
H        -0.839019    3.824519    0.411426
H         1.741122    1.198033    1.378373
H         1.556272    2.797910    0.605271
H        -0.302183   -0.072609    1.405544
H        -3.448830   -0.304231    0.958187
H        -3.814915   -0.544066   -1.495257
H        -4.291648   -2.030704   -4.986494
H        -4.044932   -0.225079   -6.705729
H        -2.170169    1.410763   -6.524792
H        -0.546659    1.217764   -4.642358
H        -0.784845   -0.594126   -2.950269
H        -1.073614   -3.846286   -1.594265
H        -0.730495   -3.627026    0.885712
H        -2.577461   -2.705297    4.789265
H        -3.316860   -1.148365    7.174562
H        -3.380125   -2.912575    6.984318
H        -5.423672   -0.893357    5.885603
H        -5.681531   -1.961368    7.292277
H        -5.528229   -2.661898    5.656048
H        -3.128148    2.469852    5.083901
H         1.352624   -1.939140   -1.807252
H         1.920899    0.886286   -3.020629
H         1.588835   -0.582649   -3.948382
H         4.298918    1.853296   -3.127165
H         5.676021    0.854006   -2.599730
H         5.556847    2.502087   -0.064010
H         4.776975    5.788973   -1.017457
H         5.813955    4.782833    0.050314
H         4.180167    5.284874    0.575182
H         3.134520   -0.915836   -0.486238
H         3.290204   -2.139909    1.542196
H         4.931936   -1.457806    1.825210
H         4.693451   -2.735725    0.601648
