86
-1 1
O        -2.934425   -2.325488    0.079493
C        -2.199796   -1.789336   -0.787141
N        -2.531916   -0.444836   -1.098993
C        -3.770733    0.099501   -0.584940
C        -3.546455    1.437394    0.121217
C        -2.793748    2.417944   -0.778360
C        -1.532910    1.761437   -1.349849
H        -1.056005    2.434259   -2.074693
C        -1.878690    0.436126   -2.035477
N        -0.576859    1.443747   -0.302213
C         0.359264    2.272501    0.181594
C         1.300506    1.859029    1.176949
C         1.489447    0.407024    1.478818
C         0.341327   -0.409686    1.941604
C        -0.771574    0.160270    2.579916
C        -1.801648   -0.637828    3.047945
C        -1.741193   -2.027242    2.874612
O        -2.763681   -2.731790    3.413243
C        -2.893473   -4.086700    3.220945
C        -3.090663   -4.621163    1.946550
C        -3.272352   -5.998048    1.829259
C        -3.270386   -6.825645    2.954485
C        -3.079080   -6.270634    4.219047
C        -2.884753   -4.896354    4.355845
C        -0.642864   -2.608952    2.234674
C         0.383489   -1.800128    1.773119
O         2.590616   -0.104449    1.324827
C         2.241710    2.836706    1.577156
N         3.108994    2.656075    2.622135
C         2.960163    1.624894    3.618237
C         4.248173    3.527629    2.794464
N         2.312055    4.034154    0.962044
C         1.414074    4.275284    0.024764
N         0.418526    3.503562   -0.367882
C        -1.127194   -2.498920   -1.378927
C        -0.208769   -2.195806   -2.454590
S         1.465739   -1.224935   -1.931135
C         1.816157   -0.205644   -3.400725
C         1.814161    1.313160   -3.129979
H         0.971251    1.534206   -2.456284
N         1.671911    2.079037   -4.345489
C         0.493316    2.236480   -4.984582
C         0.512556    3.206848   -6.152800
O        -0.530490    1.655725   -4.660648
C         3.107738    1.822549   -2.471747
N         3.401193    1.316021   -1.265948
C         4.563446    1.739735   -0.525844
O         3.816166    2.650106   -3.036620
H        -4.191056   -0.648759    0.096224
H        -4.487906    0.252148   -1.421923
H        -2.962309    1.254489    1.037944
H        -4.514119    1.863779    0.434539
H        -2.518543    3.340035   -0.242116
H        -3.435179    2.713938   -1.627377
H        -0.949567    0.006848   -2.404730
H        -2.515067    0.646761   -2.916100
H        -0.631180    0.492165    0.047238
H        -0.821081    1.245310    2.706054
H        -2.674873   -0.212364    3.543994
H        -3.079858   -3.939642    1.079596
H        -3.422270   -6.427547    0.835666
H        -3.418090   -7.902827    2.845356
H        -3.075880   -6.908714    5.106336
H        -2.729603   -4.435301    5.333180
H        -0.606478   -3.684738    2.069287
H         1.239775   -2.235453    1.256154
H         3.529579    0.710371    3.381664
H         1.904287    1.339906    3.727375
H         3.301349    2.021438    4.587769
H         4.175540    4.096903    3.738679
H         5.180324    2.936228    2.821498
H         4.286042    4.238931    1.963837
H         1.499062    5.245286   -0.482647
H        -0.999120   -3.476321   -0.906356
H        -0.569700   -1.559605   -3.274296
H         0.216877   -3.108693   -2.888109
H         1.011355   -0.401367   -4.126134
H         2.767334   -0.500067   -3.871495
H         2.477215    2.667957   -4.546645
H        -0.068426    4.098410   -5.874454
H         0.007013    2.736721   -7.006948
H         1.524614    3.516559   -6.447510
H         2.798356    0.607725   -0.850900
H         5.497622    1.424575   -1.018688
H         4.501335    1.289294    0.471763
H         4.578187    2.836144   -0.430535
