-1 1
 OpenBabel05192410563D

 86 89  0  0  1  0  0  0  0  0999 V2000
   -2.9344   -2.3255    0.0795 O   0  0  0  0  0  0  0  0  0  0  0  0
   -2.1998   -1.7893   -0.7871 C   0  0  0  0  0  0  0  0  0  0  0  0
   -2.5319   -0.4448   -1.0990 N   0  0  0  0  0  0  0  0  0  0  0  0
   -3.7707    0.0995   -0.5849 C   0  0  0  0  0  0  0  0  0  0  0  0
   -3.5465    1.4374    0.1212 C   0  0  0  0  0  0  0  0  0  0  0  0
   -2.7937    2.4179   -0.7784 C   0  0  0  0  0  0  0  0  0  0  0  0
   -1.5329    1.7614   -1.3498 C   0  0  2  0  0  0  0  0  0  0  0  0
   -1.0560    2.4343   -2.0747 H   0  0  0  0  0  0  0  0  0  0  0  0
   -1.8787    0.4361   -2.0355 C   0  0  0  0  0  0  0  0  0  0  0  0
   -0.5769    1.4437   -0.3022 N   0  0  0  0  0  0  0  0  0  0  0  0
    0.3593    2.2725    0.1816 C   0  0  0  0  0  0  0  0  0  0  0  0
    1.3005    1.8590    1.1769 C   0  0  1  0  0  3  0  0  0  0  0  0
    1.4894    0.4070    1.4788 C   0  0  0  0  0  0  0  0  0  0  0  0
    0.3413   -0.4097    1.9416 C   0  0  0  0  0  0  0  0  0  0  0  0
   -0.7716    0.1603    2.5799 C   0  0  0  0  0  0  0  0  0  0  0  0
   -1.8016   -0.6378    3.0479 C   0  0  0  0  0  0  0  0  0  0  0  0
   -1.7412   -2.0272    2.8746 C   0  0  0  0  0  0  0  0  0  0  0  0
   -2.7637   -2.7318    3.4132 O   0  0  0  0  0  0  0  0  0  0  0  0
   -2.8935   -4.0867    3.2209 C   0  0  0  0  0  0  0  0  0  0  0  0
   -3.0907   -4.6212    1.9466 C   0  0  0  0  0  0  0  0  0  0  0  0
   -3.2724   -5.9980    1.8293 C   0  0  0  0  0  0  0  0  0  0  0  0
   -3.2704   -6.8256    2.9545 C   0  0  0  0  0  0  0  0  0  0  0  0
   -3.0791   -6.2706    4.2190 C   0  0  0  0  0  0  0  0  0  0  0  0
   -2.8848   -4.8964    4.3558 C   0  0  0  0  0  0  0  0  0  0  0  0
   -0.6429   -2.6090    2.2347 C   0  0  0  0  0  0  0  0  0  0  0  0
    0.3835   -1.8001    1.7731 C   0  0  0  0  0  0  0  0  0  0  0  0
    2.5906   -0.1044    1.3248 O   0  0  0  0  0  0  0  0  0  0  0  0
    2.2417    2.8367    1.5772 C   0  0  2  0  0  3  0  0  0  0  0  0
    3.1090    2.6561    2.6221 N   0  0  0  0  0  0  0  0  0  0  0  0
    2.9602    1.6249    3.6182 C   0  0  0  0  0  0  0  0  0  0  0  0
    4.2482    3.5276    2.7945 C   0  0  0  0  0  0  0  0  0  0  0  0
    2.3121    4.0342    0.9620 N   0  0  0  0  0  0  0  0  0  0  0  0
    1.4141    4.2753    0.0248 C   0  0  0  0  0  0  0  0  0  0  0  0
    0.4185    3.5036   -0.3679 N   0  0  0  0  0  0  0  0  0  0  0  0
   -1.1272   -2.4989   -1.3789 C   0  0  0  0  0  3  0  0  0  0  0  0
   -0.2088   -2.1958   -2.4546 C   0  0  0  0  0  0  0  0  0  0  0  0
    1.4657   -1.2249   -1.9311 S   0  0  0  0  0  0  0  0  0  0  0  0
    1.8162   -0.2056   -3.4007 C   0  0  0  0  0  0  0  0  0  0  0  0
    1.8142    1.3132   -3.1300 C   0  0  2  0  0  0  0  0  0  0  0  0
    0.9713    1.5342   -2.4563 H   0  0  0  0  0  0  0  0  0  0  0  0
    1.6719    2.0790   -4.3455 N   0  0  0  0  0  0  0  0  0  0  0  0
    0.4933    2.2365   -4.9846 C   0  0  0  0  0  0  0  0  0  0  0  0
    0.5126    3.2068   -6.1528 C   0  0  0  0  0  0  0  0  0  0  0  0
   -0.5305    1.6557   -4.6606 O   0  0  0  0  0  0  0  0  0  0  0  0
    3.1077    1.8225   -2.4717 C   0  0  0  0  0  0  0  0  0  0  0  0
    3.4012    1.3160   -1.2659 N   0  0  0  0  0  0  0  0  0  0  0  0
    4.5634    1.7397   -0.5258 C   0  0  0  0  0  0  0  0  0  0  0  0
    3.8162    2.6501   -3.0366 O   0  0  0  0  0  0  0  0  0  0  0  0
   -4.1911   -0.6488    0.0962 H   0  0  0  0  0  0  0  0  0  0  0  0
   -4.4879    0.2521   -1.4219 H   0  0  0  0  0  0  0  0  0  0  0  0
   -2.9623    1.2545    1.0379 H   0  0  0  0  0  0  0  0  0  0  0  0
   -4.5141    1.8638    0.4345 H   0  0  0  0  0  0  0  0  0  0  0  0
   -2.5185    3.3400   -0.2421 H   0  0  0  0  0  0  0  0  0  0  0  0
   -3.4352    2.7139   -1.6274 H   0  0  0  0  0  0  0  0  0  0  0  0
   -0.9496    0.0068   -2.4047 H   0  0  0  0  0  0  0  0  0  0  0  0
   -2.5151    0.6468   -2.9161 H   0  0  0  0  0  0  0  0  0  0  0  0
   -0.6312    0.4922    0.0472 H   0  0  0  0  0  0  0  0  0  0  0  0
   -0.8211    1.2453    2.7061 H   0  0  0  0  0  0  0  0  0  0  0  0
   -2.6749   -0.2124    3.5440 H   0  0  0  0  0  0  0  0  0  0  0  0
   -3.0799   -3.9396    1.0796 H   0  0  0  0  0  0  0  0  0  0  0  0
   -3.4223   -6.4275    0.8357 H   0  0  0  0  0  0  0  0  0  0  0  0
   -3.4181   -7.9028    2.8454 H   0  0  0  0  0  0  0  0  0  0  0  0
   -3.0759   -6.9087    5.1063 H   0  0  0  0  0  0  0  0  0  0  0  0
   -2.7296   -4.4353    5.3332 H   0  0  0  0  0  0  0  0  0  0  0  0
   -0.6065   -3.6847    2.0693 H   0  0  0  0  0  0  0  0  0  0  0  0
    1.2398   -2.2355    1.2562 H   0  0  0  0  0  0  0  0  0  0  0  0
    3.5296    0.7104    3.3817 H   0  0  0  0  0  0  0  0  0  0  0  0
    1.9043    1.3399    3.7274 H   0  0  0  0  0  0  0  0  0  0  0  0
    3.3013    2.0214    4.5878 H   0  0  0  0  0  0  0  0  0  0  0  0
    4.1755    4.0969    3.7387 H   0  0  0  0  0  0  0  0  0  0  0  0
    5.1803    2.9362    2.8215 H   0  0  0  0  0  0  0  0  0  0  0  0
    4.2860    4.2389    1.9638 H   0  0  0  0  0  0  0  0  0  0  0  0
    1.4991    5.2453   -0.4826 H   0  0  0  0  0  0  0  0  0  0  0  0
   -0.9991   -3.4763   -0.9064 H   0  0  0  0  0  0  0  0  0  0  0  0
   -0.5697   -1.5596   -3.2743 H   0  0  0  0  0  0  0  0  0  0  0  0
    0.2169   -3.1087   -2.8881 H   0  0  0  0  0  0  0  0  0  0  0  0
    1.0114   -0.4014   -4.1261 H   0  0  0  0  0  0  0  0  0  0  0  0
    2.7673   -0.5001   -3.8715 H   0  0  0  0  0  0  0  0  0  0  0  0
    2.4772    2.6680   -4.5466 H   0  0  0  0  0  0  0  0  0  0  0  0
   -0.0684    4.0984   -5.8745 H   0  0  0  0  0  0  0  0  0  0  0  0
    0.0070    2.7367   -7.0069 H   0  0  0  0  0  0  0  0  0  0  0  0
    1.5246    3.5166   -6.4475 H   0  0  0  0  0  0  0  0  0  0  0  0
    2.7984    0.6077   -0.8509 H   0  0  0  0  0  0  0  0  0  0  0  0
    5.4976    1.4246   -1.0187 H   0  0  0  0  0  0  0  0  0  0  0  0
    4.5013    1.2893    0.4718 H   0  0  0  0  0  0  0  0  0  0  0  0
    4.5782    2.8361   -0.4305 H   0  0  0  0  0  0  0  0  0  0  0  0
  2  1  2  0  0  0  0
  3  2  1  0  0  0  0
  3  4  1  0  0  0  0
  4 49  1  0  0  0  0
  4  5  1  0  0  0  0
  5 52  1  0  0  0  0
  5 51  1  0  0  0  0
  6 53  1  0  0  0  0
  6  5  1  0  0  0  0
  7  8  1  6  0  0  0
  7  6  1  0  0  0  0
  7 10  1  0  0  0  0
  9  7  1  0  0  0  0
  9  3  1  0  0  0  0
 10 57  1  0  0  0  0
 10 11  1  0  0  0  0
 11 12  1  0  0  0  0
 12 13  1  6  0  0  0
 12 28  1  0  0  0  0
 13 14  1  0  0  0  0
 14 15  1  0  0  0  0
 15 58  1  0  0  0  0
 15 16  2  0  0  0  0
 16 59  1  0  0  0  0
 17 16  1  0  0  0  0
 17 18  1  0  0  0  0
 19 18  1  0  0  0  0
 19 24  1  0  0  0  0
 20 19  2  0  0  0  0
 21 20  1  0  0  0  0
 21 22  2  0  0  0  0
 22 23  1  0  0  0  0
 23 24  2  0  0  0  0
 23 63  1  0  0  0  0
 24 64  1  0  0  0  0
 25 17  2  0  0  0  0
 26 14  2  0  0  0  0
 26 25  1  0  0  0  0
 27 13  2  0  0  0  0
 28 29  1  1  0  0  0
 29 31  1  0  0  0  0
 29 30  1  0  0  0  0
 30 68  1  0  0  0  0
 30 69  1  0  0  0  0
 31 71  1  0  0  0  0
 31 70  1  0  0  0  0
 32 28  1  0  0  0  0
 33 32  2  0  0  0  0
 34 33  1  0  0  0  0
 34 11  2  0  0  0  0
 35 74  1  0  0  0  0
 35  2  1  0  0  0  0
 36 37  1  0  0  0  0
 36 35  1  0  0  0  0
 38 39  1  0  0  0  0
 38 37  1  0  0  0  0
 39 45  1  0  0  0  0
 39 40  1  1  0  0  0
 41 39  1  0  0  0  0
 42 44  2  0  0  0  0
 42 41  1  0  0  0  0
 43 80  1  0  0  0  0
 43 42  1  0  0  0  0
 45 46  1  0  0  0  0
 46 83  1  0  0  0  0
 46 47  1  0  0  0  0
 47 86  1  0  0  0  0
 47 85  1  0  0  0  0
 48 45  2  0  0  0  0
 50  4  1  0  0  0  0
 54  6  1  0  0  0  0
 55  9  1  0  0  0  0
 56  9  1  0  0  0  0
 60 20  1  0  0  0  0
 61 21  1  0  0  0  0
 62 22  1  0  0  0  0
 65 25  1  0  0  0  0
 66 26  1  0  0  0  0
 67 30  1  0  0  0  0
 72 31  1  0  0  0  0
 73 33  1  0  0  0  0
 75 36  1  0  0  0  0
 76 36  1  0  0  0  0
 77 38  1  0  0  0  0
 78 38  1  0  0  0  0
 79 41  1  0  0  0  0
 81 43  1  0  0  0  0
 82 43  1  0  0  0  0
 84 47  1  0  0  0  0
M  END
