-1 1
 OpenBabel05232414493D

 86 89  0  0  1  0  0  0  0  0999 V2000
    1.6227    9.8221    2.3702 O   0  0  0  0  0  0  0  0  0  0  0  0
    2.3633   10.3224    1.4926 C   0  0  0  0  0  0  0  0  0  0  0  0
    2.0397   11.6388    1.1037 N   0  0  0  0  0  0  0  0  0  0  0  0
    0.8099   12.2262    1.5929 C   0  0  0  0  0  0  0  0  0  0  0  0
    1.0702   13.5415    2.3276 C   0  0  0  0  0  0  0  0  0  0  0  0
    1.8689   14.5060    1.4518 C   0  0  0  0  0  0  0  0  0  0  0  0
    3.1222   13.8203    0.8983 C   0  0  2  0  0  0  0  0  0  0  0  0
    3.6167   14.4836    0.1768 H   0  0  0  0  0  0  0  0  0  0  0  0
    2.7630   12.5046    0.2025 C   0  0  0  0  0  0  0  0  0  0  0  0
    4.0641   13.4953    1.9574 N   0  0  0  0  0  0  0  0  0  0  0  0
    5.0024   14.3251    2.4391 C   0  0  0  0  0  0  0  0  0  0  0  0
    5.9428   13.9199    3.4382 C   0  0  1  0  0  3  0  0  0  0  0  0
    6.1374   12.4734    3.7581 C   0  0  0  0  0  0  0  0  0  0  0  0
    4.9857   11.6522    4.2112 C   0  0  0  0  0  0  0  0  0  0  0  0
    3.8602   12.2198    4.8290 C   0  0  0  0  0  0  0  0  0  0  0  0
    2.8329   11.4184    5.2982 C   0  0  0  0  0  0  0  0  0  0  0  0
    2.9104   10.0276    5.1478 C   0  0  0  0  0  0  0  0  0  0  0  0
    1.8920    9.3165    5.6867 O   0  0  0  0  0  0  0  0  0  0  0  0
    1.7665    7.9646    5.4727 C   0  0  0  0  0  0  0  0  0  0  0  0
    1.5472    7.4565    4.1912 C   0  0  0  0  0  0  0  0  0  0  0  0
    1.3739    6.0814    4.0460 C   0  0  0  0  0  0  0  0  0  0  0  0
    1.4060    5.2295    5.1526 C   0  0  0  0  0  0  0  0  0  0  0  0
    1.6188    5.7581    6.4250 C   0  0  0  0  0  0  0  0  0  0  0  0
    1.8051    7.1307    6.5888 C   0  0  0  0  0  0  0  0  0  0  0  0
    4.0210    9.4481    4.5274 C   0  0  0  0  0  0  0  0  0  0  0  0
    5.0446   10.2608    4.0646 C   0  0  0  0  0  0  0  0  0  0  0  0
    7.2447   11.9682    3.6390 O   0  0  0  0  0  0  0  0  0  0  0  0
    6.8787   14.9045    3.8361 C   0  0  2  0  0  3  0  0  0  0  0  0
    7.7384   14.7366    4.8891 N   0  0  0  0  0  0  0  0  0  0  0  0
    7.5763   13.7264    5.9041 C   0  0  0  0  0  0  0  0  0  0  0  0
    8.8773   15.6093    5.0571 C   0  0  0  0  0  0  0  0  0  0  0  0
    6.9504   16.0964    3.2110 N   0  0  0  0  0  0  0  0  0  0  0  0
    6.0542   16.3292    2.2704 C   0  0  0  0  0  0  0  0  0  0  0  0
    5.0593   15.5534    1.8840 N   0  0  0  0  0  0  0  0  0  0  0  0
    3.4468    9.5746    0.9444 C   0  0  0  0  0  3  0  0  0  0  0  0
    4.3488    9.8108   -0.1326 C   0  0  0  0  0  0  0  0  0  0  0  0
    6.1275   10.8427    0.3420 S   0  0  0  0  0  0  0  0  0  0  0  0
    6.4177   11.8591   -1.1416 C   0  0  0  0  0  0  0  0  0  0  0  0
    6.4321   13.3792   -0.8798 C   0  0  2  0  0  0  0  0  0  0  0  0
    5.5944   13.6117   -0.2042 H   0  0  0  0  0  0  0  0  0  0  0  0
    6.2916   14.1412   -2.0988 N   0  0  0  0  0  0  0  0  0  0  0  0
    5.1132   14.3163   -2.7322 C   0  0  0  0  0  0  0  0  0  0  0  0
    5.1439   15.2810   -3.9053 C   0  0  0  0  0  0  0  0  0  0  0  0
    4.0797   13.7556   -2.4026 O   0  0  0  0  0  0  0  0  0  0  0  0
    7.7289   13.8868   -0.2258 C   0  0  0  0  0  0  0  0  0  0  0  0
    8.0217   13.3790    0.9793 N   0  0  0  0  0  0  0  0  0  0  0  0
    9.1878   13.7920    1.7185 C   0  0  0  0  0  0  0  0  0  0  0  0
    8.4338   14.7187   -0.7897 O   0  0  0  0  0  0  0  0  0  0  0  0
    0.3382   11.4877    2.2502 H   0  0  0  0  0  0  0  0  0  0  0  0
    0.1292   12.4217    0.7363 H   0  0  0  0  0  0  0  0  0  0  0  0
    1.6357   13.3203    3.2478 H   0  0  0  0  0  0  0  0  0  0  0  0
    0.1142   13.9970    2.6355 H   0  0  0  0  0  0  0  0  0  0  0  0
    2.1609   15.4158    1.9995 H   0  0  0  0  0  0  0  0  0  0  0  0
    1.2522   14.8269    0.5936 H   0  0  0  0  0  0  0  0  0  0  0  0
    3.6932   12.0446   -0.1267 H   0  0  0  0  0  0  0  0  0  0  0  0
    2.1714   12.7342   -0.7026 H   0  0  0  0  0  0  0  0  0  0  0  0
    4.0302   12.5380    2.2916 H   0  0  0  0  0  0  0  0  0  0  0  0
    3.7980   13.3060    4.9380 H   0  0  0  0  0  0  0  0  0  0  0  0
    1.9496   11.8422    5.7773 H   0  0  0  0  0  0  0  0  0  0  0  0
    1.5313    8.1582    3.3417 H   0  0  0  0  0  0  0  0  0  0  0  0
    1.2066    5.6726    3.0465 H   0  0  0  0  0  0  0  0  0  0  0  0
    1.2650    4.1538    5.0227 H   0  0  0  0  0  0  0  0  0  0  0  0
    1.6454    5.1004    7.2975 H   0  0  0  0  0  0  0  0  0  0  0  0
    1.9773    7.5711    7.5728 H   0  0  0  0  0  0  0  0  0  0  0  0
    4.0715    8.3694    4.3834 H   0  0  0  0  0  0  0  0  0  0  0  0
    5.9125    9.8278    3.5651 H   0  0  0  0  0  0  0  0  0  0  0  0
    8.1539   12.8099    5.6975 H   0  0  0  0  0  0  0  0  0  0  0  0
    6.5198   13.4392    6.0007 H   0  0  0  0  0  0  0  0  0  0  0  0
    7.8986   14.1452    6.8709 H   0  0  0  0  0  0  0  0  0  0  0  0
    8.7925   16.2030    5.9853 H   0  0  0  0  0  0  0  0  0  0  0  0
    9.8064   15.0154    5.1134 H   0  0  0  0  0  0  0  0  0  0  0  0
    8.9307   16.2994    4.2097 H   0  0  0  0  0  0  0  0  0  0  0  0
    6.1390   17.2947    1.7547 H   0  0  0  0  0  0  0  0  0  0  0  0
    3.5842    8.6376    1.4904 H   0  0  0  0  0  0  0  0  0  0  0  0
    4.0300   10.4391   -0.9731 H   0  0  0  0  0  0  0  0  0  0  0  0
    4.8173    8.8956   -0.5080 H   0  0  0  0  0  0  0  0  0  0  0  0
    5.5867   11.6679   -1.8397 H   0  0  0  0  0  0  0  0  0  0  0  0
    7.3495   11.5638   -1.6499 H   0  0  0  0  0  0  0  0  0  0  0  0
    7.1020   14.7224   -2.3029 H   0  0  0  0  0  0  0  0  0  0  0  0
    4.5693   16.1786   -3.6332 H   0  0  0  0  0  0  0  0  0  0  0  0
    4.6368   14.8108   -4.7585 H   0  0  0  0  0  0  0  0  0  0  0  0
    6.1592   15.5807   -4.1993 H   0  0  0  0  0  0  0  0  0  0  0  0
    7.4317   12.6433    1.3677 H   0  0  0  0  0  0  0  0  0  0  0  0
   10.1198   13.4537    1.2362 H   0  0  0  0  0  0  0  0  0  0  0  0
    9.1136   13.3574    2.7225 H   0  0  0  0  0  0  0  0  0  0  0  0
    9.2208   14.8892    1.7965 H   0  0  0  0  0  0  0  0  0  0  0  0
  2  1  2  0  0  0  0
  3  2  1  0  0  0  0
  3  4  1  0  0  0  0
  4 49  1  0  0  0  0
  4  5  1  0  0  0  0
  5 52  1  0  0  0  0
  5 51  1  0  0  0  0
  6 53  1  0  0  0  0
  6  5  1  0  0  0  0
  7  8  1  6  0  0  0
  7  6  1  0  0  0  0
  7 10  1  0  0  0  0
  9  7  1  0  0  0  0
  9  3  1  0  0  0  0
 10 57  1  0  0  0  0
 10 11  1  0  0  0  0
 11 12  1  0  0  0  0
 12 13  1  6  0  0  0
 12 28  1  0  0  0  0
 13 14  1  0  0  0  0
 14 15  1  0  0  0  0
 15 58  1  0  0  0  0
 15 16  2  0  0  0  0
 16 59  1  0  0  0  0
 17 16  1  0  0  0  0
 17 18  1  0  0  0  0
 19 18  1  0  0  0  0
 19 24  1  0  0  0  0
 20 19  2  0  0  0  0
 21 20  1  0  0  0  0
 21 22  2  0  0  0  0
 22 23  1  0  0  0  0
 23 24  2  0  0  0  0
 23 63  1  0  0  0  0
 24 64  1  0  0  0  0
 25 17  2  0  0  0  0
 26 14  2  0  0  0  0
 26 25  1  0  0  0  0
 27 13  2  0  0  0  0
 28 29  1  1  0  0  0
 29 31  1  0  0  0  0
 29 30  1  0  0  0  0
 30 68  1  0  0  0  0
 30 69  1  0  0  0  0
 31 71  1  0  0  0  0
 31 70  1  0  0  0  0
 32 28  1  0  0  0  0
 33 32  2  0  0  0  0
 34 33  1  0  0  0  0
 34 11  2  0  0  0  0
 35 74  1  0  0  0  0
 35  2  1  0  0  0  0
 36 37  1  0  0  0  0
 36 35  1  0  0  0  0
 38 39  1  0  0  0  0
 38 37  1  0  0  0  0
 39 45  1  0  0  0  0
 39 40  1  1  0  0  0
 41 39  1  0  0  0  0
 42 44  2  0  0  0  0
 42 41  1  0  0  0  0
 43 80  1  0  0  0  0
 43 42  1  0  0  0  0
 45 46  1  0  0  0  0
 46 83  1  0  0  0  0
 46 47  1  0  0  0  0
 47 86  1  0  0  0  0
 47 85  1  0  0  0  0
 48 45  2  0  0  0  0
 50  4  1  0  0  0  0
 54  6  1  0  0  0  0
 55  9  1  0  0  0  0
 56  9  1  0  0  0  0
 60 20  1  0  0  0  0
 61 21  1  0  0  0  0
 62 22  1  0  0  0  0
 65 25  1  0  0  0  0
 66 26  1  0  0  0  0
 67 30  1  0  0  0  0
 72 31  1  0  0  0  0
 73 33  1  0  0  0  0
 75 36  1  0  0  0  0
 76 36  1  0  0  0  0
 77 38  1  0  0  0  0
 78 38  1  0  0  0  0
 79 41  1  0  0  0  0
 81 43  1  0  0  0  0
 82 43  1  0  0  0  0
 84 47  1  0  0  0  0
M  END
