-1 1
 OpenBabel05192410563D

 93 97  0  0  1  0  0  0  0  0999 V2000
   -3.4827   -2.0086    2.7516 O   0  0  0  0  0  0  0  0  0  0  0  0
   -2.5116   -2.0679    1.9633 C   0  0  0  0  0  0  0  0  0  0  0  0
   -2.8304   -2.0311    0.5599 N   0  0  0  0  0  0  0  0  0  0  0  0
   -4.2291   -1.8429    0.2277 C   0  0  0  0  0  0  0  0  0  0  0  0
   -4.3818   -1.2569   -1.1778 C   0  0  0  0  0  0  0  0  0  0  0  0
   -3.5987   -2.0574   -2.2244 C   0  0  0  0  0  0  0  0  0  0  0  0
   -2.1506   -2.2796   -1.7583 C   0  0  2  0  0  0  0  0  0  0  0  0
   -1.5984   -2.9098   -2.4669 H   0  0  0  0  0  0  0  0  0  0  0  0
   -2.1789   -2.9272   -0.3710 C   0  0  0  0  0  0  0  0  0  0  0  0
   -1.4649   -1.0036   -1.6737 N   0  0  0  0  0  0  0  0  0  0  0  0
   -0.4637   -0.5554   -2.4579 C   0  0  0  0  0  0  0  0  0  0  0  0
   -0.1345    0.8268   -2.5219 C   0  0  2  0  0  3  0  0  0  0  0  0
   -1.1280    1.8564   -2.0758 C   0  0  0  0  0  0  0  0  0  0  0  0
   -1.5977    1.8533   -0.6626 C   0  0  0  0  0  0  0  0  0  0  0  0
   -0.8041    1.3581    0.3804 C   0  0  0  0  0  0  0  0  0  0  0  0
   -1.2679    1.3657    1.6928 C   0  0  0  0  0  0  0  0  0  0  0  0
   -2.5435    1.8682    1.9677 C   0  0  0  0  0  0  0  0  0  0  0  0
   -3.0766    1.9378    3.2073 O   0  0  0  0  0  0  0  0  0  0  0  0
   -2.3692    1.4784    4.3000 C   0  0  0  0  0  0  0  0  0  0  0  0
   -2.4023    0.1272    4.6325 C   0  0  0  0  0  0  0  0  0  0  0  0
   -1.7150   -0.2843    5.7748 C   0  0  0  0  0  0  0  0  0  0  0  0
   -1.0151    0.6289    6.5638 C   0  0  0  0  0  0  0  0  0  0  0  0
   -0.9954    1.9789    6.2109 C   0  0  0  0  0  0  0  0  0  0  0  0
   -1.6743    2.4086    5.0720 C   0  0  0  0  0  0  0  0  0  0  0  0
   -3.3457    2.3673    0.9297 C   0  0  0  0  0  0  0  0  0  0  0  0
   -2.8685    2.3710   -0.3683 C   0  0  0  0  0  0  0  0  0  0  0  0
   -1.5819    2.6523   -2.8796 O   0  0  0  0  0  0  0  0  0  0  0  0
    0.9968    1.1649   -3.2916 C   0  0  1  0  0  3  0  0  0  0  0  0
    1.5241    2.4280   -3.3203 N   0  0  0  0  0  0  0  0  0  0  0  0
    2.3568    2.8752   -4.4186 C   0  0  0  0  0  0  0  0  0  0  0  0
    1.7968    4.1728   -5.0042 C   0  0  0  0  0  0  0  0  0  0  0  0
    1.6444    5.2451   -3.9242 C   0  0  0  0  0  0  0  0  0  0  0  0
    0.8248    4.7168   -2.7452 C   0  0  0  0  0  0  0  0  0  0  0  0
    1.4058    3.3967   -2.2467 C   0  0  0  0  0  0  0  0  0  0  0  0
    1.6308    0.2387   -4.0390 N   0  0  0  0  0  0  0  0  0  0  0  0
    1.1637   -0.9980   -3.9748 C   0  0  0  0  0  0  0  0  0  0  0  0
    0.1892   -1.4609   -3.2161 N   0  0  0  0  0  0  0  0  0  0  0  0
   -1.1649   -2.0926    2.3744 C   0  0  0  0  0  3  0  0  0  0  0  0
    0.0172   -1.7964    1.5717 C   0  0  0  0  0  0  0  0  0  0  0  0
    1.0645   -3.3333    1.0487 S   0  0  0  0  0  0  0  0  0  0  0  0
    2.1824   -2.5643   -0.1625 C   0  0  0  0  0  0  0  0  0  0  0  0
    3.3214   -1.7087    0.4330 C   0  0  2  0  0  0  0  0  0  0  0  0
    2.8846   -1.0395    1.1922 H   0  0  0  0  0  0  0  0  0  0  0  0
    3.9548   -0.9026   -0.5791 N   0  0  0  0  0  0  0  0  0  0  0  0
    3.4702    0.2964   -0.9760 C   0  0  0  0  0  0  0  0  0  0  0  0
    4.2803    0.9911   -2.0475 C   0  0  0  0  0  0  0  0  0  0  0  0
    2.4305    0.7662   -0.5367 O   0  0  0  0  0  0  0  0  0  0  0  0
    4.4317   -2.5509    1.0808 C   0  0  0  0  0  0  0  0  0  0  0  0
    4.0448   -3.2858    2.1431 N   0  0  0  0  0  0  0  0  0  0  0  0
    4.9307   -4.2051    2.8103 C   0  0  0  0  0  0  0  0  0  0  0  0
    5.5746   -2.5320    0.6421 O   0  0  0  0  0  0  0  0  0  0  0  0
   -4.6778   -1.1921    0.9871 H   0  0  0  0  0  0  0  0  0  0  0  0
   -4.7786   -2.8096    0.2828 H   0  0  0  0  0  0  0  0  0  0  0  0
   -4.0293   -0.2110   -1.1701 H   0  0  0  0  0  0  0  0  0  0  0  0
   -5.4495   -1.2201   -1.4493 H   0  0  0  0  0  0  0  0  0  0  0  0
   -3.6105   -1.5496   -3.2024 H   0  0  0  0  0  0  0  0  0  0  0  0
   -4.0701   -3.0463   -2.3618 H   0  0  0  0  0  0  0  0  0  0  0  0
   -1.1649   -3.1734   -0.0448 H   0  0  0  0  0  0  0  0  0  0  0  0
   -2.7289   -3.8921   -0.4457 H   0  0  0  0  0  0  0  0  0  0  0  0
   -1.8240   -0.3900   -0.9516 H   0  0  0  0  0  0  0  0  0  0  0  0
    0.1955    0.9674    0.1613 H   0  0  0  0  0  0  0  0  0  0  0  0
   -0.6541    0.9573    2.4947 H   0  0  0  0  0  0  0  0  0  0  0  0
   -2.9398   -0.6007    4.0011 H   0  0  0  0  0  0  0  0  0  0  0  0
   -1.7273   -1.3445    6.0384 H   0  0  0  0  0  0  0  0  0  0  0  0
   -0.4801    0.2889    7.4539 H   0  0  0  0  0  0  0  0  0  0  0  0
   -0.4480    2.7013    6.8215 H   0  0  0  0  0  0  0  0  0  0  0  0
   -1.6757    3.4578    4.7695 H   0  0  0  0  0  0  0  0  0  0  0  0
   -4.3388    2.7449    1.1780 H   0  0  0  0  0  0  0  0  0  0  0  0
   -3.4742    2.7635   -1.1877 H   0  0  0  0  0  0  0  0  0  0  0  0
    2.4048    2.0756   -5.1658 H   0  0  0  0  0  0  0  0  0  0  0  0
    3.3908    3.0496   -4.0575 H   0  0  0  0  0  0  0  0  0  0  0  0
    0.8116    3.9561   -5.4498 H   0  0  0  0  0  0  0  0  0  0  0  0
    2.4558    4.5255   -5.8146 H   0  0  0  0  0  0  0  0  0  0  0  0
    1.1813    6.1529   -4.3430 H   0  0  0  0  0  0  0  0  0  0  0  0
    2.6491    5.5397   -3.5674 H   0  0  0  0  0  0  0  0  0  0  0  0
   -0.2183    4.5461   -3.0516 H   0  0  0  0  0  0  0  0  0  0  0  0
    0.8151    5.4474   -1.9206 H   0  0  0  0  0  0  0  0  0  0  0  0
    0.8330    2.9753   -1.4149 H   0  0  0  0  0  0  0  0  0  0  0  0
    2.4221    3.5740   -1.8403 H   0  0  0  0  0  0  0  0  0  0  0  0
    1.6645   -1.7338   -4.6181 H   0  0  0  0  0  0  0  0  0  0  0  0
   -1.0284   -2.1924    3.4532 H   0  0  0  0  0  0  0  0  0  0  0  0
    0.7480   -1.1690    2.1055 H   0  0  0  0  0  0  0  0  0  0  0  0
   -0.2064   -1.3216    0.6065 H   0  0  0  0  0  0  0  0  0  0  0  0
    1.5778   -1.9147   -0.8140 H   0  0  0  0  0  0  0  0  0  0  0  0
    2.6035   -3.3578   -0.7988 H   0  0  0  0  0  0  0  0  0  0  0  0
    4.8925   -1.2026   -0.8285 H   0  0  0  0  0  0  0  0  0  0  0  0
    5.3331    0.6755   -2.0570 H   0  0  0  0  0  0  0  0  0  0  0  0
    4.2184    2.0764   -1.8979 H   0  0  0  0  0  0  0  0  0  0  0  0
    3.8220    0.7499   -3.0201 H   0  0  0  0  0  0  0  0  0  0  0  0
    3.0351   -3.3543    2.3026 H   0  0  0  0  0  0  0  0  0  0  0  0
    5.9598   -3.9795    2.5037 H   0  0  0  0  0  0  0  0  0  0  0  0
    4.7087   -5.2522    2.5453 H   0  0  0  0  0  0  0  0  0  0  0  0
    4.8484   -4.0988    3.9025 H   0  0  0  0  0  0  0  0  0  0  0  0
  2 38  1  0  0  0  0
  2  1  2  0  0  0  0
  3  2  1  0  0  0  0
  4 53  1  0  0  0  0
  4  3  1  0  0  0  0
  4 52  1  0  0  0  0
  5 54  1  0  0  0  0
  5  4  1  0  0  0  0
  6  7  1  0  0  0  0
  6  5  1  0  0  0  0
  7  8  1  6  0  0  0
  7 10  1  0  0  0  0
  7  9  1  0  0  0  0
  9 58  1  0  0  0  0
  9  3  1  0  0  0  0
 10 60  1  0  0  0  0
 11 10  1  0  0  0  0
 12 11  1  0  0  0  0
 12 13  1  6  0  0  0
 13 14  1  0  0  0  0
 14 26  2  0  0  0  0
 14 15  1  0  0  0  0
 15 16  2  0  0  0  0
 16 17  1  0  0  0  0
 16 62  1  0  0  0  0
 17 18  1  0  0  0  0
 18 19  1  0  0  0  0
 19 20  2  0  0  0  0
 19 24  1  0  0  0  0
 20 21  1  0  0  0  0
 21 64  1  0  0  0  0
 21 22  2  0  0  0  0
 22 65  1  0  0  0  0
 23 22  1  0  0  0  0
 23 66  1  0  0  0  0
 24 23  2  0  0  0  0
 25 68  1  0  0  0  0
 25 17  2  0  0  0  0
 26 25  1  0  0  0  0
 27 13  2  0  0  0  0
 28 29  1  1  0  0  0
 28 12  1  0  0  0  0
 29 34  1  0  0  0  0
 30 71  1  0  0  0  0
 30 29  1  0  0  0  0
 31 30  1  0  0  0  0
 31 32  1  0  0  0  0
 32 75  1  0  0  0  0
 32 33  1  0  0  0  0
 33 34  1  0  0  0  0
 33 77  1  0  0  0  0
 34 79  1  0  0  0  0
 34 78  1  0  0  0  0
 35 36  2  0  0  0  0
 35 28  1  0  0  0  0
 36 37  1  0  0  0  0
 37 11  2  0  0  0  0
 38 81  1  0  0  0  0
 39 82  1  0  0  0  0
 39 38  1  0  0  0  0
 40 39  1  0  0  0  0
 41 42  1  0  0  0  0
 41 40  1  0  0  0  0
 42 48  1  0  0  0  0
 42 43  1  1  0  0  0
 44 42  1  0  0  0  0
 45 44  1  0  0  0  0
 45 47  2  0  0  0  0
 46 88  1  0  0  0  0
 46 45  1  0  0  0  0
 48 49  1  0  0  0  0
 49 90  1  0  0  0  0
 49 50  1  0  0  0  0
 50 93  1  0  0  0  0
 51 48  2  0  0  0  0
 55  5  1  0  0  0  0
 56  6  1  0  0  0  0
 57  6  1  0  0  0  0
 59  9  1  0  0  0  0
 61 15  1  0  0  0  0
 63 20  1  0  0  0  0
 67 24  1  0  0  0  0
 69 26  1  0  0  0  0
 70 30  1  0  0  0  0
 72 31  1  0  0  0  0
 73 31  1  0  0  0  0
 74 32  1  0  0  0  0
 76 33  1  0  0  0  0
 80 36  1  0  0  0  0
 83 39  1  0  0  0  0
 84 41  1  0  0  0  0
 85 41  1  0  0  0  0
 86 44  1  0  0  0  0
 87 46  1  0  0  0  0
 89 46  1  0  0  0  0
 91 50  1  0  0  0  0
 92 50  1  0  0  0  0
M  END
