-1 1
 OpenBabel05232413493D

 76 77  0  0  1  0  0  0  0  0999 V2000
   -4.2367    2.4813    1.6823 O   0  0  0  0  0  0  0  0  0  0  0  0
   -3.0510    2.2099    1.8094 C   0  0  0  0  0  0  0  0  0  0  0  0
   -2.5028    1.9742    3.0472 N   0  0  0  0  0  0  0  0  0  0  0  0
   -3.3959    1.9747    4.1948 C   0  0  0  0  0  0  0  0  0  0  0  0
   -3.6129    0.5487    4.7031 C   0  0  0  0  0  0  0  0  0  0  0  0
   -2.2747   -0.1314    5.0028 C   0  0  0  0  0  0  0  0  0  0  0  0
   -1.3023   -0.0239    3.8242 C   0  0  2  0  0  0  0  0  0  0  0  0
   -0.3072   -0.3747    4.1244 H   0  0  0  0  0  0  0  0  0  0  0  0
   -1.1858    1.4319    3.3462 C   0  0  0  0  0  0  0  0  0  0  0  0
   -1.7198   -0.8594    2.7087 N   0  0  0  0  0  0  0  0  0  0  0  0
   -0.8461   -1.5736    1.9707 C   0  0  0  0  0  0  0  0  0  0  0  0
   -1.0936   -1.8505    0.5933 C   0  0  0  0  0  0  0  0  0  0  0  0
   -2.2362   -1.2224   -0.1027 C   0  0  0  0  0  0  0  0  0  0  0  0
   -2.0302   -0.7285   -1.4985 C   0  0  0  0  0  0  0  0  0  0  0  0
   -0.8143   -0.1470   -1.8691 C   0  0  0  0  0  0  0  0  0  0  0  0
   -0.6267    0.3976   -3.1345 C   0  0  0  0  0  0  0  0  0  0  0  0
   -1.6656    0.3364   -4.0710 C   0  0  0  0  0  0  0  0  0  0  0  0
   -1.5777    0.7999   -5.3312 O   0  0  0  0  0  0  0  0  0  0  0  0
   -0.3973    1.4450   -5.7802 C   0  0  0  0  0  0  0  0  0  0  0  0
    0.7365    0.4891   -6.1168 C   0  0  0  0  0  0  0  0  0  0  0  0
   -2.8980   -0.2325   -3.7035 C   0  0  0  0  0  0  0  0  0  0  0  0
   -3.0824   -0.7370   -2.4250 C   0  0  0  0  0  0  0  0  0  0  0  0
   -3.3070   -1.0221    0.4564 O   0  0  0  0  0  0  0  0  0  0  0  0
   -0.1468   -2.6947   -0.0382 C   0  0  0  0  0  0  0  0  0  0  0  0
   -0.3316   -3.2099   -1.2802 N   0  0  0  0  0  0  0  0  0  0  0  0
    0.9799   -3.0872    0.5803 N   0  0  0  0  0  0  0  0  0  0  0  0
    1.1283   -2.6852    1.8374 C   0  0  0  0  0  0  0  0  0  0  0  0
    0.2849   -1.9904    2.5711 N   0  0  0  0  0  0  0  0  0  0  0  0
   -2.2155    2.1310    0.5694 C   0  0  0  0  0  0  0  0  0  0  0  0
   -0.9958    2.6261    0.3517 C   0  0  0  0  0  0  0  0  0  0  0  0
    2.1949    2.1731    1.9310 S   0  0  0  0  0  1  0  0  0  0  0  0
    2.0937    0.5864    1.0278 C   0  0  0  0  0  0  0  0  0  0  0  0
    2.8896    0.5029   -0.2907 C   0  0  2  0  0  0  0  0  0  0  0  0
    2.6517    1.3840   -0.9060 H   0  0  0  0  0  0  0  0  0  0  0  0
    2.4979   -0.6696   -1.0482 N   0  0  0  0  0  0  0  0  0  0  0  0
    2.5018   -0.7056   -2.3977 C   0  0  0  0  0  0  0  0  0  0  0  0
    2.3503   -2.0807   -3.0183 C   0  0  0  0  0  0  0  0  0  0  0  0
    2.5531    0.2910   -3.1076 O   0  0  0  0  0  0  0  0  0  0  0  0
    4.4250    0.4535   -0.1067 C   0  0  0  0  0  0  0  0  0  0  0  0
    4.9282    1.4460    0.6525 N   0  0  0  0  0  0  0  0  0  0  0  0
    6.3217    1.5165    0.9937 C   0  0  0  0  0  0  0  0  0  0  0  0
    5.0980   -0.4216   -0.6353 O   0  0  0  0  0  0  0  0  0  0  0  0
   -4.3402    2.4373    3.8875 H   0  0  0  0  0  0  0  0  0  0  0  0
   -2.9421    2.5919    4.9918 H   0  0  0  0  0  0  0  0  0  0  0  0
   -4.1673   -0.0167    3.9346 H   0  0  0  0  0  0  0  0  0  0  0  0
   -4.2481    0.5625    5.6035 H   0  0  0  0  0  0  0  0  0  0  0  0
   -2.4164   -1.1902    5.2690 H   0  0  0  0  0  0  0  0  0  0  0  0
   -1.8062    0.3628    5.8715 H   0  0  0  0  0  0  0  0  0  0  0  0
   -0.5056    1.4918    2.4912 H   0  0  0  0  0  0  0  0  0  0  0  0
   -0.7199    2.0421    4.1381 H   0  0  0  0  0  0  0  0  0  0  0  0
   -2.5825   -0.6186    2.2253 H   0  0  0  0  0  0  0  0  0  0  0  0
    0.0095   -0.1064   -1.1540 H   0  0  0  0  0  0  0  0  0  0  0  0
    0.3442    0.8350   -3.3660 H   0  0  0  0  0  0  0  0  0  0  0  0
   -0.0723    2.1991   -5.0426 H   0  0  0  0  0  0  0  0  0  0  0  0
   -0.7156    1.9868   -6.6825 H   0  0  0  0  0  0  0  0  0  0  0  0
    1.2221    0.0762   -5.2209 H   0  0  0  0  0  0  0  0  0  0  0  0
    1.5122    1.0323   -6.6771 H   0  0  0  0  0  0  0  0  0  0  0  0
    0.3643   -0.3310   -6.7491 H   0  0  0  0  0  0  0  0  0  0  0  0
   -3.7001   -0.2507   -4.4433 H   0  0  0  0  0  0  0  0  0  0  0  0
   -4.0487   -1.1492   -2.1257 H   0  0  0  0  0  0  0  0  0  0  0  0
   -1.0147   -2.8019   -1.9026 H   0  0  0  0  0  0  0  0  0  0  0  0
    0.4733   -3.6615   -1.6909 H   0  0  0  0  0  0  0  0  0  0  0  0
    2.0671   -2.9773    2.3246 H   0  0  0  0  0  0  0  0  0  0  0  0
   -2.7936    1.7145   -0.2612 H   0  0  0  0  0  0  0  0  0  0  0  0
   -0.3520    3.0678    1.1181 H   0  0  0  0  0  0  0  0  0  0  0  0
   -0.5631    2.5765   -0.6516 H   0  0  0  0  0  0  0  0  0  0  0  0
    1.0403    0.3761    0.7687 H   0  0  0  0  0  0  0  0  0  0  0  0
    2.4183   -0.2418    1.6819 H   0  0  0  0  0  0  0  0  0  0  0  0
    2.5519   -1.5568   -0.5583 H   0  0  0  0  0  0  0  0  0  0  0  0
    2.5121   -2.8988   -2.3023 H   0  0  0  0  0  0  0  0  0  0  0  0
    3.0758   -2.1673   -3.8377 H   0  0  0  0  0  0  0  0  0  0  0  0
    1.3406   -2.1560   -3.4506 H   0  0  0  0  0  0  0  0  0  0  0  0
    4.2335    2.0133    1.1739 H   0  0  0  0  0  0  0  0  0  0  0  0
    6.7163    2.5326    0.8309 H   0  0  0  0  0  0  0  0  0  0  0  0
    6.8737    0.8119    0.3575 H   0  0  0  0  0  0  0  0  0  0  0  0
    6.4994    1.2472    2.0495 H   0  0  0  0  0  0  0  0  0  0  0  0
  1  2  2  0  0  0  0
  2  3  1  0  0  0  0
  3  9  1  0  0  0  0
  3  4  1  0  0  0  0
  4  5  1  0  0  0  0
  4 44  1  0  0  0  0
  5  6  1  0  0  0  0
  5 46  1  0  0  0  0
  6 47  1  0  0  0  0
  6 48  1  0  0  0  0
  7  8  1  1  0  0  0
  7  6  1  0  0  0  0
  9  7  1  0  0  0  0
  9 50  1  0  0  0  0
 10  7  1  0  0  0  0
 11 28  2  0  0  0  0
 11 10  1  0  0  0  0
 12 11  1  0  0  0  0
 13 23  2  0  0  0  0
 13 12  1  0  0  0  0
 14 13  1  0  0  0  0
 15 14  1  0  0  0  0
 15 52  1  0  0  0  0
 16 15  2  0  0  0  0
 17 21  2  0  0  0  0
 17 16  1  0  0  0  0
 18 17  1  0  0  0  0
 19 18  1  0  0  0  0
 19 54  1  0  0  0  0
 20 19  1  0  0  0  0
 20 56  1  0  0  0  0
 21 22  1  0  0  0  0
 22 60  1  0  0  0  0
 22 14  2  0  0  0  0
 24 26  1  0  0  0  0
 24 12  2  0  0  0  0
 25 24  1  0  0  0  0
 26 27  2  0  0  0  0
 27 63  1  0  0  0  0
 27 28  1  0  0  0  0
 29  2  1  0  0  0  0
 30 29  2  0  0  0  0
 30 65  1  0  0  0  0
 32 68  1  0  0  0  0
 32 31  1  0  0  0  0
 33 34  1  6  0  0  0
 33 39  1  0  0  0  0
 33 32  1  0  0  0  0
 35 69  1  0  0  0  0
 35 33  1  0  0  0  0
 36 35  1  0  0  0  0
 37 36  1  0  0  0  0
 37 70  1  0  0  0  0
 38 36  2  0  0  0  0
 39 40  1  0  0  0  0
 40 41  1  0  0  0  0
 40 73  1  0  0  0  0
 41 76  1  0  0  0  0
 42 39  2  0  0  0  0
 43  4  1  0  0  0  0
 45  5  1  0  0  0  0
 49  9  1  0  0  0  0
 51 10  1  0  0  0  0
 53 16  1  0  0  0  0
 55 19  1  0  0  0  0
 57 20  1  0  0  0  0
 58 20  1  0  0  0  0
 59 21  1  0  0  0  0
 61 25  1  0  0  0  0
 62 25  1  0  0  0  0
 64 29  1  0  0  0  0
 66 30  1  0  0  0  0
 67 32  1  0  0  0  0
 71 37  1  0  0  0  0
 72 37  1  0  0  0  0
 74 41  1  0  0  0  0
 75 41  1  0  0  0  0
M  END
