76
-1 1
O         4.408106   -7.877312    5.364372
C         5.422135   -7.471607    5.945776
N         5.384803   -7.304588    7.366814
C         4.076513   -7.098115    7.961086
C         3.335873   -8.387366    8.333333
C         4.243792   -9.329195    9.129238
C         5.587704   -9.526758    8.421161
H         6.261452  -10.144717    9.030132
C         6.246869   -8.154949    8.165191
N         5.359583  -10.226811    7.167729
C         6.298710  -10.928094    6.511665
C         6.120651  -11.290557    5.147541
C         4.873194  -10.943092    4.398239
C         5.033971  -10.335929    3.043817
C         6.167774   -9.587886    2.721088
C         6.311604   -8.989196    1.473816
C         5.309907   -9.157671    0.511056
O         5.356459   -8.643971   -0.734581
C         6.434632   -7.817213   -1.132565
C         7.694067   -8.586501   -1.499676
C         4.159804   -9.901660    0.828558
C         4.018461  -10.465707    2.086299
O         3.768933  -11.150629    4.865225
C         7.153043  -12.056892    4.579029
N         7.063095  -12.609515    3.336444
N         8.287392  -12.343497    5.248920
C         8.337886  -11.925757    6.506827
N         7.420110  -11.263135    7.182094
C         6.630110   -7.086082    5.280003
C         7.623008   -6.267716    5.837685
S         9.462456   -7.318886    6.628841
C         9.310039   -8.792615    5.598665
C         9.979639   -8.743589    4.213536
H         9.638608   -7.841113    3.684269
N         9.566711   -9.883306    3.425695
C         9.534608   -9.833438    2.073566
C         9.355419  -11.159251    1.364677
O         9.580199   -8.787465    1.440445
C        11.525754   -8.713827    4.248910
N        12.053644   -7.635434    4.873358
C        13.469181   -7.493341    5.084119
O        12.192807   -9.591788    3.726549
H         3.468287   -6.507570    7.263027
H         4.222178   -6.492770    8.877535
H         2.991654   -8.868364    7.404344
H         2.432169   -8.145758    8.917244
H         3.756776  -10.303844    9.292755
H         4.446004   -8.894180   10.123716
H         7.218161   -8.282337    7.668369
H         6.451644   -7.671925    9.139494
H         4.581851   -9.898915    6.601061
H         6.957867   -9.458432    3.462284
H         7.217337   -8.417375    1.274380
H         6.644607   -7.063231   -0.354178
H         6.051912   -7.279230   -2.012365
H         8.220270   -8.981513   -0.619015
H         8.395287   -7.911674   -2.013555
H         7.445443   -9.412247   -2.183295
H         3.385579  -10.005563    0.066195
H         3.116217  -11.020710    2.352552
H         6.394365  -12.246827    2.671272
H         7.915482  -13.013617    2.976814
H         9.262618  -12.158747    7.050710
H         6.649983   -7.303677    4.210415
H         7.391900   -5.781866    6.790067
H         8.204492   -5.648634    5.151919
H         8.223526   -8.941416    5.430458
H         9.678930   -9.663654    6.159847
H         9.629845  -10.791986    3.875965
H         9.681268  -12.015805    1.970859
H         9.935331  -11.130840    0.433678
H         8.292033  -11.273658    1.104915
H        11.400568   -7.080915    5.437795
H        13.800949   -6.470563    4.844929
H        13.988033   -8.201327    4.424913
H        13.756041   -7.714439    6.126811
