76
-1 1
O        -4.236712    2.481296    1.682306
C        -3.051030    2.209933    1.809372
N        -2.502808    1.974162    3.047206
C        -3.395928    1.974675    4.194817
C        -3.612873    0.548653    4.703068
C        -2.274668   -0.131443    5.002807
C        -1.302310   -0.023946    3.824156
H        -0.307185   -0.374651    4.124366
C        -1.185822    1.431925    3.346191
N        -1.719795   -0.859382    2.708740
C        -0.846126   -1.573555    1.970680
C        -1.093564   -1.850508    0.593311
C        -2.236240   -1.222435   -0.102694
C        -2.030193   -0.728460   -1.498491
C        -0.814252   -0.146993   -1.869090
C        -0.626667    0.397612   -3.134454
C        -1.665572    0.336425   -4.071007
O        -1.577652    0.799945   -5.331163
C        -0.397317    1.444991   -5.780168
C         0.736497    0.489071   -6.116764
C        -2.897963   -0.232534   -3.703454
C        -3.082440   -0.736979   -2.424999
O        -3.307038   -1.022125    0.456418
C        -0.146774   -2.694683   -0.038155
N        -0.331607   -3.209863   -1.280216
N         0.979898   -3.087163    0.580300
C         1.128284   -2.685173    1.837363
N         0.284920   -1.990446    2.571121
C        -2.215548    2.130975    0.569406
C        -0.995804    2.626098    0.351733
S         2.194914    2.173107    1.930951
C         2.093718    0.586350    1.027760
C         2.889628    0.502925   -0.290656
H         2.651734    1.384033   -0.906015
N         2.497899   -0.669612   -1.048183
C         2.501832   -0.705621   -2.397702
C         2.350277   -2.080695   -3.018324
O         2.553118    0.290997   -3.107636
C         4.424955    0.453541   -0.106736
N         4.928170    1.445962    0.652452
C         6.321675    1.516491    0.993684
O         5.097992   -0.421587   -0.635280
H        -4.340213    2.437277    3.887507
H        -2.942070    2.591903    4.991839
H        -4.167294   -0.016682    3.934634
H        -4.248085    0.562536    5.603502
H        -2.416351   -1.190187    5.268952
H        -1.806199    0.362846    5.871511
H        -0.505622    1.491804    2.491249
H        -0.719911    2.042095    4.138117
H        -2.582509   -0.618574    2.225331
H         0.009500   -0.106376   -1.153965
H         0.344245    0.834958   -3.366042
H        -0.072314    2.199084   -5.042624
H        -0.715621    1.986800   -6.682491
H         1.222117    0.076244   -5.220905
H         1.512237    1.032252   -6.677093
H         0.364259   -0.330950   -6.749132
H        -3.700068   -0.250680   -4.443343
H        -4.048672   -1.149174   -2.125683
H        -1.014731   -2.801933   -1.902590
H         0.473259   -3.661492   -1.690863
H         2.067091   -2.977326    2.324620
H        -2.793605    1.714465   -0.261195
H        -0.351971    3.067832    1.118072
H        -0.563095    2.576515   -0.651634
H         1.040264    0.376118    0.768739
H         2.418342   -0.241827    1.681943
H         2.551891   -1.556799   -0.558346
H         2.512148   -2.898812   -2.302251
H         3.075786   -2.167302   -3.837738
H         1.340559   -2.156020   -3.450600
H         4.233464    2.013329    1.173868
H         6.716255    2.532623    0.830876
H         6.873735    0.811921    0.357511
H         6.499359    1.247225    2.049482
