-1 1
 OpenBabel05232413493D

 76 77  0  0  1  0  0  0  0  0999 V2000
    4.0425    2.9430    0.0997 O   0  0  0  0  0  0  0  0  0  0  0  0
    4.0251    2.0762   -0.7599 C   0  0  0  0  0  0  0  0  0  0  0  0
    2.9628    1.9663   -1.6349 N   0  0  0  0  0  0  0  0  0  0  0  0
    1.7328    2.6555   -1.2882 C   0  0  0  0  0  0  0  0  0  0  0  0
    0.5860    1.6567   -1.2634 C   0  0  0  0  0  0  0  0  0  0  0  0
    0.3973    1.0986   -2.5953 N   0  0  0  0  0  0  0  0  0  0  0  0
    1.5756    1.0877   -3.4493 C   0  0  0  0  0  0  0  0  0  0  0  0
    2.8277    0.8857   -2.6071 C   0  0  0  0  0  0  0  0  0  0  0  0
   -0.8024    0.6906   -3.0819 C   0  0  0  0  0  0  0  0  0  0  0  0
   -1.8959    0.3529   -2.2441 C   0  0  2  0  0  3  0  0  0  0  0  0
   -1.6548   -0.0764   -0.8288 C   0  0  0  0  0  0  0  0  0  0  0  0
   -2.5041    0.4468    0.2834 C   0  0  0  0  0  0  0  0  0  0  0  0
   -3.3105    1.5787    0.1384 C   0  0  0  0  0  0  0  0  0  0  0  0
   -4.0417    2.0843    1.2124 C   0  0  0  0  0  0  0  0  0  0  0  0
   -3.9619    1.4462    2.4576 C   0  0  0  0  0  0  0  0  0  0  0  0
   -4.6297    1.8523    3.5576 O   0  0  0  0  0  0  0  0  0  0  0  0
   -5.4396    3.0006    3.4967 C   0  0  0  0  0  0  0  0  0  0  0  0
   -6.0393    3.2247    4.8680 C   0  0  0  0  0  0  0  0  0  0  0  0
   -3.1435    0.3158    2.6111 C   0  0  0  0  0  0  0  0  0  0  0  0
   -2.4164   -0.1766    1.5417 C   0  0  0  0  0  0  0  0  0  0  0  0
   -0.7462   -0.8444   -0.5934 O   0  0  0  0  0  0  0  0  0  0  0  0
   -3.1199    0.0865   -2.9090 C   0  0  2  0  0  3  0  0  0  0  0  0
   -4.2473   -0.2697   -2.2388 N   0  0  0  0  0  0  0  0  0  0  0  0
   -5.4506   -0.6831   -2.9150 C   0  0  0  0  0  0  0  0  0  0  0  0
   -3.2245    0.1286   -4.2483 N   0  0  0  0  0  0  0  0  0  0  0  0
   -2.1038    0.3673   -4.9145 C   0  0  0  0  0  0  0  0  0  0  0  0
   -0.9123    0.6484   -4.4271 N   0  0  0  0  0  0  0  0  0  0  0  0
    5.1084    1.0647   -0.8889 C   0  0  0  0  0  0  0  0  0  0  0  0
    5.9352    0.8564    0.1414 C   0  0  0  0  0  0  0  0  0  0  0  0
    4.4389   -1.0625    2.3041 S   0  0  0  0  0  1  0  0  0  0  0  0
    2.8100   -0.4479    1.7247 C   0  0  0  0  0  0  0  0  0  0  0  0
    1.8260   -1.5749    1.3701 C   0  0  2  0  0  0  0  0  0  0  0  0
    0.8265   -1.1697    1.1440 H   0  0  0  0  0  0  0  0  0  0  0  0
    1.6834   -2.4600    2.5029 N   0  0  0  0  0  0  0  0  0  0  0  0
    0.5298   -2.7800    3.1117 C   0  0  0  0  0  0  0  0  0  0  0  0
    0.6795   -3.7154    4.3014 C   0  0  0  0  0  0  0  0  0  0  0  0
   -0.5808   -2.3948    2.7679 O   0  0  0  0  0  0  0  0  0  0  0  0
    2.1864   -2.4091    0.1238 C   0  0  0  0  0  0  0  0  0  0  0  0
    3.3039   -2.0012   -0.5522 N   0  0  0  0  0  0  0  0  0  0  0  0
    3.7833   -2.7907   -1.6556 C   0  0  0  0  0  0  0  0  0  0  0  0
    1.4938   -3.3388   -0.2414 O   0  0  0  0  0  0  0  0  0  0  0  0
    1.5137    3.4779   -1.9925 H   0  0  0  0  0  0  0  0  0  0  0  0
    1.8753    3.0989   -0.2951 H   0  0  0  0  0  0  0  0  0  0  0  0
   -0.3437    2.1559   -0.9479 H   0  0  0  0  0  0  0  0  0  0  0  0
    0.8093    0.8727   -0.5212 H   0  0  0  0  0  0  0  0  0  0  0  0
    1.6528    2.0201   -4.0371 H   0  0  0  0  0  0  0  0  0  0  0  0
    1.4808    0.2685   -4.1718 H   0  0  0  0  0  0  0  0  0  0  0  0
    3.6909    0.8777   -3.2900 H   0  0  0  0  0  0  0  0  0  0  0  0
    2.7804   -0.0958   -2.1016 H   0  0  0  0  0  0  0  0  0  0  0  0
   -3.3649    2.0816   -0.8307 H   0  0  0  0  0  0  0  0  0  0  0  0
   -4.6556    2.9732    1.0681 H   0  0  0  0  0  0  0  0  0  0  0  0
   -6.2367    2.8666    2.7413 H   0  0  0  0  0  0  0  0  0  0  0  0
   -4.8378    3.8758    3.1883 H   0  0  0  0  0  0  0  0  0  0  0  0
   -6.6444    2.3579    5.1700 H   0  0  0  0  0  0  0  0  0  0  0  0
   -6.6819    4.1170    4.8623 H   0  0  0  0  0  0  0  0  0  0  0  0
   -5.2461    3.3678    5.6154 H   0  0  0  0  0  0  0  0  0  0  0  0
   -3.0780   -0.1590    3.5913 H   0  0  0  0  0  0  0  0  0  0  0  0
   -1.7543   -1.0393    1.6854 H   0  0  0  0  0  0  0  0  0  0  0  0
   -4.1928   -0.3814   -1.2367 H   0  0  0  0  0  0  0  0  0  0  0  0
   -5.2918   -1.5844   -3.5298 H   0  0  0  0  0  0  0  0  0  0  0  0
   -5.8239    0.1059   -3.5848 H   0  0  0  0  0  0  0  0  0  0  0  0
   -6.2176   -0.8995   -2.1595 H   0  0  0  0  0  0  0  0  0  0  0  0
   -2.1814    0.3330   -6.0094 H   0  0  0  0  0  0  0  0  0  0  0  0
    5.1638    0.4309   -1.7755 H   0  0  0  0  0  0  0  0  0  0  0  0
    5.8485    1.4550    1.0493 H   0  0  0  0  0  0  0  0  0  0  0  0
    6.7025    0.0817    0.1124 H   0  0  0  0  0  0  0  0  0  0  0  0
    2.9315    0.2028    0.8402 H   0  0  0  0  0  0  0  0  0  0  0  0
    2.3389    0.1704    2.5049 H   0  0  0  0  0  0  0  0  0  0  0  0
    2.5828   -2.6986    2.9230 H   0  0  0  0  0  0  0  0  0  0  0  0
    0.0389   -3.3524    5.1164 H   0  0  0  0  0  0  0  0  0  0  0  0
    1.7151   -3.8069    4.6566 H   0  0  0  0  0  0  0  0  0  0  0  0
    0.3146   -4.7108    4.0070 H   0  0  0  0  0  0  0  0  0  0  0  0
    4.0141   -1.5646    0.0531 H   0  0  0  0  0  0  0  0  0  0  0  0
    4.2631   -3.7318   -1.3300 H   0  0  0  0  0  0  0  0  0  0  0  0
    4.5167   -2.2089   -2.2346 H   0  0  0  0  0  0  0  0  0  0  0  0
    2.9410   -3.0599   -2.3080 H   0  0  0  0  0  0  0  0  0  0  0  0
  2  1  2  0  0  0  0
  3  4  1  0  0  0  0
  3  2  1  0  0  0  0
  4  5  1  0  0  0  0
  4 43  1  0  0  0  0
  5 44  1  0  0  0  0
  5 45  1  0  0  0  0
  6  5  1  0  0  0  0
  7  8  1  0  0  0  0
  7  6  1  0  0  0  0
  8 49  1  0  0  0  0
  8  3  1  0  0  0  0
  9  6  1  0  0  0  0
  9 10  1  0  0  0  0
 10 11  1  6  0  0  0
 11 21  2  0  0  0  0
 11 12  1  0  0  0  0
 12 20  1  0  0  0  0
 13 12  2  0  0  0  0
 13 14  1  0  0  0  0
 14 15  2  0  0  0  0
 15 19  1  0  0  0  0
 15 16  1  0  0  0  0
 17 16  1  0  0  0  0
 17 18  1  0  0  0  0
 18 54  1  0  0  0  0
 18 56  1  0  0  0  0
 19 57  1  0  0  0  0
 20 58  1  0  0  0  0
 20 19  2  0  0  0  0
 22 10  1  0  0  0  0
 22 23  1  6  0  0  0
 23 59  1  0  0  0  0
 24 23  1  0  0  0  0
 24 62  1  0  0  0  0
 25 22  1  0  0  0  0
 26 27  1  0  0  0  0
 26 25  2  0  0  0  0
 27  9  2  0  0  0  0
 28  2  1  0  0  0  0
 28 29  2  0  0  0  0
 29 65  1  0  0  0  0
 31 30  1  0  0  0  0
 31 68  1  0  0  0  0
 32 33  1  6  0  0  0
 32 31  1  0  0  0  0
 32 34  1  0  0  0  0
 34 69  1  0  0  0  0
 34 35  1  0  0  0  0
 35 36  1  0  0  0  0
 36 71  1  0  0  0  0
 36 70  1  0  0  0  0
 37 35  2  0  0  0  0
 38 32  1  0  0  0  0
 39 73  1  0  0  0  0
 39 38  1  0  0  0  0
 40 74  1  0  0  0  0
 40 39  1  0  0  0  0
 41 38  2  0  0  0  0
 42  4  1  0  0  0  0
 46  7  1  0  0  0  0
 47  7  1  0  0  0  0
 48  8  1  0  0  0  0
 50 13  1  0  0  0  0
 51 14  1  0  0  0  0
 52 17  1  0  0  0  0
 53 17  1  0  0  0  0
 55 18  1  0  0  0  0
 60 24  1  0  0  0  0
 61 24  1  0  0  0  0
 63 26  1  0  0  0  0
 64 28  1  0  0  0  0
 66 29  1  0  0  0  0
 67 31  1  0  0  0  0
 72 36  1  0  0  0  0
 75 40  1  0  0  0  0
 76 40  1  0  0  0  0
M  END
