76
-1 1
O         4.042459    2.942973    0.099709
C         4.025125    2.076192   -0.759889
N         2.962846    1.966298   -1.634931
C         1.732848    2.655513   -1.288242
C         0.586022    1.656709   -1.263399
N         0.397268    1.098603   -2.595320
C         1.575579    1.087704   -3.449283
C         2.827650    0.885687   -2.607150
C        -0.802421    0.690555   -3.081854
C        -1.895931    0.352882   -2.244103
C        -1.654772   -0.076415   -0.828770
C        -2.504122    0.446813    0.283406
C        -3.310548    1.578710    0.138424
C        -4.041747    2.084301    1.212355
C        -3.961920    1.446241    2.457642
O        -4.629692    1.852272    3.557576
C        -5.439614    3.000650    3.496713
C        -6.039304    3.224656    4.867951
C        -3.143456    0.315771    2.611122
C        -2.416441   -0.176586    1.541743
O        -0.746196   -0.844358   -0.593430
C        -3.119950    0.086524   -2.909026
N        -4.247298   -0.269701   -2.238774
C        -5.450589   -0.683078   -2.915030
N        -3.224503    0.128621   -4.248260
C        -2.103832    0.367329   -4.914450
N        -0.912329    0.648362   -4.427144
C         5.108386    1.064706   -0.888876
C         5.935244    0.856426    0.141395
S         4.438918   -1.062456    2.304068
C         2.810027   -0.447877    1.724695
C         1.825974   -1.574865    1.370126
H         0.826523   -1.169731    1.143951
N         1.683354   -2.460024    2.502921
C         0.529763   -2.780016    3.111710
C         0.679459   -3.715378    4.301377
O        -0.580838   -2.394762    2.767888
C         2.186373   -2.409059    0.123795
N         3.303854   -2.001212   -0.552199
C         3.783305   -2.790665   -1.655619
O         1.493846   -3.338763   -0.241415
H         1.513659    3.477925   -1.992530
H         1.875260    3.098872   -0.295066
H        -0.343697    2.155875   -0.947880
H         0.809337    0.872664   -0.521218
H         1.652799    2.020133   -4.037087
H         1.480762    0.268505   -4.171825
H         3.690902    0.877743   -3.290028
H         2.780411   -0.095800   -2.101633
H        -3.364926    2.081616   -0.830743
H        -4.655598    2.973151    1.068122
H        -6.236717    2.866622    2.741257
H        -4.837815    3.875783    3.188294
H        -6.644351    2.357850    5.170036
H        -6.681921    4.117008    4.862301
H        -5.246116    3.367820    5.615438
H        -3.077986   -0.158963    3.591325
H        -1.754309   -1.039251    1.685417
H        -4.192772   -0.381358   -1.236730
H        -5.291750   -1.584443   -3.529786
H        -5.823925    0.105890   -3.584760
H        -6.217602   -0.899482   -2.159526
H        -2.181392    0.332971   -6.009350
H         5.163818    0.430917   -1.775510
H         5.848463    1.454982    1.049257
H         6.702531    0.081692    0.112413
H         2.931496    0.202810    0.840152
H         2.338934    0.170377    2.504910
H         2.582813   -2.698562    2.922975
H         0.038908   -3.352367    5.116422
H         1.715123   -3.806872    4.656615
H         0.314630   -4.710845    4.007021
H         4.014050   -1.564599    0.053091
H         4.263119   -3.731786   -1.329991
H         4.516743   -2.208893   -2.234595
H         2.941030   -3.059927   -2.308018
