76
-1 1
O         9.289782   13.207518    3.019617
C         9.357641   12.485575    2.025598
N         8.273429   12.457491    1.136949
C         7.054614   13.124468    1.533061
C         5.853150   12.206358    1.367293
N         5.718045   11.805677   -0.028994
C         6.946018   11.826429   -0.819075
C         8.157386   11.511825    0.045678
C         4.528565   11.614993   -0.647545
C         3.297212   11.443597    0.043681
C         3.233444   11.007092    1.472697
C         2.364955   11.767704    2.431862
C         1.907022   13.059588    2.164357
C         1.146603   13.763889    3.096464
C         0.833354   13.166119    4.323927
O         0.104055   13.755730    5.289443
C        -0.365069   15.072122    5.104714
C        -1.123777   15.478448    6.348733
C         1.294587   11.868339    4.603478
C         2.056307   11.186203    3.672544
O         3.864287   10.045698    1.860675
C         2.132398   11.419477   -0.767270
N         0.887389   11.251684   -0.245845
C        -0.290694   11.158984   -1.070583
N         2.189886   11.517603   -2.104777
C         3.405508   11.585797   -2.629770
N         4.558477   11.642855   -1.999407
C        10.508571   11.659520    1.702888
C        11.600964   11.631539    2.549151
S        11.502724    9.892793    4.278200
C         9.697586    9.760861    4.309192
C         9.176543    8.331533    4.124274
H         8.074574    8.328690    4.182324
N         9.639571    7.477724    5.186646
C         8.876724    6.518401    5.763176
C         9.654277    5.544073    6.632904
O         7.672169    6.420516    5.609619
C         9.522847    7.675409    2.771036
N         9.582173    8.522064    1.706861
C        10.024089    8.039928    0.424754
O         9.661251    6.470965    2.663245
H         6.887715   14.053552    0.953867
H         7.171894   13.414615    2.585441
H         4.945173   12.749228    1.672533
H         5.948721   11.327752    2.026219
H         7.073162   12.808253   -1.308660
H         6.861318   11.085167   -1.622019
H         9.042696   11.563521   -0.607236
H         8.083541   10.469956    0.414092
H         2.157136   13.528969    1.209591
H         0.814109   14.773877    2.858370
H        -1.020449   15.119465    4.215193
H         0.485593   15.755156    4.926224
H        -1.973180   14.802158    6.521104
H        -1.507438   16.503213    6.241827
H        -0.467520   15.440203    7.229672
H         1.046659   11.428185    5.570642
H         2.442177   10.187047    3.885012
H         0.786063   11.176070    0.754845
H        -0.225395   10.319141   -1.779897
H        -0.447095   12.073638   -1.663808
H        -1.160987   11.006455   -0.418394
H         3.453524   11.604646   -3.726622
H        10.529120   11.069772    0.785146
H        11.660034   12.385064    3.333921
H        12.543414   11.209820    2.201130
H         9.280463   10.412203    3.516887
H         9.295543   10.149110    5.256833
H        10.647736    7.463378    5.303066
H         8.969595    5.087123    7.357804
H        10.490460    6.028086    7.158443
H        10.065049    4.753142    5.986633
H         9.768737    9.502503    1.908759
H        11.121110    7.917995    0.377910
H         9.715253    8.743923   -0.362615
H         9.569340    7.060071    0.227673
