-1 1
 OpenBabel05192410563D

 76 78  0  0  1  0  0  0  0  0999 V2000
    3.7193    1.9148    0.5083 O   0  0  0  0  0  0  0  0  0  0  0  0
    3.7353    1.2910   -0.5789 C   0  0  0  0  0  0  0  0  0  0  0  0
    2.7554    1.6687   -1.5435 N   0  0  0  0  0  0  0  0  0  0  0  0
    1.5642    2.3098   -1.0457 C   0  0  0  0  0  0  0  0  0  0  0  0
    0.3455    1.4255   -1.2705 C   0  0  0  0  0  0  0  0  0  0  0  0
    0.1710    1.1881   -2.7040 N   0  0  0  0  0  0  0  0  0  0  0  0
    1.3582    1.3972   -3.5321 C   0  0  0  0  0  0  0  0  0  0  0  0
    2.6078    0.9519   -2.7875 C   0  0  0  0  0  0  0  0  0  0  0  0
   -1.0351    1.0037   -3.2868 C   0  0  0  0  0  0  0  0  0  0  0  0
   -2.2088    0.6512   -2.5633 C   0  0  0  0  0  0  0  0  0  0  0  0
   -2.1506   -0.0004   -1.2186 C   0  0  0  0  0  0  0  0  0  0  0  0
   -2.9721    0.5544   -0.0934 C   0  0  0  0  0  0  0  0  0  0  0  0
   -3.5358    1.8313   -0.1364 C   0  0  0  0  0  0  0  0  0  0  0  0
   -4.2499    2.3421    0.9463 C   0  0  0  0  0  0  0  0  0  0  0  0
   -4.4040    1.5625    2.0997 C   0  0  0  0  0  0  0  0  0  0  0  0
   -5.0749    1.9592    3.1979 O   0  0  0  0  0  0  0  0  0  0  0  0
   -5.6320    3.2524    3.2464 C   0  0  0  0  0  0  0  0  0  0  0  0
   -6.2865    3.4302    4.5987 C   0  0  0  0  0  0  0  0  0  0  0  0
   -3.8332    0.2796    2.1545 C   0  0  0  0  0  0  0  0  0  0  0  0
   -3.1217   -0.2107    1.0751 C   0  0  0  0  0  0  0  0  0  0  0  0
   -1.4565   -0.9789   -1.0327 O   0  0  0  0  0  0  0  0  0  0  0  0
   -3.4192    0.6658   -3.3015 C   0  0  0  0  0  0  0  0  0  0  0  0
   -4.6160    0.3429   -2.7389 N   0  0  0  0  0  0  0  0  0  0  0  0
   -5.8397    0.2963   -3.4976 C   0  0  0  0  0  0  0  0  0  0  0  0
   -3.4548    0.9558   -4.6117 N   0  0  0  0  0  0  0  0  0  0  0  0
   -2.2797    1.1741   -5.1879 C   0  0  0  0  0  0  0  0  0  0  0  0
   -1.0938    1.2188   -4.6219 N   0  0  0  0  0  0  0  0  0  0  0  0
    4.6080    0.2344   -0.8953 C   0  0  0  0  0  3  0  0  0  0  0  0
    5.7569   -0.0448   -0.0113 C   0  0  0  0  0  0  0  0  0  0  0  0
    5.5715   -1.4384    1.2582 S   0  0  0  0  0  0  0  0  0  0  0  0
    4.0920   -0.8492    2.1486 C   0  0  0  0  0  0  0  0  0  0  0  0
    3.0345   -1.9252    2.3711 C   0  0  2  0  0  0  0  0  0  0  0  0
    2.2102   -1.4698    2.9451 H   0  0  0  0  0  0  0  0  0  0  0  0
    3.5278   -3.0032    3.1994 N   0  0  0  0  0  0  0  0  0  0  0  0
    2.8264   -3.4814    4.2629 C   0  0  0  0  0  0  0  0  0  0  0  0
    3.2846   -4.8457    4.7471 C   0  0  0  0  0  0  0  0  0  0  0  0
    1.9077   -2.8846    4.7912 O   0  0  0  0  0  0  0  0  0  0  0  0
    2.3600   -2.5486    1.1283 C   0  0  0  0  0  0  0  0  0  0  0  0
    2.3259   -1.7952    0.0079 N   0  0  0  0  0  0  0  0  0  0  0  0
    1.7293   -2.3039   -1.2040 C   0  0  0  0  0  0  0  0  0  0  0  0
    1.8365   -3.6489    1.2269 O   0  0  0  0  0  0  0  0  0  0  0  0
    1.3931    3.2991   -1.5134 H   0  0  0  0  0  0  0  0  0  0  0  0
    1.7287    2.4783    0.0270 H   0  0  0  0  0  0  0  0  0  0  0  0
   -0.5600    1.9187   -0.8803 H   0  0  0  0  0  0  0  0  0  0  0  0
    0.4747    0.4791   -0.7193 H   0  0  0  0  0  0  0  0  0  0  0  0
    1.4378    2.4577   -3.8296 H   0  0  0  0  0  0  0  0  0  0  0  0
    1.2426    0.8205   -4.4566 H   0  0  0  0  0  0  0  0  0  0  0  0
    3.4836    1.1165   -3.4398 H   0  0  0  0  0  0  0  0  0  0  0  0
    2.5398   -0.1414   -2.6286 H   0  0  0  0  0  0  0  0  0  0  0  0
   -3.4058    2.4440   -1.0320 H   0  0  0  0  0  0  0  0  0  0  0  0
   -4.6684    3.3461    0.8817 H   0  0  0  0  0  0  0  0  0  0  0  0
   -6.3733    3.3774    2.4352 H   0  0  0  0  0  0  0  0  0  0  0  0
   -4.8423    4.0108    3.0930 H   0  0  0  0  0  0  0  0  0  0  0  0
   -7.0761    2.6798    4.7470 H   0  0  0  0  0  0  0  0  0  0  0  0
   -6.7347    4.4312    4.6756 H   0  0  0  0  0  0  0  0  0  0  0  0
   -5.5457    3.3150    5.4026 H   0  0  0  0  0  0  0  0  0  0  0  0
   -3.9533   -0.3025    3.0696 H   0  0  0  0  0  0  0  0  0  0  0  0
   -2.6493   -1.1944    1.1128 H   0  0  0  0  0  0  0  0  0  0  0  0
   -4.6471    0.1304   -1.7533 H   0  0  0  0  0  0  0  0  0  0  0  0
   -5.7698   -0.4139   -4.3362 H   0  0  0  0  0  0  0  0  0  0  0  0
   -6.0956    1.2788   -3.9255 H   0  0  0  0  0  0  0  0  0  0  0  0
   -6.6519   -0.0211   -2.8299 H   0  0  0  0  0  0  0  0  0  0  0  0
   -2.3037    1.3470   -6.2722 H   0  0  0  0  0  0  0  0  0  0  0  0
    4.5695   -0.2780   -1.8574 H   0  0  0  0  0  0  0  0  0  0  0  0
    6.0141    0.8383    0.5908 H   0  0  0  0  0  0  0  0  0  0  0  0
    6.6555   -0.3750   -0.5561 H   0  0  0  0  0  0  0  0  0  0  0  0
    3.6894    0.0121    1.5930 H   0  0  0  0  0  0  0  0  0  0  0  0
    4.3954   -0.4680    3.1339 H   0  0  0  0  0  0  0  0  0  0  0  0
    4.1690   -3.6398    2.7412 H   0  0  0  0  0  0  0  0  0  0  0  0
    2.9298   -5.0006    5.7730 H   0  0  0  0  0  0  0  0  0  0  0  0
    4.3785   -4.9532    4.7077 H   0  0  0  0  0  0  0  0  0  0  0  0
    2.8388   -5.6121    4.0944 H   0  0  0  0  0  0  0  0  0  0  0  0
    3.0043   -1.0276   -0.1109 H   0  0  0  0  0  0  0  0  0  0  0  0
    2.4947   -2.4430   -1.9857 H   0  0  0  0  0  0  0  0  0  0  0  0
    0.9469   -1.6289   -1.5836 H   0  0  0  0  0  0  0  0  0  0  0  0
    1.2679   -3.2738   -0.9811 H   0  0  0  0  0  0  0  0  0  0  0  0
  2  1  2  0  0  0  0
  3  4  1  0  0  0  0
  3  2  1  0  0  0  0
  4 43  1  0  0  0  0
  5  4  1  0  0  0  0
  5 44  1  0  0  0  0
  5 45  1  0  0  0  0
  6  5  1  0  0  0  0
  7  8  1  0  0  0  0
  7  6  1  0  0  0  0
  8 49  1  0  0  0  0
  8  3  1  0  0  0  0
  9  6  1  0  0  0  0
  9 10  1  0  0  0  0
 10 11  1  0  0  0  0
 11 21  2  0  0  0  0
 11 12  1  0  0  0  0
 12 20  1  0  0  0  0
 13 12  2  0  0  0  0
 13 14  1  0  0  0  0
 14 15  2  0  0  0  0
 15 19  1  0  0  0  0
 15 16  1  0  0  0  0
 16 17  1  0  0  0  0
 17 18  1  0  0  0  0
 18 55  1  0  0  0  0
 18 54  1  0  0  0  0
 18 56  1  0  0  0  0
 19 57  1  0  0  0  0
 20 58  1  0  0  0  0
 20 19  2  0  0  0  0
 22 23  1  0  0  0  0
 22 10  2  0  0  0  0
 23 59  1  0  0  0  0
 24 62  1  0  0  0  0
 24 23  1  0  0  0  0
 25 22  1  0  0  0  0
 26 27  1  0  0  0  0
 26 25  2  0  0  0  0
 27  9  2  0  0  0  0
 28  2  1  0  0  0  0
 28 29  1  0  0  0  0
 29 65  1  0  0  0  0
 29 30  1  0  0  0  0
 30 31  1  0  0  0  0
 31 32  1  0  0  0  0
 31 68  1  0  0  0  0
 32 33  1  1  0  0  0
 32 34  1  0  0  0  0
 34 35  1  0  0  0  0
 35 36  1  0  0  0  0
 35 37  2  0  0  0  0
 36 70  1  0  0  0  0
 38 41  2  0  0  0  0
 38 32  1  0  0  0  0
 39 38  1  0  0  0  0
 40 76  1  0  0  0  0
 40 39  1  0  0  0  0
 42  4  1  0  0  0  0
 46  7  1  0  0  0  0
 47  7  1  0  0  0  0
 48  8  1  0  0  0  0
 50 13  1  0  0  0  0
 51 14  1  0  0  0  0
 52 17  1  0  0  0  0
 53 17  1  0  0  0  0
 60 24  1  0  0  0  0
 61 24  1  0  0  0  0
 63 26  1  0  0  0  0
 64 28  1  0  0  0  0
 66 29  1  0  0  0  0
 67 31  1  0  0  0  0
 69 34  1  0  0  0  0
 71 36  1  0  0  0  0
 72 36  1  0  0  0  0
 73 39  1  0  0  0  0
 74 40  1  0  0  0  0
 75 40  1  0  0  0  0
M  END
