78
-1 1
O         5.756506   -6.980719   -1.809674
C         4.711775   -6.879235   -1.136119
N         3.560985   -7.476297   -1.651605
C         2.221689   -7.224171   -1.169370
C         1.221053   -7.221278   -2.323165
C         1.279504   -8.529534   -3.101466
C         2.709599   -8.769607   -3.584759
C         3.733945   -8.673549   -2.451099
N         2.841358  -10.024062   -4.320657
C         2.728351  -11.322041   -3.860340
N         2.534541  -11.592165   -2.500903
C         1.302598  -11.842235   -1.970777
C         1.293832  -12.028876   -0.475313
C         0.363502  -12.922769    0.063995
C         0.301950  -13.113428    1.439931
C        -0.677842  -14.081796    2.044059
F        -1.377691  -14.750067    1.122718
F        -0.061617  -14.995724    2.810368
F        -1.564027  -13.461547    2.838108
C         1.146924  -12.392008    2.292646
C         2.046753  -11.476562    1.760560
C         2.121939  -11.296102    0.378005
O         0.277454  -11.887568   -2.621694
N         2.865660  -12.226702   -4.787451
C         3.058005  -10.133296   -5.677705
C         3.068757  -11.517054   -5.947168
C         3.272715  -11.976678   -7.255860
C         3.461273  -11.053141   -8.277618
C         3.685683  -11.499867   -9.701487
C         3.444819   -9.669681   -7.977038
C         3.246377   -9.188268   -6.691376
C         4.696995   -6.223436    0.149971
C         3.920621   -6.581424    1.255211
S         4.490726   -8.676423    2.132193
C         6.178610   -8.661534    1.499939
C         6.453778   -9.593996    0.309184
H         5.761320   -9.356193   -0.507231
N         6.253478  -10.981812    0.651373
C         5.488332  -11.829740   -0.047689
C         5.342344  -13.225184    0.511529
O         4.893101  -11.499427   -1.073757
C         7.901793   -9.389468   -0.154625
N         8.072689   -8.326076   -0.963857
C         9.370827   -7.918567   -1.428860
O         8.800331  -10.116206    0.250063
H         2.215174   -6.245822   -0.674492
H         1.911493   -7.985982   -0.424305
H         1.451311   -6.374086   -2.992125
H         0.206904   -7.058802   -1.926125
H         0.595033   -8.522312   -3.963857
H         0.956682   -9.358679   -2.454551
H         2.954020   -7.974045   -4.305368
H         4.747376   -8.655908   -2.866946
H         3.657143   -9.561930   -1.806563
H         3.383749  -11.698362   -1.922134
H        -0.304137  -13.459641   -0.611016
H         1.090922  -12.543456    3.372944
H         2.707671  -10.882022    2.397442
H         2.837657  -10.565793   -0.005442
H         3.279900  -13.051196   -7.452551
H         3.664266  -12.595799   -9.784885
H         4.660508  -11.153537  -10.081268
H         2.912375  -11.096759  -10.375236
H         3.596352   -8.954242   -8.790528
H         3.242363   -8.115441   -6.490000
H         5.614767   -5.656694    0.330200
H         2.894020   -6.925794    1.158660
H         4.100912   -6.029628    2.180154
H         6.900580   -8.888686    2.301937
H         6.391701   -7.637080    1.147249
H         6.826432  -11.340337    1.404205
H         6.080090  -13.462558    1.289729
H         5.420476  -13.948459   -0.310443
H         4.332448  -13.310004    0.941650
H         7.245515   -7.781295   -1.258855
H        10.122302   -8.588011   -0.990053
H         9.595176   -6.881841   -1.128761
H         9.441644   -7.978145   -2.527521
