-1 1
 OpenBabel05232414493D

 78 80  0  0  1  0  0  0  0  0999 V2000
    5.7565   -6.9807   -1.8097 O   0  0  0  0  0  0  0  0  0  0  0  0
    4.7118   -6.8792   -1.1361 C   0  0  0  0  0  0  0  0  0  0  0  0
    3.5610   -7.4763   -1.6516 N   0  0  0  0  0  0  0  0  0  0  0  0
    2.2217   -7.2242   -1.1694 C   0  0  0  0  0  0  0  0  0  0  0  0
    1.2211   -7.2213   -2.3232 C   0  0  0  0  0  0  0  0  0  0  0  0
    1.2795   -8.5295   -3.1015 C   0  0  0  0  0  0  0  0  0  0  0  0
    2.7096   -8.7696   -3.5848 C   0  0  1  0  0  0  0  0  0  0  0  0
    3.7339   -8.6735   -2.4511 C   0  0  0  0  0  0  0  0  0  0  0  0
    2.8414  -10.0241   -4.3207 N   0  0  0  0  0  0  0  0  0  0  0  0
    2.7284  -11.3220   -3.8603 C   0  0  0  0  0  0  0  0  0  0  0  0
    2.5345  -11.5922   -2.5009 N   0  0  0  0  0  0  0  0  0  0  0  0
    1.3026  -11.8422   -1.9708 C   0  0  0  0  0  0  0  0  0  0  0  0
    1.2938  -12.0289   -0.4753 C   0  0  0  0  0  0  0  0  0  0  0  0
    0.3635  -12.9228    0.0640 C   0  0  0  0  0  0  0  0  0  0  0  0
    0.3019  -13.1134    1.4399 C   0  0  0  0  0  0  0  0  0  0  0  0
   -0.6778  -14.0818    2.0441 C   0  0  0  0  0  0  0  0  0  0  0  0
   -1.3777  -14.7501    1.1227 F   0  0  0  0  0  0  0  0  0  0  0  0
   -0.0616  -14.9957    2.8104 F   0  0  0  0  0  0  0  0  0  0  0  0
   -1.5640  -13.4615    2.8381 F   0  0  0  0  0  0  0  0  0  0  0  0
    1.1469  -12.3920    2.2926 C   0  0  0  0  0  0  0  0  0  0  0  0
    2.0468  -11.4766    1.7606 C   0  0  0  0  0  0  0  0  0  0  0  0
    2.1219  -11.2961    0.3780 C   0  0  0  0  0  0  0  0  0  0  0  0
    0.2775  -11.8876   -2.6217 O   0  0  0  0  0  0  0  0  0  0  0  0
    2.8657  -12.2267   -4.7875 N   0  0  0  0  0  0  0  0  0  0  0  0
    3.0580  -10.1333   -5.6777 C   0  0  0  0  0  0  0  0  0  0  0  0
    3.0688  -11.5171   -5.9472 C   0  0  0  0  0  0  0  0  0  0  0  0
    3.2727  -11.9767   -7.2559 C   0  0  0  0  0  0  0  0  0  0  0  0
    3.4613  -11.0531   -8.2776 C   0  0  0  0  0  0  0  0  0  0  0  0
    3.6857  -11.4999   -9.7015 C   0  0  0  0  0  0  0  0  0  0  0  0
    3.4448   -9.6697   -7.9770 C   0  0  0  0  0  0  0  0  0  0  0  0
    3.2464   -9.1883   -6.6914 C   0  0  0  0  0  0  0  0  0  0  0  0
    4.6970   -6.2234    0.1500 C   0  0  0  0  0  3  0  0  0  0  0  0
    3.9206   -6.5814    1.2552 C   0  0  0  0  0  3  0  0  0  0  0  0
    4.4907   -8.6764    2.1322 S   0  0  0  0  0  1  0  0  0  0  0  0
    6.1786   -8.6615    1.4999 C   0  0  0  0  0  0  0  0  0  0  0  0
    6.4538   -9.5940    0.3092 C   0  0  2  0  0  0  0  0  0  0  0  0
    5.7613   -9.3562   -0.5072 H   0  0  0  0  0  0  0  0  0  0  0  0
    6.2535  -10.9818    0.6514 N   0  0  0  0  0  0  0  0  0  0  0  0
    5.4883  -11.8297   -0.0477 C   0  0  0  0  0  0  0  0  0  0  0  0
    5.3423  -13.2252    0.5115 C   0  0  0  0  0  0  0  0  0  0  0  0
    4.8931  -11.4994   -1.0738 O   0  0  0  0  0  0  0  0  0  0  0  0
    7.9018   -9.3895   -0.1546 C   0  0  0  0  0  0  0  0  0  0  0  0
    8.0727   -8.3261   -0.9639 N   0  0  0  0  0  0  0  0  0  0  0  0
    9.3708   -7.9186   -1.4289 C   0  0  0  0  0  0  0  0  0  0  0  0
    8.8003  -10.1162    0.2501 O   0  0  0  0  0  0  0  0  0  0  0  0
    2.2152   -6.2458   -0.6745 H   0  0  0  0  0  0  0  0  0  0  0  0
    1.9115   -7.9860   -0.4243 H   0  0  0  0  0  0  0  0  0  0  0  0
    1.4513   -6.3741   -2.9921 H   0  0  0  0  0  0  0  0  0  0  0  0
    0.2069   -7.0588   -1.9261 H   0  0  0  0  0  0  0  0  0  0  0  0
    0.5950   -8.5223   -3.9639 H   0  0  0  0  0  0  0  0  0  0  0  0
    0.9567   -9.3587   -2.4546 H   0  0  0  0  0  0  0  0  0  0  0  0
    2.9540   -7.9740   -4.3054 H   0  0  0  0  0  0  0  0  0  0  0  0
    4.7474   -8.6559   -2.8669 H   0  0  0  0  0  0  0  0  0  0  0  0
    3.6571   -9.5619   -1.8066 H   0  0  0  0  0  0  0  0  0  0  0  0
    3.3837  -11.6984   -1.9221 H   0  0  0  0  0  0  0  0  0  0  0  0
   -0.3041  -13.4596   -0.6110 H   0  0  0  0  0  0  0  0  0  0  0  0
    1.0909  -12.5435    3.3729 H   0  0  0  0  0  0  0  0  0  0  0  0
    2.7077  -10.8820    2.3974 H   0  0  0  0  0  0  0  0  0  0  0  0
    2.8377  -10.5658   -0.0054 H   0  0  0  0  0  0  0  0  0  0  0  0
    3.2799  -13.0512   -7.4526 H   0  0  0  0  0  0  0  0  0  0  0  0
    3.6643  -12.5958   -9.7849 H   0  0  0  0  0  0  0  0  0  0  0  0
    4.6605  -11.1535  -10.0813 H   0  0  0  0  0  0  0  0  0  0  0  0
    2.9124  -11.0968  -10.3752 H   0  0  0  0  0  0  0  0  0  0  0  0
    3.5964   -8.9542   -8.7905 H   0  0  0  0  0  0  0  0  0  0  0  0
    3.2424   -8.1154   -6.4900 H   0  0  0  0  0  0  0  0  0  0  0  0
    5.6148   -5.6567    0.3302 H   0  0  0  0  0  0  0  0  0  0  0  0
    2.8940   -6.9258    1.1587 H   0  0  0  0  0  0  0  0  0  0  0  0
    4.1009   -6.0296    2.1802 H   0  0  0  0  0  0  0  0  0  0  0  0
    6.9006   -8.8887    2.3019 H   0  0  0  0  0  0  0  0  0  0  0  0
    6.3917   -7.6371    1.1472 H   0  0  0  0  0  0  0  0  0  0  0  0
    6.8264  -11.3403    1.4042 H   0  0  0  0  0  0  0  0  0  0  0  0
    6.0801  -13.4626    1.2897 H   0  0  0  0  0  0  0  0  0  0  0  0
    5.4205  -13.9485   -0.3104 H   0  0  0  0  0  0  0  0  0  0  0  0
    4.3324  -13.3100    0.9416 H   0  0  0  0  0  0  0  0  0  0  0  0
    7.2455   -7.7813   -1.2589 H   0  0  0  0  0  0  0  0  0  0  0  0
   10.1223   -8.5880   -0.9901 H   0  0  0  0  0  0  0  0  0  0  0  0
    9.5952   -6.8818   -1.1288 H   0  0  0  0  0  0  0  0  0  0  0  0
    9.4416   -7.9781   -2.5275 H   0  0  0  0  0  0  0  0  0  0  0  0
  1  2  2  0  0  0  0
  2 32  1  0  0  0  0
  3  4  1  0  0  0  0
  3  2  1  0  0  0  0
  4 46  1  0  0  0  0
  4 47  1  0  0  0  0
  5 49  1  0  0  0  0
  5  4  1  0  0  0  0
  6 51  1  0  0  0  0
  6  5  1  0  0  0  0
  7 52  1  6  0  0  0
  7  6  1  0  0  0  0
  7  8  1  0  0  0  0
  8 54  1  0  0  0  0
  8  3  1  0  0  0  0
  9 10  1  0  0  0  0
  9  7  1  0  0  0  0
 10 11  1  0  0  0  0
 11 12  1  0  0  0  0
 11 55  1  0  0  0  0
 12 13  1  0  0  0  0
 13 14  2  0  0  0  0
 13 22  1  0  0  0  0
 14 15  1  0  0  0  0
 15 16  1  0  0  0  0
 15 20  2  0  0  0  0
 16 18  1  0  0  0  0
 16 19  1  0  0  0  0
 17 16  1  0  0  0  0
 20 57  1  0  0  0  0
 21 20  1  0  0  0  0
 21 58  1  0  0  0  0
 22 21  2  0  0  0  0
 23 12  2  0  0  0  0
 24 10  2  0  0  0  0
 25  9  1  0  0  0  0
 26 25  1  0  0  0  0
 26 24  1  0  0  0  0
 27 26  2  0  0  0  0
 28 30  2  0  0  0  0
 28 27  1  0  0  0  0
 29 28  1  0  0  0  0
 30 31  1  0  0  0  0
 31 65  1  0  0  0  0
 31 25  2  0  0  0  0
 32 66  1  0  0  0  0
 32 33  1  0  0  0  0
 33 68  1  0  0  0  0
 35 34  1  0  0  0  0
 35 69  1  0  0  0  0
 36 37  1  6  0  0  0
 36 38  1  0  0  0  0
 36 35  1  0  0  0  0
 38 71  1  0  0  0  0
 39 40  1  0  0  0  0
 39 38  1  0  0  0  0
 40 74  1  0  0  0  0
 40 72  1  0  0  0  0
 41 39  2  0  0  0  0
 42 45  2  0  0  0  0
 42 36  1  0  0  0  0
 43 42  1  0  0  0  0
 44 77  1  0  0  0  0
 44 76  1  0  0  0  0
 44 43  1  0  0  0  0
 48  5  1  0  0  0  0
 50  6  1  0  0  0  0
 53  8  1  0  0  0  0
 56 14  1  0  0  0  0
 59 22  1  0  0  0  0
 60 27  1  0  0  0  0
 61 29  1  0  0  0  0
 62 29  1  0  0  0  0
 63 29  1  0  0  0  0
 64 30  1  0  0  0  0
 67 33  1  0  0  0  0
 70 35  1  0  0  0  0
 73 40  1  0  0  0  0
 75 43  1  0  0  0  0
 78 44  1  0  0  0  0
M  END
