-1 1
 OpenBabel05192410563D

102105  0  0  1  0  0  0  0  0999 V2000
   -1.7816   -0.5237    2.3889 C   0  0  0  0  0  0  0  0  0  0  0  0
   -1.2555   -1.8233    2.9752 C   0  0  0  0  0  0  0  0  0  0  0  0
   -0.4450   -2.5094    2.0460 O   0  0  0  0  0  0  0  0  0  0  0  0
   -1.1234   -3.3786    1.1333 C   0  0  0  0  0  0  0  0  0  0  0  0
   -2.1832   -3.8748    1.4999 O   0  0  0  0  0  0  0  0  0  0  0  0
   -0.4252   -3.5312   -0.0657 C   0  0  0  0  0  3  0  0  0  0  0  0
    0.7455   -2.7375   -0.4617 C   0  0  1  0  0  0  0  0  0  0  0  0
    2.4636   -3.3143    0.2461 S   0  0  0  0  0  0  0  0  0  0  0  0
    3.1348   -1.7330    0.8418 C   0  0  0  0  0  0  0  0  0  0  0  0
    2.3899   -1.1391    2.0557 C   0  0  2  0  0  0  0  0  0  0  0  0
    1.3115   -1.2167    1.8699 H   0  0  0  0  0  0  0  0  0  0  0  0
    2.7115    0.2576    2.2289 N   0  0  0  0  0  0  0  0  0  0  0  0
    1.9961    1.2098    1.5918 C   0  0  0  0  0  0  0  0  0  0  0  0
    2.3953    2.6468    1.8329 C   0  0  0  0  0  0  0  0  0  0  0  0
    1.0666    0.9257    0.8488 O   0  0  0  0  0  0  0  0  0  0  0  0
    2.7435   -1.8736    3.3430 C   0  0  0  0  0  0  0  0  0  0  0  0
    1.9236   -2.9002    3.6282 N   0  0  0  0  0  0  0  0  0  0  0  0
    2.1426   -3.7949    4.7318 C   0  0  0  0  0  0  0  0  0  0  0  0
    3.7098   -1.5329    4.0175 O   0  0  0  0  0  0  0  0  0  0  0  0
    0.9067   -2.5545   -1.9882 C   0  0  1  0  0  0  0  0  0  0  0  0
   -0.0942   -2.2816   -2.3568 H   0  0  0  0  0  0  0  0  0  0  0  0
    1.8333   -1.4641   -2.2944 N   0  0  0  0  0  0  0  0  0  0  0  0
    1.6533   -0.1226   -2.1891 C   0  0  0  0  0  0  0  0  0  0  0  0
    0.1975    0.3528   -2.2728 C   0  0  1  0  0  0  0  0  0  0  0  0
   -0.4177   -0.3013   -1.6402 H   0  0  0  0  0  0  0  0  0  0  0  0
   -0.0005    1.6787   -1.6986 N   0  0  0  0  0  0  0  0  0  0  0  0
    0.8377    2.7333   -1.9544 C   0  0  0  0  0  0  0  0  0  0  0  0
    0.7242    3.9054   -1.2740 C   0  0  0  0  0  0  0  0  0  0  0  0
   -0.2315    4.0268   -0.2250 C   0  0  0  0  0  0  0  0  0  0  0  0
   -1.0610    2.9777    0.0351 C   0  0  0  0  0  0  0  0  0  0  0  0
   -1.9975    2.8729    1.0655 N   0  0  0  0  0  0  0  0  0  0  0  0
   -1.9930    3.5714    2.2245 C   0  0  0  0  0  0  0  0  0  0  0  0
   -2.9054    3.0522    3.0722 O   0  0  0  0  0  0  0  0  0  0  0  0
   -3.0331    3.6692    4.3467 C   0  0  0  0  0  0  0  0  0  0  0  0
   -4.0719    4.7652    4.3449 C   0  0  0  0  0  0  0  0  0  0  0  0
   -5.3797    4.5035    4.7638 C   0  0  0  0  0  0  0  0  0  0  0  0
   -6.3481    5.5065    4.7443 C   0  0  0  0  0  0  0  0  0  0  0  0
   -6.0163    6.7855    4.3005 C   0  0  0  0  0  0  0  0  0  0  0  0
   -4.7145    7.0554    3.8773 C   0  0  0  0  0  0  0  0  0  0  0  0
   -3.7474    6.0528    3.8996 C   0  0  0  0  0  0  0  0  0  0  0  0
   -1.2889    4.5241    2.4890 O   0  0  0  0  0  0  0  0  0  0  0  0
   -1.0324    1.7647   -0.7731 C   0  0  0  0  0  0  0  0  0  0  0  0
   -1.8563    0.8672   -0.6296 O   0  0  0  0  0  0  0  0  0  0  0  0
   -0.3741    0.2357   -3.7040 C   0  0  0  0  0  0  0  0  0  0  0  0
    0.2982    1.1224   -4.7195 C   0  0  0  0  0  0  0  0  0  0  0  0
    1.5037    0.7353   -5.3176 C   0  0  0  0  0  0  0  0  0  0  0  0
    2.1570    1.5787   -6.2130 C   0  0  0  0  0  0  0  0  0  0  0  0
    1.6134    2.8244   -6.5274 C   0  0  0  0  0  0  0  0  0  0  0  0
    0.4112    3.2185   -5.9421 C   0  0  0  0  0  0  0  0  0  0  0  0
   -0.2393    2.3720   -5.0460 C   0  0  0  0  0  0  0  0  0  0  0  0
    2.6060    0.6358   -2.1202 O   0  0  0  0  0  0  0  0  0  0  0  0
    1.4028   -3.7413   -2.8301 C   0  0  0  0  0  0  0  0  0  0  0  0
    0.6891   -5.0788   -2.7029 C   0  0  2  0  0  0  0  0  0  0  0  0
   -0.4004   -4.9058   -2.6264 H   0  0  0  0  0  0  0  0  0  0  0  0
    1.1353   -6.0234   -1.5808 C   0  0  0  0  0  0  0  0  0  0  0  0
    0.7735   -7.4153   -2.1115 C   0  0  0  0  0  0  0  0  0  0  0  0
    0.9008   -7.2390   -3.5449 N   0  0  0  0  0  0  0  0  0  0  0  0
    0.8497   -5.9410   -3.9598 C   0  0  0  0  0  0  0  0  0  0  0  0
    0.8928   -5.5631   -5.1114 O   0  0  0  0  0  0  0  0  0  0  0  0
   -2.3600    0.0420    3.1379 H   0  0  0  0  0  0  0  0  0  0  0  0
   -2.4336   -0.7323    1.5283 H   0  0  0  0  0  0  0  0  0  0  0  0
   -0.9546    0.1049    2.0258 H   0  0  0  0  0  0  0  0  0  0  0  0
   -2.0814   -2.4835    3.2834 H   0  0  0  0  0  0  0  0  0  0  0  0
   -0.6158   -1.6241    3.8527 H   0  0  0  0  0  0  0  0  0  0  0  0
   -0.8839   -4.2270   -0.7658 H   0  0  0  0  0  0  0  0  0  0  0  0
    0.6873   -1.7287   -0.0257 H   0  0  0  0  0  0  0  0  0  0  0  0
    3.1087   -0.9831    0.0383 H   0  0  0  0  0  0  0  0  0  0  0  0
    4.1921   -1.9051    1.0974 H   0  0  0  0  0  0  0  0  0  0  0  0
    3.4679    0.4727    2.8687 H   0  0  0  0  0  0  0  0  0  0  0  0
    2.6953    3.0791    0.8673 H   0  0  0  0  0  0  0  0  0  0  0  0
    3.2121    2.7588    2.5594 H   0  0  0  0  0  0  0  0  0  0  0  0
    1.5117    3.2047    2.1754 H   0  0  0  0  0  0  0  0  0  0  0  0
    1.1333   -3.0547    2.9916 H   0  0  0  0  0  0  0  0  0  0  0  0
    1.2555   -3.8432    5.3830 H   0  0  0  0  0  0  0  0  0  0  0  0
    2.9945   -3.4223    5.3153 H   0  0  0  0  0  0  0  0  0  0  0  0
    2.3690   -4.8147    4.3808 H   0  0  0  0  0  0  0  0  0  0  0  0
    2.8142   -1.7196   -2.2102 H   0  0  0  0  0  0  0  0  0  0  0  0
    1.5970    2.5605   -2.7102 H   0  0  0  0  0  0  0  0  0  0  0  0
    1.3941    4.7297   -1.5159 H   0  0  0  0  0  0  0  0  0  0  0  0
   -0.2806    4.9227    0.3923 H   0  0  0  0  0  0  0  0  0  0  0  0
   -2.5349    2.0074    1.0236 H   0  0  0  0  0  0  0  0  0  0  0  0
   -2.0557    4.0636    4.6578 H   0  0  0  0  0  0  0  0  0  0  0  0
   -3.3293    2.8614    5.0288 H   0  0  0  0  0  0  0  0  0  0  0  0
   -5.6433    3.4996    5.1079 H   0  0  0  0  0  0  0  0  0  0  0  0
   -7.3661    5.2870    5.0747 H   0  0  0  0  0  0  0  0  0  0  0  0
   -6.7734    7.5731    4.2828 H   0  0  0  0  0  0  0  0  0  0  0  0
   -4.4499    8.0556    3.5260 H   0  0  0  0  0  0  0  0  0  0  0  0
   -2.7296    6.2495    3.5555 H   0  0  0  0  0  0  0  0  0  0  0  0
   -1.4463    0.4712   -3.6381 H   0  0  0  0  0  0  0  0  0  0  0  0
   -0.2930   -0.8164   -4.0155 H   0  0  0  0  0  0  0  0  0  0  0  0
    1.9347   -0.2378   -5.0678 H   0  0  0  0  0  0  0  0  0  0  0  0
    3.0988    1.2613   -6.6664 H   0  0  0  0  0  0  0  0  0  0  0  0
    2.1268    3.4866   -7.2286 H   0  0  0  0  0  0  0  0  0  0  0  0
   -0.0222    4.1927   -6.1806 H   0  0  0  0  0  0  0  0  0  0  0  0
   -1.1754    2.6889   -4.5785 H   0  0  0  0  0  0  0  0  0  0  0  0
    2.4727   -3.8980   -2.6103 H   0  0  0  0  0  0  0  0  0  0  0  0
    1.3385   -3.4328   -3.8861 H   0  0  0  0  0  0  0  0  0  0  0  0
    0.6722   -5.7871   -0.6145 H   0  0  0  0  0  0  0  0  0  0  0  0
    2.2275   -5.9447   -1.4582 H   0  0  0  0  0  0  0  0  0  0  0  0
   -0.2567   -7.6999   -1.8277 H   0  0  0  0  0  0  0  0  0  0  0  0
    1.4529   -8.1978   -1.7406 H   0  0  0  0  0  0  0  0  0  0  0  0
    0.8532   -7.9920   -4.2179 H   0  0  0  0  0  0  0  0  0  0  0  0
  1  2  1  0  0  0  0
  1 60  1  0  0  0  0
  2 63  1  0  0  0  0
  2 64  1  0  0  0  0
  3  2  1  0  0  0  0
  4  5  2  0  0  0  0
  4  3  1  0  0  0  0
  6  4  1  0  0  0  0
  7  6  1  0  0  0  0
  7 66  1  1  0  0  0
  7  8  1  0  0  0  0
  8  9  1  0  0  0  0
  9 68  1  0  0  0  0
  9 10  1  0  0  0  0
 10 11  1  6  0  0  0
 10 12  1  0  0  0  0
 10 16  1  0  0  0  0
 12 69  1  0  0  0  0
 13 14  1  0  0  0  0
 13 12  1  0  0  0  0
 14 72  1  0  0  0  0
 14 71  1  0  0  0  0
 15 13  2  0  0  0  0
 16 17  1  0  0  0  0
 16 19  2  0  0  0  0
 17 18  1  0  0  0  0
 18 75  1  0  0  0  0
 18 74  1  0  0  0  0
 20 21  1  6  0  0  0
 20  7  1  0  0  0  0
 22 77  1  0  0  0  0
 22 23  1  0  0  0  0
 22 20  1  0  0  0  0
 23 51  2  0  0  0  0
 24 23  1  0  0  0  0
 24 26  1  0  0  0  0
 24 25  1  1  0  0  0
 26 42  1  0  0  0  0
 27 26  1  0  0  0  0
 27 28  2  0  0  0  0
 28 29  1  0  0  0  0
 29 30  2  0  0  0  0
 29 80  1  0  0  0  0
 30 31  1  0  0  0  0
 31 32  1  0  0  0  0
 32 41  2  0  0  0  0
 32 33  1  0  0  0  0
 33 34  1  0  0  0  0
 34 82  1  0  0  0  0
 34 83  1  0  0  0  0
 35 34  1  0  0  0  0
 35 36  1  0  0  0  0
 36 84  1  0  0  0  0
 37 36  2  0  0  0  0
 37 85  1  0  0  0  0
 38 37  1  0  0  0  0
 39 40  1  0  0  0  0
 39 38  2  0  0  0  0
 40 35  2  0  0  0  0
 42 43  2  0  0  0  0
 42 30  1  0  0  0  0
 44 89  1  0  0  0  0
 44 24  1  0  0  0  0
 45 44  1  0  0  0  0
 46 91  1  0  0  0  0
 46 45  2  0  0  0  0
 47 46  1  0  0  0  0
 48 47  2  0  0  0  0
 48 49  1  0  0  0  0
 49 50  2  0  0  0  0
 50 45  1  0  0  0  0
 50 95  1  0  0  0  0
 52 53  1  0  0  0  0
 52 96  1  0  0  0  0
 52 20  1  0  0  0  0
 53 54  1  1  0  0  0
 53 55  1  0  0  0  0
 55 99  1  0  0  0  0
 55 98  1  0  0  0  0
 56100  1  0  0  0  0
 56101  1  0  0  0  0
 56 55  1  0  0  0  0
 57 56  1  0  0  0  0
 58 57  1  0  0  0  0
 58 53  1  0  0  0  0
 59 58  2  0  0  0  0
 61  1  1  0  0  0  0
 62  1  1  0  0  0  0
 65  6  1  0  0  0  0
 67  9  1  0  0  0  0
 70 14  1  0  0  0  0
 73 17  1  0  0  0  0
 76 18  1  0  0  0  0
 78 27  1  0  0  0  0
 79 28  1  0  0  0  0
 81 31  1  0  0  0  0
 86 38  1  0  0  0  0
 87 39  1  0  0  0  0
 88 40  1  0  0  0  0
 90 44  1  0  0  0  0
 92 47  1  0  0  0  0
 93 48  1  0  0  0  0
 94 49  1  0  0  0  0
 97 52  1  0  0  0  0
102 57  1  0  0  0  0
M  END
