-1 1
 OpenBabel05232414493D

102104  0  0  1  0  0  0  0  0999 V2000
   -4.0506    3.0940   -2.9853 C   0  0  0  0  0  0  0  0  0  0  0  0
   -3.4666    1.7722   -2.5176 C   0  0  0  0  0  0  0  0  0  0  0  0
   -2.7654    1.1364   -3.5682 O   0  0  0  0  0  0  0  0  0  0  0  0
   -3.4898    0.3240   -4.4288 C   0  0  0  0  0  0  0  0  0  0  0  0
   -4.5553   -0.1475   -4.0697 O   0  0  0  0  0  0  0  0  0  0  0  0
   -2.8342    0.1397   -5.6811 C   0  0  0  0  0  3  0  0  0  0  0  0
   -1.7154    0.8748   -6.0944 C   0  0  0  0  0  3  0  0  0  0  0  0
    0.3562    0.1924   -5.3015 S   0  0  0  0  0  1  0  0  0  0  0  0
    0.9372    1.8078   -4.6952 C   0  0  0  0  0  0  0  0  0  0  0  0
    0.1573    2.3717   -3.4870 C   0  0  2  0  0  0  0  0  0  0  0  0
   -0.9149    2.2600   -3.6880 H   0  0  0  0  0  0  0  0  0  0  0  0
    0.4256    3.7785   -3.2979 N   0  0  0  0  0  0  0  0  0  0  0  0
   -0.3217    4.7153   -3.9167 C   0  0  0  0  0  0  0  0  0  0  0  0
    0.0432    6.1597   -3.6623 C   0  0  0  0  0  0  0  0  0  0  0  0
   -1.2514    4.4173   -4.6561 O   0  0  0  0  0  0  0  0  0  0  0  0
    0.5101    1.6477   -2.1960 C   0  0  0  0  0  0  0  0  0  0  0  0
   -0.2348    0.5478   -1.9643 N   0  0  0  0  0  0  0  0  0  0  0  0
    0.0438   -0.3772   -0.8999 C   0  0  0  0  0  0  0  0  0  0  0  0
    1.4010    2.0527   -1.4585 O   0  0  0  0  0  0  0  0  0  0  0  0
   -1.4086    1.0006   -7.5888 C   0  0  1  0  0  0  0  0  0  0  0  0
   -2.3646    1.2840   -8.0592 H   0  0  0  0  0  0  0  0  0  0  0  0
   -0.4427    2.0667   -7.8416 N   0  0  0  0  0  0  0  0  0  0  0  0
   -0.6141    3.4088   -7.7240 C   0  0  0  0  0  0  0  0  0  0  0  0
   -2.0626    3.9036   -7.8500 C   0  0  1  0  0  0  0  0  0  0  0  0
   -2.7082    3.2454   -7.2535 H   0  0  0  0  0  0  0  0  0  0  0  0
   -2.2589    5.2166   -7.2469 N   0  0  0  0  0  0  0  0  0  0  0  0
   -1.4182    6.2731   -7.4873 C   0  0  0  0  0  0  0  0  0  0  0  0
   -1.5351    7.4398   -6.7985 C   0  0  0  0  0  0  0  0  0  0  0  0
   -2.4978    7.5529   -5.7552 C   0  0  0  0  0  0  0  0  0  0  0  0
   -3.3235    6.4992   -5.5035 C   0  0  0  0  0  0  0  0  0  0  0  0
   -4.2644    6.3881   -4.4774 N   0  0  0  0  0  0  0  0  0  0  0  0
   -4.2658    7.0789   -3.3141 C   0  0  0  0  0  0  0  0  0  0  0  0
   -5.1804    6.5519   -2.4730 O   0  0  0  0  0  0  0  0  0  0  0  0
   -5.3116    7.1580   -1.1937 C   0  0  0  0  0  0  0  0  0  0  0  0
   -6.3557    8.2489   -1.1870 C   0  0  0  0  0  0  0  0  0  0  0  0
   -7.6599    7.9801   -0.7613 C   0  0  0  0  0  0  0  0  0  0  0  0
   -8.6329    8.9787   -0.7724 C   0  0  0  0  0  0  0  0  0  0  0  0
   -8.3094   10.2604   -1.2146 C   0  0  0  0  0  0  0  0  0  0  0  0
   -7.0113   10.5374   -1.6445 C   0  0  0  0  0  0  0  0  0  0  0  0
   -6.0396    9.5392   -1.6303 C   0  0  0  0  0  0  0  0  0  0  0  0
   -3.5652    8.0315   -3.0403 O   0  0  0  0  0  0  0  0  0  0  0  0
   -3.2857    5.2875   -6.3138 C   0  0  0  0  0  0  0  0  0  0  0  0
   -4.1017    4.3827   -6.1682 O   0  0  0  0  0  0  0  0  0  0  0  0
   -2.5870    3.8311   -9.3018 C   0  0  0  0  0  0  0  0  0  0  0  0
   -1.8613    4.7164  -10.2817 C   0  0  0  0  0  0  0  0  0  0  0  0
   -0.6334    4.3194  -10.8255 C   0  0  0  0  0  0  0  0  0  0  0  0
    0.0673    5.1589  -11.6880 C   0  0  0  0  0  0  0  0  0  0  0  0
   -0.4508    6.4098  -12.0243 C   0  0  0  0  0  0  0  0  0  0  0  0
   -1.6751    6.8132  -11.4938 C   0  0  0  0  0  0  0  0  0  0  0  0
   -2.3729    5.9709  -10.6298 C   0  0  0  0  0  0  0  0  0  0  0  0
    0.3378    4.1610   -7.6066 O   0  0  0  0  0  0  0  0  0  0  0  0
   -0.8835   -0.2228   -8.3571 C   0  0  0  0  0  0  0  0  0  0  0  0
   -1.6017   -1.5510   -8.1706 C   0  0  2  0  0  0  0  0  0  0  0  0
   -2.6941   -1.3796   -8.1383 H   0  0  0  0  0  0  0  0  0  0  0  0
   -1.1796   -2.4213   -6.9808 C   0  0  0  0  0  0  0  0  0  0  0  0
   -1.5101   -3.8482   -7.4338 C   0  0  0  0  0  0  0  0  0  0  0  0
   -1.3524   -3.7576   -8.8716 N   0  0  0  0  0  0  0  0  0  0  0  0
   -1.4051   -2.4886   -9.3674 C   0  0  0  0  0  0  0  0  0  0  0  0
   -1.3405   -2.1827  -10.5391 O   0  0  0  0  0  0  0  0  0  0  0  0
   -4.5256    3.6322   -2.1497 H   0  0  0  0  0  0  0  0  0  0  0  0
   -4.8076    2.9194   -3.7639 H   0  0  0  0  0  0  0  0  0  0  0  0
   -3.2648    3.7265   -3.4242 H   0  0  0  0  0  0  0  0  0  0  0  0
   -4.2514    1.0964   -2.1445 H   0  0  0  0  0  0  0  0  0  0  0  0
   -2.7235    1.9284   -1.7190 H   0  0  0  0  0  0  0  0  0  0  0  0
   -3.3085   -0.5987   -6.3266 H   0  0  0  0  0  0  0  0  0  0  0  0
   -1.5772    1.8278   -5.5750 H   0  0  0  0  0  0  0  0  0  0  0  0
    0.8612    2.5633   -5.4922 H   0  0  0  0  0  0  0  0  0  0  0  0
    2.0045    1.7279   -4.4327 H   0  0  0  0  0  0  0  0  0  0  0  0
    1.1691    4.0128   -2.6499 H   0  0  0  0  0  0  0  0  0  0  0  0
    0.3391    6.6052   -4.6231 H   0  0  0  0  0  0  0  0  0  0  0  0
    0.8551    6.2835   -2.9321 H   0  0  0  0  0  0  0  0  0  0  0  0
   -0.8523    6.6978   -3.3194 H   0  0  0  0  0  0  0  0  0  0  0  0
   -0.9091    0.2974   -2.6862 H   0  0  0  0  0  0  0  0  0  0  0  0
   -0.8705   -0.6107   -0.3325 H   0  0  0  0  0  0  0  0  0  0  0  0
    0.7751    0.0872   -0.2259 H   0  0  0  0  0  0  0  0  0  0  0  0
    0.4663   -1.3202   -1.2847 H   0  0  0  0  0  0  0  0  0  0  0  0
    0.5197    1.7863   -7.6628 H   0  0  0  0  0  0  0  0  0  0  0  0
   -0.6541    6.1070   -8.2397 H   0  0  0  0  0  0  0  0  0  0  0  0
   -0.8624    8.2651   -7.0287 H   0  0  0  0  0  0  0  0  0  0  0  0
   -2.5531    8.4454   -5.1334 H   0  0  0  0  0  0  0  0  0  0  0  0
   -4.7993    5.5216   -4.5267 H   0  0  0  0  0  0  0  0  0  0  0  0
   -4.3362    7.5548   -0.8793 H   0  0  0  0  0  0  0  0  0  0  0  0
   -5.6039    6.3436   -0.5178 H   0  0  0  0  0  0  0  0  0  0  0  0
   -7.9170    6.9741   -0.4183 H   0  0  0  0  0  0  0  0  0  0  0  0
   -9.6479    8.7538   -0.4366 H   0  0  0  0  0  0  0  0  0  0  0  0
   -9.0702   11.0446   -1.2257 H   0  0  0  0  0  0  0  0  0  0  0  0
   -6.7532   11.5397   -1.9943 H   0  0  0  0  0  0  0  0  0  0  0  0
   -5.0244    9.7417   -1.9790 H   0  0  0  0  0  0  0  0  0  0  0  0
   -3.6552    4.0912   -9.2692 H   0  0  0  0  0  0  0  0  0  0  0  0
   -2.5207    2.7832   -9.6312 H   0  0  0  0  0  0  0  0  0  0  0  0
   -0.2222    3.3425  -10.5582 H   0  0  0  0  0  0  0  0  0  0  0  0
    1.0264    4.8344  -12.0979 H   0  0  0  0  0  0  0  0  0  0  0  0
    0.1000    7.0689  -12.6995 H   0  0  0  0  0  0  0  0  0  0  0  0
   -2.0888    7.7915  -11.7499 H   0  0  0  0  0  0  0  0  0  0  0  0
   -3.3262    6.2954  -10.2042 H   0  0  0  0  0  0  0  0  0  0  0  0
    0.1758   -0.3634   -8.0892 H   0  0  0  0  0  0  0  0  0  0  0  0
   -0.9188    0.0293   -9.4292 H   0  0  0  0  0  0  0  0  0  0  0  0
   -1.6681   -2.1374   -6.0410 H   0  0  0  0  0  0  0  0  0  0  0  0
   -0.0936   -2.3189   -6.8292 H   0  0  0  0  0  0  0  0  0  0  0  0
   -2.5425   -4.1332   -7.1571 H   0  0  0  0  0  0  0  0  0  0  0  0
   -0.8279   -4.5953   -7.0002 H   0  0  0  0  0  0  0  0  0  0  0  0
   -1.3671   -4.5512   -9.4977 H   0  0  0  0  0  0  0  0  0  0  0  0
  1  2  1  0  0  0  0
  1 60  1  0  0  0  0
  2 63  1  0  0  0  0
  2 64  1  0  0  0  0
  3  2  1  0  0  0  0
  4  5  2  0  0  0  0
  4  3  1  0  0  0  0
  6  4  1  0  0  0  0
  7  6  1  0  0  0  0
  7 66  1  0  0  0  0
  8  9  1  0  0  0  0
  9 68  1  0  0  0  0
  9 10  1  0  0  0  0
 10 11  1  6  0  0  0
 10 12  1  0  0  0  0
 10 16  1  0  0  0  0
 12 69  1  0  0  0  0
 13 14  1  0  0  0  0
 13 12  1  0  0  0  0
 14 72  1  0  0  0  0
 14 71  1  0  0  0  0
 15 13  2  0  0  0  0
 16 17  1  0  0  0  0
 16 19  2  0  0  0  0
 17 18  1  0  0  0  0
 18 74  1  0  0  0  0
 18 75  1  0  0  0  0
 20 21  1  6  0  0  0
 20  7  1  0  0  0  0
 22 23  1  0  0  0  0
 22 77  1  0  0  0  0
 22 20  1  0  0  0  0
 23 51  2  0  0  0  0
 24 23  1  0  0  0  0
 24 25  1  1  0  0  0
 24 26  1  0  0  0  0
 26 42  1  0  0  0  0
 27 26  1  0  0  0  0
 27 28  2  0  0  0  0
 28 29  1  0  0  0  0
 29 30  2  0  0  0  0
 29 80  1  0  0  0  0
 30 31  1  0  0  0  0
 31 32  1  0  0  0  0
 32 41  2  0  0  0  0
 32 33  1  0  0  0  0
 33 34  1  0  0  0  0
 34 35  1  0  0  0  0
 34 82  1  0  0  0  0
 34 83  1  0  0  0  0
 35 36  1  0  0  0  0
 36 84  1  0  0  0  0
 37 36  2  0  0  0  0
 37 85  1  0  0  0  0
 38 37  1  0  0  0  0
 39 40  1  0  0  0  0
 39 38  2  0  0  0  0
 40 35  2  0  0  0  0
 42 43  2  0  0  0  0
 42 30  1  0  0  0  0
 44 89  1  0  0  0  0
 44 24  1  0  0  0  0
 45 44  1  0  0  0  0
 46 91  1  0  0  0  0
 46 45  2  0  0  0  0
 47 46  1  0  0  0  0
 48 47  2  0  0  0  0
 48 49  1  0  0  0  0
 49 50  2  0  0  0  0
 50 45  1  0  0  0  0
 50 95  1  0  0  0  0
 52 53  1  0  0  0  0
 52 96  1  0  0  0  0
 52 20  1  0  0  0  0
 53 54  1  1  0  0  0
 53 55  1  0  0  0  0
 55 99  1  0  0  0  0
 55 98  1  0  0  0  0
 56100  1  0  0  0  0
 56101  1  0  0  0  0
 56 55  1  0  0  0  0
 57 56  1  0  0  0  0
 58 57  1  0  0  0  0
 58 53  1  0  0  0  0
 59 58  2  0  0  0  0
 61  1  1  0  0  0  0
 62  1  1  0  0  0  0
 65  6  1  0  0  0  0
 67  9  1  0  0  0  0
 70 14  1  0  0  0  0
 73 17  1  0  0  0  0
 76 18  1  0  0  0  0
 78 27  1  0  0  0  0
 79 28  1  0  0  0  0
 81 31  1  0  0  0  0
 86 38  1  0  0  0  0
 87 39  1  0  0  0  0
 88 40  1  0  0  0  0
 90 44  1  0  0  0  0
 92 47  1  0  0  0  0
 93 48  1  0  0  0  0
 94 49  1  0  0  0  0
 97 52  1  0  0  0  0
102 57  1  0  0  0  0
M  END
