102
-1 1
C        -1.781633   -0.523697    2.388929
C        -1.255506   -1.823260    2.975233
O        -0.444985   -2.509433    2.045955
C        -1.123418   -3.378604    1.133316
O        -2.183230   -3.874772    1.499941
C        -0.425249   -3.531184   -0.065743
C         0.745512   -2.737494   -0.461705
S         2.463555   -3.314332    0.246104
C         3.134793   -1.733050    0.841818
C         2.389941   -1.139147    2.055686
H         1.311500   -1.216655    1.869887
N         2.711469    0.257598    2.228919
C         1.996082    1.209824    1.591836
C         2.395349    2.646840    1.832870
O         1.066593    0.925659    0.848846
C         2.743485   -1.873616    3.342954
N         1.923558   -2.900243    3.628187
C         2.142564   -3.794899    4.731838
O         3.709785   -1.532929    4.017532
C         0.906675   -2.554481   -1.988194
H        -0.094234   -2.281595   -2.356806
N         1.833336   -1.464050   -2.294375
C         1.653289   -0.122556   -2.189090
C         0.197453    0.352781   -2.272807
H        -0.417679   -0.301319   -1.640241
N        -0.000474    1.678661   -1.698623
C         0.837744    2.733340   -1.954359
C         0.724152    3.905365   -1.273967
C        -0.231492    4.026779   -0.224951
C        -1.061043    2.977749    0.035124
N        -1.997529    2.872908    1.065498
C        -1.993027    3.571409    2.224502
O        -2.905431    3.052223    3.072164
C        -3.033140    3.669165    4.346661
C        -4.071933    4.765247    4.344850
C        -5.379709    4.503529    4.763796
C        -6.348133    5.506470    4.744260
C        -6.016297    6.785500    4.300488
C        -4.714489    7.055428    3.877279
C        -3.747449    6.052802    3.899632
O        -1.288931    4.524106    2.489023
C        -1.032396    1.764661   -0.773105
O        -1.856342    0.867181   -0.629557
C        -0.374076    0.235724   -3.703981
C         0.298195    1.122392   -4.719525
C         1.503661    0.735317   -5.317620
C         2.156985    1.578736   -6.212985
C         1.613357    2.824366   -6.527413
C         0.411204    3.218544   -5.942102
C        -0.239313    2.372035   -5.045966
O         2.605979    0.635846   -2.120211
C         1.402805   -3.741282   -2.830073
C         0.689123   -5.078792   -2.702877
H        -0.400367   -4.905841   -2.626378
C         1.135324   -6.023373   -1.580839
C         0.773464   -7.415274   -2.111519
N         0.900799   -7.239029   -3.544900
C         0.849696   -5.941048   -3.959768
O         0.892812   -5.563148   -5.111412
H        -2.360033    0.042005    3.137891
H        -2.433594   -0.732256    1.528300
H        -0.954601    0.104901    2.025788
H        -2.081431   -2.483467    3.283364
H        -0.615779   -1.624148    3.852691
H        -0.883909   -4.226989   -0.765819
H         0.687331   -1.728671   -0.025702
H         3.108666   -0.983099    0.038295
H         4.192058   -1.905101    1.097351
H         3.467877    0.472673    2.868655
H         2.695289    3.079054    0.867318
H         3.212087    2.758793    2.559372
H         1.511697    3.204737    2.175375
H         1.133285   -3.054738    2.991614
H         1.255471   -3.843163    5.382984
H         2.994461   -3.422278    5.315333
H         2.368982   -4.814737    4.380789
H         2.814198   -1.719564   -2.210228
H         1.597032    2.560511   -2.710166
H         1.394085    4.729667   -1.515921
H        -0.280562    4.922740    0.392283
H        -2.534934    2.007371    1.023565
H        -2.055725    4.063631    4.657771
H        -3.329275    2.861404    5.028793
H        -5.643339    3.499639    5.107911
H        -7.366068    5.287014    5.074687
H        -6.773410    7.573098    4.282774
H        -4.449917    8.055556    3.526045
H        -2.729613    6.249547    3.555487
H        -1.446325    0.471162   -3.638115
H        -0.292965   -0.816444   -4.015503
H         1.934667   -0.237757   -5.067838
H         3.098797    1.261343   -6.666406
H         2.126832    3.486589   -7.228555
H        -0.022169    4.192717   -6.180650
H        -1.175353    2.688892   -4.578502
H         2.472715   -3.898029   -2.610259
H         1.338492   -3.432793   -3.886066
H         0.672215   -5.787054   -0.614465
H         2.227460   -5.944667   -1.458224
H        -0.256729   -7.699863   -1.827673
H         1.452937   -8.197819   -1.740551
H         0.853152   -7.992017   -4.217896
