102
-1 1
C        -0.162890   -0.018875    3.841810
C        -0.843774   -1.315941    3.452122
O        -0.656075   -1.640371    2.077720
C        -1.471337   -1.053311    1.189526
O        -2.360445   -0.298654    1.518849
C        -1.214485   -1.451487   -0.206960
C        -0.107713   -2.079845   -0.609328
S         3.474852   -3.186525   -0.297222
C         3.622574   -1.470787    0.334206
C         2.818282   -1.173728    1.616355
H         1.801467   -1.579182    1.487190
N         2.707867    0.243122    1.883567
C         1.781607    1.031718    1.294819
C         1.690502    2.440440    1.843254
O         1.069566    0.648321    0.376833
C         3.390323   -1.804238    2.894382
N         3.660952   -3.116524    2.806708
C         4.247723   -3.858746    3.888306
O         3.552896   -1.133543    3.913365
C         0.192748   -2.421536   -2.042640
H        -0.650548   -2.090445   -2.666930
N         1.417475   -1.747206   -2.460268
C         1.586443   -0.480118   -2.895023
C         0.333631    0.296274   -3.329500
H        -0.559947   -0.308991   -3.167552
N         0.115697    1.462390   -2.471615
C         1.115185    2.367641   -2.229218
C         0.919834    3.420898   -1.392206
C        -0.298288    3.522622   -0.671014
C        -1.272652    2.588662   -0.866988
N        -2.472379    2.487428   -0.154771
C        -2.574369    2.655527    1.192829
O        -3.786245    2.255836    1.606750
C        -3.952539    2.016420    2.997365
C        -4.615941    3.175701    3.701754
C        -5.936887    3.078418    4.146395
C        -6.551721    4.147354    4.799373
C        -5.847855    5.331043    5.010147
C        -4.528252    5.438769    4.567313
C        -3.914910    4.369134    3.920363
O        -1.726362    3.125652    1.922096
C        -1.137201    1.559487   -1.883246
O        -2.068004    0.813092   -2.195918
C         0.330937    0.640093   -4.837285
C         1.197638    1.792133   -5.281970
C         2.549954    1.615254   -5.596662
C         3.339402    2.700709   -5.968627
C         2.790873    3.982022   -6.033289
C         1.444574    4.169705   -5.726607
C         0.656970    3.080587   -5.357358
O         2.693746    0.027606   -3.007110
C         0.381970   -3.931446   -2.265403
C        -0.647305   -4.807143   -1.560696
H        -1.655733   -4.368195   -1.691901
C        -0.388399   -5.094574   -0.072408
C        -0.951448   -6.505754    0.154983
N        -0.878076   -7.093673   -1.164722
C        -0.736612   -6.202292   -2.186264
O        -0.714727   -6.477384   -3.366383
H        -0.368469    0.199765    4.901071
H        -0.541355    0.817124    3.235714
H         0.925413   -0.096417    3.715140
H        -1.923968   -1.267521    3.658698
H        -0.412961   -2.164728    4.001077
H        -1.963737   -1.093926   -0.917129
H         0.677203   -2.365931    0.096358
H         3.255538   -0.768189   -0.429042
H         4.680425   -1.215558    0.515399
H         3.145703    0.531731    2.753759
H         2.149738    3.129192    1.119307
H         2.197993    2.554632    2.811666
H         0.630484    2.713711    1.938308
H         3.595011   -3.529335    1.856818
H         3.680093   -4.782439    4.085602
H         4.236395   -3.232194    4.789856
H         5.291651   -4.139890    3.669070
H         2.270284   -2.183570   -2.061516
H         2.058471    2.159311   -2.729958
H         1.725172    4.138078   -1.238999
H        -0.440004    4.303104    0.076169
H        -3.118564    1.816014   -0.563391
H        -2.973080    1.797698    3.444376
H        -4.573155    1.113384    3.066380
H        -6.493147    2.152026    3.977890
H        -7.585343    4.054835    5.141448
H        -6.326533    6.170926    5.519579
H        -3.970909    6.364248    4.730910
H        -2.884173    4.441418    3.565411
H        -0.714002    0.862061   -5.102612
H         0.610076   -0.277979   -5.377417
H         2.993092    0.621904   -5.511247
H         4.395456    2.544878   -6.201003
H         3.413717    4.832789   -6.320191
H         1.004228    5.168652   -5.769992
H        -0.396204    3.233619   -5.105837
H         1.387517   -4.205460   -1.909377
H         0.342568   -4.132276   -3.347072
H        -0.837986   -4.353524    0.599358
H         0.697564   -5.078009    0.112213
H        -1.993912   -6.474419    0.524195
H        -0.357005   -7.077059    0.884502
H        -1.058186   -8.068828   -1.361868
