88
-1 1
C         2.185240   -3.087708    5.404493
C         1.511841   -1.856182    4.861010
N         0.205088   -1.726221    5.119011
C        -0.435922   -0.673693    4.620704
C         0.168071    0.305603    3.831610
C         1.529734    0.178499    3.565659
C         2.326037    1.175364    2.759051
N         1.591048    1.909573    1.862060
C         2.110331    3.019383    1.218739
N         2.763153    3.995870    1.783941
N         1.893583    3.192409   -0.137443
C         1.281373    2.165867   -0.976495
H         1.261818    1.289886   -0.319575
C         2.167675    1.755658   -2.168411
C         1.424089    1.112577   -3.345463
C         0.415014    0.002505   -3.014891
C        -0.956983    0.514185   -2.547526
N        -0.951152    1.208545   -1.281438
C        -0.211972    2.447389   -1.251756
C        -1.002276    0.519097   -0.046240
O        -0.873680    1.251873    0.993591
C        -1.138132   -0.866943   -0.020032
C        -1.387278   -1.555325    1.257490
S        -3.094055   -2.436139    1.386355
C        -3.827079   -2.109511   -0.225954
C        -3.759569   -3.246250   -1.253945
H        -4.589226   -3.953854   -1.084870
N        -2.528644   -4.022914   -1.184812
C        -2.493761   -5.298475   -1.623432
C        -1.233549   -6.071532   -1.310960
O        -3.421192   -5.830507   -2.232630
C        -3.940890   -2.662725   -2.679337
N        -4.340948   -3.579182   -3.594082
C        -4.441564   -3.266995   -4.995055
O        -3.746930   -1.488228   -2.942028
C        -0.357385   -2.572695    1.742576
N         0.017894   -3.619936    0.788233
C         0.332101   -4.851671    1.482110
C         1.128959   -3.205794   -0.050462
C         2.407718    4.439805   -0.439316
C         2.986775    4.897828    0.777987
C         3.635123    6.134619    0.853026
C         3.678627    6.927371   -0.284339
C         3.063025    6.513588   -1.474848
C         2.414882    5.285432   -1.557451
Cl         1.574928    4.909135   -3.051226
O         3.525404    1.272135    2.907141
C         2.210554   -0.914209    4.104431
H         1.894456   -3.247698    6.452393
H         3.279727   -3.019245    5.337103
H         1.858195   -3.973756    4.837012
H        -1.506073   -0.604192    4.844516
H        -0.426855    1.115903    3.409486
H         0.606462    1.613595    1.587961
H         2.926179    1.051910   -1.787175
H         2.727702    2.619561   -2.550952
H         2.191080    0.712542   -4.028836
H         0.902542    1.900384   -3.917176
H         0.830381   -0.677381   -2.251395
H         0.254545   -0.608064   -3.919436
H        -1.687362   -0.304116   -2.507462
H        -1.343570    1.210723   -3.314164
H        -0.591485    3.068864   -0.431635
H        -0.364688    2.989535   -2.195602
H        -1.151977   -1.441874   -0.945058
H        -1.451478   -0.779012    2.029025
H        -3.318753   -1.219075   -0.625987
H        -4.881479   -1.838927   -0.079507
H        -1.791836   -3.725839   -0.530125
H        -0.349101   -5.422955   -1.307617
H        -1.121340   -6.872427   -2.051400
H        -1.328197   -6.525527   -0.313647
H        -4.305069   -4.554552   -3.288010
H        -5.385467   -3.646863   -5.416618
H        -3.606686   -3.697628   -5.574336
H        -4.413285   -2.175628   -5.107594
H        -0.742938   -3.057289    2.653528
H         0.546837   -2.011839    2.056544
H         0.674347   -5.617737    0.769999
H        -0.560347   -5.234896    1.999420
H         1.139704   -4.718568    2.236643
H         0.901894   -2.233960   -0.506034
H         1.303503   -3.942870   -0.851969
H         2.073028   -3.100469    0.529278
H         4.076982    6.450665    1.798902
H         4.176277    7.899188   -0.257614
H         3.066544    7.161934   -2.351938
H         3.281517   -1.012640    3.918030
