88
-1 1
C        20.968251    3.543385   -4.365838
C        20.054461    4.013138   -5.466468
N        18.909128    3.338245   -5.620232
C        18.077204    3.720061   -6.583646
C        18.318377    4.786978   -7.451899
C        19.507474    5.497442   -7.290106
C        19.933761    6.682020   -8.128127
N        19.052308    7.077590   -9.108482
C        19.265722    8.210071   -9.883951
N        19.536648    9.401524   -9.439674
N        19.151167    8.127757  -11.261935
C        18.915678    6.869096  -11.961369
H        19.028844    6.123740  -11.168468
C        20.005370    6.536587  -13.000993
C        19.579221    5.601824  -14.140950
C        18.829708    4.312659  -13.766805
C        17.335576    4.510587  -13.490038
N        17.073368    5.318171  -12.315862
C        17.446436    6.710609  -12.401167
C        16.888713    4.806537  -11.043733
O        16.795953    5.621732  -10.094937
C        16.861586    3.377894  -10.858719
C        16.346816    2.802998   -9.715078
S        13.932987    2.282846  -10.048051
C        13.804242    3.062821  -11.664592
C        13.779262    2.085478  -12.848102
H        12.906954    1.415471  -12.739279
N        14.986607    1.297222  -12.888897
C        15.189940    0.422627  -13.896316
C        16.488456   -0.356029  -13.842761
O        14.394381    0.275586  -14.814765
C        13.633848    2.884702  -14.149580
N        12.404099    2.792335  -14.730647
C        12.136295    3.408398  -16.003825
O        14.510047    3.613831  -14.574523
C        16.722060    1.411398   -9.277507
N        17.005966    0.479552  -10.367350
C        16.318648   -0.785449  -10.222309
C        18.425242    0.323471  -10.595583
C        19.316054    9.420949  -11.723880
C        19.596390   10.189071  -10.559938
C        19.845789   11.563005  -10.637088
C        19.790082   12.173185  -11.880539
C        19.468324   11.436834  -13.030878
C        19.217942   10.071084  -12.962971
Cl        18.730950    9.258276  -14.438028
O        20.999898    7.224031   -7.938459
C        20.386028    5.096271   -6.281086
H        20.449144    3.592739   -3.396754
H        21.883760    4.147761   -4.308689
H        21.246586    2.491307   -4.529187
H        17.149166    3.146071   -6.681819
H        17.587692    5.024079   -8.231837
H        18.203496    6.528874   -9.332156
H        20.852157    6.087315  -12.456688
H        20.396320    7.459659  -13.450105
H        20.496181    5.335730  -14.691141
H        18.959390    6.165869  -14.859258
H        19.303971    3.829852  -12.893646
H        18.921461    3.601122  -14.603902
H        16.805530    3.556314  -13.402354
H        16.860387    5.002143  -14.354052
H        16.817105    7.294286  -11.718358
H        17.274260    7.071204  -13.423433
H        17.173869    2.726099  -11.672539
H        16.077666    3.477715   -8.900286
H        14.676092    3.729333  -11.807569
H        12.903229    3.692141  -11.723870
H        15.566893    1.267241  -12.046799
H        17.130438   -0.043474  -13.010879
H        17.016489   -0.207541  -14.794957
H        16.261830   -1.428433  -13.753146
H        11.857761    1.981304  -14.474092
H        11.074923    3.687654  -16.081439
H        12.395228    2.747214  -16.849448
H        12.752926    4.312657  -16.083307
H        15.922605    1.006048   -8.642998
H        17.615613    1.501725   -8.621907
H        16.500913   -1.415428  -11.107477
H        15.236563   -0.602193  -10.148909
H        16.647965   -1.359995   -9.327172
H        18.889733    1.308309  -10.751012
H        18.608392   -0.284882  -11.495948
H        18.947621   -0.170514   -9.745069
H        20.065673   12.119430   -9.725195
H        19.978039   13.244649  -11.975624
H        19.393282   11.933163  -13.999198
H        21.319832    5.645604   -6.150699
