88
-1 1
C         3.854661   -3.190460    4.808815
C         2.935357   -2.042024    4.494829
N         1.721386   -2.076781    5.055493
C         0.862580   -1.106254    4.765434
C         1.149336   -0.039436    3.913714
C         2.420956    0.016254    3.342590
C         2.910289    1.126089    2.440485
N         1.922453    1.911937    1.891905
C         2.177984    3.046243    1.131985
N         2.911470    4.057317    1.488758
N         1.569733    3.188414   -0.105373
C         0.848707    2.101934   -0.759527
H         1.059288    1.247068   -0.108906
C         1.433429    1.718600   -2.132185
C         0.486412    0.925081   -3.043590
C        -0.285051   -0.246966   -2.418159
C        -1.540394    0.149294   -1.641273
N        -1.263955    0.948720   -0.454129
C        -0.685597    2.259642   -0.677353
C        -1.149059    0.445910    0.803302
O        -0.821333    1.190371    1.743251
C        -1.331984   -1.006989    0.999626
C        -1.611270   -1.523090    2.201208
S        -4.376134   -4.002241    0.149893
C        -4.385762   -3.059966   -1.410923
C        -3.281218   -3.500162   -2.387605
H        -3.484105   -4.547833   -2.679493
N        -1.999755   -3.434493   -1.723266
C        -0.850386   -3.712172   -2.379118
C         0.387331   -3.823278   -1.513683
O        -0.800350   -3.850696   -3.595103
C        -3.293543   -2.623635   -3.640968
N        -3.665476   -3.273862   -4.779120
C        -3.595809   -2.617896   -6.058583
O        -3.080328   -1.423087   -3.617276
C        -1.737229   -2.993896    2.454971
N        -0.770437   -3.789383    1.718783
C        -1.152396   -5.184840    1.647132
C         0.578293   -3.617553    2.211676
C         1.920400    4.453119   -0.542799
C         2.795348    4.955955    0.457750
C         3.373567    6.224406    0.345107
C         3.051709    6.997411   -0.759796
C         2.145857    6.534327   -1.726907
C         1.564520    5.276520   -1.620396
Cl         0.356173    4.823578   -2.805776
O         4.088659    1.275804    2.211974
C         3.323544   -1.004413    3.644059
H         3.848408   -3.395260    5.888615
H         4.884404   -2.992644    4.481697
H         3.498350   -4.101646    4.302758
H        -0.125409   -1.174482    5.234007
H         0.378217    0.701520    3.701723
H         0.932023    1.634061    1.971285
H         2.345276    1.129403   -1.941754
H         1.761881    2.615221   -2.674530
H         1.092322    0.544073   -3.880316
H        -0.241710    1.615758   -3.502906
H         0.380207   -0.838526   -1.764041
H        -0.623928   -0.923055   -3.216639
H        -2.109881   -0.744638   -1.372724
H        -2.210215    0.726282   -2.296439
H        -0.932741    2.911116    0.168962
H        -1.113519    2.694155   -1.588845
H        -1.189825   -1.683700    0.156697
H        -1.798032   -0.835187    3.032502
H        -4.255313   -1.980649   -1.225143
H        -5.347068   -3.179712   -1.936893
H        -2.076839   -3.570729   -0.708414
H         0.183545   -3.582408   -0.461629
H         1.162288   -3.158948   -1.920996
H         0.768770   -4.852882   -1.584829
H        -3.554780   -4.278625   -4.761026
H        -4.308354   -3.073880   -6.761643
H        -2.581902   -2.665200   -6.493821
H        -3.853356   -1.560131   -5.920934
H        -2.748710   -3.285099    2.101068
H        -1.682306   -3.193491    3.548972
H        -0.444186   -5.727721    1.000407
H        -2.158464   -5.266763    1.206378
H        -1.147409   -5.680009    2.644688
H         0.869720   -2.556357    2.175692
H         1.283767   -4.182632    1.581530
H         0.700034   -3.963136    3.262370
H         4.048197    6.578407    1.125469
H         3.485459    7.992422   -0.878134
H         1.869042    7.168207   -2.570211
H         4.324318   -0.967361    3.210448
