-1 1
 OpenBabel05232414493D

 91 93  0  0  1  0  0  0  0  0999 V2000
   20.5689   -2.0056  -13.7228 C   0  0  0  0  0  0  0  0  0  0  0  0
   20.5776   -1.0300  -12.5772 C   0  0  0  0  0  0  0  0  0  0  0  0
   20.0203   -1.4464  -11.4332 N   0  0  0  0  0  0  0  0  0  0  0  0
   20.0082   -0.6168  -10.3952 C   0  0  0  0  0  0  0  0  0  0  0  0
   20.5247    0.6782  -10.4300 C   0  0  0  0  0  0  0  0  0  0  0  0
   21.0904    1.1254  -11.6221 C   0  0  0  0  0  0  0  0  0  0  0  0
   21.6878    2.5009  -11.8187 C   0  0  0  0  0  0  0  0  0  0  0  0
   21.1349    3.4721  -11.0074 N   0  0  0  0  0  0  0  0  0  0  0  0
   21.6444    4.7572  -10.8393 C   0  0  0  0  0  0  0  0  0  0  0  0
   22.8393    5.1236  -11.1820 N   0  0  0  0  0  0  0  0  0  0  0  0
   20.8840    5.7329  -10.2109 N   0  0  0  0  0  0  0  0  0  0  0  0
   19.4107    5.5776  -10.2286 C   0  0  2  0  0  0  0  0  0  0  0  0
   19.2425    4.5862   -9.7947 H   0  0  0  0  0  0  0  0  0  0  0  0
   18.8468    5.5024  -11.6609 C   0  0  0  0  0  0  0  0  0  0  0  0
   19.1625    6.6595  -12.6056 C   0  0  0  0  0  0  0  0  0  0  0  0
   18.3800    7.9320  -12.3145 C   0  0  0  0  0  0  0  0  0  0  0  0
   18.5949    8.4479  -10.8951 C   0  0  0  0  0  0  0  0  0  0  0  0
   17.9747    7.6524   -9.8491 N   0  0  0  0  0  0  0  0  0  0  0  0
   18.5793    6.4579   -9.3011 C   0  0  0  0  0  0  0  0  0  0  0  0
   16.6162    7.9261   -9.5753 C   0  0  0  0  0  0  0  0  0  0  0  0
   16.0028    8.6754  -10.3391 O   0  0  0  0  0  0  0  0  0  0  0  0
   16.0539    7.3299   -8.3857 C   0  0  0  0  0  3  0  0  0  0  0  0
   14.6810    7.3537   -8.1642 C   0  0  0  0  0  3  0  0  0  0  0  0
   13.6627    5.3472   -8.7675 S   0  0  0  0  0  1  0  0  0  0  0  0
   14.8401    4.7948  -10.0226 C   0  0  0  0  0  0  0  0  0  0  0  0
   15.4206    3.3703   -9.8359 C   0  0  2  0  0  0  0  0  0  0  0  0
   16.1069    3.3657   -8.9766 H   0  0  0  0  0  0  0  0  0  0  0  0
   16.1582    2.9517  -11.0145 N   0  0  0  0  0  0  0  0  0  0  0  0
   17.4495    2.5835  -11.0664 C   0  0  0  0  0  0  0  0  0  0  0  0
   17.8692    1.9128  -12.3577 C   0  0  0  0  0  0  0  0  0  0  0  0
   18.2579    2.7693  -10.1554 O   0  0  0  0  0  0  0  0  0  0  0  0
   14.3350    2.2941   -9.6279 C   0  0  0  0  0  0  0  0  0  0  0  0
   13.7693    2.2790   -8.4015 N   0  0  0  0  0  0  0  0  0  0  0  0
   12.5892    1.4893   -8.1492 C   0  0  0  0  0  0  0  0  0  0  0  0
   14.0466    1.5159  -10.5272 O   0  0  0  0  0  0  0  0  0  0  0  0
   14.1689    7.4041   -6.7442 C   0  0  0  0  0  0  0  0  0  0  0  0
   12.7544    7.1555   -6.5469 N   0  0  0  0  0  0  0  0  0  0  0  0
   12.4168    7.0655   -5.1523 C   0  0  0  0  0  0  0  0  0  0  0  0
   11.8960    8.0643   -7.2644 C   0  0  0  0  0  0  0  0  0  0  0  0
   21.7533    6.8335  -10.0777 C   0  0  0  0  0  0  0  0  0  0  0  0
   22.9357    6.4237  -10.7489 C   0  0  0  0  0  0  0  0  0  0  0  0
   24.0469    7.2616  -10.8804 C   0  0  0  0  0  0  0  0  0  0  0  0
   23.9841    8.5105  -10.2895 C   0  0  0  0  0  0  0  0  0  0  0  0
   22.8660    8.8679   -9.5231 C   0  0  0  0  0  0  0  0  0  0  0  0
   21.7449    8.0487   -9.3459 C   0  0  0  0  0  0  0  0  0  0  0  0
   20.7508    8.4712   -8.2903 C   0  0  0  0  0  0  0  0  0  0  0  0
   22.5534    2.6824  -12.6396 O   0  0  0  0  0  0  0  0  0  0  0  0
   21.1330    0.2447  -12.7033 C   0  0  0  0  0  0  0  0  0  0  0  0
   21.0678   -2.9400  -13.4259 H   0  0  0  0  0  0  0  0  0  0  0  0
   21.0729   -1.5992  -14.6099 H   0  0  0  0  0  0  0  0  0  0  0  0
   19.5332   -2.2635  -13.9907 H   0  0  0  0  0  0  0  0  0  0  0  0
   19.5514   -0.9943   -9.4740 H   0  0  0  0  0  0  0  0  0  0  0  0
   20.4631    1.3121   -9.5460 H   0  0  0  0  0  0  0  0  0  0  0  0
   20.2422    3.2365  -10.5645 H   0  0  0  0  0  0  0  0  0  0  0  0
   17.7544    5.3834  -11.5647 H   0  0  0  0  0  0  0  0  0  0  0  0
   19.2142    4.5759  -12.1226 H   0  0  0  0  0  0  0  0  0  0  0  0
   18.9511    6.3263  -13.6350 H   0  0  0  0  0  0  0  0  0  0  0  0
   20.2474    6.8687  -12.5750 H   0  0  0  0  0  0  0  0  0  0  0  0
   17.2997    7.7729  -12.4560 H   0  0  0  0  0  0  0  0  0  0  0  0
   18.6854    8.7193  -13.0247 H   0  0  0  0  0  0  0  0  0  0  0  0
   18.1694    9.4571  -10.8163 H   0  0  0  0  0  0  0  0  0  0  0  0
   19.6765    8.5266  -10.7090 H   0  0  0  0  0  0  0  0  0  0  0  0
   17.7460    5.8074   -9.0076 H   0  0  0  0  0  0  0  0  0  0  0  0
   19.1488    6.6322   -8.3745 H   0  0  0  0  0  0  0  0  0  0  0  0
   16.7002    6.8752   -7.6322 H   0  0  0  0  0  0  0  0  0  0  0  0
   14.1314    7.9560   -8.8930 H   0  0  0  0  0  0  0  0  0  0  0  0
   15.6934    5.5032  -10.0040 H   0  0  0  0  0  0  0  0  0  0  0  0
   14.3889    4.8483  -11.0267 H   0  0  0  0  0  0  0  0  0  0  0  0
   15.5448    2.5543  -11.7205 H   0  0  0  0  0  0  0  0  0  0  0  0
   18.7625    2.4132  -12.7544 H   0  0  0  0  0  0  0  0  0  0  0  0
   17.0831    1.9243  -13.1236 H   0  0  0  0  0  0  0  0  0  0  0  0
   18.1459    0.8708  -12.1398 H   0  0  0  0  0  0  0  0  0  0  0  0
   13.8383    3.1797   -7.9130 H   0  0  0  0  0  0  0  0  0  0  0  0
   11.6676    2.0345   -8.4170 H   0  0  0  0  0  0  0  0  0  0  0  0
   12.5394    1.2167   -7.0851 H   0  0  0  0  0  0  0  0  0  0  0  0
   12.6360    0.5751   -8.7545 H   0  0  0  0  0  0  0  0  0  0  0  0
   14.4412    8.4159   -6.3511 H   0  0  0  0  0  0  0  0  0  0  0  0
   14.7328    6.6723   -6.1435 H   0  0  0  0  0  0  0  0  0  0  0  0
   11.3579    6.7856   -5.0337 H   0  0  0  0  0  0  0  0  0  0  0  0
   12.5771    8.0207   -4.5948 H   0  0  0  0  0  0  0  0  0  0  0  0
   13.0265    6.2896   -4.6636 H   0  0  0  0  0  0  0  0  0  0  0  0
   10.8427    7.7968   -7.0876 H   0  0  0  0  0  0  0  0  0  0  0  0
   12.0752    7.9883   -8.3453 H   0  0  0  0  0  0  0  0  0  0  0  0
   12.0360    9.1287   -6.9577 H   0  0  0  0  0  0  0  0  0  0  0  0
   24.9241    6.9065  -11.4231 H   0  0  0  0  0  0  0  0  0  0  0  0
   24.8232    9.2053  -10.3713 H   0  0  0  0  0  0  0  0  0  0  0  0
   22.8829    9.8222   -8.9903 H   0  0  0  0  0  0  0  0  0  0  0  0
   21.0942    9.4039   -7.8226 H   0  0  0  0  0  0  0  0  0  0  0  0
   20.6948    7.7112   -7.4952 H   0  0  0  0  0  0  0  0  0  0  0  0
   19.7301    8.6410   -8.6531 H   0  0  0  0  0  0  0  0  0  0  0  0
   21.5967    0.5741  -13.6349 H   0  0  0  0  0  0  0  0  0  0  0  0
  1 49  1  0  0  0  0
  1  2  1  0  0  0  0
  2  3  1  0  0  0  0
  3  4  2  0  0  0  0
  4 52  1  0  0  0  0
  5  4  1  0  0  0  0
  5 53  1  0  0  0  0
  6  5  2  0  0  0  0
  7  6  1  0  0  0  0
  7  8  1  0  0  0  0
  8  9  1  0  0  0  0
  8 54  1  0  0  0  0
  9 11  1  0  0  0  0
 10  9  2  0  0  0  0
 10 41  1  0  0  0  0
 11 40  1  0  0  0  0
 12 11  1  0  0  0  0
 12 13  1  1  0  0  0
 12 19  1  0  0  0  0
 14 55  1  0  0  0  0
 14 12  1  0  0  0  0
 15 58  1  0  0  0  0
 15 16  1  0  0  0  0
 15 14  1  0  0  0  0
 16 17  1  0  0  0  0
 17 61  1  0  0  0  0
 17 62  1  0  0  0  0
 17 18  1  0  0  0  0
 18 20  1  0  0  0  0
 18 19  1  0  0  0  0
 19 63  1  0  0  0  0
 19 64  1  0  0  0  0
 20 22  1  0  0  0  0
 21 20  2  0  0  0  0
 22 23  1  0  0  0  0
 22 65  1  0  0  0  0
 23 36  1  0  0  0  0
 25 67  1  0  0  0  0
 25 26  1  0  0  0  0
 25 24  1  0  0  0  0
 26 32  1  0  0  0  0
 26 27  1  1  0  0  0
 28 26  1  0  0  0  0
 29 28  1  0  0  0  0
 29 31  2  0  0  0  0
 30 72  1  0  0  0  0
 30 29  1  0  0  0  0
 32 33  1  0  0  0  0
 33 34  1  0  0  0  0
 33 73  1  0  0  0  0
 34 75  1  0  0  0  0
 35 32  2  0  0  0  0
 36 37  1  0  0  0  0
 36 77  1  0  0  0  0
 36 78  1  0  0  0  0
 37 38  1  0  0  0  0
 38 79  1  0  0  0  0
 38 81  1  0  0  0  0
 38 80  1  0  0  0  0
 39 82  1  0  0  0  0
 39 84  1  0  0  0  0
 39 37  1  0  0  0  0
 40 45  1  0  0  0  0
 41 40  2  0  0  0  0
 42 41  1  0  0  0  0
 42 43  2  0  0  0  0
 43 44  1  0  0  0  0
 44 45  2  0  0  0  0
 44 87  1  0  0  0  0
 45 46  1  0  0  0  0
 46 88  1  0  0  0  0
 46 89  1  0  0  0  0
 47  7  2  0  0  0  0
 48  2  2  0  0  0  0
 48  6  1  0  0  0  0
 50  1  1  0  0  0  0
 51  1  1  0  0  0  0
 56 14  1  0  0  0  0
 57 15  1  0  0  0  0
 59 16  1  0  0  0  0
 60 16  1  0  0  0  0
 66 23  1  0  0  0  0
 68 25  1  0  0  0  0
 69 28  1  0  0  0  0
 70 30  1  0  0  0  0
 71 30  1  0  0  0  0
 74 34  1  0  0  0  0
 76 34  1  0  0  0  0
 83 39  1  0  0  0  0
 85 42  1  0  0  0  0
 86 43  1  0  0  0  0
 90 46  1  0  0  0  0
 91 48  1  0  0  0  0
M  END
