-1 1
 OpenBabel05232413493D

 91 93  0  0  1  0  0  0  0  0999 V2000
    0.9732   -5.2448   -5.1814 C   0  0  0  0  0  0  0  0  0  0  0  0
    1.3588   -4.7649   -3.8081 C   0  0  0  0  0  0  0  0  0  0  0  0
    1.1392   -5.6121   -2.7951 N   0  0  0  0  0  0  0  0  0  0  0  0
    1.4598   -5.2248   -1.5636 C   0  0  0  0  0  0  0  0  0  0  0  0
    1.9932   -3.9738   -1.2579 C   0  0  0  0  0  0  0  0  0  0  0  0
    2.2158   -3.0834   -2.3065 C   0  0  0  0  0  0  0  0  0  0  0  0
    2.8224   -1.7128   -2.1236 C   0  0  0  0  0  0  0  0  0  0  0  0
    2.5719   -1.1449   -0.8925 N   0  0  0  0  0  0  0  0  0  0  0  0
    3.2620   -0.0304   -0.4322 C   0  0  0  0  0  0  0  0  0  0  0  0
    4.5308    0.1405   -0.6361 N   0  0  0  0  0  0  0  0  0  0  0  0
    2.6433    0.9634    0.3093 N   0  0  0  0  0  0  0  0  0  0  0  0
    1.1563    1.0427    0.2842 C   0  0  2  0  0  0  0  0  0  0  0  0
    0.8186    0.0883    0.7145 H   0  0  0  0  0  0  0  0  0  0  0  0
    0.5936    1.1096   -1.1544 C   0  0  0  0  0  0  0  0  0  0  0  0
    1.2640    2.1101   -2.0974 C   0  0  0  0  0  0  0  0  0  0  0  0
    0.9225    3.5727   -1.8266 C   0  0  0  0  0  0  0  0  0  0  0  0
    1.1332    4.0011   -0.3756 C   0  0  0  0  0  0  0  0  0  0  0  0
    0.1956    3.3732    0.5501 N   0  0  0  0  0  0  0  0  0  0  0  0
    0.5049    2.0938    1.1775 C   0  0  0  0  0  0  0  0  0  0  0  0
   -1.0665    3.9254    0.5966 C   0  0  0  0  0  0  0  0  0  0  0  0
   -1.3539    4.8987   -0.0868 O   0  0  0  0  0  0  0  0  0  0  0  0
   -2.0672    3.2773    1.4960 C   0  0  0  0  0  0  0  0  0  0  0  0
   -3.3682    3.3116    1.1937 C   0  0  0  0  0  0  0  0  0  0  0  0
   -1.8592    0.2080    3.5394 S   0  0  0  0  0  1  0  0  0  0  0  0
   -2.1757   -0.3215    1.8199 C   0  0  0  0  0  0  0  0  0  0  0  0
   -2.2907   -1.8481    1.6304 C   0  0  2  0  0  0  0  0  0  0  0  0
   -1.4597   -2.3188    2.1810 H   0  0  0  0  0  0  0  0  0  0  0  0
   -2.2139   -2.2225    0.2337 N   0  0  0  0  0  0  0  0  0  0  0  0
   -1.0848   -2.2487   -0.4778 C   0  0  0  0  0  0  0  0  0  0  0  0
   -1.2225   -2.6614   -1.9270 C   0  0  0  0  0  0  0  0  0  0  0  0
    0.0153   -1.9645    0.0079 O   0  0  0  0  0  0  0  0  0  0  0  0
   -3.6279   -2.4003    2.1396 C   0  0  0  0  0  0  0  0  0  0  0  0
   -3.8460   -2.2054    3.4507 N   0  0  0  0  0  0  0  0  0  0  0  0
   -5.0962   -2.5453    4.0750 C   0  0  0  0  0  0  0  0  0  0  0  0
   -4.4132   -2.9606    1.3776 O   0  0  0  0  0  0  0  0  0  0  0  0
   -4.4091    2.6282    2.0342 C   0  0  0  0  0  0  0  0  0  0  0  0
   -5.1002    1.5647    1.3193 N   0  0  0  0  0  0  0  0  0  0  0  0
   -5.6839    0.5897    2.2103 C   0  0  0  0  0  0  0  0  0  0  0  0
   -6.0278    2.0355    0.3253 C   0  0  0  0  0  0  0  0  0  0  0  0
    3.6884    1.8437    0.6737 C   0  0  0  0  0  0  0  0  0  0  0  0
    4.8278    1.3112    0.0071 C   0  0  0  0  0  0  0  0  0  0  0  0
    6.0885    1.9136    0.0583 C   0  0  0  0  0  0  0  0  0  0  0  0
    6.2267    3.0555    0.8214 C   0  0  0  0  0  0  0  0  0  0  0  0
    5.1353    3.5315    1.5596 C   0  0  0  0  0  0  0  0  0  0  0  0
    3.8627    2.9481    1.5556 C   0  0  0  0  0  0  0  0  0  0  0  0
    2.8871    3.5080    2.5655 C   0  0  0  0  0  0  0  0  0  0  0  0
    3.4529   -1.1949   -3.0156 O   0  0  0  0  0  0  0  0  0  0  0  0
    1.9091   -3.4979   -3.6018 C   0  0  0  0  0  0  0  0  0  0  0  0
    1.4413   -6.2186   -5.3860 H   0  0  0  0  0  0  0  0  0  0  0  0
    1.2720   -4.5324   -5.9621 H   0  0  0  0  0  0  0  0  0  0  0  0
   -0.1164   -5.3913   -5.2380 H   0  0  0  0  0  0  0  0  0  0  0  0
    1.2753   -5.9486   -0.7622 H   0  0  0  0  0  0  0  0  0  0  0  0
    2.2204   -3.7072   -0.2259 H   0  0  0  0  0  0  0  0  0  0  0  0
    1.7202   -1.4673   -0.4104 H   0  0  0  0  0  0  0  0  0  0  0  0
   -0.4821    1.3346   -1.0591 H   0  0  0  0  0  0  0  0  0  0  0  0
    0.6467    0.1103   -1.6013 H   0  0  0  0  0  0  0  0  0  0  0  0
    0.9707    1.8601   -3.1294 H   0  0  0  0  0  0  0  0  0  0  0  0
    2.3574    1.9632   -2.0626 H   0  0  0  0  0  0  0  0  0  0  0  0
   -0.1278    3.7781   -2.0869 H   0  0  0  0  0  0  0  0  0  0  0  0
    1.5392    4.2179   -2.4741 H   0  0  0  0  0  0  0  0  0  0  0  0
    0.9990    5.0880   -0.2946 H   0  0  0  0  0  0  0  0  0  0  0  0
    2.1583    3.7648   -0.0634 H   0  0  0  0  0  0  0  0  0  0  0  0
   -0.4352    1.6446    1.5049 H   0  0  0  0  0  0  0  0  0  0  0  0
    1.0795    2.2050    2.0988 H   0  0  0  0  0  0  0  0  0  0  0  0
   -1.7508    2.7226    2.3864 H   0  0  0  0  0  0  0  0  0  0  0  0
   -3.6775    3.8481    0.2886 H   0  0  0  0  0  0  0  0  0  0  0  0
   -1.3422   -0.0172    1.1705 H   0  0  0  0  0  0  0  0  0  0  0  0
   -3.0794    0.1555    1.4033 H   0  0  0  0  0  0  0  0  0  0  0  0
   -3.0960   -2.5587   -0.1475 H   0  0  0  0  0  0  0  0  0  0  0  0
   -0.6722   -1.9468   -2.5541 H   0  0  0  0  0  0  0  0  0  0  0  0
   -2.2683   -2.7048   -2.2584 H   0  0  0  0  0  0  0  0  0  0  0  0
   -0.7596   -3.6485   -2.0698 H   0  0  0  0  0  0  0  0  0  0  0  0
   -3.2107   -1.5172    3.9004 H   0  0  0  0  0  0  0  0  0  0  0  0
   -5.7572   -1.6671    4.1802 H   0  0  0  0  0  0  0  0  0  0  0  0
   -4.9230   -2.9657    5.0771 H   0  0  0  0  0  0  0  0  0  0  0  0
   -5.6125   -3.2900    3.4553 H   0  0  0  0  0  0  0  0  0  0  0  0
   -5.1324    3.3869    2.4221 H   0  0  0  0  0  0  0  0  0  0  0  0
   -3.9032    2.1735    2.9003 H   0  0  0  0  0  0  0  0  0  0  0  0
   -6.0347   -0.2846    1.6387 H   0  0  0  0  0  0  0  0  0  0  0  0
   -6.5465    0.9922    2.7925 H   0  0  0  0  0  0  0  0  0  0  0  0
   -4.9190    0.2429    2.9215 H   0  0  0  0  0  0  0  0  0  0  0  0
   -6.4415    1.1844   -0.2378 H   0  0  0  0  0  0  0  0  0  0  0  0
   -5.5264    2.6972   -0.3966 H   0  0  0  0  0  0  0  0  0  0  0  0
   -6.8853    2.6012    0.7635 H   0  0  0  0  0  0  0  0  0  0  0  0
    6.9151    1.4614   -0.4915 H   0  0  0  0  0  0  0  0  0  0  0  0
    7.1884    3.5693    0.8892 H   0  0  0  0  0  0  0  0  0  0  0  0
    5.2893    4.3938    2.2132 H   0  0  0  0  0  0  0  0  0  0  0  0
    3.4020    4.2568    3.1818 H   0  0  0  0  0  0  0  0  0  0  0  0
    2.5259    2.7250    3.2483 H   0  0  0  0  0  0  0  0  0  0  0  0
    2.0114    4.0010    2.1240 H   0  0  0  0  0  0  0  0  0  0  0  0
    2.1050   -2.8199   -4.4346 H   0  0  0  0  0  0  0  0  0  0  0  0
  1  2  1  0  0  0  0
  2 48  2  0  0  0  0
  2  3  1  0  0  0  0
  3  4  2  0  0  0  0
  4  5  1  0  0  0  0
  4 52  1  0  0  0  0
  5 53  1  0  0  0  0
  6  7  1  0  0  0  0
  6  5  2  0  0  0  0
  7  8  1  0  0  0  0
  8  9  1  0  0  0  0
  8 54  1  0  0  0  0
  9 11  1  0  0  0  0
 10  9  2  0  0  0  0
 10 41  1  0  0  0  0
 11 40  1  0  0  0  0
 12 11  1  0  0  0  0
 12 13  1  1  0  0  0
 12 19  1  0  0  0  0
 14 55  1  0  0  0  0
 14 12  1  0  0  0  0
 15 58  1  0  0  0  0
 15 16  1  0  0  0  0
 15 14  1  0  0  0  0
 16 17  1  0  0  0  0
 17 61  1  0  0  0  0
 17 62  1  0  0  0  0
 17 18  1  0  0  0  0
 18 20  1  0  0  0  0
 18 19  1  0  0  0  0
 19 63  1  0  0  0  0
 19 64  1  0  0  0  0
 20 22  1  0  0  0  0
 21 20  2  0  0  0  0
 22 65  1  0  0  0  0
 23 22  2  0  0  0  0
 23 36  1  0  0  0  0
 25 24  1  0  0  0  0
 26 25  1  0  0  0  0
 26 32  1  0  0  0  0
 26 27  1  1  0  0  0
 28 26  1  0  0  0  0
 29 31  2  0  0  0  0
 29 28  1  0  0  0  0
 30 29  1  0  0  0  0
 32 33  1  0  0  0  0
 33 73  1  0  0  0  0
 33 34  1  0  0  0  0
 34 74  1  0  0  0  0
 34 75  1  0  0  0  0
 35 32  2  0  0  0  0
 36 77  1  0  0  0  0
 36 78  1  0  0  0  0
 37 36  1  0  0  0  0
 37 38  1  0  0  0  0
 38 80  1  0  0  0  0
 38 81  1  0  0  0  0
 39 84  1  0  0  0  0
 39 37  1  0  0  0  0
 40 45  1  0  0  0  0
 41 42  1  0  0  0  0
 41 40  2  0  0  0  0
 42 43  2  0  0  0  0
 43 86  1  0  0  0  0
 43 44  1  0  0  0  0
 44 87  1  0  0  0  0
 45 44  2  0  0  0  0
 45 46  1  0  0  0  0
 46 88  1  0  0  0  0
 46 89  1  0  0  0  0
 47  7  2  0  0  0  0
 48  6  1  0  0  0  0
 49  1  1  0  0  0  0
 50  1  1  0  0  0  0
 51  1  1  0  0  0  0
 56 14  1  0  0  0  0
 57 15  1  0  0  0  0
 59 16  1  0  0  0  0
 60 16  1  0  0  0  0
 66 23  1  0  0  0  0
 67 25  1  0  0  0  0
 68 25  1  0  0  0  0
 69 28  1  0  0  0  0
 70 30  1  0  0  0  0
 71 30  1  0  0  0  0
 72 30  1  0  0  0  0
 76 34  1  0  0  0  0
 79 38  1  0  0  0  0
 82 39  1  0  0  0  0
 83 39  1  0  0  0  0
 85 42  1  0  0  0  0
 90 46  1  0  0  0  0
 91 48  1  0  0  0  0
M  END
