-1 1
 OpenBabel05232413493D

 88 89  0  0  1  0  0  0  0  0999 V2000
   -0.9961    2.1480   -1.4880 O   0  0  0  0  0  0  0  0  0  0  0  0
   -1.7445    1.5478   -0.7398 C   0  0  0  0  0  0  0  0  0  0  0  0
   -1.1633    0.9935    0.4170 N   0  0  0  0  0  0  0  0  0  0  0  0
   -1.5531   -0.0089    1.2823 C   0  0  0  0  0  0  0  0  0  0  0  0
   -0.8413   -0.1887    2.4864 C   0  0  0  0  0  0  0  0  0  0  0  0
    0.4930    0.8908    2.8269 Cl  0  0  0  0  0  0  0  0  0  0  0  0
   -1.1176   -1.2193    3.3892 C   0  0  0  0  0  0  0  0  0  0  0  0
   -0.2807   -1.3617    4.6468 C   0  0  0  0  0  0  0  0  0  0  0  0
    0.9645   -1.9263    4.4979 N   0  0  0  0  0  0  0  0  0  0  0  0
    1.4344   -2.3301    3.1916 C   0  0  0  0  0  0  0  0  0  0  0  0
    2.1859   -3.6718    3.0449 C   0  0  1  0  0  0  0  0  0  0  0  0
    3.7299   -3.5190    3.1321 C   0  0  0  0  0  0  0  0  0  0  0  0
    4.2013   -2.7502    2.0141 N   0  0  0  0  0  0  0  0  0  0  0  0
    4.3681   -1.3783    2.0940 C   0  0  0  0  0  0  0  0  0  0  0  0
    4.1162   -0.6577    0.8429 C   0  0  0  0  0  0  0  0  0  0  0  0
    3.3557   -1.0557   -0.2637 C   0  0  0  0  0  0  0  0  0  0  0  0
    2.6962   -2.2312   -0.5484 N   0  0  0  0  0  0  0  0  0  0  0  0
    3.3741   -0.0151   -1.1309 N   0  0  0  0  0  0  0  0  0  0  0  0
    2.7587   -0.0074   -2.4177 C   0  0  0  0  0  0  0  0  0  0  0  0
    3.3659   -0.7176   -3.4559 C   0  0  0  0  0  0  0  0  0  0  0  0
    2.7581   -0.7706   -4.7060 C   0  0  0  0  0  0  0  0  0  0  0  0
    1.5483   -0.1074   -4.8881 C   0  0  0  0  0  0  0  0  0  0  0  0
    0.9728   -0.1689   -6.0916 F   0  0  0  0  0  0  0  0  0  0  0  0
    0.9272    0.6079   -3.8708 C   0  0  0  0  0  0  0  0  0  0  0  0
    1.5487    0.6585   -2.6241 C   0  0  0  0  0  0  0  0  0  0  0  0
    4.0847    1.0445   -0.6620 N   0  0  0  0  0  0  0  0  0  0  0  0
    4.5108    0.6699    0.5202 C   0  0  0  0  0  0  0  0  0  0  0  0
    4.6655   -0.8339    3.1436 O   0  0  0  0  0  0  0  0  0  0  0  0
    1.6782   -4.7772    3.9872 C   0  0  0  0  0  0  0  0  0  0  0  0
    0.3570   -4.8481    4.0165 F   0  0  0  0  0  0  0  0  0  0  0  0
    2.1302   -5.9706    3.5381 F   0  0  0  0  0  0  0  0  0  0  0  0
    2.1254   -4.6484    5.2341 F   0  0  0  0  0  0  0  0  0  0  0  0
    1.8473   -4.0917    1.7317 O   0  0  0  0  0  0  0  0  0  0  0  0
    1.9053   -1.6927    5.5971 C   0  0  0  0  0  0  0  0  0  0  0  0
    2.4978   -0.2902    5.6060 C   0  0  0  0  0  0  0  0  0  0  0  0
   -0.6912   -0.9415    5.7065 O   0  0  0  0  0  0  0  0  0  0  0  0
   -2.1863   -2.0688    3.1088 C   0  0  0  0  0  0  0  0  0  0  0  0
   -2.5969   -3.3522    4.2179 Cl  0  0  0  0  0  0  0  0  0  0  0  0
   -2.9088   -1.9259    1.9272 C   0  0  0  0  0  0  0  0  0  0  0  0
   -2.5845   -0.9281    1.0194 C   0  0  0  0  0  0  0  0  0  0  0  0
   -3.1925    1.4093   -0.9292 C   0  0  0  0  0  0  0  0  0  0  0  0
   -3.7574    1.6324   -2.1282 C   0  0  0  0  0  0  0  0  0  0  0  0
   -4.8955    4.5227   -2.4797 S   0  0  0  0  0  1  0  0  0  0  0  0
   -3.3283    4.7496   -3.3969 C   0  0  0  0  0  0  0  0  0  0  0  0
   -3.4266    4.3953   -4.8987 C   0  0  2  0  0  0  0  0  0  0  0  0
   -3.9833    3.4460   -4.9770 H   0  0  0  0  0  0  0  0  0  0  0  0
   -2.1313    4.2390   -5.5237 N   0  0  0  0  0  0  0  0  0  0  0  0
   -1.3784    3.1329   -5.4241 C   0  0  0  0  0  0  0  0  0  0  0  0
   -0.0426    3.1837   -6.1420 C   0  0  0  0  0  0  0  0  0  0  0  0
   -1.7056    2.1457   -4.7713 O   0  0  0  0  0  0  0  0  0  0  0  0
   -4.1560    5.4731   -5.7158 C   0  0  0  0  0  0  0  0  0  0  0  0
   -5.3970    5.7531   -5.2878 N   0  0  0  0  0  0  0  0  0  0  0  0
   -6.1770    6.8234   -5.8464 C   0  0  0  0  0  0  0  0  0  0  0  0
   -3.6098    6.0189   -6.6735 O   0  0  0  0  0  0  0  0  0  0  0  0
   -0.2358    1.3742    0.5785 H   0  0  0  0  0  0  0  0  0  0  0  0
    2.0610   -1.5444    2.7399 H   0  0  0  0  0  0  0  0  0  0  0  0
    0.5613   -2.4452    2.5429 H   0  0  0  0  0  0  0  0  0  0  0  0
    4.1984   -4.5165    3.1411 H   0  0  0  0  0  0  0  0  0  0  0  0
    4.0301   -2.9989    4.0504 H   0  0  0  0  0  0  0  0  0  0  0  0
    4.0106   -3.1295    1.0952 H   0  0  0  0  0  0  0  0  0  0  0  0
    2.0947   -2.1816   -1.3647 H   0  0  0  0  0  0  0  0  0  0  0  0
    2.2428   -2.6924    0.2398 H   0  0  0  0  0  0  0  0  0  0  0  0
    4.3157   -1.2251   -3.2761 H   0  0  0  0  0  0  0  0  0  0  0  0
    3.2068   -1.3136   -5.5391 H   0  0  0  0  0  0  0  0  0  0  0  0
   -0.0317    1.1114   -4.0547 H   0  0  0  0  0  0  0  0  0  0  0  0
    1.0646    1.2236   -1.8245 H   0  0  0  0  0  0  0  0  0  0  0  0
    5.1073    1.3403    1.1368 H   0  0  0  0  0  0  0  0  0  0  0  0
    2.2165   -4.9693    1.5759 H   0  0  0  0  0  0  0  0  0  0  0  0
    2.6993   -2.4445    5.5370 H   0  0  0  0  0  0  0  0  0  0  0  0
    1.3568   -1.8844    6.5285 H   0  0  0  0  0  0  0  0  0  0  0  0
    3.0761   -0.0942    4.6921 H   0  0  0  0  0  0  0  0  0  0  0  0
    3.1830   -0.1882    6.4610 H   0  0  0  0  0  0  0  0  0  0  0  0
    1.7045    0.4623    5.7124 H   0  0  0  0  0  0  0  0  0  0  0  0
   -3.7211   -2.6189    1.7055 H   0  0  0  0  0  0  0  0  0  0  0  0
   -3.1292   -0.8621    0.0791 H   0  0  0  0  0  0  0  0  0  0  0  0
   -3.8071    1.1940   -0.0522 H   0  0  0  0  0  0  0  0  0  0  0  0
   -4.8347    1.5534   -2.2638 H   0  0  0  0  0  0  0  0  0  0  0  0
   -3.1439    1.8544   -3.0091 H   0  0  0  0  0  0  0  0  0  0  0  0
   -2.5501    4.1005   -2.9678 H   0  0  0  0  0  0  0  0  0  0  0  0
   -2.9632    5.7880   -3.3090 H   0  0  0  0  0  0  0  0  0  0  0  0
   -1.9166    4.9660   -6.2021 H   0  0  0  0  0  0  0  0  0  0  0  0
    0.1715    2.1957   -6.5684 H   0  0  0  0  0  0  0  0  0  0  0  0
    0.7421    3.4071   -5.4026 H   0  0  0  0  0  0  0  0  0  0  0  0
   -0.0065    3.9490   -6.9300 H   0  0  0  0  0  0  0  0  0  0  0  0
   -5.6399    5.3589   -4.3544 H   0  0  0  0  0  0  0  0  0  0  0  0
   -5.7302    7.1253   -6.8029 H   0  0  0  0  0  0  0  0  0  0  0  0
   -6.2002    7.7025   -5.1796 H   0  0  0  0  0  0  0  0  0  0  0  0
   -7.2155    6.4997   -6.0202 H   0  0  0  0  0  0  0  0  0  0  0  0
  1  2  2  0  0  0  0
  2  3  1  0  0  0  0
  3 55  1  0  0  0  0
  3  4  1  0  0  0  0
  4  5  1  0  0  0  0
  5  6  1  0  0  0  0
  5  7  2  0  0  0  0
  7  8  1  0  0  0  0
  8 36  2  0  0  0  0
  9  8  1  0  0  0  0
  9 34  1  0  0  0  0
 10  9  1  0  0  0  0
 11 33  1  6  0  0  0
 11 12  1  0  0  0  0
 11 10  1  0  0  0  0
 11 29  1  0  0  0  0
 12 58  1  0  0  0  0
 12 59  1  0  0  0  0
 13 14  1  0  0  0  0
 13 12  1  0  0  0  0
 14 28  2  0  0  0  0
 15 14  1  0  0  0  0
 16 15  2  0  0  0  0
 17 16  1  0  0  0  0
 17 62  1  0  0  0  0
 18 26  1  0  0  0  0
 18 16  1  0  0  0  0
 19 18  1  0  0  0  0
 20 63  1  0  0  0  0
 20 19  2  0  0  0  0
 21 20  1  0  0  0  0
 22 21  2  0  0  0  0
 22 24  1  0  0  0  0
 23 22  1  0  0  0  0
 24 25  2  0  0  0  0
 25 19  1  0  0  0  0
 25 66  1  0  0  0  0
 26 27  2  0  0  0  0
 27 15  1  0  0  0  0
 27 67  1  0  0  0  0
 29 30  1  0  0  0  0
 29 32  1  0  0  0  0
 31 29  1  0  0  0  0
 34 35  1  0  0  0  0
 34 70  1  0  0  0  0
 35 73  1  0  0  0  0
 35 72  1  0  0  0  0
 37  7  1  0  0  0  0
 37 38  1  0  0  0  0
 39 37  2  0  0  0  0
 40  4  2  0  0  0  0
 40 39  1  0  0  0  0
 41  2  1  0  0  0  0
 41 76  1  0  0  0  0
 42 41  2  0  0  0  0
 44 80  1  0  0  0  0
 44 79  1  0  0  0  0
 44 43  1  0  0  0  0
 45 46  1  6  0  0  0
 45 44  1  0  0  0  0
 47 48  1  0  0  0  0
 47 45  1  0  0  0  0
 48 50  2  0  0  0  0
 49 48  1  0  0  0  0
 49 83  1  0  0  0  0
 51 52  1  0  0  0  0
 51 45  1  0  0  0  0
 52 85  1  0  0  0  0
 53 52  1  0  0  0  0
 53 87  1  0  0  0  0
 54 51  2  0  0  0  0
 56 10  1  0  0  0  0
 57 10  1  0  0  0  0
 60 13  1  0  0  0  0
 61 17  1  0  0  0  0
 64 21  1  0  0  0  0
 65 24  1  0  0  0  0
 68 33  1  0  0  0  0
 69 34  1  0  0  0  0
 71 35  1  0  0  0  0
 74 39  1  0  0  0  0
 75 40  1  0  0  0  0
 77 42  1  0  0  0  0
 78 42  1  0  0  0  0
 81 47  1  0  0  0  0
 82 49  1  0  0  0  0
 84 49  1  0  0  0  0
 86 53  1  0  0  0  0
 88 53  1  0  0  0  0
M  END
