88
-1 1
O         3.323393  -15.151748    2.342245
C         4.377403  -14.837643    1.751352
N         4.371260  -13.687392    0.959016
C         5.174595  -13.562679   -0.262786
C         4.226117  -12.967052   -1.324587
C         2.833572  -13.137716   -0.716642
C         3.111032  -12.973416    0.775429
H         2.351370  -13.456484    1.395432
C         3.182572  -11.482965    1.154448
N         3.412927  -11.130002    2.455957
C         3.620424   -9.721986    2.722527
C         2.363511   -8.806920    2.779442
C         1.015312   -9.560556    2.802251
N         0.744754  -10.349292    3.972777
C         0.508707  -11.694181    4.088586
C         0.149207  -12.481940    2.906109
C         0.412372  -13.856720    2.835147
N         0.975568  -14.680436    3.766824
N         0.016522  -14.256630    1.590408
C         0.121916  -15.530597    0.972426
C         0.108013  -15.594432   -0.424304
C         0.197488  -16.822251   -1.070751
C         0.301224  -17.981155   -0.312676
F         0.393200  -19.162948   -0.932449
C         0.305176  -17.936495    1.074028
C         0.210318  -16.707478    1.720732
N        -0.489553  -13.224752    0.863766
C        -0.417856  -12.172823    1.641227
O         0.631612  -12.225223    5.189443
C         2.501412   -7.859576    3.988346
F         3.620191   -7.144869    3.927243
F         1.474273   -6.992009    4.029231
F         2.509489   -8.506309    5.165588
O         2.387494   -7.981946    1.645229
C         3.674375  -12.056523    3.557212
C         5.149743  -12.225565    3.886568
O         2.996008  -10.616439    0.312608
C         5.566190  -15.639296    1.880481
C         6.880898  -15.291743    1.627962
S         8.188290  -14.329363    3.448601
C         8.721423  -15.888636    4.229221
C         8.321005  -16.043175    5.711405
H         8.575728  -15.096121    6.219766
N         9.020990  -17.135407    6.351788
C        10.319792  -17.087450    6.721843
C        10.810264  -18.299751    7.500479
O        11.070347  -16.163501    6.458668
C         6.823410  -16.329104    5.944933
N         5.970715  -15.495100    5.332111
C         4.538209  -15.638809    5.424794
O         6.475053  -17.266004    6.659863
H         5.536591  -14.558765   -0.555187
H         6.056538  -12.920395   -0.107426
H         4.338203  -13.470337   -2.295803
H         4.428254  -11.897033   -1.471307
H         2.457757  -14.159742   -0.876958
H         2.097731  -12.419304   -1.095704
H         4.250398   -9.280420    1.938000
H         4.167834   -9.653425    3.670862
H         1.032428  -10.191907    1.908255
H         0.221869   -8.803909    2.652751
H         0.946622   -9.934744    4.875229
H         1.132356  -14.157674    4.627862
H         1.831538  -15.125577    3.407247
H         0.017082  -14.668417   -0.989952
H         0.193152  -16.888398   -2.159747
H         0.385118  -18.863746    1.642961
H         0.208894  -16.663254    2.808138
H        -0.801275  -11.219910    1.279748
H         1.581931   -7.455206    1.628089
H         3.229017  -13.029715    3.317729
H         3.130013  -11.682488    4.437868
H         5.695265  -12.705084    3.063468
H         5.266544  -12.857701    4.777332
H         5.637506  -11.263692    4.109155
H         5.370832  -16.583867    2.394241
H         7.144313  -14.422148    1.029026
H         7.631739  -16.083025    1.612333
H         9.817734  -15.944122    4.198237
H         8.325529  -16.753273    3.665485
H         8.388870  -17.833112    6.738765
H        11.656527  -18.743485    6.957057
H        10.039308  -19.066576    7.658062
H        11.189443  -17.959198    8.474611
H         6.386816  -14.833853    4.659777
H         4.090998  -14.829911    6.029089
H         4.312024  -16.595370    5.913238
H         4.087362  -15.619658    4.421908
