-1 1
 OpenBabel05232414493D

 88 89  0  0  1  0  0  0  0  0999 V2000
    3.3234  -15.1517    2.3422 O   0  0  0  0  0  0  0  0  0  0  0  0
    4.3774  -14.8376    1.7514 C   0  0  0  0  0  0  0  0  0  0  0  0
    4.3713  -13.6874    0.9590 N   0  0  0  0  0  0  0  0  0  0  0  0
    5.1746  -13.5627   -0.2628 C   0  0  0  0  0  0  0  0  0  0  0  0
    4.2261  -12.9671   -1.3246 C   0  0  0  0  0  0  0  0  0  0  0  0
    2.8336  -13.1377   -0.7166 C   0  0  0  0  0  0  0  0  0  0  0  0
    3.1110  -12.9734    0.7754 C   0  0  2  0  0  0  0  0  0  0  0  0
    2.3514  -13.4565    1.3954 H   0  0  0  0  0  0  0  0  0  0  0  0
    3.1826  -11.4830    1.1544 C   0  0  0  0  0  0  0  0  0  0  0  0
    3.4129  -11.1300    2.4560 N   0  0  0  0  0  0  0  0  0  0  0  0
    3.6204   -9.7220    2.7225 C   0  0  0  0  0  0  0  0  0  0  0  0
    2.3635   -8.8069    2.7794 C   0  0  1  0  0  0  0  0  0  0  0  0
    1.0153   -9.5606    2.8023 C   0  0  0  0  0  0  0  0  0  0  0  0
    0.7448  -10.3493    3.9728 N   0  0  0  0  0  0  0  0  0  0  0  0
    0.5087  -11.6942    4.0886 C   0  0  0  0  0  0  0  0  0  0  0  0
    0.1492  -12.4819    2.9061 C   0  0  0  0  0  0  0  0  0  0  0  0
    0.4124  -13.8567    2.8351 C   0  0  0  0  0  0  0  0  0  0  0  0
    0.9756  -14.6804    3.7668 N   0  0  0  0  0  0  0  0  0  0  0  0
    0.0165  -14.2566    1.5904 N   0  0  0  0  0  0  0  0  0  0  0  0
    0.1219  -15.5306    0.9724 C   0  0  0  0  0  0  0  0  0  0  0  0
    0.1080  -15.5944   -0.4243 C   0  0  0  0  0  0  0  0  0  0  0  0
    0.1975  -16.8223   -1.0708 C   0  0  0  0  0  0  0  0  0  0  0  0
    0.3012  -17.9812   -0.3127 C   0  0  0  0  0  0  0  0  0  0  0  0
    0.3932  -19.1629   -0.9324 F   0  0  0  0  0  0  0  0  0  0  0  0
    0.3052  -17.9365    1.0740 C   0  0  0  0  0  0  0  0  0  0  0  0
    0.2103  -16.7075    1.7207 C   0  0  0  0  0  0  0  0  0  0  0  0
   -0.4896  -13.2248    0.8638 N   0  0  0  0  0  0  0  0  0  0  0  0
   -0.4179  -12.1728    1.6412 C   0  0  0  0  0  0  0  0  0  0  0  0
    0.6316  -12.2252    5.1894 O   0  0  0  0  0  0  0  0  0  0  0  0
    2.5014   -7.8596    3.9883 C   0  0  0  0  0  0  0  0  0  0  0  0
    3.6202   -7.1449    3.9272 F   0  0  0  0  0  0  0  0  0  0  0  0
    1.4743   -6.9920    4.0292 F   0  0  0  0  0  0  0  0  0  0  0  0
    2.5095   -8.5063    5.1656 F   0  0  0  0  0  0  0  0  0  0  0  0
    2.3875   -7.9819    1.6452 O   0  0  0  0  0  0  0  0  0  0  0  0
    3.6744  -12.0565    3.5572 C   0  0  0  0  0  0  0  0  0  0  0  0
    5.1497  -12.2256    3.8866 C   0  0  0  0  0  0  0  0  0  0  0  0
    2.9960  -10.6164    0.3126 O   0  0  0  0  0  0  0  0  0  0  0  0
    5.5662  -15.6393    1.8805 C   0  0  0  0  0  3  0  0  0  0  0  0
    6.8809  -15.2917    1.6280 C   0  0  0  0  0  3  0  0  0  0  0  0
    8.1883  -14.3294    3.4486 S   0  0  0  0  0  1  0  0  0  0  0  0
    8.7214  -15.8886    4.2292 C   0  0  0  0  0  0  0  0  0  0  0  0
    8.3210  -16.0432    5.7114 C   0  0  2  0  0  0  0  0  0  0  0  0
    8.5757  -15.0961    6.2198 H   0  0  0  0  0  0  0  0  0  0  0  0
    9.0210  -17.1354    6.3518 N   0  0  0  0  0  0  0  0  0  0  0  0
   10.3198  -17.0875    6.7218 C   0  0  0  0  0  0  0  0  0  0  0  0
   10.8103  -18.2998    7.5005 C   0  0  0  0  0  0  0  0  0  0  0  0
   11.0703  -16.1635    6.4587 O   0  0  0  0  0  0  0  0  0  0  0  0
    6.8234  -16.3291    5.9449 C   0  0  0  0  0  0  0  0  0  0  0  0
    5.9707  -15.4951    5.3321 N   0  0  0  0  0  0  0  0  0  0  0  0
    4.5382  -15.6388    5.4248 C   0  0  0  0  0  0  0  0  0  0  0  0
    6.4751  -17.2660    6.6599 O   0  0  0  0  0  0  0  0  0  0  0  0
    5.5366  -14.5588   -0.5552 H   0  0  0  0  0  0  0  0  0  0  0  0
    6.0565  -12.9204   -0.1074 H   0  0  0  0  0  0  0  0  0  0  0  0
    4.3382  -13.4703   -2.2958 H   0  0  0  0  0  0  0  0  0  0  0  0
    4.4283  -11.8970   -1.4713 H   0  0  0  0  0  0  0  0  0  0  0  0
    2.4578  -14.1597   -0.8770 H   0  0  0  0  0  0  0  0  0  0  0  0
    2.0977  -12.4193   -1.0957 H   0  0  0  0  0  0  0  0  0  0  0  0
    4.2504   -9.2804    1.9380 H   0  0  0  0  0  0  0  0  0  0  0  0
    4.1678   -9.6534    3.6709 H   0  0  0  0  0  0  0  0  0  0  0  0
    1.0324  -10.1919    1.9083 H   0  0  0  0  0  0  0  0  0  0  0  0
    0.2219   -8.8039    2.6528 H   0  0  0  0  0  0  0  0  0  0  0  0
    0.9466   -9.9347    4.8752 H   0  0  0  0  0  0  0  0  0  0  0  0
    1.1324  -14.1577    4.6279 H   0  0  0  0  0  0  0  0  0  0  0  0
    1.8315  -15.1256    3.4072 H   0  0  0  0  0  0  0  0  0  0  0  0
    0.0171  -14.6684   -0.9900 H   0  0  0  0  0  0  0  0  0  0  0  0
    0.1932  -16.8884   -2.1597 H   0  0  0  0  0  0  0  0  0  0  0  0
    0.3851  -18.8637    1.6430 H   0  0  0  0  0  0  0  0  0  0  0  0
    0.2089  -16.6633    2.8081 H   0  0  0  0  0  0  0  0  0  0  0  0
   -0.8013  -11.2199    1.2797 H   0  0  0  0  0  0  0  0  0  0  0  0
    1.5819   -7.4552    1.6281 H   0  0  0  0  0  0  0  0  0  0  0  0
    3.2290  -13.0297    3.3177 H   0  0  0  0  0  0  0  0  0  0  0  0
    3.1300  -11.6825    4.4379 H   0  0  0  0  0  0  0  0  0  0  0  0
    5.6953  -12.7051    3.0635 H   0  0  0  0  0  0  0  0  0  0  0  0
    5.2665  -12.8577    4.7773 H   0  0  0  0  0  0  0  0  0  0  0  0
    5.6375  -11.2637    4.1092 H   0  0  0  0  0  0  0  0  0  0  0  0
    5.3708  -16.5839    2.3942 H   0  0  0  0  0  0  0  0  0  0  0  0
    7.1443  -14.4221    1.0290 H   0  0  0  0  0  0  0  0  0  0  0  0
    7.6317  -16.0830    1.6123 H   0  0  0  0  0  0  0  0  0  0  0  0
    9.8177  -15.9441    4.1982 H   0  0  0  0  0  0  0  0  0  0  0  0
    8.3255  -16.7533    3.6655 H   0  0  0  0  0  0  0  0  0  0  0  0
    8.3889  -17.8331    6.7388 H   0  0  0  0  0  0  0  0  0  0  0  0
   11.6565  -18.7435    6.9571 H   0  0  0  0  0  0  0  0  0  0  0  0
   10.0393  -19.0666    7.6581 H   0  0  0  0  0  0  0  0  0  0  0  0
   11.1894  -17.9592    8.4746 H   0  0  0  0  0  0  0  0  0  0  0  0
    6.3868  -14.8339    4.6598 H   0  0  0  0  0  0  0  0  0  0  0  0
    4.0910  -14.8299    6.0291 H   0  0  0  0  0  0  0  0  0  0  0  0
    4.3120  -16.5954    5.9132 H   0  0  0  0  0  0  0  0  0  0  0  0
    4.0874  -15.6197    4.4219 H   0  0  0  0  0  0  0  0  0  0  0  0
  2 38  1  0  0  0  0
  2  1  2  0  0  0  0
  3  2  1  0  0  0  0
  4 53  1  0  0  0  0
  4  3  1  0  0  0  0
  5  6  1  0  0  0  0
  5  4  1  0  0  0  0
  6  7  1  0  0  0  0
  7  3  1  0  0  0  0
  7  9  1  0  0  0  0
  7  8  1  1  0  0  0
  9 10  1  0  0  0  0
 10 11  1  0  0  0  0
 10 35  1  0  0  0  0
 11 12  1  0  0  0  0
 11 59  1  0  0  0  0
 12 34  1  6  0  0  0
 12 13  1  0  0  0  0
 12 30  1  0  0  0  0
 13 14  1  0  0  0  0
 14 15  1  0  0  0  0
 14 62  1  0  0  0  0
 15 29  2  0  0  0  0
 16 15  1  0  0  0  0
 17 16  2  0  0  0  0
 17 18  1  0  0  0  0
 18 63  1  0  0  0  0
 19 17  1  0  0  0  0
 20 19  1  0  0  0  0
 20 26  1  0  0  0  0
 21 20  2  0  0  0  0
 22 21  1  0  0  0  0
 22 23  2  0  0  0  0
 23 25  1  0  0  0  0
 24 23  1  0  0  0  0
 25 67  1  0  0  0  0
 25 26  2  0  0  0  0
 26 68  1  0  0  0  0
 27 19  1  0  0  0  0
 27 28  2  0  0  0  0
 28 16  1  0  0  0  0
 30 32  1  0  0  0  0
 30 33  1  0  0  0  0
 31 30  1  0  0  0  0
 35 36  1  0  0  0  0
 35 72  1  0  0  0  0
 36 75  1  0  0  0  0
 36 74  1  0  0  0  0
 37  9  2  0  0  0  0
 38 76  1  0  0  0  0
 39 38  1  0  0  0  0
 40 41  1  0  0  0  0
 41 42  1  0  0  0  0
 42 48  1  0  0  0  0
 42 43  1  1  0  0  0
 42 44  1  0  0  0  0
 44 45  1  0  0  0  0
 44 81  1  0  0  0  0
 45 46  1  0  0  0  0
 46 83  1  0  0  0  0
 46 84  1  0  0  0  0
 47 45  2  0  0  0  0
 48 51  2  0  0  0  0
 49 50  1  0  0  0  0
 49 48  1  0  0  0  0
 50 87  1  0  0  0  0
 50 86  1  0  0  0  0
 52  4  1  0  0  0  0
 54  5  1  0  0  0  0
 55  5  1  0  0  0  0
 56  6  1  0  0  0  0
 57  6  1  0  0  0  0
 58 11  1  0  0  0  0
 60 13  1  0  0  0  0
 61 13  1  0  0  0  0
 64 18  1  0  0  0  0
 65 21  1  0  0  0  0
 66 22  1  0  0  0  0
 69 28  1  0  0  0  0
 70 34  1  0  0  0  0
 71 35  1  0  0  0  0
 73 36  1  0  0  0  0
 77 39  1  0  0  0  0
 78 39  1  0  0  0  0
 79 41  1  0  0  0  0
 80 41  1  0  0  0  0
 82 46  1  0  0  0  0
 85 49  1  0  0  0  0
 88 50  1  0  0  0  0
M  END
