88
-1 1
O        -0.412380   -1.626301   -0.592943
C         0.604142   -1.288021   -1.207158
N         0.593691   -0.167919   -1.999311
C         1.472789    0.057288   -3.152997
C         0.542486    0.588252   -4.268161
C        -0.872766    0.403852   -3.710798
C        -0.657347    0.555254   -2.206968
H        -1.440352    0.073408   -1.614799
C        -0.582530    2.047280   -1.820380
N        -0.314678    2.402109   -0.529844
C        -0.104809    3.812840   -0.272475
C        -1.361861    4.725511   -0.193075
C        -2.708102    3.969755   -0.128493
N        -2.947956    3.193920    1.057162
C        -3.174141    1.851257    1.201386
C        -3.533978    1.031053    0.039787
C        -3.277087   -0.346409    0.014960
N        -2.724230   -1.142123    0.976627
N        -3.678507   -0.787022   -1.213492
C        -3.572104   -2.081480   -1.785926
C        -3.521470   -2.191360   -3.178550
C        -3.425492   -3.441924   -3.778944
C        -3.379488   -4.576008   -2.978243
F        -3.280127   -5.778672   -3.553033
C        -3.441821   -4.485008   -1.594879
C        -3.545086   -3.233042   -0.995120
N        -4.181499    0.220964   -1.975060
C        -4.104966    1.298664   -1.233239
O        -3.040275    1.343447    2.311812
C        -1.194429    5.684368    1.003295
F        -0.078316    6.398032    0.907287
F        -2.221511    6.551454    1.058474
F        -1.158907    5.048564    2.185009
O        -1.368712    5.538016   -1.336215
C        -0.032297    1.480874    0.572450
C         1.447376    1.307242    0.878491
O        -0.797509    2.905858   -2.662853
C         1.841162   -2.078840   -1.053703
C         3.103002   -1.634782   -1.162179
S         4.751343   -0.421688    1.167259
C         5.324591   -2.094395    1.635717
C         4.811393   -2.611738    2.996821
H         5.002192   -1.813593    3.736586
N         5.479898   -3.828181    3.411452
C         6.739894   -3.883055    3.893320
C         7.179963   -5.259769    4.375701
O         7.499876   -2.931161    3.943747
C         3.307129   -2.948002    3.032320
N         2.493854   -1.980946    2.583181
C         1.061810   -2.122816    2.556487
O         2.917433   -4.032990    3.463654
H         1.961536   -0.885907   -3.428840
H         2.265530    0.782145   -2.909820
H         0.699984    0.053144   -5.215191
H         0.727372    1.655947   -4.447815
H        -1.239432   -0.616808   -3.896900
H        -1.594584    1.125450   -4.108520
H         0.508970    4.251846   -1.071010
H         0.462824    3.883833    0.663520
H        -2.713289    3.329881   -1.016227
H        -3.506225    4.723298   -0.265421
H        -2.742676    3.627138    1.950240
H        -2.553101   -0.592850    1.818496
H        -1.893340   -1.637588    0.638371
H        -3.572263   -1.283452   -3.778154
H        -3.381507   -3.545830   -4.864098
H        -3.409908   -5.394216   -0.993041
H        -3.600744   -3.151491    0.089081
H        -4.486598    2.239557   -1.626353
H        -2.161281    6.084437   -1.323676
H        -0.495975    0.512107    0.351780
H        -0.555781    1.865194    1.460994
H         1.995622    0.860202    0.039842
H         1.580826    0.643386    1.742561
H         1.934288    2.261192    1.131883
H         1.645032   -3.084737   -0.673692
H         3.367949   -0.623841   -1.468057
H         3.946066   -2.290518   -0.945147
H         6.420719   -2.090877    1.712660
H         5.055873   -2.847030    0.869505
H         4.833719   -4.601303    3.553362
H         8.062244   -5.565778    3.795352
H         6.403020   -6.031662    4.285017
H         7.492071   -5.178583    5.426741
H         2.968305   -1.188717    2.102101
H         0.573219   -1.343231    3.166777
H         0.799742   -3.104789    2.971987
H         0.667729   -2.053735    1.530930
