102
-1 1
C        -1.209194    0.869747   11.341840
C        -2.196255    2.015634   11.181195
O        -2.064385    2.668138    9.939882
C        -1.234894    3.744700    9.759212
O        -1.317646    4.313433    8.688419
C        -0.305080    4.092900   10.814105
C         0.401866    5.272446   10.707774
S        -0.751120    7.172045   11.802564
C         0.512635    8.469842   11.685113
C         1.377890    8.635071   12.949115
H         1.694663    7.650607   13.305152
N         0.621347    9.230883   14.022620
C         0.397665    8.637351   15.211656
C        -0.554280    9.366198   16.137121
O         0.903559    7.573559   15.545949
C         2.598903    9.492879   12.622507
N         3.720231    8.791308   12.340585
C         4.946987    9.433883   11.938757
O         2.516704   10.710991   12.552289
C         1.748181    5.449732   11.371187
H         2.066285    6.500337   11.304183
N         1.646068    5.095724   12.779000
C         2.604318    5.389469   13.672962
C         2.305815    4.924613   15.098124
H         1.255712    5.143195   15.328220
N         2.459556    3.463392   15.183244
C         3.630375    2.893570   14.758560
C         3.936861    1.602952   15.049484
C         3.051610    0.843973   15.868605
C         1.892135    1.410255   16.310092
N         0.944103    0.855583   17.174610
C         1.120606    0.025337   18.240156
O         2.339384   -0.546976   18.247154
C         2.703042   -1.259184   19.426109
C         3.294101   -0.334879   20.462101
C         4.669034   -0.079762   20.479158
C         5.215207    0.813442   21.399051
C         4.387241    1.462235   22.314486
C         3.015250    1.213300   22.305116
C         2.469768    0.322741   21.382359
O         0.273228   -0.185155   19.077109
C         1.497091    2.761051   15.895658
O         0.413074    3.242482   16.195861
C         3.197218    5.606328   16.143139
C         2.869413    5.085944   17.520597
C         1.756093    5.585010   18.207670
C         1.357619    5.016286   19.414276
C         2.057757    3.933366   19.948535
C         3.169590    3.430293   19.275939
C         3.574478    4.011439   18.073595
O         3.665494    5.933164   13.383267
C         2.830281    4.591554   10.677813
C         3.373462    5.145523    9.350069
H         4.139982    4.434177    9.008348
C         2.376906    5.461092    8.218287
C         2.164583    6.987075    8.280193
N         3.348275    7.450679    8.977488
C         4.075350    6.482977    9.596920
O         5.084761    6.654981   10.250366
H        -1.316135    0.157133   10.510342
H        -1.388158    0.335002   12.287452
H        -0.171614    1.234578   11.344382
H        -2.110936    2.732999   12.014085
H        -3.225191    1.622286   11.201274
H        -0.160491    3.440959   11.676027
H         0.259879    5.808502    9.773655
H         0.053439    9.445919   11.453074
H         1.191612    8.259731   10.839386
H         0.213608   10.136410   13.831612
H        -0.120775    9.391901   17.145709
H        -1.486986    8.785598   16.184505
H        -0.789315   10.388268   15.809651
H         3.747493    7.788618   12.534540
H         4.705684   10.374097   11.423469
H         5.494349    8.758502   11.267632
H         5.586270    9.682346   12.803890
H         0.703151    4.952028   13.129714
H         4.288124    3.551251   14.186975
H         4.863769    1.168856   14.677068
H         3.311979   -0.169007   16.168653
H         0.099553    1.424503   17.226470
H         3.446130   -1.997206   19.096540
H         1.820862   -1.781429   19.820729
H         5.318734   -0.581173   19.756551
H         6.289663    1.009399   21.397048
H         4.811089    2.169107   23.031037
H         2.362485    1.724516   23.016247
H         1.392569    0.145990   21.349153
H         3.002548    6.683305   16.069057
H         4.253495    5.432666   15.888068
H         1.186316    6.399980   17.751911
H         0.478215    5.406815   19.932178
H         1.733486    3.471646   20.883956
H         3.715518    2.576287   19.683945
H         4.435572    3.601322   17.537370
H         2.429472    3.578472   10.522385
H         3.692508    4.523917   11.357593
H         1.429277    4.909605    8.285199
H         2.838151    5.203796    7.252910
H         1.245067    7.260192    8.824642
H         2.095076    7.432604    7.275944
H         3.544827    8.427201    9.157317
