-1 1
 OpenBabel05232413493D

102104  0  0  1  0  0  0  0  0999 V2000
   -2.2445   -3.7515   -2.4217 C   0  0  0  0  0  0  0  0  0  0  0  0
   -3.0650   -2.6274   -3.0235 C   0  0  0  0  0  0  0  0  0  0  0  0
   -2.8164   -2.4756   -4.4258 O   0  0  0  0  0  0  0  0  0  0  0  0
   -1.9613   -1.5637   -4.9024 C   0  0  0  0  0  0  0  0  0  0  0  0
   -1.9838   -1.2899   -6.0780 O   0  0  0  0  0  0  0  0  0  0  0  0
   -0.9813   -0.9582   -3.9539 C   0  0  0  0  0  0  0  0  0  0  0  0
   -0.4182    0.2112   -4.2603 C   0  0  0  0  0  0  0  0  0  0  0  0
   -2.4786    0.4328   -1.0987 S   0  0  0  0  0  1  0  0  0  0  0  0
   -2.2140    2.0885   -1.8187 C   0  0  0  0  0  0  0  0  0  0  0  0
   -1.2297    2.9369   -1.0016 C   0  0  2  0  0  0  0  0  0  0  0  0
   -0.2850    2.3920   -0.9275 H   0  0  0  0  0  0  0  0  0  0  0  0
   -1.7347    3.1343    0.3383 N   0  0  0  0  0  0  0  0  0  0  0  0
   -0.8862    3.4112    1.3565 C   0  0  0  0  0  0  0  0  0  0  0  0
   -1.4637    3.2996    2.7483 C   0  0  0  0  0  0  0  0  0  0  0  0
    0.2893    3.7067    1.1666 O   0  0  0  0  0  0  0  0  0  0  0  0
   -0.9161    4.2594   -1.7058 C   0  0  0  0  0  0  0  0  0  0  0  0
    0.3605    4.3361   -2.1792 N   0  0  0  0  0  0  0  0  0  0  0  0
    0.8457    5.5343   -2.8139 C   0  0  0  0  0  0  0  0  0  0  0  0
   -1.7447    5.1303   -1.8974 O   0  0  0  0  0  0  0  0  0  0  0  0
    0.6661    0.9105   -3.4902 C   0  0  1  0  0  0  0  0  0  0  0  0
    0.4588    1.9983   -3.4880 H   0  0  0  0  0  0  0  0  0  0  0  0
    0.6806    0.4364   -2.1118 N   0  0  0  0  0  0  0  0  0  0  0  0
    1.5130    0.9883   -1.1964 C   0  0  0  0  0  0  0  0  0  0  0  0
    1.2909    0.5935    0.2665 C   0  0  1  0  0  0  0  0  0  0  0  0
    0.6153    1.3606    0.6716 H   0  0  0  0  0  0  0  0  0  0  0  0
    0.6016   -0.6779    0.4612 N   0  0  0  0  0  0  0  0  0  0  0  0
    1.0594   -1.8086   -0.1574 C   0  0  0  0  0  0  0  0  0  0  0  0
    0.5286   -3.0312    0.1024 C   0  0  0  0  0  0  0  0  0  0  0  0
   -0.5100   -3.1452    1.0715 C   0  0  0  0  0  0  0  0  0  0  0  0
   -0.9512   -2.0308    1.7178 C   0  0  0  0  0  0  0  0  0  0  0  0
   -1.9113   -1.9770    2.7338 N   0  0  0  0  0  0  0  0  0  0  0  0
   -2.0654   -2.8008    3.8061 C   0  0  0  0  0  0  0  0  0  0  0  0
   -1.3798   -3.9534    3.6689 O   0  0  0  0  0  0  0  0  0  0  0  0
   -1.2877   -4.7795    4.8235 C   0  0  0  0  0  0  0  0  0  0  0  0
   -0.1323   -4.3692    5.7047 C   0  0  0  0  0  0  0  0  0  0  0  0
    1.1280   -4.9516    5.5369 C   0  0  0  0  0  0  0  0  0  0  0  0
    2.2079   -4.5506    6.3216 C   0  0  0  0  0  0  0  0  0  0  0  0
    2.0369   -3.5571    7.2851 C   0  0  0  0  0  0  0  0  0  0  0  0
    0.7844   -2.9685    7.4574 C   0  0  0  0  0  0  0  0  0  0  0  0
   -0.2939   -3.3688    6.6706 C   0  0  0  0  0  0  0  0  0  0  0  0
   -2.7464   -2.5361    4.7706 O   0  0  0  0  0  0  0  0  0  0  0  0
   -0.4096   -0.7034    1.4178 C   0  0  0  0  0  0  0  0  0  0  0  0
   -0.7905    0.2974    2.0040 O   0  0  0  0  0  0  0  0  0  0  0  0
    2.5924    0.6584    1.0832 C   0  0  0  0  0  0  0  0  0  0  0  0
    2.3069    0.4168    2.5437 C   0  0  0  0  0  0  0  0  0  0  0  0
    1.8240    1.4593    3.3434 C   0  0  0  0  0  0  0  0  0  0  0  0
    1.4171    1.2129    4.6515 C   0  0  0  0  0  0  0  0  0  0  0  0
    1.4722   -0.0796    5.1756 C   0  0  0  0  0  0  0  0  0  0  0  0
    1.9495   -1.1250    4.3881 C   0  0  0  0  0  0  0  0  0  0  0  0
    2.3726   -0.8717    3.0829 C   0  0  0  0  0  0  0  0  0  0  0  0
    2.3797    1.8092   -1.4602 O   0  0  0  0  0  0  0  0  0  0  0  0
    2.0318    0.6891   -4.1882 C   0  0  0  0  0  0  0  0  0  0  0  0
    2.3111    1.5374   -5.4407 C   0  0  1  0  0  0  0  0  0  0  0  0
    3.3262    1.2677   -5.7676 H   0  0  0  0  0  0  0  0  0  0  0  0
    1.3258    1.4679   -6.6227 C   0  0  0  0  0  0  0  0  0  0  0  0
    0.4432    2.7239   -6.4859 C   0  0  0  0  0  0  0  0  0  0  0  0
    1.2842    3.6189   -5.7229 N   0  0  0  0  0  0  0  0  0  0  0  0
    2.3367    3.0298   -5.0883 C   0  0  0  0  0  0  0  0  0  0  0  0
    3.1349    3.5891   -4.3686 O   0  0  0  0  0  0  0  0  0  0  0  0
   -2.4068   -4.6958   -2.9638 H   0  0  0  0  0  0  0  0  0  0  0  0
   -2.5333   -3.8923   -1.3693 H   0  0  0  0  0  0  0  0  0  0  0  0
   -1.1678   -3.5244   -2.4362 H   0  0  0  0  0  0  0  0  0  0  0  0
   -2.9082   -1.6698   -2.4958 H   0  0  0  0  0  0  0  0  0  0  0  0
   -4.1365   -2.8640   -2.9561 H   0  0  0  0  0  0  0  0  0  0  0  0
   -0.7397   -1.4756   -3.0258 H   0  0  0  0  0  0  0  0  0  0  0  0
   -0.7487    0.6838   -5.1856 H   0  0  0  0  0  0  0  0  0  0  0  0
   -3.1617    2.6456   -1.8979 H   0  0  0  0  0  0  0  0  0  0  0  0
   -1.8205    2.0112   -2.8483 H   0  0  0  0  0  0  0  0  0  0  0  0
   -2.5667    2.5904    0.5538 H   0  0  0  0  0  0  0  0  0  0  0  0
   -0.9727    4.0352    3.3981 H   0  0  0  0  0  0  0  0  0  0  0  0
   -1.2365    2.2866    3.1118 H   0  0  0  0  0  0  0  0  0  0  0  0
   -2.5520    3.4493    2.7677 H   0  0  0  0  0  0  0  0  0  0  0  0
    1.0533    3.6885   -1.8120 H   0  0  0  0  0  0  0  0  0  0  0  0
    0.1143    5.8786   -3.5617 H   0  0  0  0  0  0  0  0  0  0  0  0
    1.8082    5.3133   -3.2960 H   0  0  0  0  0  0  0  0  0  0  0  0
    0.9818    6.3603   -2.0941 H   0  0  0  0  0  0  0  0  0  0  0  0
   -0.2480    0.1345   -1.7380 H   0  0  0  0  0  0  0  0  0  0  0  0
    1.8613   -1.6583   -0.8797 H   0  0  0  0  0  0  0  0  0  0  0  0
    0.9039   -3.9089   -0.4221 H   0  0  0  0  0  0  0  0  0  0  0  0
   -0.9315   -4.1191    1.3155 H   0  0  0  0  0  0  0  0  0  0  0  0
   -2.2599   -1.0326    2.8891 H   0  0  0  0  0  0  0  0  0  0  0  0
   -1.1358   -5.7964    4.4382 H   0  0  0  0  0  0  0  0  0  0  0  0
   -2.2363   -4.7377    5.3763 H   0  0  0  0  0  0  0  0  0  0  0  0
    1.2660   -5.7259    4.7772 H   0  0  0  0  0  0  0  0  0  0  0  0
    3.1880   -5.0105    6.1765 H   0  0  0  0  0  0  0  0  0  0  0  0
    2.8829   -3.2353    7.8964 H   0  0  0  0  0  0  0  0  0  0  0  0
    0.6470   -2.1852    8.2063 H   0  0  0  0  0  0  0  0  0  0  0  0
   -1.2710   -2.8939    6.7815 H   0  0  0  0  0  0  0  0  0  0  0  0
    3.0235    1.6530    0.9138 H   0  0  0  0  0  0  0  0  0  0  0  0
    3.3101   -0.0836    0.6960 H   0  0  0  0  0  0  0  0  0  0  0  0
    1.7067    2.4559    2.9062 H   0  0  0  0  0  0  0  0  0  0  0  0
    1.0260    2.0331    5.2585 H   0  0  0  0  0  0  0  0  0  0  0  0
    1.1304   -0.2789    6.1939 H   0  0  0  0  0  0  0  0  0  0  0  0
    1.9791   -2.1414    4.7877 H   0  0  0  0  0  0  0  0  0  0  0  0
    2.7257   -1.6983    2.4586 H   0  0  0  0  0  0  0  0  0  0  0  0
    2.1273   -0.3797   -4.4392 H   0  0  0  0  0  0  0  0  0  0  0  0
    2.8152    0.9457   -3.4636 H   0  0  0  0  0  0  0  0  0  0  0  0
    0.7371    0.5418   -6.6605 H   0  0  0  0  0  0  0  0  0  0  0  0
    1.8899    1.5325   -7.5652 H   0  0  0  0  0  0  0  0  0  0  0  0
   -0.5058    2.5197   -5.9610 H   0  0  0  0  0  0  0  0  0  0  0  0
    0.1864    3.1532   -7.4666 H   0  0  0  0  0  0  0  0  0  0  0  0
    1.0190    4.5670   -5.4883 H   0  0  0  0  0  0  0  0  0  0  0  0
  1 61  1  0  0  0  0
  2 64  1  0  0  0  0
  2 63  1  0  0  0  0
  2  1  1  0  0  0  0
  3  2  1  0  0  0  0
  4  3  1  0  0  0  0
  4  6  1  0  0  0  0
  5  4  2  0  0  0  0
  6 65  1  0  0  0  0
  7  6  2  0  0  0  0
  7 20  1  0  0  0  0
  9  8  1  0  0  0  0
  9 10  1  0  0  0  0
 10 11  1  1  0  0  0
 10 12  1  0  0  0  0
 12 69  1  0  0  0  0
 12 13  1  0  0  0  0
 13 14  1  0  0  0  0
 14 72  1  0  0  0  0
 14 71  1  0  0  0  0
 14 70  1  0  0  0  0
 15 13  2  0  0  0  0
 16 10  1  0  0  0  0
 17 73  1  0  0  0  0
 17 16  1  0  0  0  0
 18 17  1  0  0  0  0
 18 76  1  0  0  0  0
 19 16  2  0  0  0  0
 20 21  1  1  0  0  0
 20 22  1  0  0  0  0
 22 77  1  0  0  0  0
 22 23  1  0  0  0  0
 23 24  1  0  0  0  0
 24 26  1  0  0  0  0
 24 25  1  1  0  0  0
 24 44  1  0  0  0  0
 26 42  1  0  0  0  0
 27 28  2  0  0  0  0
 27 26  1  0  0  0  0
 28 29  1  0  0  0  0
 29 80  1  0  0  0  0
 29 30  2  0  0  0  0
 30 31  1  0  0  0  0
 31 81  1  0  0  0  0
 31 32  1  0  0  0  0
 32 41  2  0  0  0  0
 33 32  1  0  0  0  0
 33 34  1  0  0  0  0
 34 83  1  0  0  0  0
 34 35  1  0  0  0  0
 35 40  1  0  0  0  0
 36 35  2  0  0  0  0
 36 37  1  0  0  0  0
 37 38  2  0  0  0  0
 38 39  1  0  0  0  0
 38 86  1  0  0  0  0
 39 87  1  0  0  0  0
 40 88  1  0  0  0  0
 40 39  2  0  0  0  0
 42 30  1  0  0  0  0
 42 43  2  0  0  0  0
 44 45  1  0  0  0  0
 45 50  2  0  0  0  0
 45 46  1  0  0  0  0
 46 47  2  0  0  0  0
 47 48  1  0  0  0  0
 47 92  1  0  0  0  0
 48 93  1  0  0  0  0
 49 94  1  0  0  0  0
 49 48  2  0  0  0  0
 50 49  1  0  0  0  0
 51 23  2  0  0  0  0
 52 20  1  0  0  0  0
 52 97  1  0  0  0  0
 53 54  1  6  0  0  0
 53 58  1  0  0  0  0
 53 52  1  0  0  0  0
 55 56  1  0  0  0  0
 55 53  1  0  0  0  0
 56100  1  0  0  0  0
 56 57  1  0  0  0  0
 57102  1  0  0  0  0
 57 58  1  0  0  0  0
 58 59  2  0  0  0  0
 60  1  1  0  0  0  0
 62  1  1  0  0  0  0
 66  7  1  0  0  0  0
 67  9  1  0  0  0  0
 68  9  1  0  0  0  0
 74 18  1  0  0  0  0
 75 18  1  0  0  0  0
 78 27  1  0  0  0  0
 79 28  1  0  0  0  0
 82 34  1  0  0  0  0
 84 36  1  0  0  0  0
 85 37  1  0  0  0  0
 89 44  1  0  0  0  0
 90 44  1  0  0  0  0
 91 46  1  0  0  0  0
 95 50  1  0  0  0  0
 96 52  1  0  0  0  0
 98 55  1  0  0  0  0
 99 55  1  0  0  0  0
101 56  1  0  0  0  0
M  END
