102
-1 1
C        -2.244480   -3.751531   -2.421673
C        -3.064997   -2.627396   -3.023540
O        -2.816363   -2.475631   -4.425763
C        -1.961341   -1.563734   -4.902445
O        -1.983814   -1.289896   -6.078010
C        -0.981286   -0.958170   -3.953950
C        -0.418185    0.211215   -4.260287
S        -2.478592    0.432789   -1.098684
C        -2.214018    2.088532   -1.818676
C        -1.229674    2.936914   -1.001620
H        -0.284956    2.392015   -0.927452
N        -1.734684    3.134331    0.338274
C        -0.886161    3.411217    1.356517
C        -1.463716    3.299609    2.748283
O         0.289280    3.706713    1.166585
C        -0.916056    4.259427   -1.705805
N         0.360496    4.336089   -2.179171
C         0.845707    5.534275   -2.813926
O        -1.744741    5.130325   -1.897445
C         0.666051    0.910518   -3.490233
H         0.458797    1.998309   -3.488007
N         0.680592    0.436363   -2.111757
C         1.513009    0.988276   -1.196351
C         1.290897    0.593538    0.266539
H         0.615253    1.360565    0.671610
N         0.601622   -0.677852    0.461244
C         1.059418   -1.808614   -0.157391
C         0.528568   -3.031172    0.102355
C        -0.509960   -3.145170    1.071529
C        -0.951207   -2.030758    1.717782
N        -1.911301   -1.977047    2.733850
C        -2.065394   -2.800813    3.806111
O        -1.379847   -3.953418    3.668865
C        -1.287731   -4.779534    4.823508
C        -0.132256   -4.369152    5.704683
C         1.127963   -4.951639    5.536880
C         2.207918   -4.550597    6.321645
C         2.036893   -3.557131    7.285080
C         0.784408   -2.968476    7.457368
C        -0.293850   -3.368758    6.670575
O        -2.746443   -2.536103    4.770638
C        -0.409637   -0.703406    1.417797
O        -0.790498    0.297439    2.003961
C         2.592396    0.658383    1.083196
C         2.306855    0.416785    2.543700
C         1.823985    1.459323    3.343425
C         1.417114    1.212910    4.651456
C         1.472193   -0.079573    5.175588
C         1.949493   -1.124960    4.388139
C         2.372640   -0.871740    3.082887
O         2.379747    1.809199   -1.460181
C         2.031821    0.689109   -4.188175
C         2.311052    1.537368   -5.440672
H         3.326218    1.267679   -5.767563
C         1.325833    1.467864   -6.622682
C         0.443227    2.723933   -6.485905
N         1.284155    3.618940   -5.722859
C         2.336709    3.029822   -5.088289
O         3.134885    3.589129   -4.368562
H        -2.406757   -4.695788   -2.963782
H        -2.533295   -3.892279   -1.369325
H        -1.167797   -3.524363   -2.436233
H        -2.908172   -1.669758   -2.495790
H        -4.136473   -2.864030   -2.956129
H        -0.739719   -1.475605   -3.025751
H        -0.748744    0.683760   -5.185567
H        -3.161737    2.645632   -1.897900
H        -1.820521    2.011151   -2.848268
H        -2.566663    2.590377    0.553752
H        -0.972687    4.035189    3.398124
H        -1.236515    2.286571    3.111789
H        -2.552036    3.449308    2.767737
H         1.053290    3.688513   -1.812027
H         0.114301    5.878596   -3.561683
H         1.808223    5.313301   -3.296012
H         0.981781    6.360287   -2.094097
H        -0.248044    0.134494   -1.737953
H         1.861299   -1.658333   -0.879662
H         0.903936   -3.908895   -0.422089
H        -0.931464   -4.119091    1.315531
H        -2.259913   -1.032605    2.889052
H        -1.135760   -5.796448    4.438152
H        -2.236305   -4.737710    5.376348
H         1.265967   -5.725926    4.777170
H         3.187994   -5.010452    6.176517
H         2.882878   -3.235303    7.896371
H         0.647030   -2.185217    8.206301
H        -1.271037   -2.893897    6.781462
H         3.023467    1.653044    0.913768
H         3.310087   -0.083566    0.695989
H         1.706729    2.455915    2.906220
H         1.026000    2.033121    5.258483
H         1.130389   -0.278938    6.193920
H         1.979126   -2.141428    4.787742
H         2.725703   -1.698304    2.458644
H         2.127302   -0.379679   -4.439182
H         2.815248    0.945714   -3.463640
H         0.737142    0.541832   -6.660538
H         1.889937    1.532515   -7.565218
H        -0.505849    2.519743   -5.961031
H         0.186369    3.153208   -7.466633
H         1.019003    4.567029   -5.488312
