102
-1 1
C        -1.907656   -3.263248   -1.528553
C        -3.050944   -2.899253   -2.468991
O        -2.627056   -2.632074   -3.776417
C        -2.057131   -1.409927   -4.123514
O        -1.618005   -1.370044   -5.280314
C        -2.009048   -0.380744   -3.172365
C        -1.394791    0.922852   -3.563004
S        -2.453716    2.251376   -2.824706
C        -1.449765    3.758158   -2.984619
C        -0.632568    4.124499   -1.733423
H        -0.155575    3.233918   -1.316937
N        -1.469191    4.665886   -0.690378
C        -1.472580    4.202864    0.583798
C        -2.394232    4.935519    1.537965
O        -0.808706    3.250678    0.961170
C         0.432716    5.142916   -2.142305
N         1.646469    4.605882   -2.366953
C         2.756242    5.364964   -2.886570
O         0.136021    6.318212   -2.317066
C         0.103029    1.045422   -3.164908
H         0.456498    2.085781   -3.189389
N         0.195650    0.596085   -1.795115
C         0.964811    1.119344   -0.840580
C         0.664630    0.573775    0.556087
H        -0.348880    0.921069    0.800755
N         0.613531   -0.891897    0.566790
C         1.688677   -1.598428    0.094400
C         1.811722   -2.932756    0.308198
C         0.827599   -3.607219    1.088368
C        -0.239553   -2.910969    1.570653
N        -1.269179   -3.384040    2.389063
C        -1.219825   -4.289918    3.405147
O        -0.085049   -5.014689    3.388922
C         0.170375   -5.825316    4.531338
C         0.860158   -5.036196    5.617387
C         2.256049   -4.961543    5.659015
C         2.898728   -4.194311    6.628974
C         2.147615   -3.491269    7.570301
C         0.755245   -3.559527    7.536026
C         0.113748   -4.324331    6.563525
O        -2.099226   -4.434470    4.222870
C        -0.437181   -1.494391    1.247373
O        -1.440925   -0.884382    1.587680
C         1.623629    1.095695    1.630340
C         1.213765    0.565007    2.981424
C         0.160249    1.170765    3.676448
C        -0.328244    0.606392    4.851397
C         0.219527   -0.578965    5.344374
C         1.268407   -1.191424    4.661592
C         1.765087   -0.615076    3.491781
O         1.804544    1.998894   -1.016472
C         1.038637    0.216570   -4.063315
C         1.415955    0.831786   -5.423718
H         2.259177    0.237668   -5.806142
C         0.307471    0.941894   -6.486324
C        -0.120370    2.423547   -6.477882
N         1.000929    3.087578   -5.839224
C         1.910886    2.265417   -5.247472
O         2.913227    2.624583   -4.660067
H        -1.370372   -4.149268   -1.899479
H        -2.283627   -3.478544   -0.515825
H        -1.185374   -2.437081   -1.459454
H        -3.638428   -2.060173   -2.055574
H        -3.741656   -3.755849   -2.548565
H        -2.474943   -0.458601   -2.189581
H        -1.467968    1.027864   -4.649959
H        -2.124596    4.592922   -3.229006
H        -0.773314    3.647495   -3.844710
H        -1.906135    5.556395   -0.893577
H        -1.823809    5.213911    2.434439
H        -3.184534    4.237608    1.849306
H        -2.858631    5.831746    1.104367
H         1.809502    3.636055   -2.080158
H         2.370270    6.300030   -3.314156
H         3.264076    4.770913   -3.659298
H         3.479195    5.623260   -2.094305
H        -0.493802   -0.127187   -1.579199
H         2.425979   -1.015243   -0.459830
H         2.661952   -3.472618   -0.106079
H         0.935690   -4.665784    1.315397
H        -2.030012   -2.709729    2.468583
H         0.818708   -6.634113    4.169474
H        -0.775286   -6.251123    4.893496
H         2.846571   -5.505607    4.916769
H         3.989425   -4.139383    6.646309
H         2.648214   -2.882910    8.326703
H         0.162905   -3.005107    8.267442
H        -0.976591   -4.358942    6.512261
H         1.568905    2.191122    1.593788
H         2.657226    0.806363    1.383259
H        -0.302604    2.065364    3.249630
H        -1.161174    1.081980    5.374922
H        -0.177251   -1.036091    6.253730
H         1.691528   -2.127023    5.034990
H         2.573178   -1.110502    2.945130
H         0.592591   -0.775003   -4.232770
H         1.976754    0.088232   -3.500977
H        -0.518007    0.240002   -6.286300
H         0.727179    0.697148   -7.473749
H        -1.054493    2.585344   -5.912849
H        -0.281308    2.813448   -7.495495
H         1.082145    4.091581   -5.741283
