-1 1
 OpenBabel05232414493D

 70 70  0  0  1  0  0  0  0  0999 V2000
   -2.5231    9.6793   -0.8536 C   0  0  0  0  0  0  0  0  0  0  0  0
   -1.5243   10.2936   -1.6183 O   0  0  0  0  0  0  0  0  0  0  0  0
   -0.9158    9.5803   -2.5868 C   0  0  0  0  0  0  0  0  0  0  0  0
    0.0977   10.2454   -3.2942 C   0  0  0  0  0  0  0  0  0  0  0  0
    0.7995    9.6213   -4.3169 C   0  0  0  0  0  0  0  0  0  0  0  0
    1.8619   10.4321   -4.9609 C   0  0  0  0  0  0  0  0  0  0  0  0
    2.8287   11.0164   -4.2396 C   0  0  0  0  0  0  0  0  0  0  0  0
    3.9448   11.8553   -4.8031 C   0  0  0  0  0  0  0  0  0  0  0  0
    4.9970   11.0595   -5.6082 C   0  0  1  0  0  0  0  0  0  0  0  0
    5.6888   11.7841   -6.0682 H   0  0  0  0  0  0  0  0  0  0  0  0
    5.8934   10.1365   -4.7485 C   0  0  1  0  0  0  0  0  0  0  0  0
    6.2890   10.7688   -3.9351 H   0  0  0  0  0  0  0  0  0  0  0  0
    5.0864    9.0443   -4.0082 C   0  0  0  0  0  0  0  0  0  0  0  0
    4.8229    9.2728   -2.8221 O   0  0  0  0  0  0  0  0  0  0  0  0
    4.6077    7.8964   -4.7140 C   0  0  0  0  0  3  0  0  0  0  0  0
    4.9221    7.5248   -6.0296 C   0  0  0  0  0  3  0  0  0  0  0  0
    6.9617    6.4055   -6.1140 S   0  0  0  0  0  1  0  0  0  0  0  0
    6.6638    5.3705   -4.6552 C   0  0  0  0  0  0  0  0  0  0  0  0
    7.8567    5.2145   -3.6860 C   0  0  2  0  0  0  0  0  0  0  0  0
    8.7696    5.0575   -4.2860 H   0  0  0  0  0  0  0  0  0  0  0  0
    7.6729    4.0914   -2.7962 N   0  0  0  0  0  0  0  0  0  0  0  0
    7.8366    2.8022   -3.1637 C   0  0  0  0  0  0  0  0  0  0  0  0
    7.6639    1.7880   -2.0430 C   0  0  0  0  0  0  0  0  0  0  0  0
    8.0836    2.4473   -4.3040 O   0  0  0  0  0  0  0  0  0  0  0  0
    8.0590    6.4329   -2.7640 C   0  0  0  0  0  0  0  0  0  0  0  0
    8.2282    7.6107   -3.3828 N   0  0  0  0  0  0  0  0  0  0  0  0
    8.2823    8.8532   -2.6479 C   0  0  0  0  0  0  0  0  0  0  0  0
    8.0676    6.3031   -1.5447 O   0  0  0  0  0  0  0  0  0  0  0  0
    3.9873    6.5677   -6.7342 C   0  0  0  0  0  0  0  0  0  0  0  0
    2.7896    7.2533   -7.4118 C   0  0  1  0  0  0  0  0  0  0  0  0
    2.1067    6.4607   -7.7470 H   0  0  0  0  0  0  0  0  0  0  0  0
    2.0494    8.0734   -6.4698 O   0  0  0  0  0  0  0  0  0  0  0  0
    1.1687    7.4635   -5.6944 C   0  0  0  0  0  0  0  0  0  0  0  0
    0.9206    6.2683   -5.8502 O   0  0  0  0  0  0  0  0  0  0  0  0
    3.1446    8.1433   -8.5893 C   0  0  0  0  0  0  0  0  0  0  0  0
    6.9840    9.6836   -5.5156 O   0  0  0  0  0  0  0  0  0  0  0  0
    4.3714   10.4016   -6.6775 O   0  0  0  0  0  0  0  0  0  0  0  0
    0.4831    8.2731   -4.6670 C   0  0  0  0  0  0  0  0  0  0  0  0
   -0.5401    7.6111   -3.9275 C   0  0  0  0  0  0  0  0  0  0  0  0
   -0.8918    6.3507   -4.1487 O   0  0  0  0  0  0  0  0  0  0  0  0
   -1.2393    8.2707   -2.9042 C   0  0  0  0  0  0  0  0  0  0  0  0
   -2.8659   10.4248   -0.1251 H   0  0  0  0  0  0  0  0  0  0  0  0
   -2.1390    8.7984   -0.3105 H   0  0  0  0  0  0  0  0  0  0  0  0
   -3.3806    9.3652   -1.4744 H   0  0  0  0  0  0  0  0  0  0  0  0
    0.3224   11.2780   -3.0295 H   0  0  0  0  0  0  0  0  0  0  0  0
    1.8258   10.5496   -6.0475 H   0  0  0  0  0  0  0  0  0  0  0  0
    2.8746   10.7977   -3.1691 H   0  0  0  0  0  0  0  0  0  0  0  0
    4.4459   12.4002   -3.9890 H   0  0  0  0  0  0  0  0  0  0  0  0
    3.5297   12.6041   -5.4967 H   0  0  0  0  0  0  0  0  0  0  0  0
    3.9905    7.2254   -4.1071 H   0  0  0  0  0  0  0  0  0  0  0  0
    5.3302    8.2924   -6.6877 H   0  0  0  0  0  0  0  0  0  0  0  0
    6.3994    4.3600   -4.9937 H   0  0  0  0  0  0  0  0  0  0  0  0
    5.8069    5.7947   -4.0991 H   0  0  0  0  0  0  0  0  0  0  0  0
    7.6107    4.3661   -1.8181 H   0  0  0  0  0  0  0  0  0  0  0  0
    7.5577    2.2427   -1.0485 H   0  0  0  0  0  0  0  0  0  0  0  0
    8.5292    1.1109   -2.0479 H   0  0  0  0  0  0  0  0  0  0  0  0
    6.7711    1.1821   -2.2562 H   0  0  0  0  0  0  0  0  0  0  0  0
    8.0631    7.6294   -4.3903 H   0  0  0  0  0  0  0  0  0  0  0  0
    7.3051    9.0962   -2.1987 H   0  0  0  0  0  0  0  0  0  0  0  0
    8.5535    9.6527   -3.3487 H   0  0  0  0  0  0  0  0  0  0  0  0
    9.0320    8.7885   -1.8457 H   0  0  0  0  0  0  0  0  0  0  0  0
    3.6080    5.8228   -6.0181 H   0  0  0  0  0  0  0  0  0  0  0  0
    4.5198    6.0148   -7.5212 H   0  0  0  0  0  0  0  0  0  0  0  0
    3.6566    7.5388   -9.3522 H   0  0  0  0  0  0  0  0  0  0  0  0
    3.8049    8.9738   -8.3066 H   0  0  0  0  0  0  0  0  0  0  0  0
    2.2312    8.5624   -9.0365 H   0  0  0  0  0  0  0  0  0  0  0  0
    6.9365    8.7235   -5.6613 H   0  0  0  0  0  0  0  0  0  0  0  0
    3.7938    9.7284   -6.2876 H   0  0  0  0  0  0  0  0  0  0  0  0
   -0.2737    6.0061   -4.8437 H   0  0  0  0  0  0  0  0  0  0  0  0
   -2.0087    7.7002   -2.3871 H   0  0  0  0  0  0  0  0  0  0  0  0
  1 43  1  0  0  0  0
  1 42  1  0  0  0  0
  2  1  1  0  0  0  0
  3  2  1  0  0  0  0
  4 45  1  0  0  0  0
  4  3  2  0  0  0  0
  5  4  1  0  0  0  0
  6  5  1  0  0  0  0
  6  7  2  0  0  0  0
  7 47  1  0  0  0  0
  8  7  1  0  0  0  0
  8 48  1  0  0  0  0
  9 10  1  6  0  0  0
  9  8  1  0  0  0  0
  9 11  1  0  0  0  0
 11 13  1  0  0  0  0
 11 12  1  1  0  0  0
 13 14  2  0  0  0  0
 15 50  1  0  0  0  0
 15 13  1  0  0  0  0
 16 15  1  0  0  0  0
 17 18  1  0  0  0  0
 18 53  1  0  0  0  0
 18 19  1  0  0  0  0
 19 20  1  6  0  0  0
 19 21  1  0  0  0  0
 19 25  1  0  0  0  0
 21 54  1  0  0  0  0
 22 21  1  0  0  0  0
 22 23  1  0  0  0  0
 23 55  1  0  0  0  0
 24 22  2  0  0  0  0
 25 28  2  0  0  0  0
 26 25  1  0  0  0  0
 26 27  1  0  0  0  0
 27 59  1  0  0  0  0
 27 61  1  0  0  0  0
 29 16  1  0  0  0  0
 29 62  1  0  0  0  0
 30 31  1  6  0  0  0
 30 29  1  0  0  0  0
 30 32  1  0  0  0  0
 32 33  1  0  0  0  0
 33 38  1  0  0  0  0
 34 33  2  0  0  0  0
 35 65  1  0  0  0  0
 35 30  1  0  0  0  0
 36 11  1  0  0  0  0
 37 68  1  0  0  0  0
 37  9  1  0  0  0  0
 38  5  2  0  0  0  0
 38 39  1  0  0  0  0
 39 41  2  0  0  0  0
 40 39  1  0  0  0  0
 41  3  1  0  0  0  0
 41 70  1  0  0  0  0
 44  1  1  0  0  0  0
 46  6  1  0  0  0  0
 49  8  1  0  0  0  0
 51 16  1  0  0  0  0
 52 18  1  0  0  0  0
 56 23  1  0  0  0  0
 57 23  1  0  0  0  0
 58 26  1  0  0  0  0
 60 27  1  0  0  0  0
 63 29  1  0  0  0  0
 64 35  1  0  0  0  0
 66 35  1  0  0  0  0
 67 36  1  0  0  0  0
 69 40  1  0  0  0  0
M  END
