78
-1 1
O         0.623040   -1.846324   -2.854735
C         1.415157   -2.067539   -1.953420
N         1.329803   -1.476484   -0.732460
C         2.251536   -1.578321    0.336731
C         2.470979   -2.789175    1.005140
O         1.848895   -3.963401    0.611042
C         0.566115   -4.163191    0.919698
C         0.008477   -5.431771    0.688919
Cl         0.923868   -6.733414   -0.003282
C        -1.313672   -5.593297    1.087893
N        -2.037648   -4.616615    1.611561
C        -1.422561   -3.425672    1.744075
N        -2.194224   -2.420118    2.222766
C        -1.994408   -1.020758    2.202710
C        -0.762737   -0.389973    2.002965
C        -0.680311    0.994668    1.891519
C        -1.813183    1.824766    2.024446
N        -1.732617    3.209233    1.934530
C        -2.853471    3.900356    1.297846
C        -2.731657    5.417857    1.441789
N        -1.456462    5.956121    1.016846
C        -0.405367    5.288027    1.763097
C        -0.417282    3.768510    1.627874
C        -1.256771    5.932443   -0.421718
C        -3.039937    1.171879    2.271922
C        -3.125269   -0.210479    2.350057
N        -0.141043   -3.189880    1.444569
C         3.359812   -2.865067    2.070411
C         4.019314   -1.716880    2.503387
C         3.783078   -0.501194    1.865126
C         2.909543   -0.430211    0.782722
C         2.534820   -2.988782   -2.157298
C         3.448026   -3.743928   -2.390355
S         2.210441    2.681175   -0.744909
C         1.717916    1.830026   -2.282660
C         0.332301    2.256288   -2.805163
H         0.159648    1.813661   -3.801633
N         0.300168    3.681533   -2.953451
C        -0.467468    4.311405   -3.867741
C        -0.453011    5.827982   -3.787687
O        -1.131199    3.728149   -4.710623
C        -0.830746    1.779045   -1.917628
N        -0.967615    0.423760   -1.845164
C        -2.120692   -0.184412   -1.224970
O        -1.585446    2.543154   -1.343503
H         0.642833   -0.718972   -0.676889
H        -1.795964   -6.569423    0.967247
H        -3.144291   -2.722799    2.396880
H         0.140138   -0.985343    1.897144
H         0.291862    1.422160    1.643487
H        -3.796629    3.603705    1.777479
H        -2.909407    3.610224    0.232808
H        -2.876571    5.686902    2.504186
H        -3.543759    5.895165    0.868752
H        -0.521243    5.563072    2.827595
H         0.576643    5.657781    1.429643
H         0.313706    3.363950    2.343835
H        -0.068366    3.463712    0.623591
H        -2.050112    6.524890   -0.906879
H        -1.254089    4.922660   -0.877198
H        -0.293680    6.411568   -0.658542
H        -3.955422    1.749017    2.396048
H        -4.104706   -0.671405    2.512778
H         3.509311   -3.830837    2.555844
H         4.711898   -1.776172    3.345934
H         4.285118    0.409694    2.197211
H         2.722690    0.536229    0.280587
H         4.260481   -4.418263   -2.585095
H         1.720034    0.735941   -2.154106
H         2.440479    2.042767   -3.087338
H         0.795783    4.177955   -2.211959
H        -1.418078    6.162271   -3.379500
H        -0.361322    6.233421   -4.804328
H         0.353834    6.222393   -3.155096
H        -0.439873   -0.161096   -2.492269
H        -2.426165    0.415289   -0.359179
H        -1.863758   -1.196802   -0.880718
H        -2.977096   -0.254367   -1.918498
