78
-1 1
O         1.594244   -1.332671   -2.900176
C         2.176089   -0.996919   -1.834827
N         1.779938   -1.756649   -0.703297
C         2.122714   -1.666401    0.620041
C         1.902424   -2.766459    1.471669
O         1.368391   -3.938899    0.926071
C         0.068416   -4.173001    1.117944
C        -0.473598   -5.431494    0.798236
Cl         0.492622   -6.715055    0.142809
C        -1.827723   -5.594314    1.067711
N        -2.594551   -4.638182    1.579059
C        -1.981842   -3.468715    1.821325
N        -2.745720   -2.459834    2.325273
C        -2.361022   -1.095558    2.359227
C        -1.103784   -0.691144    2.824999
C        -0.706299    0.629301    2.706418
C        -1.537318    1.607118    2.125218
N        -1.057229    2.906114    1.933438
C        -1.999921    3.894612    1.434224
C        -1.397349    5.297240    1.544787
N        -0.117411    5.440141    0.877224
C         0.799802    4.427686    1.376342
C         0.254240    3.006600    1.279785
C        -0.225630    5.476990   -0.567499
C        -2.832451    1.207976    1.757258
C        -3.229097   -0.122742    1.868335
N        -0.688588   -3.223901    1.609743
C         2.203139   -2.734064    2.824050
C         2.744703   -1.581222    3.388900
C         2.971031   -0.476296    2.567454
C         2.667699   -0.509898    1.210828
C         3.217725   -0.081558   -1.738322
C         3.474401    1.205919   -1.852909
S         2.215579    2.522734   -2.068026
C         1.338373    1.883011   -3.546320
C        -0.161590    2.161959   -3.506788
H        -0.623203    1.707681   -4.397740
N        -0.433546    3.575181   -3.582361
C        -1.574286    4.054232   -4.153575
C        -1.894747    5.496581   -3.809215
O        -2.287826    3.390512   -4.880372
C        -0.871188    1.551965   -2.275001
N        -0.691174    0.232512   -2.103101
C        -1.261595   -0.453476   -0.967982
O        -1.579484    2.240547   -1.547955
H         1.271628   -2.583443   -0.992736
H        -2.302625   -6.558126    0.854728
H        -3.735028   -2.671347    2.341797
H        -0.408692   -1.417230    3.242094
H         0.290663    0.898171    3.056253
H        -2.912617    3.860553    2.049582
H        -2.287428    3.672692    0.387162
H        -1.256216    5.532402    2.614809
H        -2.107070    6.034461    1.135017
H         1.016745    4.657735    2.435051
H         1.747040    4.486487    0.818226
H         0.966697    2.323370    1.758579
H         0.175968    2.695839    0.221459
H        -0.829397    6.349525   -0.867046
H        -0.689853    4.573105   -1.011300
H         0.778075    5.595615   -1.006444
H        -3.519469    1.913386    1.293478
H        -4.215985   -0.415681    1.498502
H         2.002691   -3.623168    3.425698
H         2.984284   -1.549271    4.453327
H         3.389403    0.440794    2.989750
H         2.835761    0.363896    0.584196
H         4.483713    1.635466   -1.882509
H         1.531237    0.802740   -3.594860
H         1.760172    2.348162   -4.448982
H        -0.001790    4.142320   -2.862578
H        -2.507562    5.502632   -2.894740
H        -2.480562    5.937900   -4.624676
H        -0.993726    6.098765   -3.623338
H         0.032938   -0.274999   -2.626413
H        -0.709157   -0.249727   -0.035967
H        -1.232188   -1.535059   -1.153883
H        -2.301795   -0.134969   -0.818499
