61
-1 1
O         7.324116    5.194017    7.468217
C         7.081818    4.626393    8.532591
N         7.772675    4.860230    9.702581
C         8.570470    5.961020   10.006555
C         9.270492    5.971188   11.228225
O         9.362913    4.849087   12.042020
C         8.380855    4.403974   12.833631
C         8.751491    3.732582   14.014437
Cl        10.412374    3.532282   14.483570
C         7.706278    3.259154   14.793055
N         6.433290    3.407943   14.465583
C         6.166616    4.048934   13.312651
N         4.893590    4.210124   12.925174
C         3.748204    3.789515   13.608959
C         2.457798    4.075399   13.190252
N         1.629069    3.486697   14.087049
C         0.190291    3.548044   14.105554
N         2.283081    2.853123   15.057534
C         3.573145    3.019635   14.787357
N         7.123634    4.551129   12.491396
C        10.023585    7.071125   11.622813
C        10.109864    8.193339   10.804554
C         9.444499    8.189247    9.580415
C         8.687009    7.092603    9.182640
C         6.028465    3.666269    8.709562
C         4.907509    3.311436    9.079037
S         3.468578    5.251923   10.155208
C         4.406045    6.600816    9.394157
C         3.750308    7.231839    8.149993
H         4.445108    8.000021    7.765774
N         2.493855    7.868873    8.442803
C         2.389611    9.071115    9.043821
C         0.968972    9.504708    9.365976
O         3.350387    9.765306    9.337479
C         3.479168    6.214030    7.033352
N         4.569263    5.629036    6.498532
C         4.439843    4.524722    5.582521
O         2.343260    5.971197    6.650580
H         7.359916    4.424245   10.529737
H         7.925724    2.737646   15.731564
H         4.702722    4.665902   12.007706
H         2.113851    4.646384   12.328482
H        -0.215675    2.548344   14.310092
H        -0.166333    3.891440   13.126410
H        -0.166282    4.242143   14.882247
H         4.341808    2.596694   15.424696
H        10.550482    7.015211   12.576994
H        10.699300    9.056816   11.118610
H         9.505612    9.056829    8.919816
H         8.173960    7.083532    8.223947
H         4.074929    2.657060    9.263649
H         5.407962    6.236708    9.112548
H         4.570430    7.412753   10.117507
H         1.680176    7.324955    8.174428
H         0.210477    8.983592    8.765019
H         0.886418   10.588812    9.214433
H         0.776025    9.295269   10.428958
H         5.490615    5.761861    6.910646
H         3.799752    3.732593    6.003232
H         5.440788    4.112476    5.401988
H         3.997194    4.843348    4.624953
