61
-1 1
O        -0.286994    8.039989    4.538975
C        -0.942093    7.963936    3.503687
N        -0.425117    7.327340    2.402417
C        -1.071565    7.102162    1.167135
C        -0.504058    7.605877   -0.011129
O         0.669324    8.347525    0.004120
C         0.691863    9.537010    0.606763
C         1.867169   10.316140    0.525024
Cl         3.273341    9.772567   -0.334206
C         1.821765   11.550268    1.149161
N         0.768586   11.981299    1.843148
C        -0.273219   11.145627    1.895500
N        -1.355515   11.444478    2.660463
C        -1.514333   12.544825    3.486368
C        -0.743226   13.675688    3.637006
N        -1.386899   14.437666    4.580928
C        -0.966348   15.707518    5.051904
F        -1.874520   16.656700    4.768001
F        -0.802585   15.702316    6.382694
N        -2.506246   13.871611    5.038801
C        -2.599000   12.727988    4.392520
N        -0.358093    9.976310    1.246624
C        -1.066117    7.349152   -1.256176
C        -2.237382    6.599783   -1.338450
C        -2.838208    6.126452   -0.173542
C        -2.258288    6.371902    1.069061
C        -2.289532    8.478959    3.403916
C        -3.509835    8.290101    3.503250
S        -4.438331    5.827735    3.952359
C        -3.233578    5.297331    5.216704
C        -1.835189    4.990176    4.663399
H        -1.428665    5.904718    4.228169
N        -1.893793    3.992394    3.622683
C        -0.881048    3.840922    2.744025
C        -1.161768    2.929715    1.565452
O         0.192934    4.418494    2.859111
C        -0.898692    4.565425    5.798904
N        -0.125803    5.583079    6.255857
C         0.797205    5.413552    7.343405
O        -0.908173    3.444059    6.276133
H         0.380793    6.738236    2.608165
H         2.689578   12.215250    1.090014
H        -1.992822   10.653478    2.791681
H         0.186746   13.966016    3.161665
H        -0.010902   15.961559    4.564854
H        -3.424179   12.042920    4.583676
H        -0.578002    7.752867   -2.144682
H        -2.684084    6.398312   -2.314742
H        -3.767425    5.554521   -0.219362
H        -2.747826    6.009655    1.981167
H        -4.554618    8.544340    3.506842
H        -3.604494    4.398136    5.736147
H        -3.110264    6.082387    5.978289
H        -2.821531    3.658957    3.382485
H        -2.030029    2.274909    1.721554
H        -0.268953    2.322276    1.368504
H        -1.345221    3.560631    0.682124
H        -0.118408    6.459794    5.733354
H         0.636508    6.170367    8.128561
H         1.845247    5.484318    7.005719
H         0.635812    4.414413    7.769368
