-1 1
 OpenBabel05232413493D

 61 62  0  0  1  0  0  0  0  0999 V2000
   -0.3435   -0.6564    2.1206 O   0  0  0  0  0  0  0  0  0  0  0  0
   -0.7722   -0.6844    0.9784 C   0  0  0  0  0  0  0  0  0  0  0  0
   -0.1971   -1.3908   -0.0193 N   0  0  0  0  0  0  0  0  0  0  0  0
   -0.7768   -1.6595   -1.2825 C   0  0  0  0  0  0  0  0  0  0  0  0
   -0.0876   -1.3031   -2.4479 C   0  0  0  0  0  0  0  0  0  0  0  0
    1.1643   -0.7143   -2.3962 O   0  0  0  0  0  0  0  0  0  0  0  0
    1.3521    0.4845   -1.8582 C   0  0  0  0  0  0  0  0  0  0  0  0
    2.6728    0.9867   -1.8102 C   0  0  0  0  0  0  0  0  0  0  0  0
    4.0175    0.0718   -2.4040 Cl  0  0  0  0  0  0  0  0  0  0  0  0
    2.8249    2.2498   -1.2718 C   0  0  0  0  0  0  0  0  0  0  0  0
    1.8057    2.9646   -0.7917 N   0  0  0  0  0  0  0  0  0  0  0  0
    0.6067    2.3868   -0.8639 C   0  0  0  0  0  0  0  0  0  0  0  0
   -0.4811    3.0266   -0.3500 N   0  0  0  0  0  0  0  0  0  0  0  0
   -0.5091    4.2474    0.3049 C   0  0  0  0  0  0  0  0  0  0  0  0
    0.4926    5.1635    0.5396 C   0  0  0  0  0  0  0  0  0  0  0  0
   -0.1038    6.1939    1.2220 N   0  0  0  0  0  0  0  0  0  0  0  0
    0.5387    7.3806    1.6668 C   0  0  0  0  0  0  0  0  0  0  0  0
    0.0075    8.4652    1.0800 F   0  0  0  0  0  0  0  0  0  0  0  0
    0.4009    7.5356    2.9902 F   0  0  0  0  0  0  0  0  0  0  0  0
   -1.4056    5.9993    1.4365 N   0  0  0  0  0  0  0  0  0  0  0  0
   -1.6690    4.8292    0.8922 C   0  0  0  0  0  0  0  0  0  0  0  0
    0.3446    1.1903   -1.4087 N   0  0  0  0  0  0  0  0  0  0  0  0
   -0.5824   -1.6285   -3.7043 C   0  0  0  0  0  0  0  0  0  0  0  0
   -1.7867   -2.3237   -3.8072 C   0  0  0  0  0  0  0  0  0  0  0  0
   -2.4765   -2.6959   -2.6557 C   0  0  0  0  0  0  0  0  0  0  0  0
   -1.9722   -2.3712   -1.3983 C   0  0  0  0  0  0  0  0  0  0  0  0
   -1.9863    0.0744    0.6335 C   0  0  0  0  0  0  0  0  0  0  0  0
   -3.0198    0.6736    0.4457 C   0  0  0  0  0  0  0  0  0  0  0  0
   -3.4672   -4.9699    0.7618 S   0  0  0  0  0  1  0  0  0  0  0  0
   -2.1589   -4.9934    2.0407 C   0  0  0  0  0  0  0  0  0  0  0  0
   -0.8640   -4.3072    1.5672 C   0  0  2  0  0  0  0  0  0  0  0  0
   -1.0853   -3.2348    1.4568 H   0  0  0  0  0  0  0  0  0  0  0  0
   -0.5013   -4.8657    0.2843 N   0  0  0  0  0  0  0  0  0  0  0  0
    0.5436   -4.4644   -0.4437 C   0  0  0  0  0  0  0  0  0  0  0  0
    0.6486   -5.0552   -1.8328 C   0  0  0  0  0  0  0  0  0  0  0  0
    1.3667   -3.6279   -0.0532 O   0  0  0  0  0  0  0  0  0  0  0  0
    0.2670   -4.4817    2.5839 C   0  0  0  0  0  0  0  0  0  0  0  0
    0.5849   -3.3432    3.2569 N   0  0  0  0  0  0  0  0  0  0  0  0
    1.6388   -3.3147    4.2341 C   0  0  0  0  0  0  0  0  0  0  0  0
    0.7800   -5.5631    2.8084 O   0  0  0  0  0  0  0  0  0  0  0  0
    0.5765   -2.0326    0.2388 H   0  0  0  0  0  0  0  0  0  0  0  0
    3.8215    2.6996   -1.2218 H   0  0  0  0  0  0  0  0  0  0  0  0
   -1.3237    2.4611   -0.3404 H   0  0  0  0  0  0  0  0  0  0  0  0
    1.5449    5.1409    0.2806 H   0  0  0  0  0  0  0  0  0  0  0  0
    1.6088    7.3147    1.4119 H   0  0  0  0  0  0  0  0  0  0  0  0
   -2.6754    4.4140    0.9316 H   0  0  0  0  0  0  0  0  0  0  0  0
   -0.0059   -1.3428   -4.5853 H   0  0  0  0  0  0  0  0  0  0  0  0
   -2.1736   -2.5891   -4.7936 H   0  0  0  0  0  0  0  0  0  0  0  0
   -3.3992   -3.2763   -2.7146 H   0  0  0  0  0  0  0  0  0  0  0  0
   -2.4911   -2.7453   -0.5044 H   0  0  0  0  0  0  0  0  0  0  0  0
   -3.9559    1.1726    0.2761 H   0  0  0  0  0  0  0  0  0  0  0  0
   -1.9028   -6.0278    2.3222 H   0  0  0  0  0  0  0  0  0  0  0  0
   -2.4845   -4.4748    2.9559 H   0  0  0  0  0  0  0  0  0  0  0  0
   -1.2940   -5.3540   -0.1531 H   0  0  0  0  0  0  0  0  0  0  0  0
    0.0750   -5.9847   -1.9440 H   0  0  0  0  0  0  0  0  0  0  0  0
    1.7068   -5.2332   -2.0631 H   0  0  0  0  0  0  0  0  0  0  0  0
    0.2639   -4.3136   -2.5511 H   0  0  0  0  0  0  0  0  0  0  0  0
    0.2282   -2.4533    2.9146 H   0  0  0  0  0  0  0  0  0  0  0  0
    1.3315   -2.7517    5.1296 H   0  0  0  0  0  0  0  0  0  0  0  0
    2.5601   -2.8563    3.8344 H   0  0  0  0  0  0  0  0  0  0  0  0
    1.8668   -4.3504    4.5178 H   0  0  0  0  0  0  0  0  0  0  0  0
  2  1  2  0  0  0  0
  3 41  1  0  0  0  0
  3  2  1  0  0  0  0
  4  3  1  0  0  0  0
  5  6  1  0  0  0  0
  5  4  2  0  0  0  0
  6  7  1  0  0  0  0
  7  8  1  0  0  0  0
  7 22  2  0  0  0  0
  8 10  2  0  0  0  0
  9  8  1  0  0  0  0
 10 42  1  0  0  0  0
 10 11  1  0  0  0  0
 12 11  2  0  0  0  0
 12 13  1  0  0  0  0
 13 43  1  0  0  0  0
 13 14  1  0  0  0  0
 14 15  2  0  0  0  0
 14 21  1  0  0  0  0
 15 16  1  0  0  0  0
 16 20  1  0  0  0  0
 16 17  1  0  0  0  0
 17 19  1  0  0  0  0
 18 17  1  0  0  0  0
 21 46  1  0  0  0  0
 21 20  2  0  0  0  0
 22 12  1  0  0  0  0
 23  5  1  0  0  0  0
 24 23  2  0  0  0  0
 24 25  1  0  0  0  0
 25 26  2  0  0  0  0
 26  4  1  0  0  0  0
 26 50  1  0  0  0  0
 27  2  1  0  0  0  0
 28 27  3  0  0  0  0
 29 30  1  0  0  0  0
 30 52  1  0  0  0  0
 30 53  1  0  0  0  0
 31 32  1  6  0  0  0
 31 30  1  0  0  0  0
 31 37  1  0  0  0  0
 33 31  1  0  0  0  0
 34 36  2  0  0  0  0
 34 33  1  0  0  0  0
 35 34  1  0  0  0  0
 37 40  2  0  0  0  0
 37 38  1  0  0  0  0
 38 39  1  0  0  0  0
 39 61  1  0  0  0  0
 39 59  1  0  0  0  0
 44 15  1  0  0  0  0
 45 17  1  0  0  0  0
 47 23  1  0  0  0  0
 48 24  1  0  0  0  0
 49 25  1  0  0  0  0
 51 28  1  0  0  0  0
 54 33  1  0  0  0  0
 55 35  1  0  0  0  0
 56 35  1  0  0  0  0
 57 35  1  0  0  0  0
 58 38  1  0  0  0  0
 60 39  1  0  0  0  0
M  END
