-1 1
 OpenBabel05232414493D

 61 62  0  0  1  0  0  0  0  0999 V2000
   -0.2870    8.0400    4.5390 O   0  0  0  0  0  0  0  0  0  0  0  0
   -0.9421    7.9639    3.5037 C   0  0  0  0  0  0  0  0  0  0  0  0
   -0.4251    7.3273    2.4024 N   0  0  0  0  0  0  0  0  0  0  0  0
   -1.0716    7.1022    1.1671 C   0  0  0  0  0  0  0  0  0  0  0  0
   -0.5041    7.6059   -0.0111 C   0  0  0  0  0  0  0  0  0  0  0  0
    0.6693    8.3475    0.0041 O   0  0  0  0  0  0  0  0  0  0  0  0
    0.6919    9.5370    0.6068 C   0  0  0  0  0  0  0  0  0  0  0  0
    1.8672   10.3161    0.5250 C   0  0  1  0  0  3  0  0  0  0  0  0
    3.2733    9.7726   -0.3342 Cl  0  0  0  0  0  0  0  0  0  0  0  0
    1.8218   11.5503    1.1492 C   0  0  0  0  0  0  0  0  0  0  0  0
    0.7686   11.9813    1.8431 N   0  0  0  0  0  0  0  0  0  0  0  0
   -0.2732   11.1456    1.8955 C   0  0  2  0  0  3  0  0  0  0  0  0
   -1.3555   11.4445    2.6605 N   0  0  0  0  0  0  0  0  0  0  0  0
   -1.5143   12.5448    3.4864 C   0  0  0  0  0  0  0  0  0  0  0  0
   -0.7432   13.6757    3.6370 C   0  0  0  0  0  0  0  0  0  0  0  0
   -1.3869   14.4377    4.5809 N   0  0  0  0  0  0  0  0  0  0  0  0
   -0.9663   15.7075    5.0519 C   0  0  0  0  0  0  0  0  0  0  0  0
   -1.8745   16.6567    4.7680 F   0  0  0  0  0  0  0  0  0  0  0  0
   -0.8026   15.7023    6.3827 F   0  0  0  0  0  0  0  0  0  0  0  0
   -2.5062   13.8716    5.0388 N   0  0  0  0  0  0  0  0  0  0  0  0
   -2.5990   12.7280    4.3925 C   0  0  0  0  0  0  0  0  0  0  0  0
   -0.3581    9.9763    1.2466 N   0  0  0  0  0  0  0  0  0  0  0  0
   -1.0661    7.3492   -1.2562 C   0  0  0  0  0  0  0  0  0  0  0  0
   -2.2374    6.5998   -1.3384 C   0  0  0  0  0  0  0  0  0  0  0  0
   -2.8382    6.1265   -0.1735 C   0  0  0  0  0  0  0  0  0  0  0  0
   -2.2583    6.3719    1.0691 C   0  0  0  0  0  0  0  0  0  0  0  0
   -2.2895    8.4790    3.4039 C   0  0  0  0  0  2  0  0  0  0  0  0
   -3.5098    8.2901    3.5032 C   0  0  0  0  0  2  0  0  0  0  0  0
   -4.4383    5.8277    3.9524 S   0  0  0  0  0  1  0  0  0  0  0  0
   -3.2336    5.2973    5.2167 C   0  0  0  0  0  0  0  0  0  0  0  0
   -1.8352    4.9902    4.6634 C   0  0  2  0  0  0  0  0  0  0  0  0
   -1.4287    5.9047    4.2282 H   0  0  0  0  0  0  0  0  0  0  0  0
   -1.8938    3.9924    3.6227 N   0  0  0  0  0  0  0  0  0  0  0  0
   -0.8810    3.8409    2.7440 C   0  0  0  0  0  0  0  0  0  0  0  0
   -1.1618    2.9297    1.5655 C   0  0  0  0  0  0  0  0  0  0  0  0
    0.1929    4.4185    2.8591 O   0  0  0  0  0  0  0  0  0  0  0  0
   -0.8987    4.5654    5.7989 C   0  0  0  0  0  0  0  0  0  0  0  0
   -0.1258    5.5831    6.2559 N   0  0  0  0  0  0  0  0  0  0  0  0
    0.7972    5.4136    7.3434 C   0  0  0  0  0  0  0  0  0  0  0  0
   -0.9082    3.4441    6.2761 O   0  0  0  0  0  0  0  0  0  0  0  0
    0.3808    6.7382    2.6082 H   0  0  0  0  0  0  0  0  0  0  0  0
    2.6896   12.2152    1.0900 H   0  0  0  0  0  0  0  0  0  0  0  0
   -1.9928   10.6535    2.7917 H   0  0  0  0  0  0  0  0  0  0  0  0
    0.1867   13.9660    3.1617 H   0  0  0  0  0  0  0  0  0  0  0  0
   -0.0109   15.9616    4.5649 H   0  0  0  0  0  0  0  0  0  0  0  0
   -3.4242   12.0429    4.5837 H   0  0  0  0  0  0  0  0  0  0  0  0
   -0.5780    7.7529   -2.1447 H   0  0  0  0  0  0  0  0  0  0  0  0
   -2.6841    6.3983   -2.3147 H   0  0  0  0  0  0  0  0  0  0  0  0
   -3.7674    5.5545   -0.2194 H   0  0  0  0  0  0  0  0  0  0  0  0
   -2.7478    6.0097    1.9812 H   0  0  0  0  0  0  0  0  0  0  0  0
   -4.5546    8.5443    3.5068 H   0  0  0  0  0  0  0  0  0  0  0  0
   -3.6045    4.3981    5.7361 H   0  0  0  0  0  0  0  0  0  0  0  0
   -3.1103    6.0824    5.9783 H   0  0  0  0  0  0  0  0  0  0  0  0
   -2.8215    3.6590    3.3825 H   0  0  0  0  0  0  0  0  0  0  0  0
   -2.0300    2.2749    1.7216 H   0  0  0  0  0  0  0  0  0  0  0  0
   -0.2690    2.3223    1.3685 H   0  0  0  0  0  0  0  0  0  0  0  0
   -1.3452    3.5606    0.6821 H   0  0  0  0  0  0  0  0  0  0  0  0
   -0.1184    6.4598    5.7334 H   0  0  0  0  0  0  0  0  0  0  0  0
    0.6365    6.1704    8.1286 H   0  0  0  0  0  0  0  0  0  0  0  0
    1.8452    5.4843    7.0057 H   0  0  0  0  0  0  0  0  0  0  0  0
    0.6358    4.4144    7.7694 H   0  0  0  0  0  0  0  0  0  0  0  0
  2  1  2  0  0  0  0
  3 41  1  0  0  0  0
  3  2  1  0  0  0  0
  4  3  1  0  0  0  0
  5  6  1  0  0  0  0
  5  4  2  0  0  0  0
  6  7  1  0  0  0  0
  7 22  2  0  0  0  0
  8  9  1  6  0  0  0
  8  7  1  0  0  0  0
  8 10  1  0  0  0  0
 10 11  2  0  0  0  0
 11 12  1  0  0  0  0
 12 13  1  1  0  0  0
 13 43  1  0  0  0  0
 13 14  1  0  0  0  0
 14 15  2  0  0  0  0
 14 21  1  0  0  0  0
 15 16  1  0  0  0  0
 16 20  1  0  0  0  0
 16 17  1  0  0  0  0
 17 19  1  0  0  0  0
 18 17  1  0  0  0  0
 21 46  1  0  0  0  0
 21 20  2  0  0  0  0
 22 12  1  0  0  0  0
 23  5  1  0  0  0  0
 24 23  2  0  0  0  0
 24 25  1  0  0  0  0
 25 26  2  0  0  0  0
 26  4  1  0  0  0  0
 26 50  1  0  0  0  0
 27 28  1  0  0  0  0
 27  2  1  0  0  0  0
 28 51  1  0  0  0  0
 29 30  1  0  0  0  0
 30 52  1  0  0  0  0
 30 53  1  0  0  0  0
 31 32  1  6  0  0  0
 31 30  1  0  0  0  0
 31 37  1  0  0  0  0
 33 31  1  0  0  0  0
 34 36  2  0  0  0  0
 34 33  1  0  0  0  0
 35 55  1  0  0  0  0
 35 34  1  0  0  0  0
 37 38  1  0  0  0  0
 37 40  2  0  0  0  0
 38 39  1  0  0  0  0
 39 61  1  0  0  0  0
 39 59  1  0  0  0  0
 42 10  1  0  0  0  0
 44 15  1  0  0  0  0
 45 17  1  0  0  0  0
 47 23  1  0  0  0  0
 48 24  1  0  0  0  0
 49 25  1  0  0  0  0
 54 33  1  0  0  0  0
 56 35  1  0  0  0  0
 57 35  1  0  0  0  0
 58 38  1  0  0  0  0
 60 39  1  0  0  0  0
M  END
