61
-1 1
O        -0.343472   -0.656353    2.120645
C        -0.772158   -0.684379    0.978357
N        -0.197136   -1.390831   -0.019287
C        -0.776774   -1.659455   -1.282495
C        -0.087635   -1.303050   -2.447864
O         1.164350   -0.714335   -2.396221
C         1.352062    0.484512   -1.858192
C         2.672791    0.986665   -1.810154
Cl         4.017457    0.071767   -2.404017
C         2.824932    2.249770   -1.271785
N         1.805674    2.964616   -0.791690
C         0.606737    2.386844   -0.863890
N        -0.481123    3.026607   -0.350049
C        -0.509071    4.247363    0.304925
C         0.492552    5.163487    0.539577
N        -0.103764    6.193922    1.222030
C         0.538655    7.380634    1.666763
F         0.007535    8.465246    1.079998
F         0.400884    7.535582    2.990178
N        -1.405640    5.999306    1.436450
C        -1.668955    4.829164    0.892178
N         0.344554    1.190286   -1.408727
C        -0.582409   -1.628548   -3.704275
C        -1.786737   -2.323750   -3.807250
C        -2.476536   -2.695938   -2.655668
C        -1.972200   -2.371169   -1.398254
C        -1.986311    0.074378    0.633457
C        -3.019811    0.673564    0.445747
S        -3.467245   -4.969872    0.761805
C        -2.158880   -4.993359    2.040675
C        -0.863952   -4.307160    1.567152
H        -1.085295   -3.234813    1.456771
N        -0.501331   -4.865720    0.284301
C         0.543623   -4.464361   -0.443701
C         0.648627   -5.055199   -1.832809
O         1.366744   -3.627872   -0.053194
C         0.267021   -4.481709    2.583943
N         0.584933   -3.343228    3.256896
C         1.638753   -3.314687    4.234061
O         0.780011   -5.563056    2.808405
H         0.576527   -2.032607    0.238845
H         3.821494    2.699606   -1.221754
H        -1.323669    2.461098   -0.340403
H         1.544885    5.140896    0.280600
H         1.608763    7.314729    1.411923
H        -2.675432    4.414039    0.931572
H        -0.005866   -1.342827   -4.585349
H        -2.173615   -2.589109   -4.793638
H        -3.399201   -3.276250   -2.714611
H        -2.491120   -2.745328   -0.504397
H        -3.955851    1.172607    0.276144
H        -1.902815   -6.027765    2.322204
H        -2.484539   -4.474803    2.955900
H        -1.294031   -5.353965   -0.153114
H         0.074956   -5.984703   -1.944021
H         1.706813   -5.233202   -2.063074
H         0.263934   -4.313582   -2.551069
H         0.228229   -2.453311    2.914649
H         1.331466   -2.751721    5.129580
H         2.560076   -2.856313    3.834364
H         1.866819   -4.350380    4.517765
