80
-1 1
O         3.112604   -0.667596   -2.304204
C         2.531321    0.285613   -2.784827
N         3.235032    1.356596   -3.295190
C         2.716534    2.610276   -3.680621
C         3.075997    3.745047   -2.940409
O         3.917480    3.593349   -1.859529
C         3.431117    2.932067   -0.783506
C         4.343671    2.421264    0.138646
Cl         6.065648    2.559825   -0.077551
C         3.792021    1.729117    1.234627
N         4.576339    1.180920    2.196326
N         2.473129    1.599529    1.374834
C         1.691732    2.124764    0.428570
N         0.348608    1.999303    0.504169
C        -0.465815    1.359390    1.464961
C        -0.089161    1.131882    2.791934
C        -0.951178    0.473593    3.663031
C        -2.219541    0.018382    3.260818
N        -3.060625   -0.664708    4.156793
C        -4.337452   -1.171807    3.674874
C        -4.166424   -2.525694    2.973290
N        -3.520004   -3.518876    3.826292
C        -2.278105   -2.989672    4.383864
C        -2.465418   -1.630746    5.074842
C        -4.398564   -4.125709    4.797640
C        -2.594904    0.304302    1.936942
C        -1.737661    0.950880    1.058811
N         2.134688    2.798790   -0.653189
C         2.631466    5.008983   -3.298640
C         1.786010    5.148767   -4.398349
C         1.392864    4.025984   -5.124209
C         1.865413    2.762698   -4.773958
C         1.083892    0.376513   -2.843744
C        -0.130241    0.410306   -2.821670
S        -3.311611    0.140114   -2.096019
C        -3.179999   -1.683449   -2.093795
C        -2.610904   -2.301125   -0.816163
H        -3.092331   -1.815874    0.049291
N        -1.176191   -2.042597   -0.713375
C        -0.456081   -2.077399    0.423477
C         0.987059   -1.647550    0.325852
O        -0.921686   -2.465889    1.497184
C        -2.937182   -3.815742   -0.726270
N        -2.654310   -4.366330    0.479677
C        -2.961677   -5.730070    0.808944
O        -3.460625   -4.436928   -1.636022
H         4.221379    1.319902   -3.055051
H         5.562793    1.062535    2.015675
H         4.119140    0.538418    2.828539
H        -0.125058    2.309114   -0.337111
H         0.890021    1.451305    3.141360
H        -0.614901    0.321096    4.689375
H        -4.816862   -0.437491    3.014749
H        -5.002850   -1.279385    4.550079
H        -3.535985   -2.384168    2.084289
H        -5.135497   -2.919197    2.627395
H        -1.558961   -2.856358    3.560322
H        -1.859294   -3.727788    5.088211
H        -1.504156   -1.265955    5.455761
H        -3.132330   -1.724019    5.950787
H        -5.258347   -4.583782    4.283271
H        -4.807021   -3.436494    5.570328
H        -3.864064   -4.929249    5.329463
H        -3.551782   -0.017019    1.526883
H        -2.073660    1.060126    0.019012
H         2.934830    5.864132   -2.693226
H         1.421238    6.139124   -4.678237
H         0.716806    4.130937   -5.974705
H         1.573208    1.877676   -5.340592
H        -1.252592    0.419704   -2.711345
H        -2.572196   -2.044052   -2.944304
H        -4.172850   -2.125997   -2.245646
H        -0.732950   -1.651271   -1.537250
H         1.133777   -0.774177    0.976751
H         1.324154   -1.404709   -0.689563
H         1.609759   -2.459912    0.726572
H        -2.134611   -3.789907    1.145452
H        -3.267885   -5.783000    1.864517
H        -2.102874   -6.408913    0.656524
H        -3.781198   -6.077898    0.164970
