-1 1
 OpenBabel05192410563D

 80 83  0  0  1  0  0  0  0  0999 V2000
    1.3296   -0.7528   -1.5793 O   0  0  0  0  0  0  0  0  0  0  0  0
    0.9573    0.2842   -2.1810 C   0  0  0  0  0  0  0  0  0  0  0  0
    1.9503    0.8933   -2.9659 N   0  0  0  0  0  0  0  0  0  0  0  0
    1.9033    2.1814   -3.4972 C   0  0  0  0  0  0  0  0  0  0  0  0
    2.8617    3.1472   -3.1389 C   0  0  0  0  0  0  0  0  0  0  0  0
    3.8558    2.8614   -2.2112 O   0  0  0  0  0  0  0  0  0  0  0  0
    3.4751    2.6261   -0.9382 C   0  0  0  0  0  0  0  0  0  0  0  0
    4.4501    2.3545    0.0275 C   0  0  0  0  0  0  0  0  0  0  0  0
    6.1552    2.3401   -0.3363 Cl  0  0  0  0  0  0  0  0  0  0  0  0
    3.9746    2.0953    1.3270 C   0  0  0  0  0  0  0  0  0  0  0  0
    4.8315    1.8992    2.3673 N   0  0  0  0  0  0  0  0  0  0  0  0
    2.6673    2.0334    1.5974 N   0  0  0  0  0  0  0  0  0  0  0  0
    1.8262    2.2576    0.5834 C   0  0  0  0  0  0  0  0  0  0  0  0
    0.4879    2.0812    0.6894 N   0  0  0  0  0  0  0  0  0  0  0  0
   -0.2766    1.5170    1.7145 C   0  0  0  0  0  0  0  0  0  0  0  0
    0.1388    1.3463    3.0414 C   0  0  0  0  0  0  0  0  0  0  0  0
   -0.6941    0.7130    3.9604 C   0  0  0  0  0  0  0  0  0  0  0  0
   -1.9551    0.2045    3.6049 C   0  0  0  0  0  0  0  0  0  0  0  0
   -2.7336   -0.4837    4.5568 N   0  0  0  0  0  0  0  0  0  0  0  0
   -4.1311   -0.7658    4.2676 C   0  0  0  0  0  0  0  0  0  0  0  0
   -4.3244   -2.1139    3.5557 C   0  0  0  0  0  0  0  0  0  0  0  0
   -3.7185   -3.2137    4.2963 N   0  0  0  0  0  0  0  0  0  0  0  0
   -2.3146   -2.9210    4.5446 C   0  0  0  0  0  0  0  0  0  0  0  0
   -2.1069   -1.5869    5.2785 C   0  0  0  0  0  0  0  0  0  0  0  0
   -4.4610   -3.6543    5.4506 C   0  0  0  0  0  0  0  0  0  0  0  0
   -2.3805    0.4337    2.2873 C   0  0  0  0  0  0  0  0  0  0  0  0
   -1.5637    1.0803    1.3708 C   0  0  0  0  0  0  0  0  0  0  0  0
    2.2047    2.6400   -0.6488 N   0  0  0  0  0  0  0  0  0  0  0  0
    2.8607    4.4133   -3.7088 C   0  0  0  0  0  0  0  0  0  0  0  0
    1.8717    4.7610   -4.6271 C   0  0  0  0  0  0  0  0  0  0  0  0
    0.8858    3.8327   -4.9578 C   0  0  0  0  0  0  0  0  0  0  0  0
    0.9067    2.5546   -4.4057 C   0  0  0  0  0  0  0  0  0  0  0  0
   -0.2761    0.9377   -1.9819 C   0  0  0  0  0  3  0  0  0  0  0  0
   -1.5274    0.8114   -2.3908 C   0  0  0  0  0  0  0  0  0  0  0  0
   -2.2013   -0.3284   -3.6315 S   0  0  0  0  0  0  0  0  0  0  0  0
   -1.4574   -1.9286   -3.2057 C   0  0  0  0  0  0  0  0  0  0  0  0
   -1.8577   -2.5337   -1.8555 C   0  0  2  0  0  0  0  0  0  0  0  0
   -2.8323   -2.1243   -1.5345 H   0  0  0  0  0  0  0  0  0  0  0  0
   -0.8640   -2.2131   -0.8406 N   0  0  0  0  0  0  0  0  0  0  0  0
   -1.0710   -2.2630    0.4824 C   0  0  0  0  0  0  0  0  0  0  0  0
    0.1153   -1.8640    1.3268 C   0  0  0  0  0  0  0  0  0  0  0  0
   -2.1221   -2.6689    0.9999 O   0  0  0  0  0  0  0  0  0  0  0  0
   -2.0569   -4.0686   -2.0035 C   0  0  0  0  0  0  0  0  0  0  0  0
   -2.4833   -4.6717   -0.8703 N   0  0  0  0  0  0  0  0  0  0  0  0
   -2.6849   -6.0921   -0.7799 C   0  0  0  0  0  0  0  0  0  0  0  0
   -1.8738   -4.6584   -3.0562 O   0  0  0  0  0  0  0  0  0  0  0  0
    2.8669    0.5499   -2.6990 H   0  0  0  0  0  0  0  0  0  0  0  0
    5.8001    1.6984    2.1635 H   0  0  0  0  0  0  0  0  0  0  0  0
    4.4244    1.4960    3.1995 H   0  0  0  0  0  0  0  0  0  0  0  0
    0.0771    1.9706   -0.2665 H   0  0  0  0  0  0  0  0  0  0  0  0
    1.1251    1.6938    3.3406 H   0  0  0  0  0  0  0  0  0  0  0  0
   -0.3476    0.6068    4.9911 H   0  0  0  0  0  0  0  0  0  0  0  0
   -4.5606    0.0603    3.6837 H   0  0  0  0  0  0  0  0  0  0  0  0
   -4.6750   -0.7780    5.2308 H   0  0  0  0  0  0  0  0  0  0  0  0
   -3.8452   -2.0862    2.5636 H   0  0  0  0  0  0  0  0  0  0  0  0
   -5.3980   -2.3204    3.4099 H   0  0  0  0  0  0  0  0  0  0  0  0
   -1.8124   -2.8715    3.5634 H   0  0  0  0  0  0  0  0  0  0  0  0
   -1.8636   -3.7490    5.1178 H   0  0  0  0  0  0  0  0  0  0  0  0
   -1.0341   -1.3900    5.4019 H   0  0  0  0  0  0  0  0  0  0  0  0
   -2.5398   -1.6378    6.2949 H   0  0  0  0  0  0  0  0  0  0  0  0
   -5.4780   -3.9493    5.1448 H   0  0  0  0  0  0  0  0  0  0  0  0
   -4.5705   -2.9103    6.2714 H   0  0  0  0  0  0  0  0  0  0  0  0
   -3.9756   -4.5439    5.8844 H   0  0  0  0  0  0  0  0  0  0  0  0
   -3.3369    0.0505    1.9343 H   0  0  0  0  0  0  0  0  0  0  0  0
   -1.9000    1.1882    0.3381 H   0  0  0  0  0  0  0  0  0  0  0  0
    3.6297    5.1230   -3.3985 H   0  0  0  0  0  0  0  0  0  0  0  0
    1.8660    5.7593   -5.0700 H   0  0  0  0  0  0  0  0  0  0  0  0
    0.0962    4.0980   -5.6644 H   0  0  0  0  0  0  0  0  0  0  0  0
    0.1504    1.8143   -4.6733 H   0  0  0  0  0  0  0  0  0  0  0  0
   -2.3413    1.4332   -1.9914 H   0  0  0  0  0  0  0  0  0  0  0  0
   -0.3633   -1.8661   -3.2851 H   0  0  0  0  0  0  0  0  0  0  0  0
   -1.7894   -2.6099   -3.9996 H   0  0  0  0  0  0  0  0  0  0  0  0
    0.0093   -1.7397   -1.1557 H   0  0  0  0  0  0  0  0  0  0  0  0
   -0.2368   -1.3634    2.2360 H   0  0  0  0  0  0  0  0  0  0  0  0
    0.8114   -1.2166    0.7772 H   0  0  0  0  0  0  0  0  0  0  0  0
    0.6447   -2.7836    1.6235 H   0  0  0  0  0  0  0  0  0  0  0  0
   -2.5784   -4.0801   -0.0372 H   0  0  0  0  0  0  0  0  0  0  0  0
   -3.7084   -6.3305   -0.4470 H   0  0  0  0  0  0  0  0  0  0  0  0
   -1.9785   -6.5594   -0.0730 H   0  0  0  0  0  0  0  0  0  0  0  0
   -2.5260   -6.5271   -1.7750 H   0  0  0  0  0  0  0  0  0  0  0  0
  2 33  1  0  0  0  0
  2  1  2  0  0  0  0
  3 47  1  0  0  0  0
  3  2  1  0  0  0  0
  4  5  1  0  0  0  0
  4  3  1  0  0  0  0
  5  6  1  0  0  0  0
  6  7  1  0  0  0  0
  7 28  2  0  0  0  0
  7  8  1  0  0  0  0
  8 10  2  0  0  0  0
  9  8  1  0  0  0  0
 10 12  1  0  0  0  0
 10 11  1  0  0  0  0
 11 49  1  0  0  0  0
 13 14  1  0  0  0  0
 13 12  2  0  0  0  0
 14 15  1  0  0  0  0
 15 16  1  0  0  0  0
 16 51  1  0  0  0  0
 16 17  2  0  0  0  0
 17 52  1  0  0  0  0
 18 17  1  0  0  0  0
 18 19  1  0  0  0  0
 19 24  1  0  0  0  0
 20 19  1  0  0  0  0
 20 54  1  0  0  0  0
 21 20  1  0  0  0  0
 21 22  1  0  0  0  0
 22 23  1  0  0  0  0
 22 25  1  0  0  0  0
 23 58  1  0  0  0  0
 23 24  1  0  0  0  0
 24 59  1  0  0  0  0
 24 60  1  0  0  0  0
 25 63  1  0  0  0  0
 25 62  1  0  0  0  0
 26 18  2  0  0  0  0
 27 15  2  0  0  0  0
 27 26  1  0  0  0  0
 28 13  1  0  0  0  0
 29 66  1  0  0  0  0
 29  5  2  0  0  0  0
 30 29  1  0  0  0  0
 31 30  2  0  0  0  0
 31 32  1  0  0  0  0
 32  4  2  0  0  0  0
 34 70  1  0  0  0  0
 34 33  2  0  0  0  0
 35 36  1  0  0  0  0
 35 34  1  0  0  0  0
 36 37  1  0  0  0  0
 37 38  1  1  0  0  0
 37 39  1  0  0  0  0
 39 40  1  0  0  0  0
 40 42  2  0  0  0  0
 40 41  1  0  0  0  0
 41 76  1  0  0  0  0
 41 74  1  0  0  0  0
 43 37  1  0  0  0  0
 43 44  1  0  0  0  0
 44 45  1  0  0  0  0
 44 77  1  0  0  0  0
 45 78  1  0  0  0  0
 45 79  1  0  0  0  0
 46 43  2  0  0  0  0
 48 11  1  0  0  0  0
 50 14  1  0  0  0  0
 53 20  1  0  0  0  0
 55 21  1  0  0  0  0
 56 21  1  0  0  0  0
 57 23  1  0  0  0  0
 61 25  1  0  0  0  0
 64 26  1  0  0  0  0
 65 27  1  0  0  0  0
 67 30  1  0  0  0  0
 68 31  1  0  0  0  0
 69 32  1  0  0  0  0
 71 36  1  0  0  0  0
 72 36  1  0  0  0  0
 73 39  1  0  0  0  0
 75 41  1  0  0  0  0
 80 45  1  0  0  0  0
M  END
