80
-1 1
O         1.329647   -0.752817   -1.579324
C         0.957343    0.284195   -2.181037
N         1.950311    0.893342   -2.965906
C         1.903273    2.181433   -3.497231
C         2.861687    3.147152   -3.138946
O         3.855799    2.861373   -2.211163
C         3.475104    2.626066   -0.938197
C         4.450123    2.354489    0.027474
Cl         6.155179    2.340100   -0.336332
C         3.974596    2.095308    1.327026
N         4.831451    1.899197    2.367264
N         2.667279    2.033445    1.597420
C         1.826178    2.257572    0.583440
N         0.487936    2.081185    0.689443
C        -0.276566    1.516967    1.714498
C         0.138848    1.346283    3.041449
C        -0.694105    0.713035    3.960408
C        -1.955108    0.204461    3.604924
N        -2.733610   -0.483705    4.556804
C        -4.131067   -0.765773    4.267557
C        -4.324394   -2.113887    3.555670
N        -3.718460   -3.213724    4.296288
C        -2.314566   -2.920974    4.544636
C        -2.106899   -1.586860    5.278462
C        -4.461008   -3.654333    5.450582
C        -2.380474    0.433664    2.287277
C        -1.563686    1.080283    1.370763
N         2.204674    2.640039   -0.648789
C         2.860666    4.413302   -3.708772
C         1.871661    4.760950   -4.627119
C         0.885794    3.832721   -4.957841
C         0.906747    2.554632   -4.405738
C        -0.276114    0.937677   -1.981931
C        -1.527398    0.811380   -2.390834
S        -2.201255   -0.328378   -3.631467
C        -1.457402   -1.928599   -3.205717
C        -1.857693   -2.533684   -1.855487
H        -2.832329   -2.124251   -1.534545
N        -0.863954   -2.213088   -0.840620
C        -1.071039   -2.262990    0.482424
C         0.115319   -1.863992    1.326812
O        -2.122052   -2.668891    0.999912
C        -2.056869   -4.068561   -2.003530
N        -2.483259   -4.671675   -0.870266
C        -2.684868   -6.092086   -0.779872
O        -1.873775   -4.658420   -3.056171
H         2.866875    0.549911   -2.699042
H         5.800080    1.698429    2.163472
H         4.424412    1.496003    3.199461
H         0.077119    1.970595   -0.266505
H         1.125123    1.693842    3.340643
H        -0.347574    0.606805    4.991091
H        -4.560586    0.060329    3.683723
H        -4.675015   -0.777981    5.230835
H        -3.845234   -2.086223    2.563550
H        -5.397986   -2.320389    3.409949
H        -1.812436   -2.871512    3.563377
H        -1.863594   -3.748952    5.117786
H        -1.034093   -1.390008    5.401889
H        -2.539807   -1.637804    6.294946
H        -5.478041   -3.949329    5.144815
H        -4.570496   -2.910310    6.271415
H        -3.975603   -4.543929    5.884371
H        -3.336853    0.050509    1.934260
H        -1.899956    1.188239    0.338071
H         3.629667    5.123005   -3.398468
H         1.865992    5.759296   -5.069950
H         0.096238    4.098029   -5.664417
H         0.150424    1.814311   -4.673304
H        -2.341326    1.433157   -1.991421
H        -0.363291   -1.866066   -3.285111
H        -1.789403   -2.609861   -3.999567
H         0.009293   -1.739719   -1.155689
H        -0.236803   -1.363413    2.235998
H         0.811392   -1.216566    0.777177
H         0.644710   -2.783613    1.623495
H        -2.578399   -4.080108   -0.037189
H        -3.708372   -6.330452   -0.446997
H        -1.978533   -6.559411   -0.073011
H        -2.525985   -6.527136   -1.774998
