72
-1 1
O         5.608685   -4.886149    8.593410
C         6.330991   -5.200613    9.533438
N         6.615324   -6.552241    9.723560
C         7.116411   -7.195926   10.855762
C         6.466690   -8.352893   11.312479
O         5.362989   -8.826877   10.619291
C         4.170524   -8.233873   10.813604
C         3.053182   -8.764175   10.137590
Cl         3.176842  -10.132345    9.071834
C         1.846885   -8.126311   10.380285
N         1.726227   -7.078587   11.184148
C         2.853358   -6.641881   11.776422
N         2.809370   -5.583847   12.600017
C         1.699892   -4.803820   12.912908
C         0.462849   -4.675448   12.307764
N        -0.200156   -3.707227   12.993496
C        -1.451233   -3.095685   12.564784
C        -2.322071   -2.638093   13.742304
C        -1.896046   -1.283589   14.313958
O        -1.772632   -0.309135   13.307544
C        -0.799166   -0.665176   12.348813
C        -1.202332   -1.926365   11.597307
N         0.523548   -3.205143   13.993192
C         1.670276   -3.865737   13.971422
N         4.071259   -7.204290   11.606800
C         6.927032   -9.066701   12.408252
C         8.053360   -8.620033   13.095963
C         8.705416   -7.466249   12.665144
C         8.252608   -6.766842   11.549640
C         6.895747   -4.254173   10.435381
C         6.991422   -3.474164   11.393119
S         5.281828   -3.600274   13.244124
C         4.499948   -1.952746   13.218302
C         4.160647   -1.356438   11.835290
H         5.087694   -1.318495   11.241104
N         3.639664   -0.013719   11.977442
C         4.408627    1.076274   12.184689
C         3.647765    2.387937   12.301154
O         5.624360    1.039117   12.279040
C         3.093524   -2.126006   11.044659
N         3.524162   -3.194521   10.366531
C         2.668419   -3.968097    9.502844
O         1.929975   -1.725274   11.004225
H         6.047463   -7.124391    9.107525
H         0.937578   -8.490524    9.889347
H         3.719382   -5.151015   12.864668
H         0.025761   -5.200513   11.466078
H        -1.981640   -3.895843   12.026039
H        -2.318570   -3.402388   14.534487
H        -3.354735   -2.548644   13.366196
H        -0.943343   -1.401830   14.857581
H        -2.660064   -0.917386   15.016920
H         0.185918   -0.821805   12.824480
H        -0.708741    0.182020   11.653901
H        -0.408941   -2.190718   10.883732
H        -2.136392   -1.730367   11.043971
H         2.455549   -3.667751   14.698885
H         6.380501   -9.958858   12.718183
H         8.413998   -9.168676   13.968125
H         9.586466   -7.103918   13.198855
H         8.771351   -5.872063   11.207443
H         7.490613   -2.702195   11.955581
H         5.176173   -1.226456   13.692750
H         3.570987   -1.966114   13.809668
H         2.634088    0.052284   11.848979
H         3.842840    2.815557   13.295035
H         2.562865    2.284068   12.161416
H         4.046707    3.091688   11.557120
H         4.489546   -3.484149   10.490377
H         3.306560   -4.605319    8.879001
H         2.077472   -3.298349    8.859904
H         1.964589   -4.593653   10.072565
