97
-1 1
C        -0.843664   -0.300488    3.177953
C        -1.914071   -1.366265    3.089345
O        -2.217184   -1.759987    1.747116
C        -2.717268   -0.933413    0.824599
O        -2.718581   -1.312125   -0.330255
C        -3.291069    0.357280    1.266324
C        -3.393041    1.481954    0.538205
S        -1.733697    4.100735    1.780939
C        -0.370954    3.006437    1.227347
C         0.936634    2.988877    2.045097
H         1.343833    4.010704    2.092050
N         1.911728    2.163089    1.363872
C         3.248272    2.398678    1.467180
C         4.119461    1.196452    1.146864
O         3.729363    3.467213    1.797225
C         0.817315    2.483119    3.501508
N        -0.173676    3.048608    4.221726
C        -0.452484    2.643031    5.569273
O         1.589376    1.647333    3.955108
C        -2.900032    1.820862   -0.848746
H        -2.586503    2.876019   -0.785449
N        -1.732603    1.079972   -1.250937
C        -0.675266    1.658309   -1.851044
C         0.581813    0.784993   -1.943451
H         1.173925    1.093476   -1.067814
N         0.319086   -0.644702   -1.751000
C        -0.306269   -1.358758   -2.743547
C        -0.589108   -2.678310   -2.592537
C        -0.268713   -3.334496   -1.375323
C         0.328468   -2.620178   -0.375523
N         0.630303   -3.077983    0.903956
C         0.203112   -4.224256    1.484149
C         0.474974   -4.290643    2.956190
N         1.102254   -3.337302    3.595348
O         1.139506   -3.716876    4.896190
C         0.531601   -4.904226    5.048321
C         0.482785   -5.460341    6.425247
C         0.079913   -5.333809    3.837397
O        -0.360889   -5.145695    0.924125
C         0.674744   -1.215021   -0.541817
O         1.230671   -0.578069    0.356563
C         1.386458    1.081845   -3.209695
C         2.715309    0.372415   -3.211077
C         2.925389   -0.780583   -3.973120
C         4.139111   -1.465861   -3.930070
C         5.147900   -0.986673   -3.106361
F         6.316468   -1.638591   -3.058428
C         4.973272    0.152642   -2.330559
C         3.755663    0.823942   -2.389531
O        -0.627684    2.818560   -2.218683
C        -4.044493    1.710369   -1.869264
C        -3.677383    2.265156   -3.267618
H        -2.859821    2.991790   -3.161413
C        -4.892028    2.837863   -4.013806
C        -5.489492    1.623291   -4.738755
N        -4.309877    0.823717   -4.983832
C        -3.230561    1.142889   -4.211997
O        -2.148011    0.598482   -4.287996
H        -1.224556    0.693893    2.904800
H        -0.002877   -0.539068    2.512630
H        -0.441841   -0.237822    4.198207
H        -2.839983   -1.066816    3.609664
H        -1.568397   -2.299896    3.554136
H        -3.653349    0.405643    2.295787
H        -3.855439    2.339609    1.035084
H        -0.074767    3.307840    0.212711
H        -0.724288    1.961524    1.151617
H         1.637226    1.194556    1.213556
H         3.616345    0.456759    0.508886
H         4.361025    0.708542    2.103539
H         5.056144    1.537810    0.685909
H        -0.873381    3.595857    3.684011
H         0.464270    2.238086    6.019440
H        -1.229845    1.857110    5.621321
H        -0.800198    3.502116    6.163651
H        -1.788722    0.070167   -1.157185
H        -0.618622   -0.782199   -3.613575
H        -1.103197   -3.209246   -3.392418
H        -0.526028   -4.378089   -1.206407
H         1.078725   -2.372855    1.491106
H         1.498557   -5.604961    6.821755
H        -0.037177   -6.425963    6.422276
H        -0.046996   -4.773803    7.101919
H        -0.456863   -6.241776    3.583016
H         1.518642    2.171965   -3.228598
H         0.797356    0.826214   -4.102845
H         2.120846   -1.157305   -4.609711
H         4.308823   -2.367832   -4.520243
H         5.781693    0.496894   -1.683960
H         3.607381    1.715047   -1.773426
H        -4.902121    2.281347   -1.478264
H        -4.364336    0.655686   -1.926567
H        -4.557412    3.575917   -4.758957
H        -5.613108    3.334241   -3.350227
H        -5.993667    1.897504   -5.678374
H        -6.222563    1.088871   -4.106661
H        -4.278471    0.024730   -5.602768
