97
-1 1
C        -0.807516   -0.492359    3.916698
C        -2.132726   -1.010054    3.384801
O        -2.128744   -1.218262    1.997277
C        -2.217269   -0.186497    1.072215
O        -2.116981   -0.626917   -0.106011
C        -2.432546    1.115653    1.508136
C        -2.555065    2.382110    0.718149
S        -1.256870    3.669489    1.223224
C         0.263536    2.720548    0.961363
C         1.431950    2.808278    1.955488
H         1.831642    3.835143    1.996728
N         2.469391    1.972188    1.403615
C         3.790465    2.232734    1.591806
C         4.706343    1.073699    1.246964
O         4.215284    3.295921    2.003930
C         1.176840    2.399083    3.425234
N         0.068686    2.938201    3.995061
C        -0.294935    2.674560    5.361995
O         1.965305    1.693958    4.026779
C        -2.631466    2.288099   -0.828866
H        -2.597209    3.304217   -1.246601
N        -1.490623    1.570545   -1.350556
C        -0.470638    2.141390   -1.999437
C         0.769777    1.237229   -2.173021
H         1.348189    1.398759   -1.251764
N         0.471608   -0.196596   -2.162416
C        -0.017409   -0.795305   -3.293002
C        -0.346617   -2.113395   -3.309141
C        -0.276732   -2.869941   -2.106133
C         0.161155   -2.261897   -0.964938
N         0.162805   -2.813898    0.309236
C        -0.616157   -3.845914    0.721007
C        -0.645524   -4.035053    2.205026
N         0.299308   -3.592555    2.991621
O        -0.066256   -3.947869    4.253611
C        -1.233135   -4.610208    4.224135
C        -1.788801   -5.045673    5.531545
C        -1.658205   -4.713951    2.935987
O        -1.247377   -4.594664   -0.000412
C         0.652663   -0.887799   -0.974084
O         1.164441   -0.370707    0.020758
C         1.633021    1.671757   -3.355175
C         2.942973    0.928056   -3.406584
C         3.224257    0.017310   -4.428330
C         4.423487   -0.694656   -4.457826
C         5.346370   -0.490045   -3.442848
F         6.501008   -1.167871   -3.461515
C         5.099392    0.401995   -2.406015
C         3.897628    1.103344   -2.395522
O        -0.398668    3.310897   -2.343360
C        -3.952166    1.596138   -1.190911
C        -4.313399    1.299341   -2.661271
H        -4.603508    2.219581   -3.188326
C        -5.402121    0.211704   -2.652329
C        -4.577816   -1.081962   -2.538505
N        -3.416313   -0.741156   -3.330884
C        -3.210392    0.598657   -3.469705
O        -2.341722    1.112244   -4.146856
H        -0.587360    0.499888    3.507824
H         0.013621   -1.166105    3.638613
H        -0.831523   -0.416552    5.014863
H        -2.965973   -0.345121    3.679830
H        -2.350687   -2.000386    3.819428
H        -2.505826    1.289544    2.581715
H        -3.453253    2.939898    1.039075
H         0.675171    3.031869   -0.004653
H        -0.055101    1.668332    0.894081
H         2.181580    1.038225    1.115383
H         4.252896    0.367285    0.537170
H         4.924363    0.530687    2.178966
H         5.650966    1.466374    0.848245
H        -0.619003    3.363384    3.370975
H         0.478856    2.032404    5.802223
H        -1.263734    2.152483    5.425398
H        -0.361996    3.606033    5.948374
H        -1.500276    0.576702   -1.042872
H        -0.180877   -0.136285   -4.144029
H        -0.704188   -2.566670   -4.234430
H        -0.625667   -3.899267   -2.064538
H         0.523255   -2.179985    1.021247
H        -1.071213   -5.683359    6.068499
H        -2.717451   -5.608324    5.376581
H        -2.006285   -4.174144    6.167098
H        -2.557525   -5.173808    2.540376
H         1.792168    2.750652   -3.223735
H         1.082865    1.566433   -4.301799
H         2.487333   -0.145350   -5.218849
H         4.646230   -1.408326   -5.252629
H         5.842581    0.534497   -1.618441
H         3.694524    1.798469   -1.575685
H        -4.772558    2.208774   -0.781829
H        -3.967340    0.647579   -0.638738
H        -5.962540    0.210538   -3.601169
H        -6.119974    0.329565   -1.827905
H        -5.105505   -1.952358   -2.958487
H        -4.291123   -1.311683   -1.497822
H        -2.654471   -1.385552   -3.503054
