85
-1 1
O         1.153709   -2.280502   -2.237515
C         1.580533   -2.675983   -1.170325
N         2.192143   -1.828604   -0.276191
C         2.355934   -2.119310    1.101678
C         1.278612   -1.974287    1.986423
O         0.024900   -1.643540    1.538946
C        -0.256645   -0.449138    0.991545
C        -1.596597   -0.226322    0.601444
C        -2.646465   -1.249158    0.823558
C        -3.887637   -0.920481    1.626738
C        -3.993556   -1.185104    0.157030
C        -1.796092    1.029378    0.048754
N        -0.843758    1.961009   -0.097943
C         0.367788    1.625829    0.313377
N         1.422870    2.502329    0.216471
C         1.503790    3.809570   -0.267471
C         2.742121    4.458583   -0.185918
C         2.911493    5.764039   -0.639100
C         1.847356    6.471970   -1.213485
N         1.980777    7.787712   -1.710682
C         3.321368    8.307112   -1.887732
C         3.283504    9.571315   -2.751001
N         2.389730   10.597019   -2.245023
C         1.065481   10.037505   -2.038404
C         1.066966    8.782900   -1.165026
C         2.907149   11.351520   -1.125985
C         0.613818    5.808261   -1.304561
C         0.430610    4.513264   -0.838140
N         0.702836    0.439340    0.850749
C         1.422983   -2.272084    3.337124
C         2.652284   -2.715995    3.817982
C         3.733447   -2.861450    2.950582
C         3.580086   -2.562455    1.598876
C         1.462185   -4.063620   -0.745506
C         1.234662   -5.216302   -0.442317
S        -0.831443   -7.860951   -0.126338
C        -1.619081   -6.521052   -1.085652
C        -2.161747   -5.376295   -0.201990
H        -1.312603   -4.895186    0.316449
N        -3.062486   -5.936911    0.768451
C        -3.621163   -5.216544    1.756321
C        -4.465046   -6.008988    2.738084
O        -3.505940   -4.001780    1.862578
C        -2.841681   -4.317138   -1.074055
N        -1.951810   -3.465457   -1.651847
C        -2.328388   -2.423899   -2.568147
O        -4.043874   -4.264668   -1.268169
H         2.064047   -0.845165   -0.504459
H        -2.273786   -2.259851    0.992574
H        -3.998584    0.111908    1.974278
H        -4.229652   -1.702610    2.307221
H        -4.205979   -0.342114   -0.507739
H        -4.405786   -2.142782   -0.171329
H        -2.794043    1.313955   -0.299994
H         2.275516    2.115720    0.599492
H         3.596526    3.934713    0.252523
H         3.893603    6.225259   -0.530768
H         3.937167    7.547751   -2.392719
H         3.813878    8.529747   -0.913766
H         2.943619    9.284961   -3.761242
H         4.298627    9.987494   -2.848999
H         0.645491    9.770575   -3.023737
H         0.410147   10.803785   -1.595013
H         0.050390    8.370532   -1.122593
H         1.348118    9.042547   -0.119961
H         3.867884   11.812008   -1.405072
H         3.077464   10.767029   -0.196803
H         2.209591   12.166714   -0.877270
H        -0.230953    6.313901   -1.777551
H        -0.535679    4.020945   -0.921078
H         0.554025   -2.169407    3.988355
H         2.760622   -2.958957    4.877043
H         4.694727   -3.219658    3.323868
H         4.405652   -2.681568    0.895225
H         0.907944   -6.242371   -0.186917
H        -2.462331   -6.910871   -1.680748
H        -0.910002   -6.077010   -1.803168
H        -2.936319   -6.944838    0.880257
H        -4.251700   -7.086618    2.717150
H        -5.525629   -5.854700    2.488540
H        -4.294926   -5.614565    3.748510
H        -0.964480   -3.608056   -1.477941
H        -1.806652   -2.533478   -3.531520
H        -2.093602   -1.426867   -2.160324
H        -3.411875   -2.494426   -2.728792
