-1 1
 OpenBabel05192410563D

 85 89  0  0  1  0  0  0  0  0999 V2000
   -1.1112   -5.7762   -0.6987 O   0  0  0  0  0  0  0  0  0  0  0  0
   -0.2219   -5.4656    0.1468 C   0  0  0  0  0  0  0  0  0  0  0  0
    0.7347   -4.5472   -0.3433 N   0  0  0  0  0  0  0  0  0  0  0  0
    1.8694   -3.9888    0.1994 C   0  0  0  0  0  0  0  0  0  0  0  0
    2.3598   -2.7988   -0.3867 C   0  0  0  0  0  0  0  0  0  0  0  0
    1.5883   -2.3266   -1.4374 O   0  0  0  0  0  0  0  0  0  0  0  0
    1.0749   -1.0965   -1.5121 C   0  0  0  0  0  0  0  0  0  0  0  0
   -0.2295   -0.9891   -2.0549 C   0  0  0  0  0  0  0  0  0  0  0  0
   -1.0778   -2.1874   -2.2788 C   0  0  0  0  0  0  0  0  0  0  0  0
   -2.0689   -2.2773   -3.4011 C   0  0  0  0  0  0  0  0  0  0  0  0
   -0.8628   -3.1778   -3.3902 C   0  0  0  0  0  0  0  0  0  0  0  0
   -0.6945    0.3061   -2.1550 C   0  0  0  0  0  0  0  0  0  0  0  0
   -0.0022    1.3885   -1.7674 N   0  0  0  0  0  0  0  0  0  0  0  0
    1.1988    1.1509   -1.2592 C   0  0  0  0  0  0  0  0  0  0  0  0
    1.9814    2.1817   -0.7912 N   0  0  0  0  0  0  0  0  0  0  0  0
    1.7509    3.5523   -0.6899 C   0  0  0  0  0  0  0  0  0  0  0  0
    2.7414    4.3380   -0.0854 C   0  0  0  0  0  0  0  0  0  0  0  0
    2.5908    5.7140    0.0633 C   0  0  0  0  0  0  0  0  0  0  0  0
    1.4449    6.3688   -0.4063 C   0  0  0  0  0  0  0  0  0  0  0  0
    1.2582    7.7669   -0.2969 N   0  0  0  0  0  0  0  0  0  0  0  0
    2.4141    8.5729    0.0374 C   0  0  0  0  0  0  0  0  0  0  0  0
    2.1150   10.0509   -0.2285 C   0  0  0  0  0  0  0  0  0  0  0  0
    0.9283   10.5375    0.4516 N   0  0  0  0  0  0  0  0  0  0  0  0
   -0.2044    9.6837    0.1376 C   0  0  0  0  0  0  0  0  0  0  0  0
    0.0593    8.2025    0.4074 C   0  0  0  0  0  0  0  0  0  0  0  0
    1.1077   10.8061    1.8606 C   0  0  0  0  0  0  0  0  0  0  0  0
    0.4648    5.5778   -1.0251 C   0  0  0  0  0  0  0  0  0  0  0  0
    0.5972    4.2022   -1.1609 C   0  0  0  0  0  0  0  0  0  0  0  0
    1.7812   -0.0529   -1.1456 N   0  0  0  0  0  0  0  0  0  0  0  0
    3.5378   -2.1980    0.0275 C   0  0  0  0  0  0  0  0  0  0  0  0
    4.2579   -2.7590    1.0843 C   0  0  0  0  0  0  0  0  0  0  0  0
    3.7822   -3.9181    1.6929 C   0  0  0  0  0  0  0  0  0  0  0  0
    2.6093   -4.5327    1.2607 C   0  0  0  0  0  0  0  0  0  0  0  0
   -0.0827   -5.9609    1.4284 C   0  0  0  0  0  3  0  0  0  0  0  0
   -0.4150   -5.7832    2.6875 C   0  0  0  0  0  0  0  0  0  0  0  0
   -1.4984   -4.4845    3.3908 S   0  0  0  0  0  0  0  0  0  0  0  0
   -2.7531   -4.3092    2.0965 C   0  0  0  0  0  0  0  0  0  0  0  0
   -2.4688   -3.2770    0.9933 C   0  0  2  0  0  0  0  0  0  0  0  0
   -1.4907   -3.4968    0.5500 H   0  0  0  0  0  0  0  0  0  0  0  0
   -2.4183   -1.9168    1.4652 N   0  0  0  0  0  0  0  0  0  0  0  0
   -1.3103   -1.1420    1.3238 C   0  0  0  0  0  0  0  0  0  0  0  0
   -1.4940    0.3280    1.6446 C   0  0  0  0  0  0  0  0  0  0  0  0
   -0.2325   -1.5727    0.9550 O   0  0  0  0  0  0  0  0  0  0  0  0
   -3.5910   -3.3866   -0.0526 C   0  0  0  0  0  0  0  0  0  0  0  0
   -3.4429   -4.4049   -0.9163 N   0  0  0  0  0  0  0  0  0  0  0  0
   -4.4500   -4.7372   -1.8873 C   0  0  0  0  0  0  0  0  0  0  0  0
   -4.5427   -2.6127   -0.0299 O   0  0  0  0  0  0  0  0  0  0  0  0
    0.4397   -4.1468   -1.2249 H   0  0  0  0  0  0  0  0  0  0  0  0
   -1.3945   -2.6503   -1.3415 H   0  0  0  0  0  0  0  0  0  0  0  0
   -2.0813   -1.4660   -4.1347 H   0  0  0  0  0  0  0  0  0  0  0  0
   -3.0487   -2.7021   -3.1754 H   0  0  0  0  0  0  0  0  0  0  0  0
   -0.0667   -2.9730   -4.1106 H   0  0  0  0  0  0  0  0  0  0  0  0
   -0.9982   -4.2310   -3.1261 H   0  0  0  0  0  0  0  0  0  0  0  0
   -1.7033    0.4886   -2.5414 H   0  0  0  0  0  0  0  0  0  0  0  0
    2.8505    1.8426   -0.3997 H   0  0  0  0  0  0  0  0  0  0  0  0
    3.6498    3.8598    0.2922 H   0  0  0  0  0  0  0  0  0  0  0  0
    3.3850    6.2702    0.5625 H   0  0  0  0  0  0  0  0  0  0  0  0
    3.2636    8.2597   -0.5882 H   0  0  0  0  0  0  0  0  0  0  0  0
    2.7253    8.4367    1.0983 H   0  0  0  0  0  0  0  0  0  0  0  0
    1.9674   10.1794   -1.3148 H   0  0  0  0  0  0  0  0  0  0  0  0
    2.9807   10.6665    0.0633 H   0  0  0  0  0  0  0  0  0  0  0  0
   -0.4389    9.8017   -0.9347 H   0  0  0  0  0  0  0  0  0  0  0  0
   -1.0842   10.0200    0.7087 H   0  0  0  0  0  0  0  0  0  0  0  0
   -0.8036    7.6130    0.0704 H   0  0  0  0  0  0  0  0  0  0  0  0
    0.1585    8.0224    1.5012 H   0  0  0  0  0  0  0  0  0  0  0  0
    1.9257   11.5311    1.9961 H   0  0  0  0  0  0  0  0  0  0  0  0
    1.3434    9.9197    2.4871 H   0  0  0  0  0  0  0  0  0  0  0  0
    0.1914   11.2612    2.2684 H   0  0  0  0  0  0  0  0  0  0  0  0
   -0.4281    6.0578   -1.4324 H   0  0  0  0  0  0  0  0  0  0  0  0
   -0.1774    3.6093   -1.6423 H   0  0  0  0  0  0  0  0  0  0  0  0
    3.8658   -1.2869   -0.4689 H   0  0  0  0  0  0  0  0  0  0  0  0
    5.1804   -2.2855    1.4275 H   0  0  0  0  0  0  0  0  0  0  0  0
    4.3353   -4.3643    2.5235 H   0  0  0  0  0  0  0  0  0  0  0  0
    2.2405   -5.4411    1.7349 H   0  0  0  0  0  0  0  0  0  0  0  0
   -0.0638   -6.4159    3.5156 H   0  0  0  0  0  0  0  0  0  0  0  0
   -3.6986   -4.0453    2.5967 H   0  0  0  0  0  0  0  0  0  0  0  0
   -2.8743   -5.2972    1.6295 H   0  0  0  0  0  0  0  0  0  0  0  0
   -3.3244   -1.4684    1.5486 H   0  0  0  0  0  0  0  0  0  0  0  0
   -2.4766    0.5665    2.0744 H   0  0  0  0  0  0  0  0  0  0  0  0
   -1.3497    0.9064    0.7194 H   0  0  0  0  0  0  0  0  0  0  0  0
   -0.7043    0.6292    2.3460 H   0  0  0  0  0  0  0  0  0  0  0  0
   -2.5863   -4.9974   -0.8386 H   0  0  0  0  0  0  0  0  0  0  0  0
   -5.0363   -5.6230   -1.5870 H   0  0  0  0  0  0  0  0  0  0  0  0
   -3.9863   -4.9531   -2.8622 H   0  0  0  0  0  0  0  0  0  0  0  0
   -5.1390   -3.8879   -1.9926 H   0  0  0  0  0  0  0  0  0  0  0  0
  1  2  2  0  0  0  0
  2 34  1  0  0  0  0
  3  2  1  0  0  0  0
  3  4  1  0  0  0  0
  4 33  1  0  0  0  0
  5 30  1  0  0  0  0
  5  4  2  0  0  0  0
  6  5  1  0  0  0  0
  7  6  1  0  0  0  0
  7 29  2  0  0  0  0
  8  7  1  0  0  0  0
  9  8  1  0  0  0  0
  9 49  1  0  0  0  0
 10 11  1  0  0  0  0
 10 51  1  0  0  0  0
 10  9  1  0  0  0  0
 11 53  1  0  0  0  0
 11  9  1  0  0  0  0
 12  8  2  0  0  0  0
 12 13  1  0  0  0  0
 13 14  2  0  0  0  0
 14 29  1  0  0  0  0
 14 15  1  0  0  0  0
 15 16  1  0  0  0  0
 15 55  1  0  0  0  0
 16 17  1  0  0  0  0
 17 18  2  0  0  0  0
 17 56  1  0  0  0  0
 18 57  1  0  0  0  0
 19 20  1  0  0  0  0
 19 18  1  0  0  0  0
 20 21  1  0  0  0  0
 20 25  1  0  0  0  0
 21 59  1  0  0  0  0
 22 21  1  0  0  0  0
 22 61  1  0  0  0  0
 22 23  1  0  0  0  0
 23 26  1  0  0  0  0
 24 25  1  0  0  0  0
 24 23  1  0  0  0  0
 24 63  1  0  0  0  0
 25 65  1  0  0  0  0
 26 66  1  0  0  0  0
 26 68  1  0  0  0  0
 26 67  1  0  0  0  0
 27 19  2  0  0  0  0
 28 27  1  0  0  0  0
 28 16  2  0  0  0  0
 30 31  2  0  0  0  0
 31 72  1  0  0  0  0
 31 32  1  0  0  0  0
 32 73  1  0  0  0  0
 33 32  2  0  0  0  0
 33 74  1  0  0  0  0
 34 35  2  0  0  0  0
 35 36  1  0  0  0  0
 35 75  1  0  0  0  0
 37 76  1  0  0  0  0
 37 36  1  0  0  0  0
 38 39  1  6  0  0  0
 38 40  1  0  0  0  0
 38 37  1  0  0  0  0
 40 78  1  0  0  0  0
 41 40  1  0  0  0  0
 41 42  1  0  0  0  0
 42 79  1  0  0  0  0
 42 81  1  0  0  0  0
 43 41  2  0  0  0  0
 44 47  2  0  0  0  0
 44 38  1  0  0  0  0
 45 82  1  0  0  0  0
 45 44  1  0  0  0  0
 46 83  1  0  0  0  0
 46 45  1  0  0  0  0
 48  3  1  0  0  0  0
 50 10  1  0  0  0  0
 52 11  1  0  0  0  0
 54 12  1  0  0  0  0
 58 21  1  0  0  0  0
 60 22  1  0  0  0  0
 62 24  1  0  0  0  0
 64 25  1  0  0  0  0
 69 27  1  0  0  0  0
 70 28  1  0  0  0  0
 71 30  1  0  0  0  0
 77 37  1  0  0  0  0
 80 42  1  0  0  0  0
 84 46  1  0  0  0  0
 85 46  1  0  0  0  0
M  END
