85
-1 1
O        -1.111229   -5.776182   -0.698653
C        -0.221892   -5.465585    0.146832
N         0.734730   -4.547249   -0.343275
C         1.869429   -3.988821    0.199366
C         2.359786   -2.798769   -0.386712
O         1.588273   -2.326603   -1.437378
C         1.074918   -1.096534   -1.512117
C        -0.229464   -0.989077   -2.054917
C        -1.077804   -2.187410   -2.278791
C        -2.068906   -2.277314   -3.401090
C        -0.862802   -3.177838   -3.390226
C        -0.694507    0.306102   -2.155010
N        -0.002199    1.388455   -1.767378
C         1.198816    1.150873   -1.259247
N         1.981405    2.181705   -0.791220
C         1.750887    3.552297   -0.689914
C         2.741376    4.338031   -0.085382
C         2.590779    5.714017    0.063262
C         1.444851    6.368835   -0.406286
N         1.258226    7.766939   -0.296850
C         2.414114    8.572909    0.037433
C         2.115027   10.050901   -0.228493
N         0.928310   10.537541    0.451608
C        -0.204418    9.683726    0.137580
C         0.059271    8.202461    0.407413
C         1.107695   10.806103    1.860649
C         0.464850    5.577838   -1.025092
C         0.597199    4.202153   -1.160942
N         1.781212   -0.052916   -1.145585
C         3.537820   -2.198010    0.027463
C         4.257921   -2.759001    1.084313
C         3.782157   -3.918111    1.692920
C         2.609301   -4.532717    1.260656
C        -0.082664   -5.960943    1.428396
C        -0.414991   -5.783195    2.687524
S        -1.498386   -4.484485    3.390790
C        -2.753060   -4.309223    2.096451
C        -2.468808   -3.276979    0.993348
H        -1.490675   -3.496832    0.549952
N        -2.418298   -1.916783    1.465172
C        -1.310301   -1.141990    1.323792
C        -1.493952    0.328027    1.644603
O        -0.232469   -1.572717    0.955017
C        -3.591000   -3.386558   -0.052566
N        -3.442890   -4.404870   -0.916343
C        -4.449971   -4.737189   -1.887335
O        -4.542719   -2.612734   -0.029881
H         0.439692   -4.146775   -1.224946
H        -1.394459   -2.650308   -1.341489
H        -2.081263   -1.466041   -4.134690
H        -3.048749   -2.702137   -3.175419
H        -0.066684   -2.972973   -4.110598
H        -0.998197   -4.231019   -3.126148
H        -1.703317    0.488574   -2.541373
H         2.850457    1.842573   -0.399658
H         3.649759    3.859798    0.292162
H         3.385023    6.270183    0.562470
H         3.263598    8.259718   -0.588212
H         2.725273    8.436737    1.098346
H         1.967377   10.179365   -1.314800
H         2.980697   10.666541    0.063269
H        -0.438886    9.801661   -0.934728
H        -1.084223   10.020003    0.708674
H        -0.803551    7.612977    0.070362
H         0.158527    8.022443    1.501210
H         1.925711   11.531086    1.996143
H         1.343403    9.919697    2.487067
H         0.191386   11.261211    2.268396
H        -0.428121    6.057758   -1.432398
H        -0.177353    3.609338   -1.642289
H         3.865799   -1.286896   -0.468897
H         5.180419   -2.285531    1.427503
H         4.335270   -4.364285    2.523539
H         2.240486   -5.441124    1.734867
H        -0.063790   -6.415862    3.515562
H        -3.698579   -4.045277    2.596666
H        -2.874314   -5.297223    1.629454
H        -3.324424   -1.468360    1.548621
H        -2.476606    0.566454    2.074414
H        -1.349709    0.906390    0.719440
H        -0.704287    0.629171    2.345967
H        -2.586260   -4.997447   -0.838629
H        -5.036308   -5.623008   -1.587038
H        -3.986272   -4.953088   -2.862225
H        -5.139012   -3.887912   -1.992641
