85
-1 1
O         0.432870    3.748495    2.683756
C         1.146211    3.855466    3.678660
N         1.293319    5.110371    4.244601
C         2.056357    5.574508    5.313042
C         1.619278    6.747871    5.957894
O         0.412276    7.239356    5.513374
C         0.216604    8.486132    5.063148
C        -1.034575    8.712359    4.440502
C        -2.002381    7.596623    4.288823
C        -3.045224    7.582138    3.210748
C        -1.876190    6.640260    3.125525
C        -1.205763   10.014413    4.009873
N        -0.283078   10.980932    4.138387
C         0.852622   10.629600    4.721497
N         1.873596   11.533726    4.891097
C         1.987472   12.883561    4.555200
C         3.192496   13.530687    4.857133
C         3.387592   14.878639    4.568692
C         2.386740   15.635199    3.944513
N         2.551308   16.998055    3.609362
C         3.891861   17.544905    3.657217
C         3.932880   18.895194    2.936163
N         2.961571   19.852317    3.433496
C         1.634513   19.262476    3.413062
C         1.556257   17.920463    4.140776
C         3.321140   20.485092    4.682408
C         1.188245   14.974808    3.631728
C         0.977345   13.635756    3.933117
N         1.139981    9.405334    5.201955
C         2.320057    7.308720    7.016566
C         3.495553    6.703553    7.455661
C         3.951285    5.548935    6.822489
C         3.247609    4.989162    5.759796
C         1.779621    2.745257    4.314934
C         1.961758    1.768494    5.036065
S        -0.151271    0.911983    6.547682
C        -1.267014    1.284800    5.156025
C        -1.831764    2.721086    5.157426
H        -1.025497    3.428544    4.904554
N        -2.339503    3.045800    6.463025
C        -2.802044    4.271786    6.758033
C        -3.120117    4.524191    8.219618
O        -2.961888    5.149663    5.916998
C        -2.926117    2.825842    4.089712
N        -2.442330    3.171830    2.865478
C        -3.288035    3.281977    1.709917
O        -4.094560    2.563662    4.305164
H         0.588051    5.755969    3.900859
H        -2.284807    7.091167    5.217888
H        -3.082462    8.410233    2.496993
H        -4.017598    7.159793    3.472343
H        -1.117497    6.850190    2.364905
H        -2.048246    5.583779    3.341611
H        -2.143888   10.304682    3.525646
H         2.678302   11.113608    5.338013
H         3.997703   12.969902    5.340548
H         4.338835   15.333879    4.846092
H         4.581590   16.850127    3.154766
H         4.255957   17.664305    4.703095
H         3.726176   18.717704    1.866601
H         4.943038   19.328004    3.010604
H         1.344421   19.100681    2.360320
H         0.913233   19.970512    3.850850
H         0.551361   17.497363    4.012441
H         1.701615   18.067200    5.234323
H         4.298706   20.981002    4.575858
H         3.388502   19.804476    5.557698
H         2.580842   21.262686    4.927882
H         0.396741   15.521659    3.114404
H         0.040445   13.145668    3.678023
H         1.934988    8.212644    7.487015
H         4.049708    7.134333    8.291854
H         4.873084    5.068749    7.157851
H         3.614019    4.088155    5.271441
H         2.412004    0.919073    5.513213
H        -2.121725    0.588937    5.168418
H        -0.743823    1.147493    4.196975
H        -1.989187    2.426776    7.196705
H        -3.025263    3.626772    8.845526
H        -4.144361    4.915474    8.291417
H        -2.438709    5.301181    8.595938
H        -1.442084    3.344454    2.760160
H        -2.984635    2.582526    0.912874
H        -3.272940    4.305068    1.296843
H        -4.313548    3.042367    2.020549
