81
-1 1
O         1.983769    0.389704   -2.940543
C         2.712822    0.988079   -2.117130
N         3.817315    0.231511   -1.666871
C         4.715375    0.451300   -0.646176
C         5.270279   -0.658253    0.022697
O         4.889499   -1.940899   -0.360811
C         3.684130   -2.406089    0.025588
C         3.334735   -3.704633   -0.409849
C         4.244559   -4.531328   -1.267131
C         2.091058   -4.116835    0.040158
N         1.265458   -3.375466    0.782648
C         1.695707   -2.151118    1.086811
N         0.919085   -1.277701    1.784476
C        -0.462607   -1.271558    2.029596
C        -1.001358   -0.098110    2.566204
C        -2.370034    0.071630    2.712508
C        -3.280091   -0.931592    2.336426
N        -4.676731   -0.738601    2.404212
C        -5.159430    0.626802    2.562732
C        -5.059591    1.392019    1.235790
N        -5.798941    0.735551    0.160731
C        -5.434780   -0.680118    0.058800
C        -5.506379   -1.411721    1.406659
C        -7.221943    0.983323    0.194708
C        -2.718304   -2.143012    1.901609
C        -1.346445   -2.318340    1.748533
N         2.904893   -1.657053    0.757535
C         6.212968   -0.518406    1.028460
C         6.628565    0.754035    1.418445
C         6.077208    1.866856    0.783597
C         5.138350    1.725924   -0.234050
C         2.543386    2.325232   -1.729891
C         1.748552    2.886099   -0.832249
S         0.795233    1.949380    0.404345
C        -0.919854    2.383703   -0.003148
C        -1.484958    1.822740   -1.324699
H        -0.890127    2.225625   -2.159682
N        -2.875350    2.208922   -1.468229
C        -3.308693    3.462801   -1.732293
C        -4.822275    3.606185   -1.776407
O        -2.566080    4.408400   -1.934373
C        -1.485396    0.290143   -1.352776
N        -0.426047   -0.304049   -1.894462
C        -0.278712   -1.736764   -1.878492
O        -2.448727   -0.323362   -0.890018
H         3.753350   -0.717003   -2.015314
H         5.222173   -4.685011   -0.784132
H         4.440935   -4.039794   -2.232953
H         3.798956   -5.516368   -1.468819
H         1.731190   -5.119585   -0.222799
H         1.346361   -0.355693    1.813131
H        -0.335136    0.728359    2.827055
H        -2.714143    1.033628    3.089073
H        -4.622912    1.142689    3.369255
H        -6.211630    0.571602    2.890468
H        -4.000279    1.445492    0.937541
H        -5.422751    2.427214    1.342789
H        -4.401811   -0.742150   -0.316478
H        -6.093622   -1.161984   -0.681603
H        -5.206248   -2.459803    1.289071
H        -6.540388   -1.431336    1.793413
H        -7.409951    2.068575    0.158048
H        -7.751889    0.585528    1.088214
H        -7.695899    0.535038   -0.692484
H        -3.360762   -2.981789    1.634463
H        -0.952374   -3.260455    1.373667
H         6.600411   -1.420431    1.506269
H         7.365585    0.871713    2.215400
H         6.385544    2.872291    1.080657
H         4.707862    2.594953   -0.733130
H         1.631238    3.970095   -0.695238
H        -1.015939    3.478566   -0.043109
H        -1.534406    2.008280    0.828345
H        -3.539281    1.468877   -1.251033
H        -5.346777    2.699562   -1.440675
H        -5.122452    3.847225   -2.806941
H        -5.106755    4.459720   -1.144945
H         0.368075    0.224383   -2.296387
H        -0.540277   -2.147816   -0.893453
H         0.769964   -1.968080   -2.106678
H        -0.922941   -2.225810   -2.629577
