-1 1
 OpenBabel05192410563D

 81 84  0  0  1  0  0  0  0  0999 V2000
    1.9838    0.3897   -2.9405 O   0  0  0  0  0  0  0  0  0  0  0  0
    2.7128    0.9881   -2.1171 C   0  0  0  0  0  0  0  0  0  0  0  0
    3.8173    0.2315   -1.6669 N   0  0  0  0  0  0  0  0  0  0  0  0
    4.7154    0.4513   -0.6462 C   0  0  0  0  0  0  0  0  0  0  0  0
    5.2703   -0.6583    0.0227 C   0  0  0  0  0  0  0  0  0  0  0  0
    4.8895   -1.9409   -0.3608 O   0  0  0  0  0  0  0  0  0  0  0  0
    3.6841   -2.4061    0.0256 C   0  0  0  0  0  0  0  0  0  0  0  0
    3.3347   -3.7046   -0.4098 C   0  0  0  0  0  0  0  0  0  0  0  0
    4.2446   -4.5313   -1.2671 C   0  0  0  0  0  0  0  0  0  0  0  0
    2.0911   -4.1168    0.0402 C   0  0  0  0  0  0  0  0  0  0  0  0
    1.2655   -3.3755    0.7826 N   0  0  0  0  0  0  0  0  0  0  0  0
    1.6957   -2.1511    1.0868 C   0  0  0  0  0  0  0  0  0  0  0  0
    0.9191   -1.2777    1.7845 N   0  0  0  0  0  0  0  0  0  0  0  0
   -0.4626   -1.2716    2.0296 C   0  0  0  0  0  0  0  0  0  0  0  0
   -1.0014   -0.0981    2.5662 C   0  0  0  0  0  0  0  0  0  0  0  0
   -2.3700    0.0716    2.7125 C   0  0  0  0  0  0  0  0  0  0  0  0
   -3.2801   -0.9316    2.3364 C   0  0  0  0  0  0  0  0  0  0  0  0
   -4.6767   -0.7386    2.4042 N   0  0  0  0  0  0  0  0  0  0  0  0
   -5.1594    0.6268    2.5627 C   0  0  0  0  0  0  0  0  0  0  0  0
   -5.0596    1.3920    1.2358 C   0  0  0  0  0  0  0  0  0  0  0  0
   -5.7989    0.7356    0.1607 N   0  0  0  0  0  0  0  0  0  0  0  0
   -5.4348   -0.6801    0.0588 C   0  0  0  0  0  0  0  0  0  0  0  0
   -5.5064   -1.4117    1.4067 C   0  0  0  0  0  0  0  0  0  0  0  0
   -7.2219    0.9833    0.1947 C   0  0  0  0  0  0  0  0  0  0  0  0
   -2.7183   -2.1430    1.9016 C   0  0  0  0  0  0  0  0  0  0  0  0
   -1.3464   -2.3183    1.7485 C   0  0  0  0  0  0  0  0  0  0  0  0
    2.9049   -1.6571    0.7575 N   0  0  0  0  0  0  0  0  0  0  0  0
    6.2130   -0.5184    1.0285 C   0  0  0  0  0  0  0  0  0  0  0  0
    6.6286    0.7540    1.4184 C   0  0  0  0  0  0  0  0  0  0  0  0
    6.0772    1.8669    0.7836 C   0  0  0  0  0  0  0  0  0  0  0  0
    5.1383    1.7259   -0.2341 C   0  0  0  0  0  0  0  0  0  0  0  0
    2.5434    2.3252   -1.7299 C   0  0  0  0  0  3  0  0  0  0  0  0
    1.7486    2.8861   -0.8322 C   0  0  0  0  0  0  0  0  0  0  0  0
    0.7952    1.9494    0.4043 S   0  0  0  0  0  0  0  0  0  0  0  0
   -0.9199    2.3837   -0.0031 C   0  0  0  0  0  0  0  0  0  0  0  0
   -1.4850    1.8227   -1.3247 C   0  0  2  0  0  0  0  0  0  0  0  0
   -0.8901    2.2256   -2.1597 H   0  0  0  0  0  0  0  0  0  0  0  0
   -2.8754    2.2089   -1.4682 N   0  0  0  0  0  0  0  0  0  0  0  0
   -3.3087    3.4628   -1.7323 C   0  0  0  0  0  0  0  0  0  0  0  0
   -4.8223    3.6062   -1.7764 C   0  0  0  0  0  0  0  0  0  0  0  0
   -2.5661    4.4084   -1.9344 O   0  0  0  0  0  0  0  0  0  0  0  0
   -1.4854    0.2901   -1.3528 C   0  0  0  0  0  0  0  0  0  0  0  0
   -0.4260   -0.3040   -1.8945 N   0  0  0  0  0  0  0  0  0  0  0  0
   -0.2787   -1.7368   -1.8785 C   0  0  0  0  0  0  0  0  0  0  0  0
   -2.4487   -0.3234   -0.8900 O   0  0  0  0  0  0  0  0  0  0  0  0
    3.7534   -0.7170   -2.0153 H   0  0  0  0  0  0  0  0  0  0  0  0
    5.2222   -4.6850   -0.7841 H   0  0  0  0  0  0  0  0  0  0  0  0
    4.4409   -4.0398   -2.2330 H   0  0  0  0  0  0  0  0  0  0  0  0
    3.7990   -5.5164   -1.4688 H   0  0  0  0  0  0  0  0  0  0  0  0
    1.7312   -5.1196   -0.2228 H   0  0  0  0  0  0  0  0  0  0  0  0
    1.3464   -0.3557    1.8131 H   0  0  0  0  0  0  0  0  0  0  0  0
   -0.3351    0.7284    2.8271 H   0  0  0  0  0  0  0  0  0  0  0  0
   -2.7141    1.0336    3.0891 H   0  0  0  0  0  0  0  0  0  0  0  0
   -4.6229    1.1427    3.3693 H   0  0  0  0  0  0  0  0  0  0  0  0
   -6.2116    0.5716    2.8905 H   0  0  0  0  0  0  0  0  0  0  0  0
   -4.0003    1.4455    0.9375 H   0  0  0  0  0  0  0  0  0  0  0  0
   -5.4228    2.4272    1.3428 H   0  0  0  0  0  0  0  0  0  0  0  0
   -4.4018   -0.7421   -0.3165 H   0  0  0  0  0  0  0  0  0  0  0  0
   -6.0936   -1.1620   -0.6816 H   0  0  0  0  0  0  0  0  0  0  0  0
   -5.2062   -2.4598    1.2891 H   0  0  0  0  0  0  0  0  0  0  0  0
   -6.5404   -1.4313    1.7934 H   0  0  0  0  0  0  0  0  0  0  0  0
   -7.4100    2.0686    0.1580 H   0  0  0  0  0  0  0  0  0  0  0  0
   -7.7519    0.5855    1.0882 H   0  0  0  0  0  0  0  0  0  0  0  0
   -7.6959    0.5350   -0.6925 H   0  0  0  0  0  0  0  0  0  0  0  0
   -3.3608   -2.9818    1.6345 H   0  0  0  0  0  0  0  0  0  0  0  0
   -0.9524   -3.2605    1.3737 H   0  0  0  0  0  0  0  0  0  0  0  0
    6.6004   -1.4204    1.5063 H   0  0  0  0  0  0  0  0  0  0  0  0
    7.3656    0.8717    2.2154 H   0  0  0  0  0  0  0  0  0  0  0  0
    6.3855    2.8723    1.0807 H   0  0  0  0  0  0  0  0  0  0  0  0
    4.7079    2.5950   -0.7331 H   0  0  0  0  0  0  0  0  0  0  0  0
    1.6312    3.9701   -0.6952 H   0  0  0  0  0  0  0  0  0  0  0  0
   -1.0159    3.4786   -0.0431 H   0  0  0  0  0  0  0  0  0  0  0  0
   -1.5344    2.0083    0.8283 H   0  0  0  0  0  0  0  0  0  0  0  0
   -3.5393    1.4689   -1.2510 H   0  0  0  0  0  0  0  0  0  0  0  0
   -5.3468    2.6996   -1.4407 H   0  0  0  0  0  0  0  0  0  0  0  0
   -5.1225    3.8472   -2.8069 H   0  0  0  0  0  0  0  0  0  0  0  0
   -5.1068    4.4597   -1.1449 H   0  0  0  0  0  0  0  0  0  0  0  0
    0.3681    0.2244   -2.2964 H   0  0  0  0  0  0  0  0  0  0  0  0
   -0.5403   -2.1478   -0.8935 H   0  0  0  0  0  0  0  0  0  0  0  0
    0.7700   -1.9681   -2.1067 H   0  0  0  0  0  0  0  0  0  0  0  0
   -0.9229   -2.2258   -2.6296 H   0  0  0  0  0  0  0  0  0  0  0  0
  1  2  2  0  0  0  0
  2 32  1  0  0  0  0
  2  3  1  0  0  0  0
  3  4  1  0  0  0  0
  4 31  2  0  0  0  0
  4  5  1  0  0  0  0
  5 28  2  0  0  0  0
  6  5  1  0  0  0  0
  6  7  1  0  0  0  0
  7 27  2  0  0  0  0
  8  7  1  0  0  0  0
  8 10  2  0  0  0  0
  9 47  1  0  0  0  0
  9  8  1  0  0  0  0
 10 11  1  0  0  0  0
 11 12  2  0  0  0  0
 12 13  1  0  0  0  0
 13 51  1  0  0  0  0
 13 14  1  0  0  0  0
 14 15  1  0  0  0  0
 15 16  2  0  0  0  0
 15 52  1  0  0  0  0
 16 53  1  0  0  0  0
 17 18  1  0  0  0  0
 17 16  1  0  0  0  0
 18 19  1  0  0  0  0
 19 55  1  0  0  0  0
 19 54  1  0  0  0  0
 20 57  1  0  0  0  0
 20 19  1  0  0  0  0
 21 24  1  0  0  0  0
 21 20  1  0  0  0  0
 22 21  1  0  0  0  0
 22 23  1  0  0  0  0
 23 61  1  0  0  0  0
 23 18  1  0  0  0  0
 24 63  1  0  0  0  0
 25 17  2  0  0  0  0
 26 25  1  0  0  0  0
 26 14  2  0  0  0  0
 27 12  1  0  0  0  0
 28 29  1  0  0  0  0
 28 67  1  0  0  0  0
 29 68  1  0  0  0  0
 30 69  1  0  0  0  0
 30 29  2  0  0  0  0
 31 30  1  0  0  0  0
 32 33  2  0  0  0  0
 33 71  1  0  0  0  0
 33 34  1  0  0  0  0
 35 34  1  0  0  0  0
 35 73  1  0  0  0  0
 36 37  1  6  0  0  0
 36 35  1  0  0  0  0
 38 36  1  0  0  0  0
 38 74  1  0  0  0  0
 39 38  1  0  0  0  0
 40 39  1  0  0  0  0
 40 75  1  0  0  0  0
 40 77  1  0  0  0  0
 41 39  2  0  0  0  0
 42 36  1  0  0  0  0
 42 45  2  0  0  0  0
 43 44  1  0  0  0  0
 43 42  1  0  0  0  0
 44 79  1  0  0  0  0
 46  3  1  0  0  0  0
 48  9  1  0  0  0  0
 49  9  1  0  0  0  0
 50 10  1  0  0  0  0
 56 20  1  0  0  0  0
 58 22  1  0  0  0  0
 59 22  1  0  0  0  0
 60 23  1  0  0  0  0
 62 24  1  0  0  0  0
 64 24  1  0  0  0  0
 65 25  1  0  0  0  0
 66 26  1  0  0  0  0
 70 31  1  0  0  0  0
 72 35  1  0  0  0  0
 76 40  1  0  0  0  0
 78 43  1  0  0  0  0
 80 44  1  0  0  0  0
 81 44  1  0  0  0  0
M  END
