-1 1
 OpenBabel05192410563D

 97100  0  0  1  0  0  0  0  0999 V2000
   -4.8522   -1.0051    0.6738 C   0  0  0  0  0  0  0  0  0  0  0  0
   -4.1818   -0.1704    1.7508 C   0  0  0  0  0  0  0  0  0  0  0  0
   -3.1176    0.6156    1.2659 O   0  0  0  0  0  0  0  0  0  0  0  0
   -1.8424    0.0369    1.2988 C   0  0  0  0  0  0  0  0  0  0  0  0
   -1.7942   -1.2244    1.2514 O   0  0  0  0  0  0  0  0  0  0  0  0
   -0.8376    0.9816    1.3412 C   0  0  0  0  0  3  0  0  0  0  0  0
    0.6447    0.7615    1.4633 C   0  0  1  0  0  0  0  0  0  0  0  0
    1.1922    1.8989    2.8278 S   0  0  0  0  0  0  0  0  0  0  0  0
    2.8659    2.3843    2.2860 C   0  0  0  0  0  0  0  0  0  0  0  0
    3.6580    3.0453    3.4294 C   0  0  2  0  0  0  0  0  0  0  0  0
    2.9634    3.6896    3.9994 H   0  0  0  0  0  0  0  0  0  0  0  0
    4.7404    3.8553    2.9283 N   0  0  0  0  0  0  0  0  0  0  0  0
    4.5517    5.0827    2.3874 C   0  0  0  0  0  0  0  0  0  0  0  0
    5.8211    5.8117    1.9830 C   0  0  0  0  0  0  0  0  0  0  0  0
    3.4496    5.5684    2.2051 O   0  0  0  0  0  0  0  0  0  0  0  0
    4.3048    2.0336    4.3981 C   0  0  0  0  0  0  0  0  0  0  0  0
    3.4752    1.1534    4.9824 N   0  0  0  0  0  0  0  0  0  0  0  0
    3.9578    0.1056    5.8533 C   0  0  0  0  0  0  0  0  0  0  0  0
    5.5131    2.0537    4.6008 O   0  0  0  0  0  0  0  0  0  0  0  0
    1.0270   -0.7236    1.7087 C   0  0  1  0  0  0  0  0  0  0  0  0
    0.2963   -1.0888    2.4466 H   0  0  0  0  0  0  0  0  0  0  0  0
    0.7075   -1.4587    0.4867 N   0  0  0  0  0  0  0  0  0  0  0  0
    1.4663   -1.4965   -0.6183 C   0  0  0  0  0  0  0  0  0  0  0  0
    0.7851   -2.1239   -1.8560 C   0  0  1  0  0  0  0  0  0  0  0  0
    0.8572   -3.2152   -1.7201 H   0  0  0  0  0  0  0  0  0  0  0  0
   -0.6412   -1.8281   -1.9413 N   0  0  0  0  0  0  0  0  0  0  0  0
   -1.5400   -2.8375   -2.1833 C   0  0  0  0  0  0  0  0  0  0  0  0
   -2.8511   -2.5755   -2.4083 C   0  0  0  0  0  0  0  0  0  0  0  0
   -3.3226   -1.2337   -2.3360 C   0  0  0  0  0  0  0  0  0  0  0  0
   -2.4432   -0.2326   -2.0362 C   0  0  0  0  0  0  0  0  0  0  0  0
   -2.7461    1.1032   -1.8081 N   0  0  0  0  0  0  0  0  0  0  0  0
   -3.9728    1.6904   -1.8631 C   0  0  0  0  0  0  0  0  0  0  0  0
   -3.9763    3.0738   -1.2783 C   0  0  0  0  0  0  0  0  0  0  0  0
   -4.4482    4.0934   -1.9492 N   0  0  0  0  0  0  0  0  0  0  0  0
   -4.3118    5.1679   -1.1210 O   0  0  0  0  0  0  0  0  0  0  0  0
   -3.7663    4.7903    0.0464 C   0  0  0  0  0  0  0  0  0  0  0  0
   -3.5488    5.8450    1.0702 C   0  0  0  0  0  0  0  0  0  0  0  0
   -3.5212    3.4518    0.0171 C   0  0  0  0  0  0  0  0  0  0  0  0
   -4.9731    1.1679   -2.3139 O   0  0  0  0  0  0  0  0  0  0  0  0
   -1.0089   -0.4906   -1.9297 C   0  0  0  0  0  0  0  0  0  0  0  0
   -0.1733    0.4024   -1.8489 O   0  0  0  0  0  0  0  0  0  0  0  0
    1.5381   -1.7358   -3.1412 C   0  0  0  0  0  0  0  0  0  0  0  0
    0.8356   -2.2503   -4.3683 C   0  0  0  0  0  0  0  0  0  0  0  0
    1.0412   -3.5601   -4.8171 C   0  0  0  0  0  0  0  0  0  0  0  0
    0.3158   -4.0575   -5.8891 C   0  0  0  0  0  0  0  0  0  0  0  0
    0.5150   -5.3044   -6.3173 F   0  0  0  0  0  0  0  0  0  0  0  0
   -0.6320   -3.2613   -6.5301 C   0  0  0  0  0  0  0  0  0  0  0  0
   -1.3205   -3.7635   -7.5551 F   0  0  0  0  0  0  0  0  0  0  0  0
   -0.8455   -1.9604   -6.1005 C   0  0  0  0  0  0  0  0  0  0  0  0
   -0.1113   -1.4587   -5.0276 C   0  0  0  0  0  0  0  0  0  0  0  0
    2.6478   -1.1913   -0.7013 O   0  0  0  0  0  0  0  0  0  0  0  0
    2.4288   -1.0125    2.2521 C   0  0  0  0  0  0  0  0  0  0  0  0
    2.6132   -2.4079    2.8762 C   0  0  2  0  0  0  0  0  0  0  0  0
    3.6247   -2.4299    3.3093 H   0  0  0  0  0  0  0  0  0  0  0  0
    2.3757   -3.6303    1.9719 C   0  0  0  0  0  0  0  0  0  0  0  0
    0.9415   -4.0883    2.2903 C   0  0  0  0  0  0  0  0  0  0  0  0
    0.7495   -3.5914    3.6390 N   0  0  0  0  0  0  0  0  0  0  0  0
    1.6115   -2.6098    4.0139 C   0  0  0  0  0  0  0  0  0  0  0  0
    1.5577   -1.9876    5.0581 O   0  0  0  0  0  0  0  0  0  0  0  0
   -4.1275   -1.7256    0.2722 H   0  0  0  0  0  0  0  0  0  0  0  0
   -5.2177   -0.3698   -0.1470 H   0  0  0  0  0  0  0  0  0  0  0  0
   -5.7110   -1.5539    1.0945 H   0  0  0  0  0  0  0  0  0  0  0  0
   -3.8218   -0.8276    2.5590 H   0  0  0  0  0  0  0  0  0  0  0  0
   -4.9046    0.5414    2.1848 H   0  0  0  0  0  0  0  0  0  0  0  0
   -1.1463    2.0273    1.3359 H   0  0  0  0  0  0  0  0  0  0  0  0
    1.1986    1.1179    0.5747 H   0  0  0  0  0  0  0  0  0  0  0  0
    2.7608    3.1226    1.4801 H   0  0  0  0  0  0  0  0  0  0  0  0
    3.4122    1.5133    1.8953 H   0  0  0  0  0  0  0  0  0  0  0  0
    5.6588    3.5284    3.2183 H   0  0  0  0  0  0  0  0  0  0  0  0
    5.8709    5.8422    0.8846 H   0  0  0  0  0  0  0  0  0  0  0  0
    6.7378    5.3436    2.3673 H   0  0  0  0  0  0  0  0  0  0  0  0
    5.7577    6.8487    2.3390 H   0  0  0  0  0  0  0  0  0  0  0  0
    2.4975    1.1420    4.6890 H   0  0  0  0  0  0  0  0  0  0  0  0
    3.2377   -0.7230    5.8298 H   0  0  0  0  0  0  0  0  0  0  0  0
    4.0780    0.4639    6.8895 H   0  0  0  0  0  0  0  0  0  0  0  0
    4.9405   -0.2422    5.5041 H   0  0  0  0  0  0  0  0  0  0  0  0
   -0.3226   -1.5966    0.4519 H   0  0  0  0  0  0  0  0  0  0  0  0
   -1.1229   -3.8443   -2.2022 H   0  0  0  0  0  0  0  0  0  0  0  0
   -3.5389   -3.3951   -2.6117 H   0  0  0  0  0  0  0  0  0  0  0  0
   -4.3743   -0.9951   -2.4780 H   0  0  0  0  0  0  0  0  0  0  0  0
   -1.9628    1.6208   -1.4095 H   0  0  0  0  0  0  0  0  0  0  0  0
   -2.8801    6.6285    0.6842 H   0  0  0  0  0  0  0  0  0  0  0  0
   -3.0901    5.4039    1.9634 H   0  0  0  0  0  0  0  0  0  0  0  0
   -4.5000    6.3200    1.3537 H   0  0  0  0  0  0  0  0  0  0  0  0
   -3.1299    2.7857    0.7842 H   0  0  0  0  0  0  0  0  0  0  0  0
    1.6189   -0.6423   -3.1684 H   0  0  0  0  0  0  0  0  0  0  0  0
    2.5571   -2.1351   -3.0582 H   0  0  0  0  0  0  0  0  0  0  0  0
    1.7711   -4.2151   -4.3353 H   0  0  0  0  0  0  0  0  0  0  0  0
   -1.5947   -1.3538   -6.6117 H   0  0  0  0  0  0  0  0  0  0  0  0
   -0.2853   -0.4366   -4.6841 H   0  0  0  0  0  0  0  0  0  0  0  0
    2.6281   -0.2938    3.0550 H   0  0  0  0  0  0  0  0  0  0  0  0
    3.1786   -0.8678    1.4641 H   0  0  0  0  0  0  0  0  0  0  0  0
    3.0809   -4.4300    2.2470 H   0  0  0  0  0  0  0  0  0  0  0  0
    2.5261   -3.4046    0.9092 H   0  0  0  0  0  0  0  0  0  0  0  0
    0.8364   -5.1843    2.2546 H   0  0  0  0  0  0  0  0  0  0  0  0
    0.2098   -3.6438    1.5978 H   0  0  0  0  0  0  0  0  0  0  0  0
   -0.1092   -3.7242    4.1581 H   0  0  0  0  0  0  0  0  0  0  0  0
  1 62  1  0  0  0  0
  1  2  1  0  0  0  0
  2 64  1  0  0  0  0
  2 63  1  0  0  0  0
  3  4  1  0  0  0  0
  3  2  1  0  0  0  0
  4  6  1  0  0  0  0
  5  4  2  0  0  0  0
  6  7  1  0  0  0  0
  7 66  1  6  0  0  0
  7 20  1  0  0  0  0
  7  8  1  0  0  0  0
  9  8  1  0  0  0  0
  9 10  1  0  0  0  0
 10 11  1  1  0  0  0
 10 16  1  0  0  0  0
 12 69  1  0  0  0  0
 12 10  1  0  0  0  0
 13 12  1  0  0  0  0
 14 72  1  0  0  0  0
 14 71  1  0  0  0  0
 14 13  1  0  0  0  0
 15 13  2  0  0  0  0
 16 19  2  0  0  0  0
 16 17  1  0  0  0  0
 17 18  1  0  0  0  0
 18 75  1  0  0  0  0
 20 52  1  0  0  0  0
 20 21  1  1  0  0  0
 22 20  1  0  0  0  0
 23 22  1  0  0  0  0
 24 25  1  1  0  0  0
 24 23  1  0  0  0  0
 26 40  1  0  0  0  0
 26 24  1  0  0  0  0
 27 26  1  0  0  0  0
 28 29  1  0  0  0  0
 28 27  2  0  0  0  0
 29 30  2  0  0  0  0
 30 40  1  0  0  0  0
 30 31  1  0  0  0  0
 31 81  1  0  0  0  0
 32 31  1  0  0  0  0
 32 33  1  0  0  0  0
 33 38  1  0  0  0  0
 34 33  2  0  0  0  0
 34 35  1  0  0  0  0
 35 36  1  0  0  0  0
 36 37  1  0  0  0  0
 37 84  1  0  0  0  0
 37 83  1  0  0  0  0
 38 36  2  0  0  0  0
 38 85  1  0  0  0  0
 39 32  2  0  0  0  0
 40 41  2  0  0  0  0
 42 87  1  0  0  0  0
 42 24  1  0  0  0  0
 43 42  1  0  0  0  0
 44 43  1  0  0  0  0
 44 88  1  0  0  0  0
 45 44  2  0  0  0  0
 46 45  1  0  0  0  0
 47 49  2  0  0  0  0
 47 45  1  0  0  0  0
 48 47  1  0  0  0  0
 49 50  1  0  0  0  0
 50 90  1  0  0  0  0
 50 43  2  0  0  0  0
 51 23  2  0  0  0  0
 52 53  1  0  0  0  0
 52 91  1  0  0  0  0
 53 54  1  1  0  0  0
 53 58  1  0  0  0  0
 55 93  1  0  0  0  0
 55 56  1  0  0  0  0
 55 53  1  0  0  0  0
 56 57  1  0  0  0  0
 57 58  1  0  0  0  0
 57 97  1  0  0  0  0
 58 59  2  0  0  0  0
 60  1  1  0  0  0  0
 61  1  1  0  0  0  0
 65  6  1  0  0  0  0
 67  9  1  0  0  0  0
 68  9  1  0  0  0  0
 70 14  1  0  0  0  0
 73 17  1  0  0  0  0
 74 18  1  0  0  0  0
 76 18  1  0  0  0  0
 77 22  1  0  0  0  0
 78 27  1  0  0  0  0
 79 28  1  0  0  0  0
 80 29  1  0  0  0  0
 82 37  1  0  0  0  0
 86 42  1  0  0  0  0
 89 49  1  0  0  0  0
 92 52  1  0  0  0  0
 94 55  1  0  0  0  0
 95 56  1  0  0  0  0
 96 56  1  0  0  0  0
M  END
