-1 1
 OpenBabel05232414493D

 75 77  0  0  1  0  0  0  0  0999 V2000
    7.4421    9.2796   -0.4650 O   0  0  0  0  0  0  0  0  0  0  0  0
    7.0707    9.9248    0.5349 C   0  0  0  0  0  0  0  0  0  0  0  0
    5.7430   10.3488    0.5605 N   0  0  0  0  0  0  0  0  0  0  0  0
    5.1795   11.3358    1.4481 C   0  0  0  0  0  0  0  0  0  0  0  0
    4.1519   10.7804    2.4372 C   0  0  0  0  0  0  0  0  0  0  0  0
    2.9814   10.0363    1.7828 C   0  0  0  0  0  0  0  0  0  0  0  0
    3.3112    8.6964    1.3331 N   0  0  0  0  0  0  0  0  0  0  0  0
    4.1741    8.4793    0.1807 C   0  0  0  0  0  0  0  0  0  0  0  0
    4.8289    9.7369   -0.3759 C   0  0  0  0  0  0  0  0  0  0  0  0
    2.8315    7.6025    1.9986 C   0  0  0  0  0  0  0  0  0  0  0  0
    1.9209    7.8047    2.9778 N   0  0  0  0  0  0  0  0  0  0  0  0
    1.4102    6.7357    3.5677 C   0  0  0  0  0  0  0  0  0  0  0  0
    0.3756    6.9941    4.6262 C   0  0  0  0  0  0  0  0  0  0  0  0
   -0.3969    5.9753    5.0082 N   0  0  0  0  0  0  0  0  0  0  0  0
   -1.3155    6.1926    5.9427 C   0  0  0  0  0  0  0  0  0  0  0  0
   -1.5185    7.4284    6.5556 C   0  0  0  0  0  0  0  0  0  0  0  0
   -0.7136    8.4940    6.1566 C   0  0  0  0  0  0  0  0  0  0  0  0
    0.2449    8.2777    5.1748 C   0  0  0  0  0  0  0  0  0  0  0  0
    1.7145    5.4690    3.3316 N   0  0  0  0  0  0  0  0  0  0  0  0
    2.6438    5.2488    2.3869 C   0  0  0  0  0  0  0  0  0  0  0  0
    3.0021    3.9561    2.1429 N   0  0  0  0  0  0  0  0  0  0  0  0
    2.5216    2.8776    2.9757 C   0  0  0  0  0  0  0  0  0  0  0  0
    1.0403    2.5861    2.7603 C   0  0  0  0  0  0  0  0  0  0  0  0
    0.5716    1.3671    3.4957 C   0  0  0  0  0  0  0  0  0  0  0  0
   -0.7193    1.0820    3.2400 O   0  0  0  0  0  0  0  0  0  0  0  0
    1.2279    0.6861    4.2430 O   0  0  0  0  0  0  0  0  0  0  0  0
    3.2291    6.2994    1.6669 C   0  0  0  0  0  0  0  0  0  0  0  0
    7.9588   10.1608    1.6470 C   0  0  0  0  0  3  0  0  0  0  0  0
    7.5960   10.0779    2.9998 C   0  0  0  0  0  0  0  0  0  0  0  0
    6.8579    8.0349    3.5782 S   0  0  0  0  0  0  0  0  0  0  0  0
    8.1259    7.0477    2.7241 C   0  0  0  0  0  0  0  0  0  0  0  0
    7.6295    5.9349    1.7836 C   0  0  2  0  0  0  0  0  0  0  0  0
    8.4633    5.2229    1.6309 H   0  0  0  0  0  0  0  0  0  0  0  0
    7.2908    6.4401    0.4768 N   0  0  0  0  0  0  0  0  0  0  0  0
    7.6011    5.7298   -0.6475 C   0  0  0  0  0  0  0  0  0  0  0  0
    7.2159    6.4267   -1.9374 C   0  0  0  0  0  0  0  0  0  0  0  0
    8.1160    4.6266   -0.6235 O   0  0  0  0  0  0  0  0  0  0  0  0
    6.5129    5.0250    2.3322 C   0  0  0  0  0  0  0  0  0  0  0  0
    6.4658    4.9092    3.6823 N   0  0  0  0  0  0  0  0  0  0  0  0
    5.4674    4.1062    4.3435 C   0  0  0  0  0  0  0  0  0  0  0  0
    5.8015    4.3715    1.5808 O   0  0  0  0  0  0  0  0  0  0  0  0
    4.6766   12.1090    0.8306 H   0  0  0  0  0  0  0  0  0  0  0  0
    6.0000   11.8456    1.9680 H   0  0  0  0  0  0  0  0  0  0  0  0
    3.7458   11.6251    3.0207 H   0  0  0  0  0  0  0  0  0  0  0  0
    4.6361   10.0876    3.1434 H   0  0  0  0  0  0  0  0  0  0  0  0
    2.5748   10.6277    0.9426 H   0  0  0  0  0  0  0  0  0  0  0  0
    2.1705    9.9211    2.5093 H   0  0  0  0  0  0  0  0  0  0  0  0
    3.5987    7.9837   -0.6258 H   0  0  0  0  0  0  0  0  0  0  0  0
    4.9909    7.7945    0.4570 H   0  0  0  0  0  0  0  0  0  0  0  0
    4.0784   10.4793   -0.6937 H   0  0  0  0  0  0  0  0  0  0  0  0
    5.4010    9.4417   -1.2643 H   0  0  0  0  0  0  0  0  0  0  0  0
   -1.9326    5.3314    6.2256 H   0  0  0  0  0  0  0  0  0  0  0  0
   -2.2864    7.5478    7.3227 H   0  0  0  0  0  0  0  0  0  0  0  0
   -0.8311    9.4826    6.6074 H   0  0  0  0  0  0  0  0  0  0  0  0
    0.9025    9.0698    4.8178 H   0  0  0  0  0  0  0  0  0  0  0  0
    3.9433    3.8595    1.7545 H   0  0  0  0  0  0  0  0  0  0  0  0
    2.6779    3.0906    4.0479 H   0  0  0  0  0  0  0  0  0  0  0  0
    3.1150    1.9836    2.7354 H   0  0  0  0  0  0  0  0  0  0  0  0
    0.8116    2.4624    1.6897 H   0  0  0  0  0  0  0  0  0  0  0  0
    0.4501    3.4484    3.1127 H   0  0  0  0  0  0  0  0  0  0  0  0
   -0.9267    0.2987    3.7684 H   0  0  0  0  0  0  0  0  0  0  0  0
    3.9908    6.0763    0.9247 H   0  0  0  0  0  0  0  0  0  0  0  0
    8.9929    9.9163    1.3873 H   0  0  0  0  0  0  0  0  0  0  0  0
    6.6746   10.5243    3.3746 H   0  0  0  0  0  0  0  0  0  0  0  0
    8.4097   10.1587    3.7260 H   0  0  0  0  0  0  0  0  0  0  0  0
    8.8126    6.6066    3.4633 H   0  0  0  0  0  0  0  0  0  0  0  0
    8.7238    7.7439    2.1084 H   0  0  0  0  0  0  0  0  0  0  0  0
    7.1901    7.4496    0.3562 H   0  0  0  0  0  0  0  0  0  0  0  0
    6.1507    6.2292   -2.1372 H   0  0  0  0  0  0  0  0  0  0  0  0
    7.8075    6.0055   -2.7598 H   0  0  0  0  0  0  0  0  0  0  0  0
    7.3584    7.5141   -1.8600 H   0  0  0  0  0  0  0  0  0  0  0  0
    6.8161    5.7105    4.2039 H   0  0  0  0  0  0  0  0  0  0  0  0
    4.5008    4.6298    4.4357 H   0  0  0  0  0  0  0  0  0  0  0  0
    5.8186    3.8401    5.3505 H   0  0  0  0  0  0  0  0  0  0  0  0
    5.3058    3.1821    3.7738 H   0  0  0  0  0  0  0  0  0  0  0  0
  1  2  2  0  0  0  0
  2  3  1  0  0  0  0
  2 28  1  0  0  0  0
  3  4  1  0  0  0  0
  4 43  1  0  0  0  0
  4  5  1  0  0  0  0
  5 44  1  0  0  0  0
  5 45  1  0  0  0  0
  6  5  1  0  0  0  0
  6 47  1  0  0  0  0
  7  6  1  0  0  0  0
  7 10  1  0  0  0  0
  8 49  1  0  0  0  0
  8  7  1  0  0  0  0
  9  8  1  0  0  0  0
  9  3  1  0  0  0  0
 10 11  1  0  0  0  0
 11 12  2  0  0  0  0
 12 13  1  0  0  0  0
 13 14  2  0  0  0  0
 13 18  1  0  0  0  0
 14 15  1  0  0  0  0
 15 52  1  0  0  0  0
 15 16  2  0  0  0  0
 16 53  1  0  0  0  0
 17 16  1  0  0  0  0
 17 54  1  0  0  0  0
 18 17  2  0  0  0  0
 19 12  1  0  0  0  0
 20 19  2  0  0  0  0
 21 20  1  0  0  0  0
 21 22  1  0  0  0  0
 22 57  1  0  0  0  0
 23 22  1  0  0  0  0
 23 60  1  0  0  0  0
 23 24  1  0  0  0  0
 24 26  2  0  0  0  0
 25 24  1  0  0  0  0
 25 61  1  0  0  0  0
 27 10  2  0  0  0  0
 27 20  1  0  0  0  0
 28 29  1  0  0  0  0
 29 64  1  0  0  0  0
 29 30  1  0  0  0  0
 29 65  1  0  0  0  0
 31 66  1  0  0  0  0
 31 30  1  0  0  0  0
 32 33  1  6  0  0  0
 32 38  1  0  0  0  0
 32 31  1  0  0  0  0
 34 32  1  0  0  0  0
 35 37  2  0  0  0  0
 35 34  1  0  0  0  0
 36 71  1  0  0  0  0
 36 35  1  0  0  0  0
 38 39  1  0  0  0  0
 39 72  1  0  0  0  0
 39 40  1  0  0  0  0
 40 73  1  0  0  0  0
 40 74  1  0  0  0  0
 41 38  2  0  0  0  0
 42  4  1  0  0  0  0
 46  6  1  0  0  0  0
 48  8  1  0  0  0  0
 50  9  1  0  0  0  0
 51  9  1  0  0  0  0
 55 18  1  0  0  0  0
 56 21  1  0  0  0  0
 58 22  1  0  0  0  0
 59 23  1  0  0  0  0
 62 27  1  0  0  0  0
 63 28  1  0  0  0  0
 67 31  1  0  0  0  0
 68 34  1  0  0  0  0
 69 36  1  0  0  0  0
 70 36  1  0  0  0  0
 75 40  1  0  0  0  0
M  END
