87
-1 1
O         0.351070  -10.377722   -6.608214
C         1.429711  -10.490968   -7.202710
N         1.503239  -10.019273   -8.531338
C         2.432860  -10.502801   -9.528740
C         1.693401  -10.802037  -10.833264
N         0.944493   -9.639335  -11.278041
C        -0.075215   -9.285401  -10.296369
C         0.584658   -8.983743   -8.954873
C         1.453650   -8.721557  -12.145668
N         0.768270   -7.583746  -12.307028
C         1.184681   -6.642467  -13.147063
N         0.481916   -5.471645  -13.235269
C        -0.585948   -5.014305  -12.463105
C        -0.730023   -3.622963  -12.315213
C        -1.741659   -3.091766  -11.526600
C        -2.640741   -3.919144  -10.842015
C        -3.579179   -3.363653   -9.804248
C        -2.848779   -3.035432   -8.473934
N        -2.080197   -4.088006   -7.885248
C        -0.692910   -4.330167   -8.274989
C        -0.528930   -5.844250   -8.164561
C        -1.553090   -6.222465   -7.095535
C        -2.725616   -5.296734   -7.423367
C        -2.531108   -5.294602  -11.051988
C        -1.533439   -5.845228  -11.851951
C         2.354985   -6.796797  -13.953052
C         2.813442   -5.750625  -14.883242
N         3.806201   -6.090908  -15.764036
O         2.367210   -4.602008  -14.902677
C         3.072052   -7.989073  -13.749933
C         2.652996   -8.957372  -12.874454
C         2.610770  -11.051976   -6.590225
C         3.967688  -10.807337   -6.878671
S         5.049492   -9.103809   -5.816551
C         4.764646   -7.660554   -6.893694
C         3.299031   -7.392920   -7.285295
H         2.916605   -8.303792   -7.766573
N         3.169445   -6.296709   -8.224259
C         3.199976   -6.451998   -9.567483
C         2.653071   -5.284014  -10.362750
O         3.583605   -7.477198  -10.113775
C         2.365731   -7.043845   -6.113967
N         2.026058   -8.072762   -5.333683
C         1.021048   -8.011987   -4.307699
O         1.938853   -5.896740   -5.974163
H         2.889784  -11.429449   -9.159383
H         3.226067   -9.761121   -9.737816
H         0.969677  -11.617215  -10.665028
H         2.389150  -11.144727  -11.607186
H        -0.766098  -10.139491  -10.201340
H        -0.632292   -8.412499  -10.648931
H        -0.171118   -8.876569   -8.167094
H         1.117555   -8.023008   -9.064317
H         0.968726   -4.777806  -13.809479
H        -0.013873   -2.959415  -12.807114
H        -1.804403   -2.006511  -11.401499
H        -4.385382   -4.089160   -9.609056
H        -4.065717   -2.441339  -10.165294
H        -3.610323   -2.683028   -7.750890
H        -2.176592   -2.177742   -8.647896
H         0.007041   -3.816773   -7.586360
H        -0.474270   -3.976506   -9.295284
H         0.491308   -6.134013   -7.895492
H        -0.786520   -6.318155   -9.124627
H        -1.144821   -5.985599   -6.100665
H        -1.824417   -7.287696   -7.103510
H        -3.370964   -5.099574   -6.546342
H        -3.376480   -5.766296   -8.195059
H        -3.229953   -5.968638  -10.548727
H        -1.461549   -6.920722  -11.986253
H         3.992238   -7.054334  -15.996546
H         4.036804   -5.387202  -16.452166
H         4.024156   -8.142627  -14.263792
H         3.270960   -9.833125  -12.701268
H         2.380750  -11.564063   -5.650934
H         4.275221  -10.456976   -7.865811
H         4.692779  -11.501862   -6.447402
H         5.313871   -7.783421   -7.839834
H         5.169920   -6.767510   -6.390853
H         2.748260   -5.469558   -7.805381
H         1.572621   -5.448136  -10.505937
H         3.123065   -5.263255  -11.354051
H         2.790601   -4.318891   -9.854886
H         2.466412   -8.973930   -5.515538
H         0.274314   -8.797027   -4.500641
H         0.545316   -7.023561   -4.339918
H         1.457099   -8.160752   -3.306286
