87
-1 1
O        -0.926851   -3.237488    2.891421
C         0.205230   -3.300995    2.368350
N         0.290226   -2.904263    0.992362
C         1.234608   -3.429876    0.039673
C         0.526143   -3.824980   -1.260279
N        -0.257493   -2.709047   -1.769901
C        -1.305350   -2.358887   -0.813350
C        -0.662449   -1.936985    0.502061
C         0.278073   -1.764140   -2.591742
N        -0.395420   -0.615062   -2.728141
C         0.064643    0.364708   -3.495876
N        -0.627349    1.545794   -3.556561
C        -1.693475    1.994288   -2.777084
C        -1.819885    3.383648   -2.592784
C        -2.826279    3.908046   -1.793216
C        -3.739379    3.076241   -1.132414
C        -4.691286    3.622882   -0.101210
C        -3.989195    3.945209    1.245100
N        -3.237436    2.889841    1.851626
C        -1.844758    2.641615    1.482503
C        -1.704513    1.124014    1.552457
C        -2.738813    0.733505    2.605927
C        -3.898843    1.675313    2.278944
C        -3.642946    1.704843   -1.372669
C        -2.650272    1.161002   -2.184275
C         1.269594    0.243644   -4.256126
C         1.788191    1.340040   -5.090491
N         2.815050    1.041465   -5.947545
O         1.364389    2.497208   -5.050633
C         1.958305   -0.972346   -4.101881
C         1.493020   -1.982204   -3.299947
C         1.383999   -3.659865    3.057244
C         2.807033   -3.425595    2.728331
S         3.718105   -2.028149    3.662963
C         3.437520   -0.592505    2.584966
C         1.973230   -0.246663    2.263492
H         1.515752   -1.126691    1.790079
N         1.887316    0.867628    1.342889
C         1.923388    0.736210   -0.003835
C         1.438924    1.945352   -0.776097
O         2.266704   -0.294547   -0.564233
C         1.137282    0.160484    3.489128
N         0.626157   -0.855633    4.184170
C        -0.278828   -0.692545    5.288245
O         0.948669    1.352329    3.737800
H         1.704863   -4.324066    0.471835
H         2.023681   -2.693442   -0.212472
H        -0.172571   -4.653911   -1.062028
H         1.244283   -4.180184   -2.008708
H        -1.934965   -3.250683   -0.663987
H        -1.919015   -1.551264   -1.221939
H        -1.422473   -1.817090    1.284662
H        -0.176286   -0.960581    0.319100
H        -0.106221    2.261586   -4.070185
H        -1.094184    4.050397   -3.066236
H        -2.876488    4.990891   -1.643516
H        -5.500436    2.895672    0.074215
H        -5.173509    4.546935   -0.463983
H        -4.766389    4.299015    1.950638
H        -3.310796    4.801430    1.089057
H        -1.151250    3.123811    2.199409
H        -1.604202    3.022336    0.476906
H        -0.688603    0.804479    1.800979
H        -1.970003    0.680640    0.580707
H        -2.343762    0.951959    3.610430
H        -3.013294   -0.330343    2.577927
H        -4.557733    1.859295    3.148601
H        -4.538578    1.226231    1.486473
H        -4.350581    1.026852   -0.887140
H        -2.588133    0.088496   -2.342023
H         2.993814    0.092592   -6.238282
H         3.085833    1.785535   -6.575946
H         2.923623   -1.114432   -4.594003
H         2.082279   -2.884911   -3.168760
H         1.187394   -4.109553    4.036149
H         3.015117   -3.191055    1.676953
H         3.452131   -4.277814    2.997941
H         3.944092   -0.755710    1.621612
H         3.919064    0.264868    3.080775
H         1.557224    1.723536    1.783765
H         0.346480    1.858575   -0.891031
H         1.885149    1.947683   -1.778235
H         1.653558    2.892457   -0.260683
H         0.833390   -1.816841    3.871634
H        -1.150653   -1.343347    5.127061
H        -0.593181    0.358394    5.341066
H         0.195942   -0.965053    6.245627
