-1 1
 OpenBabel05232413493D

 87 89  0  0  1  0  0  0  0  0999 V2000
   -1.1113   -3.1969    3.0935 O   0  0  0  0  0  0  0  0  0  0  0  0
   -0.1067   -3.5064    2.4676 C   0  0  0  0  0  0  0  0  0  0  0  0
    0.2399   -2.8832    1.2986 N   0  0  0  0  0  0  0  0  0  0  0  0
    1.2450   -3.3234    0.3434 C   0  0  0  0  0  0  0  0  0  0  0  0
    0.5798   -3.5873   -1.0077 C   0  0  0  0  0  0  0  0  0  0  0  0
   -0.1357   -2.4143   -1.4717 N   0  0  0  0  0  0  0  0  0  0  0  0
   -1.1645   -2.0029   -0.5261 C   0  0  0  0  0  0  0  0  0  0  0  0
   -0.5550   -1.7499    0.8503 C   0  0  0  0  0  0  0  0  0  0  0  0
    0.3527   -1.5585   -2.4174 C   0  0  0  0  0  0  0  0  0  0  0  0
   -0.3502   -0.4460   -2.6435 N   0  0  0  0  0  0  0  0  0  0  0  0
    0.0573    0.4594   -3.5261 C   0  0  0  0  0  0  0  0  0  0  0  0
   -0.6668    1.6109   -3.6737 N   0  0  0  0  0  0  0  0  0  0  0  0
   -1.7522    2.0749   -2.9303 C   0  0  0  0  0  0  0  0  0  0  0  0
   -1.9087    3.4667   -2.8070 C   0  0  0  0  0  0  0  0  0  0  0  0
   -2.9483    4.0031   -2.0590 C   0  0  0  0  0  0  0  0  0  0  0  0
   -3.8653    3.1808   -1.3928 C   0  0  0  0  0  0  0  0  0  0  0  0
   -4.8590    3.7500   -0.4154 C   0  0  0  0  0  0  0  0  0  0  0  0
   -4.2079    4.1001    0.9486 C   0  0  0  0  0  0  0  0  0  0  0  0
   -3.4847    3.0527    1.6009 N   0  0  0  0  0  0  0  0  0  0  0  0
   -2.0748    2.8070    1.3110 C   0  0  0  0  0  0  0  0  0  0  0  0
   -1.9031    1.2998    1.5006 C   0  0  0  0  0  0  0  0  0  0  0  0
   -3.0233    0.9389    2.4774 C   0  0  0  0  0  0  0  0  0  0  0  0
   -4.1649    1.8526    2.0317 C   0  0  0  0  0  0  0  0  0  0  0  0
   -3.7349    1.8022   -1.5697 C   0  0  0  0  0  0  0  0  0  0  0  0
   -2.7080    1.2464   -2.3281 C   0  0  0  0  0  0  0  0  0  0  0  0
    1.2340    0.2817   -4.3156 C   0  0  0  0  0  0  0  0  0  0  0  0
    1.6920    1.2993   -5.2796 C   0  0  0  0  0  0  0  0  0  0  0  0
    2.7042    0.9464   -6.1283 N   0  0  0  0  0  0  0  0  0  0  0  0
    1.2223    2.4366   -5.3515 O   0  0  0  0  0  0  0  0  0  0  0  0
    1.9539   -0.8982   -4.0638 C   0  0  0  0  0  0  0  0  0  0  0  0
    1.5396   -1.8319   -3.1478 C   0  0  0  0  0  0  0  0  0  0  0  0
    0.7578   -4.6016    3.0133 C   0  0  0  0  0  0  0  0  0  0  0  0
    2.0805   -4.5549    3.1838 C   0  0  0  0  0  0  0  0  0  0  0  0
    4.5447   -1.7917    3.1256 S   0  0  0  0  0  1  0  0  0  0  0  0
    3.8885   -0.1996    2.4989 C   0  0  0  0  0  0  0  0  0  0  0  0
    2.3811   -0.2253    2.1781 C   0  0  2  0  0  0  0  0  0  0  0  0
    2.2114   -1.1504    1.6098 H   0  0  0  0  0  0  0  0  0  0  0  0
    1.9397    0.8890    1.3645 N   0  0  0  0  0  0  0  0  0  0  0  0
    1.8627    0.8270    0.0152 C   0  0  0  0  0  0  0  0  0  0  0  0
    1.1078    1.9640   -0.6427 C   0  0  0  0  0  0  0  0  0  0  0  0
    2.3191   -0.1015   -0.6382 O   0  0  0  0  0  0  0  0  0  0  0  0
    1.4529   -0.2696    3.4005 C   0  0  0  0  0  0  0  0  0  0  0  0
    1.7038   -1.2598    4.2627 N   0  0  0  0  0  0  0  0  0  0  0  0
    0.8795   -1.4883    5.4208 C   0  0  0  0  0  0  0  0  0  0  0  0
    0.5342    0.5405    3.5358 O   0  0  0  0  0  0  0  0  0  0  0  0
    1.7347   -4.2323    0.7057 H   0  0  0  0  0  0  0  0  0  0  0  0
    2.0120   -2.5409    0.2153 H   0  0  0  0  0  0  0  0  0  0  0  0
   -0.1492   -4.4103   -0.8992 H   0  0  0  0  0  0  0  0  0  0  0  0
    1.3243   -3.9126   -1.7409 H   0  0  0  0  0  0  0  0  0  0  0  0
   -1.9213   -2.8042   -0.4612 H   0  0  0  0  0  0  0  0  0  0  0  0
   -1.6444   -1.0920   -0.8955 H   0  0  0  0  0  0  0  0  0  0  0  0
   -1.3324   -1.5684    1.6004 H   0  0  0  0  0  0  0  0  0  0  0  0
    0.0864   -0.8589    0.7981 H   0  0  0  0  0  0  0  0  0  0  0  0
   -0.1865    2.2889   -4.2722 H   0  0  0  0  0  0  0  0  0  0  0  0
   -1.1824    4.1272   -3.2878 H   0  0  0  0  0  0  0  0  0  0  0  0
   -3.0244    5.0898   -1.9564 H   0  0  0  0  0  0  0  0  0  0  0  0
   -5.6747    3.0265   -0.2546 H   0  0  0  0  0  0  0  0  0  0  0  0
   -5.3254    4.6652   -0.8184 H   0  0  0  0  0  0  0  0  0  0  0  0
   -5.0090    4.4710    1.6177 H   0  0  0  0  0  0  0  0  0  0  0  0
   -3.5193    4.9495    0.7999 H   0  0  0  0  0  0  0  0  0  0  0  0
   -1.4253    3.3690    2.0121 H   0  0  0  0  0  0  0  0  0  0  0  0
   -1.7943    3.1141    0.2901 H   0  0  0  0  0  0  0  0  0  0  0  0
   -0.9165    1.0218    1.8913 H   0  0  0  0  0  0  0  0  0  0  0  0
   -2.0639    0.7908    0.5366 H   0  0  0  0  0  0  0  0  0  0  0  0
   -2.7089    1.1846    3.5036 H   0  0  0  0  0  0  0  0  0  0  0  0
   -3.2904   -0.1275    2.4605 H   0  0  0  0  0  0  0  0  0  0  0  0
   -4.8827    2.0679    2.8459 H   0  0  0  0  0  0  0  0  0  0  0  0
   -4.7483    1.3641    1.2187 H   0  0  0  0  0  0  0  0  0  0  0  0
   -4.4460    1.1315   -1.0793 H   0  0  0  0  0  0  0  0  0  0  0  0
   -2.6271    0.1691   -2.4439 H   0  0  0  0  0  0  0  0  0  0  0  0
    2.9573   -0.0157   -6.2886 H   0  0  0  0  0  0  0  0  0  0  0  0
    2.9569    1.6321   -6.8261 H   0  0  0  0  0  0  0  0  0  0  0  0
    2.9063   -1.0731   -4.5697 H   0  0  0  0  0  0  0  0  0  0  0  0
    2.1654   -2.6943   -2.9390 H   0  0  0  0  0  0  0  0  0  0  0  0
    0.1682   -5.4221    3.4358 H   0  0  0  0  0  0  0  0  0  0  0  0
    2.7143   -3.7172    2.8535 H   0  0  0  0  0  0  0  0  0  0  0  0
    2.5890   -5.3634    3.7178 H   0  0  0  0  0  0  0  0  0  0  0  0
    4.3906    0.0543    1.5532 H   0  0  0  0  0  0  0  0  0  0  0  0
    4.0905    0.6232    3.2071 H   0  0  0  0  0  0  0  0  0  0  0  0
    1.3723    1.5673    1.8647 H   0  0  0  0  0  0  0  0  0  0  0  0
    0.0675    1.6382   -0.8003 H   0  0  0  0  0  0  0  0  0  0  0  0
    1.5434    2.1659   -1.6297 H   0  0  0  0  0  0  0  0  0  0  0  0
    1.0979    2.8818   -0.0381 H   0  0  0  0  0  0  0  0  0  0  0  0
    2.6103   -1.7533    4.1279 H   0  0  0  0  0  0  0  0  0  0  0  0
   -0.0746   -1.9620    5.1359 H   0  0  0  0  0  0  0  0  0  0  0  0
    0.6539   -0.5436    5.9402 H   0  0  0  0  0  0  0  0  0  0  0  0
    1.4140   -2.1575    6.1084 H   0  0  0  0  0  0  0  0  0  0  0  0
  2 32  1  0  0  0  0
  2  1  2  0  0  0  0
  3  2  1  0  0  0  0
  4 46  1  0  0  0  0
  4  3  1  0  0  0  0
  5 48  1  0  0  0  0
  5  4  1  0  0  0  0
  6  5  1  0  0  0  0
  6  7  1  0  0  0  0
  7 50  1  0  0  0  0
  7  8  1  0  0  0  0
  8  3  1  0  0  0  0
  8 52  1  0  0  0  0
  9  6  1  0  0  0  0
 10  9  1  0  0  0  0
 11 10  2  0  0  0  0
 12 11  1  0  0  0  0
 12 13  1  0  0  0  0
 13 14  2  0  0  0  0
 13 25  1  0  0  0  0
 14 15  1  0  0  0  0
 15 56  1  0  0  0  0
 15 16  2  0  0  0  0
 16 17  1  0  0  0  0
 17 57  1  0  0  0  0
 17 18  1  0  0  0  0
 18 19  1  0  0  0  0
 18 59  1  0  0  0  0
 19 23  1  0  0  0  0
 20 21  1  0  0  0  0
 20 19  1  0  0  0  0
 20 61  1  0  0  0  0
 21 63  1  0  0  0  0
 21 22  1  0  0  0  0
 22 65  1  0  0  0  0
 23 22  1  0  0  0  0
 23 67  1  0  0  0  0
 24 16  1  0  0  0  0
 24 69  1  0  0  0  0
 25 24  2  0  0  0  0
 26 30  2  0  0  0  0
 26 11  1  0  0  0  0
 27 26  1  0  0  0  0
 28 27  1  0  0  0  0
 29 27  2  0  0  0  0
 30 31  1  0  0  0  0
 31 74  1  0  0  0  0
 31  9  2  0  0  0  0
 32 33  2  0  0  0  0
 32 75  1  0  0  0  0
 33 77  1  0  0  0  0
 35 34  1  0  0  0  0
 35 79  1  0  0  0  0
 36 37  1  6  0  0  0
 36 35  1  0  0  0  0
 36 42  1  0  0  0  0
 38 80  1  0  0  0  0
 38 36  1  0  0  0  0
 39 38  1  0  0  0  0
 40 83  1  0  0  0  0
 40 39  1  0  0  0  0
 41 39  2  0  0  0  0
 42 45  2  0  0  0  0
 42 43  1  0  0  0  0
 43 44  1  0  0  0  0
 44 86  1  0  0  0  0
 44 87  1  0  0  0  0
 47  4  1  0  0  0  0
 49  5  1  0  0  0  0
 51  7  1  0  0  0  0
 53  8  1  0  0  0  0
 54 12  1  0  0  0  0
 55 14  1  0  0  0  0
 58 17  1  0  0  0  0
 60 18  1  0  0  0  0
 62 20  1  0  0  0  0
 64 21  1  0  0  0  0
 66 22  1  0  0  0  0
 68 23  1  0  0  0  0
 70 25  1  0  0  0  0
 71 28  1  0  0  0  0
 72 28  1  0  0  0  0
 73 30  1  0  0  0  0
 76 33  1  0  0  0  0
 78 35  1  0  0  0  0
 81 40  1  0  0  0  0
 82 40  1  0  0  0  0
 84 43  1  0  0  0  0
 85 44  1  0  0  0  0
M  END
