88
-1 1
O         3.806591   15.355870   -0.536261
C         4.398359   16.441048   -0.537007
N         3.707684   17.636589   -0.659475
C         2.279510   17.809018   -0.624510
H         1.883584   17.569668    0.377533
C         1.971958   19.247892   -1.057443
C         2.097640   19.176472   -2.579406
N         1.580753   17.841665   -2.873290
C         1.512452   17.001117   -1.685693
C         1.044295   17.522100   -4.071473
N         1.198875   18.408275   -5.053686
C         0.660918   18.205921   -6.254581
N         0.967997   19.102930   -7.231816
C         2.123662   19.921734   -7.198153
C         2.091624   21.237413   -7.649548
C         3.245417   22.028279   -7.658560
C         4.470436   21.535960   -7.173813
N         5.624365   22.326717   -7.085929
C         5.592639   23.672416   -7.606961
C         6.763634   24.499584   -7.077137
H         6.614091   24.614389   -5.982608
O         7.988488   23.849727   -7.303613
C         8.038143   22.579632   -6.683234
H         7.870163   22.707974   -5.594108
C         6.923196   21.689920   -7.216369
C         9.408855   21.979860   -6.912417
C         6.835758   25.868032   -7.725958
C         4.488540   20.192419   -6.748717
C         3.350929   19.408020   -6.764797
C        -0.203604   17.094626   -6.516861
C        -0.891063   16.939793   -7.809121
N        -1.829617   15.937901   -7.901752
O        -0.669467   17.642053   -8.794368
C        -0.296612   16.141388   -5.483727
C         0.330163   16.304435   -4.269885
C         5.833235   16.637696   -0.465590
C         6.376000   17.834096    0.034458
S         6.294168   19.687890   -1.273566
C         7.436977   19.226694   -2.601317
C         6.787425   18.693000   -3.877417
H         6.013401   19.412614   -4.206164
N         6.131941   17.420198   -3.585771
C         5.218506   16.812770   -4.365987
C         4.409515   15.711047   -3.737446
O         5.017699   17.131145   -5.542961
C         7.839289   18.667356   -5.016990
N         7.462671   18.064004   -6.161985
C         8.326414   18.047787   -7.313141
O         8.917064   19.238578   -4.905843
H         4.268448   18.438243   -0.951453
H         2.654458   19.981197   -0.605079
H         0.940894   19.511462   -0.773117
H         3.145428   19.282366   -2.909744
H         1.512678   19.937487   -3.112444
H         1.981534   16.016760   -1.821898
H         0.462808   16.850613   -1.366942
H         0.524602   18.901421   -8.129089
H         1.148300   21.658151   -8.006831
H         3.164317   23.044125   -8.044444
H         4.665224   24.167639   -7.285706
H         5.610998   23.686057   -8.720403
H         6.951105   20.754131   -6.648212
H         7.138112   21.440578   -8.278903
H        10.182398   22.669801   -6.546575
H         9.579003   21.812054   -7.987692
H         9.498150   21.025025   -6.372948
H         5.911121   26.436837   -7.547710
H         6.985214   25.766691   -8.811680
H         7.683093   26.434038   -7.314540
H         5.402411   19.725670   -6.389397
H         3.437630   18.378529   -6.418856
H        -2.290957   15.594566   -7.072356
H        -2.373425   15.948915   -8.754508
H        -0.857303   15.218158   -5.652843
H         0.268682   15.546643   -3.490800
H         6.476187   15.787906   -0.708016
H         7.454483   17.862190    0.217789
H         5.805543   18.387250    0.787719
H         8.144125   18.464433   -2.229359
H         8.044297   20.097392   -2.872163
H         6.147631   17.134862   -2.597404
H         4.190991   14.956706   -4.503094
H         3.456915   16.153421   -3.414299
H         4.872050   15.254783   -2.854720
H         6.513348   17.667696   -6.194519
H         9.346912   17.748704   -7.030100
H         8.397206   19.039118   -7.793584
H         7.932125   17.333966   -8.048327
