-1 1
 OpenBabel05232414493D

 88 90  0  0  1  0  0  0  0  0999 V2000
    3.8066   15.3559   -0.5363 O   0  0  0  0  0  0  0  0  0  0  0  0
    4.3984   16.4410   -0.5370 C   0  0  0  0  0  0  0  0  0  0  0  0
    3.7077   17.6366   -0.6595 N   0  0  0  0  0  0  0  0  0  0  0  0
    2.2795   17.8090   -0.6245 C   0  0  1  0  0  0  0  0  0  0  0  0
    1.8836   17.5697    0.3775 H   0  0  0  0  0  0  0  0  0  0  0  0
    1.9720   19.2479   -1.0574 C   0  0  0  0  0  0  0  0  0  0  0  0
    2.0976   19.1765   -2.5794 C   0  0  0  0  0  0  0  0  0  0  0  0
    1.5808   17.8417   -2.8733 N   0  0  0  0  0  0  0  0  0  0  0  0
    1.5125   17.0011   -1.6857 C   0  0  0  0  0  0  0  0  0  0  0  0
    1.0443   17.5221   -4.0715 C   0  0  0  0  0  0  0  0  0  0  0  0
    1.1989   18.4083   -5.0537 N   0  0  0  0  0  0  0  0  0  0  0  0
    0.6609   18.2059   -6.2546 C   0  0  0  0  0  0  0  0  0  0  0  0
    0.9680   19.1029   -7.2318 N   0  0  0  0  0  0  0  0  0  0  0  0
    2.1237   19.9217   -7.1982 C   0  0  0  0  0  0  0  0  0  0  0  0
    2.0916   21.2374   -7.6495 C   0  0  0  0  0  0  0  0  0  0  0  0
    3.2454   22.0283   -7.6586 C   0  0  0  0  0  0  0  0  0  0  0  0
    4.4704   21.5360   -7.1738 C   0  0  0  0  0  0  0  0  0  0  0  0
    5.6244   22.3267   -7.0859 N   0  0  0  0  0  0  0  0  0  0  0  0
    5.5926   23.6724   -7.6070 C   0  0  0  0  0  0  0  0  0  0  0  0
    6.7636   24.4996   -7.0771 C   0  0  1  0  0  0  0  0  0  0  0  0
    6.6141   24.6144   -5.9826 H   0  0  0  0  0  0  0  0  0  0  0  0
    7.9885   23.8497   -7.3036 O   0  0  0  0  0  0  0  0  0  0  0  0
    8.0381   22.5796   -6.6832 C   0  0  1  0  0  0  0  0  0  0  0  0
    7.8702   22.7080   -5.5941 H   0  0  0  0  0  0  0  0  0  0  0  0
    6.9232   21.6899   -7.2164 C   0  0  0  0  0  0  0  0  0  0  0  0
    9.4089   21.9799   -6.9124 C   0  0  0  0  0  0  0  0  0  0  0  0
    6.8358   25.8680   -7.7260 C   0  0  0  0  0  0  0  0  0  0  0  0
    4.4885   20.1924   -6.7487 C   0  0  0  0  0  0  0  0  0  0  0  0
    3.3509   19.4080   -6.7648 C   0  0  0  0  0  0  0  0  0  0  0  0
   -0.2036   17.0946   -6.5169 C   0  0  0  0  0  0  0  0  0  0  0  0
   -0.8911   16.9398   -7.8091 C   0  0  0  0  0  0  0  0  0  0  0  0
   -1.8296   15.9379   -7.9018 N   0  0  0  0  0  0  0  0  0  0  0  0
   -0.6695   17.6421   -8.7944 O   0  0  0  0  0  0  0  0  0  0  0  0
   -0.2966   16.1414   -5.4837 C   0  0  0  0  0  0  0  0  0  0  0  0
    0.3302   16.3044   -4.2699 C   0  0  0  0  0  0  0  0  0  0  0  0
    5.8332   16.6377   -0.4656 C   0  0  0  0  0  3  0  0  0  0  0  0
    6.3760   17.8341    0.0345 C   0  0  0  0  0  3  0  0  0  0  0  0
    6.2942   19.6879   -1.2736 S   0  0  0  0  0  1  0  0  0  0  0  0
    7.4370   19.2267   -2.6013 C   0  0  0  0  0  0  0  0  0  0  0  0
    6.7874   18.6930   -3.8774 C   0  0  2  0  0  0  0  0  0  0  0  0
    6.0134   19.4126   -4.2062 H   0  0  0  0  0  0  0  0  0  0  0  0
    6.1319   17.4202   -3.5858 N   0  0  0  0  0  0  0  0  0  0  0  0
    5.2185   16.8128   -4.3660 C   0  0  0  0  0  0  0  0  0  0  0  0
    4.4095   15.7110   -3.7374 C   0  0  0  0  0  0  0  0  0  0  0  0
    5.0177   17.1311   -5.5430 O   0  0  0  0  0  0  0  0  0  0  0  0
    7.8393   18.6674   -5.0170 C   0  0  0  0  0  0  0  0  0  0  0  0
    7.4627   18.0640   -6.1620 N   0  0  0  0  0  0  0  0  0  0  0  0
    8.3264   18.0478   -7.3131 C   0  0  0  0  0  0  0  0  0  0  0  0
    8.9171   19.2386   -4.9058 O   0  0  0  0  0  0  0  0  0  0  0  0
    4.2684   18.4382   -0.9515 H   0  0  0  0  0  0  0  0  0  0  0  0
    2.6545   19.9812   -0.6051 H   0  0  0  0  0  0  0  0  0  0  0  0
    0.9409   19.5115   -0.7731 H   0  0  0  0  0  0  0  0  0  0  0  0
    3.1454   19.2824   -2.9097 H   0  0  0  0  0  0  0  0  0  0  0  0
    1.5127   19.9375   -3.1124 H   0  0  0  0  0  0  0  0  0  0  0  0
    1.9815   16.0168   -1.8219 H   0  0  0  0  0  0  0  0  0  0  0  0
    0.4628   16.8506   -1.3669 H   0  0  0  0  0  0  0  0  0  0  0  0
    0.5246   18.9014   -8.1291 H   0  0  0  0  0  0  0  0  0  0  0  0
    1.1483   21.6582   -8.0068 H   0  0  0  0  0  0  0  0  0  0  0  0
    3.1643   23.0441   -8.0444 H   0  0  0  0  0  0  0  0  0  0  0  0
    4.6652   24.1676   -7.2857 H   0  0  0  0  0  0  0  0  0  0  0  0
    5.6110   23.6861   -8.7204 H   0  0  0  0  0  0  0  0  0  0  0  0
    6.9511   20.7541   -6.6482 H   0  0  0  0  0  0  0  0  0  0  0  0
    7.1381   21.4406   -8.2789 H   0  0  0  0  0  0  0  0  0  0  0  0
   10.1824   22.6698   -6.5466 H   0  0  0  0  0  0  0  0  0  0  0  0
    9.5790   21.8121   -7.9877 H   0  0  0  0  0  0  0  0  0  0  0  0
    9.4982   21.0250   -6.3729 H   0  0  0  0  0  0  0  0  0  0  0  0
    5.9111   26.4368   -7.5477 H   0  0  0  0  0  0  0  0  0  0  0  0
    6.9852   25.7667   -8.8117 H   0  0  0  0  0  0  0  0  0  0  0  0
    7.6831   26.4340   -7.3145 H   0  0  0  0  0  0  0  0  0  0  0  0
    5.4024   19.7257   -6.3894 H   0  0  0  0  0  0  0  0  0  0  0  0
    3.4376   18.3785   -6.4189 H   0  0  0  0  0  0  0  0  0  0  0  0
   -2.2910   15.5946   -7.0724 H   0  0  0  0  0  0  0  0  0  0  0  0
   -2.3734   15.9489   -8.7545 H   0  0  0  0  0  0  0  0  0  0  0  0
   -0.8573   15.2182   -5.6528 H   0  0  0  0  0  0  0  0  0  0  0  0
    0.2687   15.5466   -3.4908 H   0  0  0  0  0  0  0  0  0  0  0  0
    6.4762   15.7879   -0.7080 H   0  0  0  0  0  0  0  0  0  0  0  0
    7.4545   17.8622    0.2178 H   0  0  0  0  0  0  0  0  0  0  0  0
    5.8055   18.3873    0.7877 H   0  0  0  0  0  0  0  0  0  0  0  0
    8.1441   18.4644   -2.2294 H   0  0  0  0  0  0  0  0  0  0  0  0
    8.0443   20.0974   -2.8722 H   0  0  0  0  0  0  0  0  0  0  0  0
    6.1476   17.1349   -2.5974 H   0  0  0  0  0  0  0  0  0  0  0  0
    4.1910   14.9567   -4.5031 H   0  0  0  0  0  0  0  0  0  0  0  0
    3.4569   16.1534   -3.4143 H   0  0  0  0  0  0  0  0  0  0  0  0
    4.8720   15.2548   -2.8547 H   0  0  0  0  0  0  0  0  0  0  0  0
    6.5133   17.6677   -6.1945 H   0  0  0  0  0  0  0  0  0  0  0  0
    9.3469   17.7487   -7.0301 H   0  0  0  0  0  0  0  0  0  0  0  0
    8.3972   19.0391   -7.7936 H   0  0  0  0  0  0  0  0  0  0  0  0
    7.9321   17.3340   -8.0483 H   0  0  0  0  0  0  0  0  0  0  0  0
  2  1  2  0  0  0  0
  2 36  1  0  0  0  0
  3  4  1  0  0  0  0
  3  2  1  0  0  0  0
  4  5  1  1  0  0  0
  6 52  1  0  0  0  0
  6  4  1  0  0  0  0
  6 51  1  0  0  0  0
  7  6  1  0  0  0  0
  8  7  1  0  0  0  0
  8  9  1  0  0  0  0
  9 56  1  0  0  0  0
  9  4  1  0  0  0  0
 10  8  1  0  0  0  0
 11 10  2  0  0  0  0
 12 11  1  0  0  0  0
 13 14  1  0  0  0  0
 13 12  1  0  0  0  0
 14 29  1  0  0  0  0
 15 14  2  0  0  0  0
 16 15  1  0  0  0  0
 16 17  2  0  0  0  0
 17 18  1  0  0  0  0
 17 28  1  0  0  0  0
 19 60  1  0  0  0  0
 19 18  1  0  0  0  0
 19 20  1  0  0  0  0
 20 21  1  1  0  0  0
 22 20  1  0  0  0  0
 22 23  1  0  0  0  0
 23 24  1  1  0  0  0
 25 18  1  0  0  0  0
 25 23  1  0  0  0  0
 25 62  1  0  0  0  0
 26 23  1  0  0  0  0
 26 64  1  0  0  0  0
 26 66  1  0  0  0  0
 27 67  1  0  0  0  0
 27 69  1  0  0  0  0
 27 20  1  0  0  0  0
 28 70  1  0  0  0  0
 29 28  2  0  0  0  0
 29 71  1  0  0  0  0
 30 12  2  0  0  0  0
 30 34  1  0  0  0  0
 31 30  1  0  0  0  0
 32 31  1  0  0  0  0
 32 72  1  0  0  0  0
 33 31  2  0  0  0  0
 34 35  2  0  0  0  0
 35 10  1  0  0  0  0
 35 75  1  0  0  0  0
 36 37  1  0  0  0  0
 37 77  1  0  0  0  0
 37 78  1  0  0  0  0
 39 79  1  0  0  0  0
 39 38  1  0  0  0  0
 40 41  1  6  0  0  0
 40 42  1  0  0  0  0
 40 39  1  0  0  0  0
 42 81  1  0  0  0  0
 43 44  1  0  0  0  0
 43 42  1  0  0  0  0
 44 83  1  0  0  0  0
 44 84  1  0  0  0  0
 45 43  2  0  0  0  0
 46 49  2  0  0  0  0
 46 40  1  0  0  0  0
 47 46  1  0  0  0  0
 48 86  1  0  0  0  0
 48 47  1  0  0  0  0
 50  3  1  0  0  0  0
 53  7  1  0  0  0  0
 54  7  1  0  0  0  0
 55  9  1  0  0  0  0
 57 13  1  0  0  0  0
 58 15  1  0  0  0  0
 59 16  1  0  0  0  0
 61 19  1  0  0  0  0
 63 25  1  0  0  0  0
 65 26  1  0  0  0  0
 68 27  1  0  0  0  0
 73 32  1  0  0  0  0
 74 34  1  0  0  0  0
 76 36  1  0  0  0  0
 80 39  1  0  0  0  0
 82 44  1  0  0  0  0
 85 47  1  0  0  0  0
 87 48  1  0  0  0  0
 88 48  1  0  0  0  0
M  END
