-1 1
 OpenBabel05192410563D

 88 91  0  0  1  0  0  0  0  0999 V2000
   -0.4742   -3.9171    4.4456 O   0  0  0  0  0  0  0  0  0  0  0  0
    0.1821   -2.8558    4.4324 C   0  0  0  0  0  0  0  0  0  0  0  0
   -0.5066   -1.6361    4.5201 N   0  0  0  0  0  0  0  0  0  0  0  0
   -1.9393   -1.5019    4.5358 C   0  0  1  0  0  0  0  0  0  0  0  0
   -2.3523   -1.8393    5.5016 H   0  0  0  0  0  0  0  0  0  0  0  0
   -2.2827   -0.0386    4.2255 C   0  0  0  0  0  0  0  0  0  0  0  0
   -2.1331    0.0319    2.7038 C   0  0  0  0  0  0  0  0  0  0  0  0
   -2.5941   -1.2838    2.2825 N   0  0  0  0  0  0  0  0  0  0  0  0
   -2.6660   -2.2272    3.3894 C   0  0  0  0  0  0  0  0  0  0  0  0
   -2.9659   -1.5622    1.0172 C   0  0  0  0  0  0  0  0  0  0  0  0
   -2.7534   -0.6167    0.0987 N   0  0  0  0  0  0  0  0  0  0  0  0
   -3.0526   -0.8355   -1.1761 C   0  0  0  0  0  0  0  0  0  0  0  0
   -2.6660    0.0841   -2.1089 N   0  0  0  0  0  0  0  0  0  0  0  0
   -1.6407    1.0344   -2.0499 C   0  0  0  0  0  0  0  0  0  0  0  0
   -1.4479    1.8439   -3.1778 C   0  0  0  0  0  0  0  0  0  0  0  0
   -0.3799    2.7360   -3.2601 C   0  0  0  0  0  0  0  0  0  0  0  0
    0.5274    2.8658   -2.2020 C   0  0  0  0  0  0  0  0  0  0  0  0
    1.6551    3.7160   -2.2455 N   0  0  0  0  0  0  0  0  0  0  0  0
    1.6728    4.7791   -3.2191 C   0  0  0  0  0  0  0  0  0  0  0  0
    2.7925    5.7658   -2.8833 C   0  0  1  0  0  0  0  0  0  0  0  0
    2.5497    6.2075   -1.8938 H   0  0  0  0  0  0  0  0  0  0  0  0
    4.0337    5.1067   -2.8013 O   0  0  0  0  0  0  0  0  0  0  0  0
    4.0431    4.0499   -1.8573 C   0  0  1  0  0  0  0  0  0  0  0  0
    3.8322    4.4694   -0.8517 H   0  0  0  0  0  0  0  0  0  0  0  0
    2.9453    3.0472   -2.1729 C   0  0  0  0  0  0  0  0  0  0  0  0
    5.4177    3.4152   -1.8715 C   0  0  0  0  0  0  0  0  0  0  0  0
    2.9265    6.8674   -3.9164 C   0  0  0  0  0  0  0  0  0  0  0  0
    0.2985    2.0909   -1.0555 C   0  0  0  0  0  0  0  0  0  0  0  0
   -0.7531    1.1913   -0.9721 C   0  0  0  0  0  0  0  0  0  0  0  0
   -3.7720   -2.0001   -1.6025 C   0  0  0  0  0  0  0  0  0  0  0  0
   -4.2236   -2.1767   -2.9918 C   0  0  0  0  0  0  0  0  0  0  0  0
   -5.0458   -3.2463   -3.2533 N   0  0  0  0  0  0  0  0  0  0  0  0
   -3.9091   -1.4326   -3.9223 O   0  0  0  0  0  0  0  0  0  0  0  0
   -3.9786   -2.9799   -0.6139 C   0  0  0  0  0  0  0  0  0  0  0  0
   -3.5724   -2.8065    0.6866 C   0  0  0  0  0  0  0  0  0  0  0  0
    1.5911   -2.7305    4.2632 C   0  0  0  0  0  3  0  0  0  0  0  0
    2.3151   -1.5305    4.7590 C   0  0  0  0  0  0  0  0  0  0  0  0
    2.1595    0.0881    3.8012 S   0  0  0  0  0  0  0  0  0  0  0  0
    2.8216   -0.3260    2.1670 C   0  0  0  0  0  0  0  0  0  0  0  0
    1.8142   -0.7143    1.0823 C   0  0  2  0  0  0  0  0  0  0  0  0
    0.9574   -0.0128    1.1308 H   0  0  0  0  0  0  0  0  0  0  0  0
    1.3391   -2.0697    1.3271 N   0  0  0  0  0  0  0  0  0  0  0  0
    0.3079   -2.6721    0.6989 C   0  0  0  0  0  0  0  0  0  0  0  0
   -0.0823   -4.0328    1.2270 C   0  0  0  0  0  0  0  0  0  0  0  0
   -0.2598   -2.2070   -0.2941 O   0  0  0  0  0  0  0  0  0  0  0  0
    2.4581   -0.4213   -0.3042 C   0  0  0  0  0  0  0  0  0  0  0  0
    1.8279   -0.9341   -1.3707 N   0  0  0  0  0  0  0  0  0  0  0  0
    2.1738   -0.5584   -2.7165 C   0  0  0  0  0  0  0  0  0  0  0  0
    3.4381    0.3158   -0.3911 O   0  0  0  0  0  0  0  0  0  0  0  0
    0.0133   -0.8244    4.1988 H   0  0  0  0  0  0  0  0  0  0  0  0
   -1.6314    0.6712    4.7552 H   0  0  0  0  0  0  0  0  0  0  0  0
   -3.3256    0.1710    4.5114 H   0  0  0  0  0  0  0  0  0  0  0  0
   -1.0825    0.1978    2.4053 H   0  0  0  0  0  0  0  0  0  0  0  0
   -2.7330    0.8232    2.2326 H   0  0  0  0  0  0  0  0  0  0  0  0
   -2.1676   -3.1812    3.1761 H   0  0  0  0  0  0  0  0  0  0  0  0
   -3.7181   -2.4304    3.6694 H   0  0  0  0  0  0  0  0  0  0  0  0
   -2.9908   -0.1654   -3.0467 H   0  0  0  0  0  0  0  0  0  0  0  0
   -2.1328    1.7480   -4.0248 H   0  0  0  0  0  0  0  0  0  0  0  0
   -0.2500    3.3162   -4.1753 H   0  0  0  0  0  0  0  0  0  0  0  0
    0.7063    5.3069   -3.2045 H   0  0  0  0  0  0  0  0  0  0  0  0
    1.8399    4.4042   -4.2560 H   0  0  0  0  0  0  0  0  0  0  0  0
    2.9387    2.2582   -1.4090 H   0  0  0  0  0  0  0  0  0  0  0  0
    3.1844    2.5552   -3.1432 H   0  0  0  0  0  0  0  0  0  0  0  0
    6.1867    4.1562   -1.6102 H   0  0  0  0  0  0  0  0  0  0  0  0
    5.6422    3.0241   -2.8755 H   0  0  0  0  0  0  0  0  0  0  0  0
    5.4564    2.5817   -1.1557 H   0  0  0  0  0  0  0  0  0  0  0  0
    1.9964    7.4502   -3.9915 H   0  0  0  0  0  0  0  0  0  0  0  0
    3.1555    6.4377   -4.9035 H   0  0  0  0  0  0  0  0  0  0  0  0
    3.7467    7.5448   -3.6399 H   0  0  0  0  0  0  0  0  0  0  0  0
    0.9826    2.1896   -0.2092 H   0  0  0  0  0  0  0  0  0  0  0  0
   -0.8972    0.5827   -0.0836 H   0  0  0  0  0  0  0  0  0  0  0  0
   -5.5931   -3.6671   -2.5178 H   0  0  0  0  0  0  0  0  0  0  0  0
   -5.4389   -3.2593   -4.1849 H   0  0  0  0  0  0  0  0  0  0  0  0
   -4.4432   -3.9319   -0.8836 H   0  0  0  0  0  0  0  0  0  0  0  0
   -3.7085   -3.5860    1.4336 H   0  0  0  0  0  0  0  0  0  0  0  0
    2.1413   -3.6755    4.2959 H   0  0  0  0  0  0  0  0  0  0  0  0
    3.3969   -1.7184    4.8258 H   0  0  0  0  0  0  0  0  0  0  0  0
    1.9884   -1.1652    5.7539 H   0  0  0  0  0  0  0  0  0  0  0  0
    3.5619   -1.1334    2.2846 H   0  0  0  0  0  0  0  0  0  0  0  0
    3.3676    0.5549    1.8134 H   0  0  0  0  0  0  0  0  0  0  0  0
    1.5491   -2.4353    2.2928 H   0  0  0  0  0  0  0  0  0  0  0  0
    0.6319   -4.7726    0.8317 H   0  0  0  0  0  0  0  0  0  0  0  0
   -1.0785   -4.2711    0.8340 H   0  0  0  0  0  0  0  0  0  0  0  0
   -0.0775   -4.1065    2.3256 H   0  0  0  0  0  0  0  0  0  0  0  0
    0.9234   -1.3927   -1.1856 H   0  0  0  0  0  0  0  0  0  0  0  0
    3.2221   -0.2338   -2.7448 H   0  0  0  0  0  0  0  0  0  0  0  0
    1.5428    0.2741   -3.0757 H   0  0  0  0  0  0  0  0  0  0  0  0
    2.0393   -1.4144   -3.3941 H   0  0  0  0  0  0  0  0  0  0  0  0
  2  1  2  0  0  0  0
  2  3  1  0  0  0  0
  3  4  1  0  0  0  0
  4  5  1  1  0  0  0
  6 52  1  0  0  0  0
  6  4  1  0  0  0  0
  6 51  1  0  0  0  0
  7  6  1  0  0  0  0
  8  7  1  0  0  0  0
  8  9  1  0  0  0  0
  9 56  1  0  0  0  0
  9  4  1  0  0  0  0
 10  8  1  0  0  0  0
 11 10  2  0  0  0  0
 12 11  1  0  0  0  0
 13 14  1  0  0  0  0
 13 12  1  0  0  0  0
 14 29  1  0  0  0  0
 15 14  2  0  0  0  0
 16 15  1  0  0  0  0
 16 17  2  0  0  0  0
 17 28  1  0  0  0  0
 18 17  1  0  0  0  0
 18 25  1  0  0  0  0
 19 60  1  0  0  0  0
 19 20  1  0  0  0  0
 19 18  1  0  0  0  0
 20 22  1  0  0  0  0
 20 21  1  1  0  0  0
 22 23  1  0  0  0  0
 23 24  1  1  0  0  0
 25 23  1  0  0  0  0
 25 62  1  0  0  0  0
 26 23  1  0  0  0  0
 26 64  1  0  0  0  0
 26 66  1  0  0  0  0
 27 69  1  0  0  0  0
 27 20  1  0  0  0  0
 28 29  2  0  0  0  0
 28 70  1  0  0  0  0
 29 71  1  0  0  0  0
 30 12  2  0  0  0  0
 30 34  1  0  0  0  0
 31 30  1  0  0  0  0
 32 31  1  0  0  0  0
 32 72  1  0  0  0  0
 33 31  2  0  0  0  0
 34 35  2  0  0  0  0
 35 10  1  0  0  0  0
 35 75  1  0  0  0  0
 36 76  1  0  0  0  0
 36  2  1  0  0  0  0
 36 37  1  0  0  0  0
 37 77  1  0  0  0  0
 37 78  1  0  0  0  0
 38 37  1  0  0  0  0
 39 79  1  0  0  0  0
 39 38  1  0  0  0  0
 40 41  1  1  0  0  0
 40 42  1  0  0  0  0
 40 39  1  0  0  0  0
 42 81  1  0  0  0  0
 43 44  1  0  0  0  0
 43 42  1  0  0  0  0
 44 84  1  0  0  0  0
 45 43  2  0  0  0  0
 46 40  1  0  0  0  0
 47 85  1  0  0  0  0
 47 46  1  0  0  0  0
 48 47  1  0  0  0  0
 49 46  2  0  0  0  0
 50  3  1  0  0  0  0
 53  7  1  0  0  0  0
 54  7  1  0  0  0  0
 55  9  1  0  0  0  0
 57 13  1  0  0  0  0
 58 15  1  0  0  0  0
 59 16  1  0  0  0  0
 61 19  1  0  0  0  0
 63 25  1  0  0  0  0
 65 26  1  0  0  0  0
 67 27  1  0  0  0  0
 68 27  1  0  0  0  0
 73 32  1  0  0  0  0
 74 34  1  0  0  0  0
 80 39  1  0  0  0  0
 82 44  1  0  0  0  0
 83 44  1  0  0  0  0
 86 48  1  0  0  0  0
 87 48  1  0  0  0  0
 88 48  1  0  0  0  0
M  END
