88
-1 1
O        -0.474181   -3.917102    4.445568
C         0.182111   -2.855829    4.432362
N        -0.506622   -1.636056    4.520111
C        -1.939305   -1.501919    4.535760
H        -2.352314   -1.839288    5.501584
C        -2.282677   -0.038559    4.225481
C        -2.133145    0.031911    2.703836
N        -2.594073   -1.283770    2.282479
C        -2.665970   -2.227183    3.389369
C        -2.965861   -1.562164    1.017185
N        -2.753446   -0.616704    0.098700
C        -3.052583   -0.835466   -1.176095
N        -2.666015    0.084135   -2.108948
C        -1.640749    1.034421   -2.049915
C        -1.447899    1.843887   -3.177778
C        -0.379927    2.736009   -3.260078
C         0.527417    2.865838   -2.202025
N         1.655090    3.715965   -2.245533
C         1.672844    4.779081   -3.219090
C         2.792536    5.765754   -2.883349
H         2.549737    6.207520   -1.893758
O         4.033729    5.106689   -2.801288
C         4.043121    4.049875   -1.857270
H         3.832221    4.469411   -0.851687
C         2.945268    3.047154   -2.172867
C         5.417742    3.415204   -1.871495
C         2.926542    6.867387   -3.916367
C         0.298546    2.090870   -1.055510
C        -0.753112    1.191274   -0.972095
C        -3.771958   -2.000147   -1.602461
C        -4.223598   -2.176659   -2.991793
N        -5.045843   -3.246306   -3.253347
O        -3.909105   -1.432632   -3.922288
C        -3.978634   -2.979942   -0.613882
C        -3.572445   -2.806516    0.686626
C         1.591069   -2.730468    4.263231
C         2.315097   -1.530456    4.758992
S         2.159488    0.088132    3.801163
C         2.821637   -0.326022    2.167024
C         1.814233   -0.714314    1.082345
H         0.957397   -0.012824    1.130793
N         1.339060   -2.069723    1.327073
C         0.307930   -2.672062    0.698947
C        -0.082290   -4.032752    1.226953
O        -0.259786   -2.207040   -0.294123
C         2.458107   -0.421337   -0.304232
N         1.827926   -0.934076   -1.370703
C         2.173788   -0.558443   -2.716488
O         3.438066    0.315765   -0.391117
H         0.013263   -0.824353    4.198849
H        -1.631374    0.671193    4.755191
H        -3.325643    0.171036    4.511381
H        -1.082468    0.197753    2.405261
H        -2.733043    0.823180    2.232641
H        -2.167578   -3.181241    3.176077
H        -3.718108   -2.430372    3.669388
H        -2.990798   -0.165363   -3.046691
H        -2.132765    1.748020   -4.024832
H        -0.250003    3.316247   -4.175320
H         0.706337    5.306882   -3.204530
H         1.839880    4.404192   -4.256007
H         2.938657    2.258167   -1.409001
H         3.184436    2.555196   -3.143175
H         6.186713    4.156196   -1.610228
H         5.642232    3.024133   -2.875514
H         5.456396    2.581651   -1.155661
H         1.996428    7.450201   -3.991460
H         3.155533    6.437692   -4.903504
H         3.746697    7.544846   -3.639921
H         0.982612    2.189649   -0.209168
H        -0.897239    0.582672   -0.083636
H        -5.593071   -3.667115   -2.517820
H        -5.438932   -3.259297   -4.184860
H        -4.443161   -3.931907   -0.883601
H        -3.708478   -3.586017    1.433603
H         2.141302   -3.675503    4.295908
H         3.396883   -1.718440    4.825795
H         1.988377   -1.165230    5.753911
H         3.561935   -1.133394    2.284611
H         3.367645    0.554878    1.813405
H         1.549075   -2.435267    2.292830
H         0.631939   -4.772560    0.831696
H        -1.078524   -4.271144    0.834021
H        -0.077467   -4.106497    2.325607
H         0.923360   -1.392748   -1.185552
H         3.222058   -0.233803   -2.744834
H         1.542823    0.274095   -3.075685
H         2.039334   -1.414356   -3.394086
