100
-1 1
C         2.464765    2.050649   -2.583980
C         1.817937    3.111471   -1.775529
O         0.709572    3.673027   -2.278724
N         0.148627    4.511790   -1.362613
C         0.940283    4.472524   -0.320401
C         0.659157    5.265288    0.922064
N        -0.616367    5.164982    1.414211
C        -1.504993    4.108204    1.105598
C        -2.771985    4.340236    0.663421
C        -3.621267    3.255023    0.324553
C        -3.117385    1.989319    0.406475
N        -1.862186    1.737120    0.857933
C        -1.326289    0.371156    0.811708
H        -0.442046    0.393750    1.463601
C        -0.795314    0.133587   -0.617567
N        -0.859786   -1.121638   -1.074135
C        -0.449256   -1.564839   -2.400495
H        -1.022400   -2.494225   -2.565008
C        -0.721206   -0.601296   -3.555127
C        -2.167682   -0.192147   -3.894532
H        -2.735253   -1.073401   -4.228083
C        -2.124008    0.940018   -4.935058
C        -2.051753    2.205717   -4.067064
N        -2.863927    1.818410   -2.933876
C        -2.946909    0.474059   -2.751076
O        -3.553939   -0.087390   -1.858592
C         1.002780   -1.974355   -2.296843
S        -1.088352   -4.006937    0.207802
C         0.014800   -3.975723    1.673643
C         1.524266   -3.731387    1.477402
H         1.979845   -3.774360    2.481804
N         1.874771   -2.442133    0.891707
C         1.659362   -1.253937    1.498686
C         2.263418   -0.051803    0.797818
O         1.045073   -1.147127    2.552645
C         2.290339   -4.786119    0.660950
N         1.618870   -5.326259   -0.367771
C         2.212273   -6.292553   -1.251990
O         3.461698   -5.049260    0.922554
C         2.022668   -1.513184   -3.027107
C         3.448613   -1.847202   -2.812750
O         3.709569   -2.378755   -1.604985
C         5.091296   -2.670310   -1.283059
C         5.287620   -2.371263    0.191615
C         5.399868   -4.111564   -1.648975
O         4.304193   -1.615620   -3.633123
O        -0.359841    1.088820   -1.253760
C        -2.295179   -0.673813    1.365050
C        -2.748131   -0.336994    2.763170
C        -1.807309   -0.262466    3.801456
C        -2.219462    0.069169    5.080542
F        -1.341132    0.140967    6.079405
C        -3.563372    0.332751    5.351812
F        -3.930818    0.651630    6.595773
C        -4.501494    0.260850    4.336168
C        -4.089911   -0.071995    3.044481
C        -0.986548    2.748723    1.268170
O         0.128088    2.500411    1.699025
O         1.507398    5.962086    1.435228
C         2.046435    3.608882   -0.530678
H         1.885772    1.123835   -2.454124
H         3.492272    1.873219   -2.243152
H         2.478706    2.312314   -3.651243
H        -0.743761    5.660170    2.291488
H        -3.108036    5.372564    0.542825
H        -4.638541    3.412201   -0.031598
H        -3.678024    1.121247    0.056960
H        -1.097676   -1.928436   -0.457556
H        -0.331624   -1.092688   -4.461633
H        -0.128173    0.308264   -3.399852
H        -3.051245    0.952926   -5.528981
H        -1.275832    0.854285   -5.629192
H        -2.471212    3.087325   -4.574474
H        -1.022496    2.449155   -3.753511
H        -3.053289    2.445423   -2.159431
H         1.178273   -2.695423   -1.494297
H        -0.072180   -4.939386    2.202414
H        -0.328957   -3.204541    2.376883
H         2.459251   -2.437990    0.061285
H         1.598021    0.816930    0.895106
H         2.479567   -0.245939   -0.261621
H         3.204282    0.200742    1.311679
H         0.626909   -5.033415   -0.486219
H         2.950092   -6.898071   -0.706274
H         2.731761   -5.812284   -2.099243
H         1.429445   -6.950744   -1.654345
H         1.874382   -0.834349   -3.869189
H         5.702354   -1.993796   -1.897628
H         4.996616   -1.336015    0.421151
H         6.350786   -2.493516    0.447552
H         4.703028   -3.066008    0.812402
H         6.467274   -4.315508   -1.474146
H         5.188443   -4.293912   -2.712755
H         4.809029   -4.793990   -1.020349
H        -1.775677   -1.644908    1.375064
H        -3.152886   -0.812476    0.691144
H        -0.747468   -0.468195    3.615695
H        -5.547155    0.468596    4.569819
H        -4.829951   -0.129173    2.243177
H         2.833640    3.357594    0.171581
