-1 1
 OpenBabel05192410563D

100103  0  0  1  0  0  0  0  0999 V2000
    2.2258    1.8307   -3.1169 C   0  0  0  0  0  0  0  0  0  0  0  0
    1.8300    2.9461   -2.2296 C   0  0  0  0  0  0  0  0  0  0  0  0
    0.7389    3.6476   -2.5750 O   0  0  0  0  0  0  0  0  0  0  0  0
    0.4344    4.5620   -1.6139 N   0  0  0  0  0  0  0  0  0  0  0  0
    1.3602    4.4258   -0.6954 C   0  0  0  0  0  0  0  0  0  0  0  0
    1.3687    5.2796    0.5386 C   0  0  0  0  0  0  0  0  0  0  0  0
    0.1625    5.3849    1.1928 N   0  0  0  0  0  0  0  0  0  0  0  0
   -0.8671    4.4243    1.0489 C   0  0  0  0  0  0  0  0  0  0  0  0
   -2.1187    4.7579    0.6293 C   0  0  0  0  0  0  0  0  0  0  0  0
   -3.0965    3.7513    0.4110 C   0  0  0  0  0  0  0  0  0  0  0  0
   -2.7278    2.4476    0.5641 C   0  0  0  0  0  0  0  0  0  0  0  0
   -1.4872    2.0994    0.9973 N   0  0  0  0  0  0  0  0  0  0  0  0
   -1.0871    0.6949    0.9964 C   0  0  2  0  0  0  0  0  0  0  0  0
   -0.1064    0.6891    1.4921 H   0  0  0  0  0  0  0  0  0  0  0  0
   -0.7996    0.2959   -0.4709 C   0  0  0  0  0  0  0  0  0  0  0  0
   -0.9208   -1.0141   -0.7364 N   0  0  0  0  0  0  0  0  0  0  0  0
   -0.7615   -1.7108   -2.0125 C   0  0  1  0  0  0  0  0  0  0  0  0
   -1.4893   -2.5367   -1.9624 H   0  0  0  0  0  0  0  0  0  0  0  0
   -1.0944   -0.8857   -3.2501 C   0  0  0  0  0  0  0  0  0  0  0  0
   -2.5443   -0.4177   -3.4884 C   0  0  2  0  0  0  0  0  0  0  0  0
   -3.1980   -1.2921   -3.6273 H   0  0  0  0  0  0  0  0  0  0  0  0
   -2.5602    0.5520   -4.6825 C   0  0  0  0  0  0  0  0  0  0  0  0
   -2.3257    1.9179   -4.0219 C   0  0  0  0  0  0  0  0  0  0  0  0
   -3.0300    1.7499   -2.7669 N   0  0  0  0  0  0  0  0  0  0  0  0
   -3.1359    0.4541   -2.3740 C   0  0  0  0  0  0  0  0  0  0  0  0
   -3.6297    0.0707   -1.3256 O   0  0  0  0  0  0  0  0  0  0  0  0
    0.6676   -2.3219   -2.0755 C   0  0  1  0  0  0  0  0  0  0  0  0
    0.5393   -4.1434   -2.6483 S   0  0  0  0  0  0  0  0  0  0  0  0
   -0.1309   -4.9465   -1.1535 C   0  0  0  0  0  0  0  0  0  0  0  0
    0.8454   -5.1741    0.0229 C   0  0  2  0  0  0  0  0  0  0  0  0
    0.2665   -5.6577    0.8219 H   0  0  0  0  0  0  0  0  0  0  0  0
    1.4199   -3.9575    0.5780 N   0  0  0  0  0  0  0  0  0  0  0  0
    0.6809   -3.0648    1.2771 C   0  0  0  0  0  0  0  0  0  0  0  0
    1.4128   -1.8050    1.6805 C   0  0  0  0  0  0  0  0  0  0  0  0
   -0.5071   -3.2423    1.5333 O   0  0  0  0  0  0  0  0  0  0  0  0
    1.9667   -6.1671   -0.3115 C   0  0  0  0  0  0  0  0  0  0  0  0
    2.9280   -5.6857   -1.1419 N   0  0  0  0  0  0  0  0  0  0  0  0
    4.0091   -6.5160   -1.6096 C   0  0  0  0  0  0  0  0  0  0  0  0
    1.9788   -7.2908    0.1575 O   0  0  0  0  0  0  0  0  0  0  0  0
    1.7080   -1.5864   -2.7945 C   0  0  0  0  0  3  0  0  0  0  0  0
    3.0324   -1.4925   -2.3610 C   0  0  0  0  0  0  0  0  0  0  0  0
    3.2847   -2.1468   -1.1107 O   0  0  0  0  0  0  0  0  0  0  0  0
    4.5776   -1.9255   -0.5674 C   0  0  0  0  0  0  0  0  0  0  0  0
    4.6613   -0.5614    0.1085 C   0  0  0  0  0  0  0  0  0  0  0  0
    4.8911   -3.0695    0.3853 C   0  0  0  0  0  0  0  0  0  0  0  0
    3.9776   -0.9141   -2.8968 O   0  0  0  0  0  0  0  0  0  0  0  0
   -0.4924    1.1623   -1.2713 O   0  0  0  0  0  0  0  0  0  0  0  0
   -2.0662   -0.2042    1.7538 C   0  0  0  0  0  0  0  0  0  0  0  0
   -2.4600    0.3092    3.1186 C   0  0  0  0  0  0  0  0  0  0  0  0
   -1.5608    1.0156    3.9293 C   0  0  0  0  0  0  0  0  0  0  0  0
   -1.9449    1.4384    5.1923 C   0  0  0  0  0  0  0  0  0  0  0  0
   -1.0952    2.1142    5.9620 F   0  0  0  0  0  0  0  0  0  0  0  0
   -3.2253    1.1705    5.6743 C   0  0  0  0  0  0  0  0  0  0  0  0
   -3.5702    1.5915    6.8917 F   0  0  0  0  0  0  0  0  0  0  0  0
   -4.1278    0.4794    4.8821 C   0  0  0  0  0  0  0  0  0  0  0  0
   -3.7442    0.0566    3.6100 C   0  0  0  0  0  0  0  0  0  0  0  0
   -0.4989    3.0367    1.3170 C   0  0  0  0  0  0  0  0  0  0  0  0
    0.5865    2.6900    1.7610 O   0  0  0  0  0  0  0  0  0  0  0  0
    2.3662    5.8523    0.9166 O   0  0  0  0  0  0  0  0  0  0  0  0
    2.2967    3.4172   -1.0377 C   0  0  0  0  0  0  0  0  0  0  0  0
    1.6010    0.9500   -2.8928 H   0  0  0  0  0  0  0  0  0  0  0  0
    3.2629    1.5149   -2.9518 H   0  0  0  0  0  0  0  0  0  0  0  0
    2.0900    2.1027   -4.1731 H   0  0  0  0  0  0  0  0  0  0  0  0
    0.2387    5.8779    2.0775 H   0  0  0  0  0  0  0  0  0  0  0  0
   -2.3398    5.8069    0.4222 H   0  0  0  0  0  0  0  0  0  0  0  0
   -4.1041    3.9958    0.0770 H   0  0  0  0  0  0  0  0  0  0  0  0
   -3.3879    1.6174    0.2990 H   0  0  0  0  0  0  0  0  0  0  0  0
   -1.1718   -1.6248    0.0325 H   0  0  0  0  0  0  0  0  0  0  0  0
   -0.8359   -1.5270   -4.1080 H   0  0  0  0  0  0  0  0  0  0  0  0
   -0.4214   -0.0225   -3.2873 H   0  0  0  0  0  0  0  0  0  0  0  0
   -3.5454    0.5453   -5.1748 H   0  0  0  0  0  0  0  0  0  0  0  0
   -1.7985    0.3116   -5.4370 H   0  0  0  0  0  0  0  0  0  0  0  0
   -2.7484    2.7483   -4.6067 H   0  0  0  0  0  0  0  0  0  0  0  0
   -1.2566    2.1273   -3.8478 H   0  0  0  0  0  0  0  0  0  0  0  0
   -3.0609    2.4852   -2.0693 H   0  0  0  0  0  0  0  0  0  0  0  0
    0.9924   -2.4439   -1.0477 H   0  0  0  0  0  0  0  0  0  0  0  0
   -0.5266   -5.9257   -1.4630 H   0  0  0  0  0  0  0  0  0  0  0  0
   -0.9832   -4.3635   -0.7732 H   0  0  0  0  0  0  0  0  0  0  0  0
    2.2921   -3.6122    0.1764 H   0  0  0  0  0  0  0  0  0  0  0  0
    1.5572   -1.1673    0.7938 H   0  0  0  0  0  0  0  0  0  0  0  0
    2.4089   -2.0273    2.0853 H   0  0  0  0  0  0  0  0  0  0  0  0
    0.8250   -1.2691    2.4351 H   0  0  0  0  0  0  0  0  0  0  0  0
    2.7003   -4.8481   -1.6806 H   0  0  0  0  0  0  0  0  0  0  0  0
    4.2110   -7.2882   -0.8566 H   0  0  0  0  0  0  0  0  0  0  0  0
    4.9123   -5.9074   -1.7607 H   0  0  0  0  0  0  0  0  0  0  0  0
    3.7638   -7.0196   -2.5602 H   0  0  0  0  0  0  0  0  0  0  0  0
    1.5276   -1.2061   -3.8003 H   0  0  0  0  0  0  0  0  0  0  0  0
    5.2971   -1.9334   -1.4008 H   0  0  0  0  0  0  0  0  0  0  0  0
    4.4396    0.2248   -0.6251 H   0  0  0  0  0  0  0  0  0  0  0  0
    5.6731   -0.3874    0.5080 H   0  0  0  0  0  0  0  0  0  0  0  0
    3.9450   -0.4845    0.9409 H   0  0  0  0  0  0  0  0  0  0  0  0
    5.9276   -2.9928    0.7477 H   0  0  0  0  0  0  0  0  0  0  0  0
    4.7657   -4.0409   -0.1137 H   0  0  0  0  0  0  0  0  0  0  0  0
    4.2318   -3.0572    1.2687 H   0  0  0  0  0  0  0  0  0  0  0  0
   -1.5940   -1.1935    1.8886 H   0  0  0  0  0  0  0  0  0  0  0  0
   -2.9650   -0.3786    1.1423 H   0  0  0  0  0  0  0  0  0  0  0  0
   -0.5546    1.2775    3.5909 H   0  0  0  0  0  0  0  0  0  0  0  0
   -5.1281    0.2844    5.2724 H   0  0  0  0  0  0  0  0  0  0  0  0
   -4.4602   -0.4832    2.9866 H   0  0  0  0  0  0  0  0  0  0  0  0
    3.1455    3.0695   -0.4591 H   0  0  0  0  0  0  0  0  0  0  0  0
  1 62  1  0  0  0  0
  1 61  1  0  0  0  0
  1  2  1  0  0  0  0
  2 60  2  0  0  0  0
  3  2  1  0  0  0  0
  3  4  1  0  0  0  0
  4  5  2  0  0  0  0
  5  6  1  0  0  0  0
  6 59  2  0  0  0  0
  6  7  1  0  0  0  0
  7 64  1  0  0  0  0
  8  7  1  0  0  0  0
  8 57  1  0  0  0  0
  9  8  2  0  0  0  0
 10 11  2  0  0  0  0
 10  9  1  0  0  0  0
 11 12  1  0  0  0  0
 12 57  1  0  0  0  0
 13 12  1  0  0  0  0
 13 14  1  1  0  0  0
 13 48  1  0  0  0  0
 15 13  1  0  0  0  0
 16 15  1  0  0  0  0
 16 68  1  0  0  0  0
 17 18  1  1  0  0  0
 17 16  1  0  0  0  0
 19 17  1  0  0  0  0
 20 21  1  6  0  0  0
 20 19  1  0  0  0  0
 20 25  1  0  0  0  0
 22 23  1  0  0  0  0
 22 20  1  0  0  0  0
 23 74  1  0  0  0  0
 23 24  1  0  0  0  0
 24 25  1  0  0  0  0
 24 75  1  0  0  0  0
 25 26  2  0  0  0  0
 27 17  1  0  0  0  0
 27 76  1  1  0  0  0
 28 27  1  0  0  0  0
 28 29  1  0  0  0  0
 29 78  1  0  0  0  0
 29 30  1  0  0  0  0
 30 32  1  0  0  0  0
 30 31  1  1  0  0  0
 32 33  1  0  0  0  0
 33 35  2  0  0  0  0
 33 34  1  0  0  0  0
 34 81  1  0  0  0  0
 34 82  1  0  0  0  0
 36 30  1  0  0  0  0
 36 39  2  0  0  0  0
 37 36  1  0  0  0  0
 38 37  1  0  0  0  0
 38 84  1  0  0  0  0
 40 41  1  0  0  0  0
 40 27  1  0  0  0  0
 41 42  1  0  0  0  0
 42 43  1  0  0  0  0
 43 44  1  0  0  0  0
 43 45  1  0  0  0  0
 44 90  1  0  0  0  0
 44 91  1  0  0  0  0
 45 92  1  0  0  0  0
 45 94  1  0  0  0  0
 46 41  2  0  0  0  0
 47 15  2  0  0  0  0
 48 95  1  0  0  0  0
 48 49  1  0  0  0  0
 49 56  2  0  0  0  0
 49 50  1  0  0  0  0
 50 51  2  0  0  0  0
 51 53  1  0  0  0  0
 51 52  1  0  0  0  0
 53 54  1  0  0  0  0
 55 98  1  0  0  0  0
 55 53  2  0  0  0  0
 56 55  1  0  0  0  0
 57 58  2  0  0  0  0
 60  5  1  0  0  0  0
 60100  1  0  0  0  0
 63  1  1  0  0  0  0
 65  9  1  0  0  0  0
 66 10  1  0  0  0  0
 67 11  1  0  0  0  0
 69 19  1  0  0  0  0
 70 19  1  0  0  0  0
 71 22  1  0  0  0  0
 72 22  1  0  0  0  0
 73 23  1  0  0  0  0
 77 29  1  0  0  0  0
 79 32  1  0  0  0  0
 80 34  1  0  0  0  0
 83 37  1  0  0  0  0
 85 38  1  0  0  0  0
 86 38  1  0  0  0  0
 87 40  1  0  0  0  0
 88 43  1  0  0  0  0
 89 44  1  0  0  0  0
 93 45  1  0  0  0  0
 96 48  1  0  0  0  0
 97 50  1  0  0  0  0
 99 56  1  0  0  0  0
M  END
