100
-1 1
C        18.724630    3.504394   -6.558347
C        18.253779    4.607215   -5.689762
O        17.143507    5.255777   -6.072637
N        16.765260    6.153539   -5.121997
C        17.665042    6.060252   -4.173505
C        17.585682    6.900580   -2.932642
N        16.359783    6.914694   -2.310381
C        15.393936    5.897008   -2.497259
C        14.130747    6.166553   -2.928719
C        13.214910    5.110287   -3.177056
C        13.653820    3.827049   -3.035770
N        14.907995    3.542131   -2.595604
C        15.373217    2.156463   -2.587293
H        16.350969    2.198042   -2.086259
C        15.690887    1.763461   -4.048898
N        15.586274    0.455244   -4.328962
C        15.825633   -0.210652   -5.612566
H        15.188632   -1.105393   -5.583512
C        15.437954    0.593341   -6.848310
C        13.960579    0.968977   -7.077391
H        13.359299    0.056117   -7.201266
C        13.877530    1.925256   -8.279448
C        14.055658    3.307910   -7.635109
N        13.387637    3.116726   -6.364617
C        13.333079    1.819212   -5.965642
O        12.853610    1.422633   -4.916271
C        17.291299   -0.652314   -5.632314
S        17.083680   -2.883449   -6.235954
C        16.342181   -3.533818   -4.698593
C        17.265303   -3.738073   -3.477001
H        16.634694   -4.086458   -2.647577
N        17.926068   -2.522067   -3.019632
C        17.274808   -1.559643   -2.329745
C        18.088928   -0.325520   -2.006253
O        16.091597   -1.658768   -2.013521
C        18.330684   -4.829302   -3.654263
N        19.210800   -4.594400   -4.660896
C        20.234397   -5.551977   -4.991942
O        18.389495   -5.796440   -2.915528
C        18.277183    0.024926   -6.343061
C        19.654352    0.023104   -5.964162
O        19.918563   -0.699781   -4.808300
C        21.266833   -0.696954   -4.351127
C        21.575812    0.588072   -3.593587
C        21.458013   -1.942215   -3.500863
O        20.565224    0.604253   -6.533967
O        16.009037    2.634475   -4.841924
C        14.431927    1.217852   -1.829888
C        13.992951    1.727768   -0.477957
C        14.847102    2.477964    0.342075
C        14.421686    2.899301    1.592162
F        15.228847    3.617272    2.369935
C        13.143625    2.586080    2.052647
F        12.758336    3.007091    3.257923
C        12.285421    1.850405    1.251481
C        12.710409    1.429520   -0.007969
C        15.838625    4.527500   -2.250379
O        16.937425    4.235850   -1.799613
O        18.533163    7.534243   -2.524302
C        18.659804    5.098144   -4.484904
H        18.097164    2.618559   -6.374397
H        19.759131    3.220131   -6.332849
H        18.648541    3.777635   -7.620024
H        16.373507    7.407913   -1.422653
H        13.851374    7.205189   -3.117291
H        12.198349    5.302795   -3.517902
H        13.041873    2.964732   -3.313993
H        15.341361   -0.173742   -3.572125
H        15.733902   -0.032622   -7.705025
H        16.048200    1.502850   -6.886583
H        12.885595    1.865752   -8.754198
H        14.636630    1.714862   -9.045480
H        13.579319    4.110097   -8.218247
H        15.116445    3.573233   -7.487827
H        13.312444    3.857736   -5.676877
H        17.604335   -0.982169   -4.651987
H        15.860146   -4.500211   -4.916507
H        15.535473   -2.858057   -4.369230
H        18.813781   -2.274712   -3.451174
H        18.182670    0.300790   -2.907566
H        19.105533   -0.582070   -1.679195
H        17.582126    0.242010   -1.216412
H        18.905515   -3.917624   -5.375892
H        20.624250   -6.001239   -4.068605
H        21.053940   -5.048417   -5.524120
H        19.854722   -6.369936   -5.628930
H        18.072034    0.523166   -7.290148
H        21.922016   -0.745001   -5.234902
H        21.444486    1.453357   -4.256320
H        22.615736    0.581707   -3.231582
H        20.907839    0.698505   -2.725346
H        22.515527   -2.055859   -3.219053
H        21.139623   -2.841066   -4.048024
H        20.871330   -1.886812   -2.569239
H        14.956576    0.257616   -1.679318
H        13.550265    0.991816   -2.449406
H        15.849011    2.774873    0.020786
H        11.286278    1.619410    1.624818
H        12.028817    0.854492   -0.638502
H        19.502245    4.789874   -3.875625
