-1 1
 OpenBabel05232414493D

 88 90  0  0  1  0  0  0  0  0999 V2000
   -3.8962   -6.6750   -3.2573 O   0  0  0  0  0  0  0  0  0  0  0  0
   -3.6247   -6.5691   -4.4490 C   0  0  0  0  0  0  0  0  0  0  0  0
   -2.2694   -6.8025   -4.8560 N   0  0  0  0  0  0  0  0  0  0  0  0
   -2.0391   -8.1016   -5.4714 C   0  0  1  0  0  0  0  0  0  0  0  0
   -2.7366   -8.8538   -5.0504 H   0  0  0  0  0  0  0  0  0  0  0  0
   -2.1247   -8.2005   -6.9869 C   0  0  0  0  0  0  0  0  0  0  0  0
   -1.5688   -9.5952   -7.2211 C   0  0  0  0  0  0  0  0  0  0  0  0
   -0.5255   -9.7174   -6.1970 N   0  0  0  0  0  0  0  0  0  0  0  0
   -0.6265   -8.6389   -5.2161 C   0  0  0  0  0  0  0  0  0  0  0  0
    0.0443  -10.9263   -5.9611 C   0  0  0  0  0  0  0  0  0  0  0  0
    1.1862  -11.0950   -5.1291 C   0  0  0  0  0  0  0  0  0  0  0  0
    1.7351  -10.0381   -4.5018 F   0  0  0  0  0  0  0  0  0  0  0  0
    1.7545  -12.3345   -5.0190 C   0  0  0  0  0  0  0  0  0  0  0  0
    1.2051  -13.4542   -5.6769 C   0  0  0  0  0  0  0  0  0  0  0  0
    1.8095  -14.7967   -5.5979 C   0  0  0  0  0  0  0  0  0  0  0  0
    3.0565  -14.8890   -5.0298 N   0  0  0  0  0  0  0  0  0  0  0  0
    1.2535  -15.8156   -6.0008 O   0  0  0  0  0  0  0  0  0  0  0  0
    0.0019  -13.2148   -6.4102 C   0  0  0  0  0  0  0  0  0  0  0  0
   -0.6992  -14.2362   -6.9630 N   0  0  0  0  0  0  0  0  0  0  0  0
   -2.0317  -14.1692   -7.4364 C   0  0  0  0  0  0  0  0  0  0  0  0
   -3.0354  -13.4586   -6.7589 C   0  0  0  0  0  0  0  0  0  0  0  0
   -4.3485  -13.4747   -7.1963 C   0  0  0  0  0  0  0  0  0  0  0  0
   -4.7317  -14.2202   -8.3333 C   0  0  0  0  0  0  0  0  0  0  0  0
   -6.0684  -14.2566   -8.7288 N   0  0  0  0  0  0  0  0  0  0  0  0
   -6.4662  -15.1192   -9.8142 C   0  0  0  0  0  0  0  0  0  0  0  0
   -7.9823  -15.3382   -9.7935 C   0  0  1  0  0  0  0  0  0  0  0  0
   -8.2120  -15.8962   -8.8597 H   0  0  0  0  0  0  0  0  0  0  0  0
   -8.6823  -14.1223   -9.7836 O   0  0  0  0  0  0  0  0  0  0  0  0
   -8.3231  -13.2979   -8.6863 C   0  0  1  0  0  0  0  0  0  0  0  0
   -8.5551  -13.8451   -7.7482 H   0  0  0  0  0  0  0  0  0  0  0  0
   -6.8327  -13.0153   -8.7153 C   0  0  0  0  0  0  0  0  0  0  0  0
   -9.1285  -12.0172   -8.7499 C   0  0  0  0  0  0  0  0  0  0  0  0
   -8.4590  -16.1358  -10.9923 C   0  0  0  0  0  0  0  0  0  0  0  0
   -3.7222  -14.9261   -9.0082 C   0  0  0  0  0  0  0  0  0  0  0  0
   -2.3983  -14.8967   -8.5647 C   0  0  0  0  0  0  0  0  0  0  0  0
   -0.4827  -11.9807   -6.5696 N   0  0  0  0  0  0  0  0  0  0  0  0
   -4.6013   -6.1675   -5.4377 C   0  0  0  0  0  3  0  0  0  0  0  0
   -4.3226   -5.5854   -6.6578 C   0  0  0  0  0  3  0  0  0  0  0  0
   -4.7697   -6.8164   -8.8250 S   0  0  0  0  0  1  0  0  0  0  0  0
   -6.4125   -7.4994   -8.4522 C   0  0  0  0  0  0  0  0  0  0  0  0
   -6.3903   -8.9507   -7.9528 C   0  0  2  0  0  0  0  0  0  0  0  0
   -7.4261   -9.3045   -7.8172 H   0  0  0  0  0  0  0  0  0  0  0  0
   -5.7092   -9.0291   -6.6747 N   0  0  0  0  0  0  0  0  0  0  0  0
   -5.9200  -10.0510   -5.8124 C   0  0  0  0  0  0  0  0  0  0  0  0
   -5.2254   -9.9498   -4.4710 C   0  0  0  0  0  0  0  0  0  0  0  0
   -6.6009  -11.0286   -6.1001 O   0  0  0  0  0  0  0  0  0  0  0  0
   -5.8114   -9.8624   -9.0420 C   0  0  0  0  0  0  0  0  0  0  0  0
   -4.5982  -10.3956   -8.7846 N   0  0  0  0  0  0  0  0  0  0  0  0
   -3.8332  -11.1180   -9.7668 C   0  0  0  0  0  0  0  0  0  0  0  0
   -6.4462  -10.0761  -10.0630 O   0  0  0  0  0  0  0  0  0  0  0  0
   -1.7506   -6.7745   -3.9795 H   0  0  0  0  0  0  0  0  0  0  0  0
   -1.4731   -7.4330   -7.4364 H   0  0  0  0  0  0  0  0  0  0  0  0
   -3.1271   -8.0479   -7.4118 H   0  0  0  0  0  0  0  0  0  0  0  0
   -1.1526   -9.7511   -8.2270 H   0  0  0  0  0  0  0  0  0  0  0  0
   -2.3288  -10.3815   -7.0668 H   0  0  0  0  0  0  0  0  0  0  0  0
    0.1185   -7.8420   -5.3904 H   0  0  0  0  0  0  0  0  0  0  0  0
   -0.4942   -9.0163   -4.1924 H   0  0  0  0  0  0  0  0  0  0  0  0
    2.6390  -12.4224   -4.3850 H   0  0  0  0  0  0  0  0  0  0  0  0
    3.6758  -14.0920   -5.0172 H   0  0  0  0  0  0  0  0  0  0  0  0
    3.4893  -15.8002   -5.1062 H   0  0  0  0  0  0  0  0  0  0  0  0
   -0.2701  -15.1521   -6.8256 H   0  0  0  0  0  0  0  0  0  0  0  0
   -2.7806  -12.8896   -5.8648 H   0  0  0  0  0  0  0  0  0  0  0  0
   -5.0972  -12.9127   -6.6350 H   0  0  0  0  0  0  0  0  0  0  0  0
   -5.9804  -16.1010   -9.7069 H   0  0  0  0  0  0  0  0  0  0  0  0
   -6.1748  -14.7020  -10.8045 H   0  0  0  0  0  0  0  0  0  0  0  0
   -6.5778  -12.3990   -7.8464 H   0  0  0  0  0  0  0  0  0  0  0  0
   -6.6182  -12.4178   -9.6220 H   0  0  0  0  0  0  0  0  0  0  0  0
  -10.2021  -12.2442   -8.8202 H   0  0  0  0  0  0  0  0  0  0  0  0
   -8.8248  -11.4131   -9.6175 H   0  0  0  0  0  0  0  0  0  0  0  0
   -8.9412  -11.4252   -7.8423 H   0  0  0  0  0  0  0  0  0  0  0  0
   -7.9737  -17.1228  -11.0283 H   0  0  0  0  0  0  0  0  0  0  0  0
   -8.2304  -15.5938  -11.9224 H   0  0  0  0  0  0  0  0  0  0  0  0
   -9.5474  -16.2785  -10.9388 H   0  0  0  0  0  0  0  0  0  0  0  0
   -3.9520  -15.4924   -9.9107 H   0  0  0  0  0  0  0  0  0  0  0  0
   -1.6316  -15.4468   -9.1161 H   0  0  0  0  0  0  0  0  0  0  0  0
   -5.6173   -6.1060   -5.0368 H   0  0  0  0  0  0  0  0  0  0  0  0
   -3.2836   -5.4366   -6.9594 H   0  0  0  0  0  0  0  0  0  0  0  0
   -5.0497   -4.9150   -7.1107 H   0  0  0  0  0  0  0  0  0  0  0  0
   -7.0356   -7.4759   -9.3577 H   0  0  0  0  0  0  0  0  0  0  0  0
   -6.9221   -6.8868   -7.6864 H   0  0  0  0  0  0  0  0  0  0  0  0
   -5.2213   -8.1899   -6.3541 H   0  0  0  0  0  0  0  0  0  0  0  0
   -4.9934   -8.9206   -4.1634 H   0  0  0  0  0  0  0  0  0  0  0  0
   -4.2856  -10.5224   -4.5196 H   0  0  0  0  0  0  0  0  0  0  0  0
   -5.8628  -10.4280   -3.7169 H   0  0  0  0  0  0  0  0  0  0  0  0
   -4.1237  -10.0369   -7.9674 H   0  0  0  0  0  0  0  0  0  0  0  0
   -3.2836  -10.4354  -10.4378 H   0  0  0  0  0  0  0  0  0  0  0  0
   -4.5130  -11.7239  -10.3799 H   0  0  0  0  0  0  0  0  0  0  0  0
   -3.1216  -11.7881   -9.2635 H   0  0  0  0  0  0  0  0  0  0  0  0
  2  1  2  0  0  0  0
  3  2  1  0  0  0  0
  3 51  1  0  0  0  0
  4  9  1  0  0  0  0
  4  5  1  1  0  0  0
  4  3  1  0  0  0  0
  6  4  1  0  0  0  0
  7 55  1  0  0  0  0
  7  6  1  0  0  0  0
  7  8  1  0  0  0  0
  8 10  1  0  0  0  0
  8  9  1  0  0  0  0
  9 57  1  0  0  0  0
 10 11  1  0  0  0  0
 11 13  2  0  0  0  0
 11 12  1  0  0  0  0
 13 58  1  0  0  0  0
 14 15  1  0  0  0  0
 14 13  1  0  0  0  0
 15 16  1  0  0  0  0
 16 59  1  0  0  0  0
 17 15  2  0  0  0  0
 18 14  2  0  0  0  0
 19 61  1  0  0  0  0
 19 18  1  0  0  0  0
 20 19  1  0  0  0  0
 20 21  1  0  0  0  0
 21 62  1  0  0  0  0
 22 21  2  0  0  0  0
 22 63  1  0  0  0  0
 23 22  1  0  0  0  0
 24 31  1  0  0  0  0
 24 23  1  0  0  0  0
 25 26  1  0  0  0  0
 25 64  1  0  0  0  0
 25 24  1  0  0  0  0
 26 28  1  0  0  0  0
 26 27  1  1  0  0  0
 28 29  1  0  0  0  0
 29 30  1  1  0  0  0
 31 29  1  0  0  0  0
 31 66  1  0  0  0  0
 32 29  1  0  0  0  0
 32 70  1  0  0  0  0
 33 73  1  0  0  0  0
 33 26  1  0  0  0  0
 34 35  1  0  0  0  0
 34 23  2  0  0  0  0
 35 20  2  0  0  0  0
 36 18  1  0  0  0  0
 36 10  2  0  0  0  0
 37 76  1  0  0  0  0
 37  2  1  0  0  0  0
 38 37  1  0  0  0  0
 39 40  1  0  0  0  0
 40 41  1  0  0  0  0
 40 80  1  0  0  0  0
 41 42  1  1  0  0  0
 41 43  1  0  0  0  0
 43 81  1  0  0  0  0
 43 44  1  0  0  0  0
 44 45  1  0  0  0  0
 45 82  1  0  0  0  0
 45 84  1  0  0  0  0
 46 44  2  0  0  0  0
 47 48  1  0  0  0  0
 47 41  1  0  0  0  0
 48 85  1  0  0  0  0
 49 88  1  0  0  0  0
 49 48  1  0  0  0  0
 50 47  2  0  0  0  0
 52  6  1  0  0  0  0
 53  6  1  0  0  0  0
 54  7  1  0  0  0  0
 56  9  1  0  0  0  0
 60 16  1  0  0  0  0
 65 25  1  0  0  0  0
 67 31  1  0  0  0  0
 68 32  1  0  0  0  0
 69 32  1  0  0  0  0
 71 33  1  0  0  0  0
 72 33  1  0  0  0  0
 74 34  1  0  0  0  0
 75 35  1  0  0  0  0
 77 38  1  0  0  0  0
 78 38  1  0  0  0  0
 79 40  1  0  0  0  0
 83 45  1  0  0  0  0
 86 49  1  0  0  0  0
 87 49  1  0  0  0  0
M  END
