88
-1 1
O         3.373453    7.169991    0.904729
C         2.538054    6.325046    1.182176
N         2.457619    5.160148    0.468612
C         1.884254    3.889048    0.842528
H         1.024195    4.059401    1.501946
C         1.391018    3.058260   -0.338814
C         1.288639    1.671618    0.269051
N         2.406797    1.618242    1.216575
C         2.887260    2.953978    1.548457
C         2.989800    0.447613    1.546580
C         4.150784    0.351431    2.374727
F         4.665811    1.438900    2.982295
C         4.747473   -0.863464    2.554607
C         4.232810   -2.033494    1.960003
C         4.901431   -3.338774    2.075617
N         6.153018   -3.354204    2.644547
O         4.399958   -4.398633    1.703396
C         3.011196   -1.868935    1.235034
N         2.390798   -2.946658    0.692263
C         1.156872   -2.947660    0.001346
C        -0.021638   -2.466144    0.587986
C        -1.235437   -2.545982   -0.074166
C        -1.329219   -3.094885   -1.372288
N        -2.562055   -3.146167   -2.022356
C        -2.658363   -3.786638   -3.312027
C        -4.117507   -4.114055   -3.642981
H        -4.451845   -4.873101   -2.902775
O        -4.938965   -2.981062   -3.538245
C        -4.885033   -2.392684   -2.249764
H        -5.221314   -3.144264   -1.505197
C        -3.458469   -2.001096   -1.912534
C        -5.805301   -1.190945   -2.218383
C        -4.271922   -4.669659   -5.045618
C        -0.145680   -3.584836   -1.949119
C         1.070900   -3.513292   -1.267837
N         2.454779   -0.669312    1.051689
C         1.567700    6.578012    2.292484
C         0.253400    6.350367    2.251810
S        -1.886566    3.863349    0.838977
C        -3.309731    3.137897   -0.053123
C        -3.233818    1.596202   -0.194479
H        -4.243908    1.193541   -0.372229
N        -2.723906    1.045413    1.038694
C        -3.165138   -0.081838    1.622097
C        -2.581835   -0.374587    2.990828
O        -3.951610   -0.864856    1.094798
C        -2.440043    1.195323   -1.442936
N        -1.308959    0.485997   -1.238123
C        -0.468367    0.051288   -2.321156
O        -2.840151    1.489722   -2.558411
H         3.158708    5.128255   -0.266119
H         2.136881    3.072895   -1.153582
H         0.416473    3.414448   -0.701147
H         1.374844    0.853560   -0.453462
H         0.327863    1.571979    0.802053
H         3.905087    3.121181    1.153350
H         2.918954    3.128263    2.633071
H         5.627947   -0.891060    3.199961
H         6.734915   -2.529800    2.624961
H         6.628832   -4.245073    2.586042
H         2.881422   -3.828809    0.848585
H         0.022742   -2.033737    1.589129
H        -2.139810   -2.196333    0.424667
H        -2.095199   -4.731857   -3.301190
H        -2.237334   -3.149762   -4.122257
H        -3.453161   -1.587430   -0.898510
H        -3.150540   -1.198588   -2.612454
H        -6.819586   -1.477183   -2.531398
H        -5.433601   -0.401866   -2.889146
H        -5.841684   -0.787068   -1.196260
H        -3.680639   -5.588764   -5.173519
H        -3.937981   -3.927133   -5.786050
H        -5.328337   -4.898511   -5.243837
H        -0.149737   -4.001861   -2.956027
H         1.979907   -3.889739   -1.743336
H         2.015984    7.124678    3.128157
H        -0.255186    5.854040    1.416375
H        -0.388829    6.668309    3.077371
H        -3.403625    3.552297   -1.066611
H        -4.240242    3.375909    0.486456
H        -2.164310    1.751523    1.549149
H        -1.983041    0.453703    3.392458
H        -1.952544   -1.274360    2.918748
H        -3.404500   -0.606670    3.680721
H        -1.059863    0.251783   -0.287353
H         0.049299    0.900879   -2.797578
H        -1.064037   -0.452762   -3.098157
H         0.275090   -0.658968   -1.935272
