58
-1 1
O        -0.102750    2.677877   -2.779446
C         0.997642    2.092258   -2.558594
N         1.136530    1.463023   -1.297871
C         0.037263    1.491422   -0.378973
H        -0.350166    2.522354   -0.364818
C        -1.163936    0.560229   -0.631885
C        -1.879978    0.546950    0.712653
N        -0.786961    0.707154    1.672781
C         0.467403    1.086075    1.034471
C        -0.923918    0.512775    2.988530
N         0.161566    0.666648    3.761375
C         0.040511    0.447003    5.067169
N         1.131821    0.625805    5.830226
C        -1.205853    0.027076    5.640405
C        -1.338594   -0.266308    7.075721
N        -2.513678   -0.842319    7.489153
O        -0.465786   -0.012401    7.903980
C        -2.263539   -0.045592    4.724596
N        -2.168024    0.185248    3.434859
C         2.050701    2.001116   -3.476747
C         3.237179    1.169952   -3.325258
S         3.138311   -0.645745   -4.104505
C         1.419933   -0.660052   -4.659479
C         0.381886   -0.909095   -3.552796
H         0.558132   -0.198340   -2.744460
N         0.468024   -2.231484   -2.985911
C         0.999039   -2.497831   -1.771459
C         1.038400   -3.968644   -1.399123
O         1.446278   -1.648982   -1.014697
C        -1.023071   -0.702359   -4.121107
N        -1.445322    0.576130   -4.141058
C        -2.719522    0.944166   -4.699527
O        -1.658229   -1.657260   -4.560336
H         1.690832    0.611809   -1.257539
H        -0.793383   -0.447406   -0.872250
H        -1.787834    0.916331   -1.459810
H        -2.436588   -0.378109    0.916567
H        -2.594116    1.383326    0.811944
H         1.154036    0.222348    0.995906
H         0.962845    1.893850    1.589584
H         1.977971    0.933934    5.374385
H         1.032123    0.519917    6.835956
H        -3.098879   -1.347243    6.840305
H        -2.530760   -1.138831    8.455798
H        -3.273642   -0.289699    5.081570
H         1.873810    2.505747   -4.429723
H         3.509339    0.970312   -2.279517
H         4.119511    1.563239   -3.847688
H         1.328782   -1.436070   -5.435640
H         1.200335    0.316886   -5.113360
H        -0.006303   -2.956824   -3.511051
H         0.337791   -4.584152   -1.980994
H         0.820517   -4.067407   -0.328046
H         2.060109   -4.338314   -1.572304
H        -0.897505    1.335294   -3.684403
H        -3.403178    1.323412   -3.921481
H        -3.171115    0.057985   -5.163996
H        -2.601341    1.733118   -5.459117
