-1 1
 OpenBabel05232413493D

 58 58  0  0  1  0  0  0  0  0999 V2000
    0.2194    3.9169   -2.3069 O   0  0  0  0  0  0  0  0  0  0  0  0
    0.7858    2.8297   -2.3312 C   0  0  0  0  0  0  0  0  0  0  0  0
    0.5406    1.8358   -1.4503 N   0  0  0  0  0  0  0  0  0  0  0  0
   -0.3884    1.9908   -0.3631 C   0  0  1  0  0  0  0  0  0  0  0  0
   -0.5004    3.0709   -0.1839 H   0  0  0  0  0  0  0  0  0  0  0  0
   -1.7751    1.3706   -0.5897 C   0  0  0  0  0  0  0  0  0  0  0  0
   -2.3284    1.2099    0.8222 C   0  0  0  0  0  0  0  0  0  0  0  0
   -1.1295    1.0049    1.6316 N   0  0  0  0  0  0  0  0  0  0  0  0
    0.1020    1.2880    0.9103 C   0  0  0  0  0  0  0  0  0  0  0  0
   -1.1593    0.5829    2.9035 C   0  0  0  0  0  0  0  0  0  0  0  0
    0.0128    0.4115    3.5289 N   0  0  0  0  0  0  0  0  0  0  0  0
   -0.0042   -0.0386    4.7815 C   0  0  0  0  0  0  0  0  0  0  0  0
    1.1759   -0.1841    5.4047 N   0  0  0  0  0  0  0  0  0  0  0  0
   -1.2377   -0.3627    5.4377 C   0  0  0  0  0  0  0  0  0  0  0  0
   -1.2658   -0.9141    6.8032 C   0  0  0  0  0  0  0  0  0  0  0  0
   -2.4693   -1.3873    7.2587 N   0  0  0  0  0  0  0  0  0  0  0  0
   -0.2797   -0.9553    7.5357 O   0  0  0  0  0  0  0  0  0  0  0  0
   -2.3830   -0.0841    4.6830 C   0  0  0  0  0  0  0  0  0  0  0  0
   -2.3857    0.3802    3.4523 N   0  0  0  0  0  0  0  0  0  0  0  0
    1.8263    2.5610   -3.3789 C   0  0  0  0  0  0  0  0  0  0  0  0
    2.7352    1.5836   -3.3616 C   0  0  0  0  0  0  0  0  0  0  0  0
    1.7038   -3.7264   -5.4174 S   0  0  0  0  0  1  0  0  0  0  0  0
    0.4542   -2.4262   -5.1572 C   0  0  0  0  0  0  0  0  0  0  0  0
    0.7430   -1.5403   -3.9140 C   0  0  2  0  0  0  0  0  0  0  0  0
    1.5729   -0.8512   -4.1579 H   0  0  0  0  0  0  0  0  0  0  0  0
    1.1319   -2.3987   -2.8300 N   0  0  0  0  0  0  0  0  0  0  0  0
    1.5139   -1.9685   -1.6311 C   0  0  0  0  0  0  0  0  0  0  0  0
    1.9503   -3.0318   -0.6491 C   0  0  0  0  0  0  0  0  0  0  0  0
    1.5071   -0.7780   -1.2901 O   0  0  0  0  0  0  0  0  0  0  0  0
   -0.5055   -0.7306   -3.5703 C   0  0  0  0  0  0  0  0  0  0  0  0
   -0.5992    0.4356   -4.2665 N   0  0  0  0  0  0  0  0  0  0  0  0
   -1.7280    1.3244   -4.1757 C   0  0  0  0  0  0  0  0  0  0  0  0
   -1.3710   -1.1228   -2.8075 O   0  0  0  0  0  0  0  0  0  0  0  0
    0.9213    0.8919   -1.5907 H   0  0  0  0  0  0  0  0  0  0  0  0
   -1.6620    0.3932   -1.0847 H   0  0  0  0  0  0  0  0  0  0  0  0
   -2.4108    2.0014   -1.2256 H   0  0  0  0  0  0  0  0  0  0  0  0
   -3.0157    0.3598    0.9291 H   0  0  0  0  0  0  0  0  0  0  0  0
   -2.8688    2.1093    1.1672 H   0  0  0  0  0  0  0  0  0  0  0  0
    0.6386    0.3593    0.6523 H   0  0  0  0  0  0  0  0  0  0  0  0
    0.7759    1.9115    1.5145 H   0  0  0  0  0  0  0  0  0  0  0  0
    2.0120    0.0575    4.8936 H   0  0  0  0  0  0  0  0  0  0  0  0
    1.1675   -0.4743    6.3788 H   0  0  0  0  0  0  0  0  0  0  0  0
   -3.1937   -1.6658    6.6134 H   0  0  0  0  0  0  0  0  0  0  0  0
   -2.4369   -1.8615    8.1514 H   0  0  0  0  0  0  0  0  0  0  0  0
   -3.3757   -0.2302    5.1298 H   0  0  0  0  0  0  0  0  0  0  0  0
    1.8172    3.3100   -4.1767 H   0  0  0  0  0  0  0  0  0  0  0  0
    2.7696    0.8321   -2.5669 H   0  0  0  0  0  0  0  0  0  0  0  0
    3.4737    1.4916   -4.1626 H   0  0  0  0  0  0  0  0  0  0  0  0
   -0.5444   -2.8735   -5.0147 H   0  0  0  0  0  0  0  0  0  0  0  0
    0.3833   -1.7505   -6.0243 H   0  0  0  0  0  0  0  0  0  0  0  0
    1.3959   -3.3357   -3.1801 H   0  0  0  0  0  0  0  0  0  0  0  0
    2.1023   -4.0112   -1.1215 H   0  0  0  0  0  0  0  0  0  0  0  0
    1.1760   -3.1238    0.1270 H   0  0  0  0  0  0  0  0  0  0  0  0
    2.8765   -2.7028   -0.1592 H   0  0  0  0  0  0  0  0  0  0  0  0
    0.2083    0.7277   -4.8001 H   0  0  0  0  0  0  0  0  0  0  0  0
   -1.4581    2.2878   -3.7131 H   0  0  0  0  0  0  0  0  0  0  0  0
   -2.4845    0.8333   -3.5509 H   0  0  0  0  0  0  0  0  0  0  0  0
   -2.1628    1.5193   -5.1696 H   0  0  0  0  0  0  0  0  0  0  0  0
  2  1  2  0  0  0  0
  2  3  1  0  0  0  0
  3  4  1  0  0  0  0
  4  5  1  1  0  0  0
  4  9  1  0  0  0  0
  6  4  1  0  0  0  0
  6  7  1  0  0  0  0
  7 37  1  0  0  0  0
  7 38  1  0  0  0  0
  7  8  1  0  0  0  0
  8 10  1  0  0  0  0
  9 40  1  0  0  0  0
  9  8  1  0  0  0  0
 10 19  1  0  0  0  0
 10 11  2  0  0  0  0
 11 12  1  0  0  0  0
 12 13  1  0  0  0  0
 12 14  2  0  0  0  0
 13 42  1  0  0  0  0
 14 15  1  0  0  0  0
 15 16  1  0  0  0  0
 15 17  2  0  0  0  0
 16 44  1  0  0  0  0
 18 45  1  0  0  0  0
 18 14  1  0  0  0  0
 19 18  2  0  0  0  0
 20 21  2  0  0  0  0
 20  2  1  0  0  0  0
 21 47  1  0  0  0  0
 22 23  1  0  0  0  0
 23 49  1  0  0  0  0
 23 24  1  0  0  0  0
 24 25  1  6  0  0  0
 24 30  1  0  0  0  0
 24 26  1  0  0  0  0
 26 27  1  0  0  0  0
 27 29  2  0  0  0  0
 27 28  1  0  0  0  0
 28 54  1  0  0  0  0
 28 53  1  0  0  0  0
 30 33  2  0  0  0  0
 31 32  1  0  0  0  0
 31 30  1  0  0  0  0
 32 56  1  0  0  0  0
 32 57  1  0  0  0  0
 34  3  1  0  0  0  0
 35  6  1  0  0  0  0
 36  6  1  0  0  0  0
 39  9  1  0  0  0  0
 41 13  1  0  0  0  0
 43 16  1  0  0  0  0
 46 20  1  0  0  0  0
 48 21  1  0  0  0  0
 50 23  1  0  0  0  0
 51 26  1  0  0  0  0
 52 28  1  0  0  0  0
 55 31  1  0  0  0  0
 58 32  1  0  0  0  0
M  END
