58
-1 1
O         0.219399    3.916874   -2.306928
C         0.785835    2.829725   -2.331167
N         0.540603    1.835839   -1.450266
C        -0.388392    1.990763   -0.363126
H        -0.500356    3.070943   -0.183897
C        -1.775057    1.370640   -0.589689
C        -2.328415    1.209854    0.822160
N        -1.129549    1.004882    1.631577
C         0.101976    1.287970    0.910316
C        -1.159310    0.582928    2.903540
N         0.012779    0.411542    3.528901
C        -0.004247   -0.038638    4.781488
N         1.175863   -0.184084    5.404713
C        -1.237666   -0.362673    5.437657
C        -1.265781   -0.914118    6.803157
N        -2.469344   -1.387252    7.258660
O        -0.279725   -0.955316    7.535686
C        -2.382996   -0.084055    4.682998
N        -2.385665    0.380155    3.452297
C         1.826339    2.560963   -3.378881
C         2.735202    1.583619   -3.361628
S         1.703793   -3.726377   -5.417393
C         0.454159   -2.426202   -5.157247
C         0.742963   -1.540277   -3.913990
H         1.572879   -0.851208   -4.157856
N         1.131910   -2.398710   -2.830017
C         1.513870   -1.968539   -1.631143
C         1.950335   -3.031836   -0.649059
O         1.507086   -0.777990   -1.290144
C        -0.505487   -0.730591   -3.570296
N        -0.599192    0.435595   -4.266505
C        -1.728007    1.324354   -4.175750
O        -1.370970   -1.122758   -2.807506
H         0.921322    0.891888   -1.590698
H        -1.662019    0.393157   -1.084682
H        -2.410808    2.001399   -1.225628
H        -3.015749    0.359841    0.929098
H        -2.868760    2.109340    1.167239
H         0.638574    0.359270    0.652287
H         0.775900    1.911478    1.514466
H         2.011990    0.057463    4.893593
H         1.167540   -0.474308    6.378757
H        -3.193717   -1.665839    6.613420
H        -2.436851   -1.861490    8.151371
H        -3.375707   -0.230168    5.129790
H         1.817218    3.310010   -4.176670
H         2.769600    0.832064   -2.566901
H         3.473748    1.491558   -4.162577
H        -0.544416   -2.873499   -5.014672
H         0.383281   -1.750541   -6.024307
H         1.395928   -3.335749   -3.180062
H         2.102334   -4.011226   -1.121452
H         1.176038   -3.123845    0.126965
H         2.876505   -2.702818   -0.159229
H         0.208266    0.727696   -4.800130
H        -1.458073    2.287756   -3.713090
H        -2.484485    0.833291   -3.550906
H        -2.162849    1.519300   -5.169632
