-1 1
 OpenBabel05232414493D

 68 69  0  0  1  0  0  0  0  0999 V2000
    7.0887    5.9620   -7.6721 O   0  0  0  0  0  0  0  0  0  0  0  0
    6.5481    6.2074   -8.7686 C   0  0  0  0  0  0  0  0  0  0  0  0
    6.0258    5.1012   -9.4385 N   0  0  0  0  0  0  0  0  0  0  0  0
    5.7216    4.9531  -10.8269 C   0  0  1  0  0  0  0  0  0  0  0  0
    6.1368    5.8206  -11.3617 H   0  0  0  0  0  0  0  0  0  0  0  0
    6.2992    3.6839  -11.4694 C   0  0  0  0  0  0  0  0  0  0  0  0
    5.5143    3.5537  -12.7724 C   0  0  0  0  0  0  0  0  0  0  0  0
    4.2332    4.1787  -12.4602 N   0  0  0  0  0  0  0  0  0  0  0  0
    4.2246    4.8287  -11.1556 C   0  0  0  0  0  0  0  0  0  0  0  0
    3.2014    4.1852  -13.3158 C   0  0  0  0  0  0  0  0  0  0  0  0
    3.3883    3.5942  -14.5081 N   0  0  0  0  0  0  0  0  0  0  0  0
    2.3959    3.6237  -15.3885 C   0  0  0  0  0  0  0  0  0  0  0  0
    2.5290    3.0076  -16.5911 N   0  0  0  0  0  0  0  0  0  0  0  0
    3.5982    2.3081  -17.1556 C   0  0  0  0  0  0  0  0  0  0  0  0
    3.3719    1.7280  -18.4165 C   0  0  0  0  0  0  0  0  0  0  0  0
    4.3689    1.0165  -19.0727 C   0  0  0  0  0  0  0  0  0  0  0  0
    5.6109    0.8791  -18.4658 C   0  0  0  0  0  0  0  0  0  0  0  0
    6.5766    0.1934  -19.0921 F   0  0  0  0  0  0  0  0  0  0  0  0
    5.8626    1.4416  -17.2236 C   0  0  0  0  0  0  0  0  0  0  0  0
    4.8627    2.1555  -16.5651 C   0  0  0  0  0  0  0  0  0  0  0  0
    1.1662    4.3031  -15.0901 C   0  0  0  0  0  0  0  0  0  0  0  0
    0.0668    4.4171  -16.0683 C   0  0  0  0  0  0  0  0  0  0  0  0
   -0.9535    5.2691  -15.7642 N   0  0  0  0  0  0  0  0  0  0  0  0
    0.0348    3.7809  -17.1227 O   0  0  0  0  0  0  0  0  0  0  0  0
    1.0913    4.8213  -13.7920 C   0  0  0  0  0  0  0  0  0  0  0  0
    2.0581    4.7742  -12.9020 N   0  0  0  0  0  0  0  0  0  0  0  0
    6.4194    7.5369   -9.3001 C   0  0  0  0  0  3  0  0  0  0  0  0
    5.4621    8.0491  -10.1890 C   0  0  0  0  0  3  0  0  0  0  0  0
    3.3715    8.3694   -9.2567 S   0  0  0  0  0  1  0  0  0  0  0  0
    3.8790    7.7440   -7.6372 C   0  0  0  0  0  0  0  0  0  0  0  0
    4.6949    8.7567   -6.7985 C   0  0  2  0  0  0  0  0  0  0  0  0
    5.1272    9.5035   -7.4863 H   0  0  0  0  0  0  0  0  0  0  0  0
    5.7626    8.0991   -6.0867 N   0  0  0  0  0  0  0  0  0  0  0  0
    6.7415    8.8465   -5.5096 C   0  0  0  0  0  0  0  0  0  0  0  0
    7.9261    8.0320   -5.0217 C   0  0  0  0  0  0  0  0  0  0  0  0
    6.6765   10.0579   -5.3890 O   0  0  0  0  0  0  0  0  0  0  0  0
    3.7435    9.5038   -5.8583 C   0  0  0  0  0  0  0  0  0  0  0  0
    2.9884   10.4268   -6.5236 N   0  0  0  0  0  0  0  0  0  0  0  0
    1.9036   11.1240   -5.8913 C   0  0  0  0  0  0  0  0  0  0  0  0
    3.6256    9.2675   -4.6727 O   0  0  0  0  0  0  0  0  0  0  0  0
    6.1449    4.2546   -8.8945 H   0  0  0  0  0  0  0  0  0  0  0  0
    6.0961    2.8199  -10.8135 H   0  0  0  0  0  0  0  0  0  0  0  0
    7.3850    3.7423  -11.6238 H   0  0  0  0  0  0  0  0  0  0  0  0
    5.3716    2.5115  -13.0969 H   0  0  0  0  0  0  0  0  0  0  0  0
    6.0060    4.0878  -13.6046 H   0  0  0  0  0  0  0  0  0  0  0  0
    3.7263    4.1984  -10.3979 H   0  0  0  0  0  0  0  0  0  0  0  0
    3.6899    5.7877  -11.1752 H   0  0  0  0  0  0  0  0  0  0  0  0
    1.6677    3.0680  -17.1451 H   0  0  0  0  0  0  0  0  0  0  0  0
    2.3925    1.8402  -18.8884 H   0  0  0  0  0  0  0  0  0  0  0  0
    4.1920    0.5666  -20.0509 H   0  0  0  0  0  0  0  0  0  0  0  0
    6.8479    1.3196  -16.7704 H   0  0  0  0  0  0  0  0  0  0  0  0
    5.0448    2.5995  -15.5905 H   0  0  0  0  0  0  0  0  0  0  0  0
   -0.8597    5.9878  -15.0625 H   0  0  0  0  0  0  0  0  0  0  0  0
   -1.6595    5.3901  -16.4776 H   0  0  0  0  0  0  0  0  0  0  0  0
    0.1627    5.2898  -13.4420 H   0  0  0  0  0  0  0  0  0  0  0  0
    6.9654    8.2612   -8.6904 H   0  0  0  0  0  0  0  0  0  0  0  0
    5.0345    7.4416  -10.9844 H   0  0  0  0  0  0  0  0  0  0  0  0
    5.5912    9.0918  -10.4853 H   0  0  0  0  0  0  0  0  0  0  0  0
    4.4954    6.8503   -7.8037 H   0  0  0  0  0  0  0  0  0  0  0  0
    2.9901    7.4075   -7.0823 H   0  0  0  0  0  0  0  0  0  0  0  0
    6.0654    7.1925   -6.4514 H   0  0  0  0  0  0  0  0  0  0  0  0
    8.2026    7.2762   -5.7725 H   0  0  0  0  0  0  0  0  0  0  0  0
    7.6554    7.5088   -4.0917 H   0  0  0  0  0  0  0  0  0  0  0  0
    8.7656    8.7085   -4.8203 H   0  0  0  0  0  0  0  0  0  0  0  0
    3.0474   10.4139   -7.5397 H   0  0  0  0  0  0  0  0  0  0  0  0
    1.9778   10.9416   -4.8110 H   0  0  0  0  0  0  0  0  0  0  0  0
    0.9182   10.7671   -6.2390 H   0  0  0  0  0  0  0  0  0  0  0  0
    1.9622   12.2098   -6.0731 H   0  0  0  0  0  0  0  0  0  0  0  0
  2  1  2  0  0  0  0
  3 41  1  0  0  0  0
  3  2  1  0  0  0  0
  4  5  1  6  0  0  0
  4  3  1  0  0  0  0
  6  4  1  0  0  0  0
  6 42  1  0  0  0  0
  7  8  1  0  0  0  0
  7  6  1  0  0  0  0
  8  9  1  0  0  0  0
  9  4  1  0  0  0  0
  9 46  1  0  0  0  0
 10 26  1  0  0  0  0
 10  8  1  0  0  0  0
 11 10  2  0  0  0  0
 12 21  2  0  0  0  0
 12 11  1  0  0  0  0
 13 12  1  0  0  0  0
 14 13  1  0  0  0  0
 14 20  1  0  0  0  0
 15 14  2  0  0  0  0
 16 17  2  0  0  0  0
 16 15  1  0  0  0  0
 17 19  1  0  0  0  0
 18 17  1  0  0  0  0
 19 51  1  0  0  0  0
 19 20  2  0  0  0  0
 20 52  1  0  0  0  0
 21 25  1  0  0  0  0
 22 23  1  0  0  0  0
 22 21  1  0  0  0  0
 23 53  1  0  0  0  0
 24 22  2  0  0  0  0
 25 55  1  0  0  0  0
 25 26  2  0  0  0  0
 27  2  1  0  0  0  0
 27 56  1  0  0  0  0
 28 27  1  0  0  0  0
 29 30  1  0  0  0  0
 30 60  1  0  0  0  0
 30 31  1  0  0  0  0
 31 32  1  6  0  0  0
 31 33  1  0  0  0  0
 31 37  1  0  0  0  0
 33 34  1  0  0  0  0
 34 36  2  0  0  0  0
 34 35  1  0  0  0  0
 35 64  1  0  0  0  0
 35 63  1  0  0  0  0
 37 40  2  0  0  0  0
 38 39  1  0  0  0  0
 38 37  1  0  0  0  0
 39 66  1  0  0  0  0
 43  6  1  0  0  0  0
 44  7  1  0  0  0  0
 45  7  1  0  0  0  0
 47  9  1  0  0  0  0
 48 13  1  0  0  0  0
 49 15  1  0  0  0  0
 50 16  1  0  0  0  0
 54 23  1  0  0  0  0
 57 28  1  0  0  0  0
 58 28  1  0  0  0  0
 59 30  1  0  0  0  0
 61 33  1  0  0  0  0
 62 35  1  0  0  0  0
 65 38  1  0  0  0  0
 67 39  1  0  0  0  0
 68 39  1  0  0  0  0
M  END
