-1 1
 OpenBabel05232413493D

 68 69  0  0  1  0  0  0  0  0999 V2000
    3.0696   -0.8254    4.8441 O   0  0  0  0  0  0  0  0  0  0  0  0
    2.8553   -0.4703    3.6914 C   0  0  0  0  0  0  0  0  0  0  0  0
    1.8524   -1.0546    2.9765 N   0  0  0  0  0  0  0  0  0  0  0  0
    1.4729   -0.8974    1.5920 C   0  0  1  0  0  0  0  0  0  0  0  0
    1.4217    0.1665    1.3166 H   0  0  0  0  0  0  0  0  0  0  0  0
    2.3380   -1.6336    0.5631 C   0  0  0  0  0  0  0  0  0  0  0  0
    1.4351   -1.6542   -0.6664 C   0  0  0  0  0  0  0  0  0  0  0  0
    0.0961   -1.7306   -0.0926 N   0  0  0  0  0  0  0  0  0  0  0  0
    0.0684   -1.4438    1.3323 C   0  0  0  0  0  0  0  0  0  0  0  0
   -1.0126   -1.8164   -0.8410 C   0  0  0  0  0  0  0  0  0  0  0  0
   -0.8505   -1.9157   -2.1705 N   0  0  0  0  0  0  0  0  0  0  0  0
   -1.9330   -1.9294   -2.9353 C   0  0  0  0  0  0  0  0  0  0  0  0
   -1.8216   -2.0743   -4.2821 N   0  0  0  0  0  0  0  0  0  0  0  0
   -0.6985   -2.1821   -5.1046 C   0  0  0  0  0  0  0  0  0  0  0  0
   -0.9368   -2.4545   -6.4633 C   0  0  0  0  0  0  0  0  0  0  0  0
    0.1098   -2.5695   -7.3706 C   0  0  0  0  0  0  0  0  0  0  0  0
    1.4139   -2.4122   -6.9196 C   0  0  0  0  0  0  0  0  0  0  0  0
    2.4285   -2.5247   -7.7887 F   0  0  0  0  0  0  0  0  0  0  0  0
    1.6784   -2.1401   -5.5857 C   0  0  0  0  0  0  0  0  0  0  0  0
    0.6292   -2.0241   -4.6758 C   0  0  0  0  0  0  0  0  0  0  0  0
   -3.2407   -1.7956   -2.3606 C   0  0  0  0  0  0  0  0  0  0  0  0
   -4.4616   -1.6983   -3.1804 C   0  0  0  0  0  0  0  0  0  0  0  0
   -5.5944   -1.2665   -2.5482 N   0  0  0  0  0  0  0  0  0  0  0  0
   -4.5003   -1.9898   -4.3760 O   0  0  0  0  0  0  0  0  0  0  0  0
   -3.2621   -1.7949   -0.9612 C   0  0  0  0  0  0  0  0  0  0  0  0
   -2.1973   -1.8263   -0.1905 N   0  0  0  0  0  0  0  0  0  0  0  0
    3.7244    0.5825    3.0841 C   0  0  0  0  0  0  0  0  0  0  0  0
    3.3901    1.5800    2.2627 C   0  0  0  0  0  0  0  0  0  0  0  0
   -0.2715    2.2009    1.0261 S   0  0  0  0  0  1  0  0  0  0  0  0
   -0.1868    1.9317    2.8350 C   0  0  0  0  0  0  0  0  0  0  0  0
    0.4805    3.0751    3.6337 C   0  0  2  0  0  0  0  0  0  0  0  0
    1.3040    3.4918    3.0359 H   0  0  0  0  0  0  0  0  0  0  0  0
    1.0757    2.5849    4.8520 N   0  0  0  0  0  0  0  0  0  0  0  0
    2.3283    2.9201    5.2615 C   0  0  0  0  0  0  0  0  0  0  0  0
    2.7720    2.2343    6.5392 C   0  0  0  0  0  0  0  0  0  0  0  0
    3.0745    3.6418    4.6239 O   0  0  0  0  0  0  0  0  0  0  0  0
   -0.5100    4.2099    3.9332 C   0  0  0  0  0  0  0  0  0  0  0  0
   -1.0718    4.7374    2.8204 N   0  0  0  0  0  0  0  0  0  0  0  0
   -2.1060    5.7320    2.8795 C   0  0  0  0  0  0  0  0  0  0  0  0
   -0.7617    4.5753    5.0719 O   0  0  0  0  0  0  0  0  0  0  0  0
    1.3699   -1.7669    3.5143 H   0  0  0  0  0  0  0  0  0  0  0  0
    2.5461   -2.6573    0.9169 H   0  0  0  0  0  0  0  0  0  0  0  0
    3.2963   -1.1278    0.3828 H   0  0  0  0  0  0  0  0  0  0  0  0
    1.6218   -2.5070   -1.3359 H   0  0  0  0  0  0  0  0  0  0  0  0
    1.5358   -0.7296   -1.2604 H   0  0  0  0  0  0  0  0  0  0  0  0
   -0.1280   -2.3650    1.9148 H   0  0  0  0  0  0  0  0  0  0  0  0
   -0.7075   -0.6998    1.5600 H   0  0  0  0  0  0  0  0  0  0  0  0
   -2.7383   -2.1313   -4.7365 H   0  0  0  0  0  0  0  0  0  0  0  0
   -1.9656   -2.5766   -6.8114 H   0  0  0  0  0  0  0  0  0  0  0  0
   -0.0765   -2.7806   -8.4249 H   0  0  0  0  0  0  0  0  0  0  0  0
    2.7122   -2.0155   -5.2589 H   0  0  0  0  0  0  0  0  0  0  0  0
    0.8222   -1.8124   -3.6277 H   0  0  0  0  0  0  0  0  0  0  0  0
   -5.5324   -0.7155   -1.7040 H   0  0  0  0  0  0  0  0  0  0  0  0
   -6.3926   -1.1063   -3.1486 H   0  0  0  0  0  0  0  0  0  0  0  0
   -4.2254   -1.7985   -0.4352 H   0  0  0  0  0  0  0  0  0  0  0  0
    4.7252    0.5629    3.5266 H   0  0  0  0  0  0  0  0  0  0  0  0
    2.3941    1.7336    1.8312 H   0  0  0  0  0  0  0  0  0  0  0  0
    4.1316    2.3469    2.0273 H   0  0  0  0  0  0  0  0  0  0  0  0
    0.4000    1.0276    3.0598 H   0  0  0  0  0  0  0  0  0  0  0  0
   -1.1961    1.7479    3.2470 H   0  0  0  0  0  0  0  0  0  0  0  0
    0.4632    2.1296    5.5146 H   0  0  0  0  0  0  0  0  0  0  0  0
    3.1187    1.2209    6.2775 H   0  0  0  0  0  0  0  0  0  0  0  0
    1.9572    2.1437    7.2729 H   0  0  0  0  0  0  0  0  0  0  0  0
    3.6034    2.8000    6.9765 H   0  0  0  0  0  0  0  0  0  0  0  0
   -0.8931    4.2317    1.9396 H   0  0  0  0  0  0  0  0  0  0  0  0
   -2.1805    6.0897    3.9151 H   0  0  0  0  0  0  0  0  0  0  0  0
   -3.0867    5.3242    2.5783 H   0  0  0  0  0  0  0  0  0  0  0  0
   -1.8759    6.5868    2.2224 H   0  0  0  0  0  0  0  0  0  0  0  0
  2  1  2  0  0  0  0
  3 41  1  0  0  0  0
  3  2  1  0  0  0  0
  4  5  1  6  0  0  0
  4  3  1  0  0  0  0
  6 42  1  0  0  0  0
  6  4  1  0  0  0  0
  7  8  1  0  0  0  0
  7  6  1  0  0  0  0
  8  9  1  0  0  0  0
  9 47  1  0  0  0  0
  9  4  1  0  0  0  0
  9 46  1  0  0  0  0
 10 26  1  0  0  0  0
 10  8  1  0  0  0  0
 11 10  2  0  0  0  0
 12 21  2  0  0  0  0
 12 11  1  0  0  0  0
 13 12  1  0  0  0  0
 14 20  1  0  0  0  0
 14 13  1  0  0  0  0
 15 14  2  0  0  0  0
 16 17  2  0  0  0  0
 16 15  1  0  0  0  0
 17 19  1  0  0  0  0
 18 17  1  0  0  0  0
 19 51  1  0  0  0  0
 19 20  2  0  0  0  0
 20 52  1  0  0  0  0
 21 25  1  0  0  0  0
 22 23  1  0  0  0  0
 22 21  1  0  0  0  0
 23 53  1  0  0  0  0
 24 22  2  0  0  0  0
 25 55  1  0  0  0  0
 25 26  2  0  0  0  0
 27 56  1  0  0  0  0
 27  2  1  0  0  0  0
 28 27  2  0  0  0  0
 29 30  1  0  0  0  0
 30 59  1  0  0  0  0
 30 60  1  0  0  0  0
 30 31  1  0  0  0  0
 31 32  1  6  0  0  0
 31 37  1  0  0  0  0
 31 33  1  0  0  0  0
 33 34  1  0  0  0  0
 33 61  1  0  0  0  0
 34 35  1  0  0  0  0
 35 64  1  0  0  0  0
 35 63  1  0  0  0  0
 36 34  2  0  0  0  0
 37 40  2  0  0  0  0
 38 39  1  0  0  0  0
 38 37  1  0  0  0  0
 39 66  1  0  0  0  0
 43  6  1  0  0  0  0
 44  7  1  0  0  0  0
 45  7  1  0  0  0  0
 48 13  1  0  0  0  0
 49 15  1  0  0  0  0
 50 16  1  0  0  0  0
 54 23  1  0  0  0  0
 57 28  1  0  0  0  0
 58 28  1  0  0  0  0
 62 35  1  0  0  0  0
 65 38  1  0  0  0  0
 67 39  1  0  0  0  0
 68 39  1  0  0  0  0
M  END
