68
-1 1
O         7.088723    5.962003   -7.672059
C         6.548068    6.207413   -8.768628
N         6.025839    5.101175   -9.438530
C         5.721643    4.953062  -10.826917
H         6.136778    5.820572  -11.361683
C         6.299157    3.683885  -11.469375
C         5.514304    3.553720  -12.772388
N         4.233176    4.178656  -12.460189
C         4.224612    4.828682  -11.155559
C         3.201373    4.185225  -13.315803
N         3.388336    3.594218  -14.508133
C         2.395930    3.623662  -15.388470
N         2.528967    3.007624  -16.591121
C         3.598174    2.308116  -17.155603
C         3.371878    1.727990  -18.416508
C         4.368857    1.016458  -19.072690
C         5.610882    0.879143  -18.465834
F         6.576556    0.193402  -19.092147
C         5.862579    1.441609  -17.223650
C         4.862709    2.155453  -16.565147
C         1.166154    4.303135  -15.090083
C         0.066828    4.417106  -16.068301
N        -0.953493    5.269149  -15.764167
O         0.034799    3.780882  -17.122684
C         1.091333    4.821318  -13.792001
N         2.058113    4.774194  -12.902027
C         6.419368    7.536917   -9.300060
C         5.462134    8.049092  -10.188997
S         3.371519    8.369383   -9.256738
C         3.878966    7.744029   -7.637166
C         4.694852    8.756661   -6.798479
H         5.127243    9.503451   -7.486318
N         5.762613    8.099130   -6.086692
C         6.741471    8.846548   -5.509633
C         7.926126    8.031979   -5.021699
O         6.676473   10.057917   -5.389008
C         3.743480    9.503806   -5.858329
N         2.988388   10.426830   -6.523647
C         1.903596   11.124024   -5.891325
O         3.625633    9.267452   -4.672750
H         6.144889    4.254551   -8.894464
H         6.096055    2.819888  -10.813461
H         7.385035    3.742288  -11.623844
H         5.371556    2.511540  -13.096911
H         6.006020    4.087832  -13.604558
H         3.726299    4.198387  -10.397898
H         3.689942    5.787745  -11.175163
H         1.667672    3.068015  -17.145087
H         2.392539    1.840186  -18.888444
H         4.191956    0.566594  -20.050921
H         6.847919    1.319570  -16.770414
H         5.044808    2.599530  -15.590506
H        -0.859663    5.987777  -15.062455
H        -1.659543    5.390082  -16.477574
H         0.162707    5.289787  -13.441977
H         6.965364    8.261178   -8.690437
H         5.034500    7.441633  -10.984397
H         5.591237    9.091846  -10.485262
H         4.495351    6.850321   -7.803731
H         2.990142    7.407530   -7.082338
H         6.065368    7.192515   -6.451357
H         8.202635    7.276197   -5.772550
H         7.655448    7.508782   -4.091677
H         8.765636    8.708506   -4.820264
H         3.047391   10.413950   -7.539737
H         1.977783   10.941559   -4.811026
H         0.918159   10.767089   -6.238991
H         1.962229   12.209833   -6.073132
