68
-1 1
O         3.069583   -0.825355    4.844094
C         2.855337   -0.470295    3.691429
N         1.852390   -1.054600    2.976503
C         1.472922   -0.897394    1.591979
H         1.421722    0.166492    1.316571
C         2.337996   -1.633580    0.563078
C         1.435113   -1.654173   -0.666402
N         0.096145   -1.730619   -0.092551
C         0.068403   -1.443758    1.332326
C        -1.012551   -1.816355   -0.841003
N        -0.850538   -1.915704   -2.170496
C        -1.933032   -1.929408   -2.935267
N        -1.821599   -2.074295   -4.282132
C        -0.698459   -2.182108   -5.104640
C        -0.936821   -2.454526   -6.463336
C         0.109785   -2.569536   -7.370620
C         1.413947   -2.412150   -6.919580
F         2.428542   -2.524714   -7.788678
C         1.678382   -2.140121   -5.585746
C         0.629214   -2.024115   -4.675819
C        -3.240709   -1.795650   -2.360580
C        -4.461648   -1.698307   -3.180401
N        -5.594421   -1.266487   -2.548237
O        -4.500278   -1.989775   -4.376027
C        -3.262114   -1.794870   -0.961172
N        -2.197321   -1.826294   -0.190475
C         3.724435    0.582548    3.084116
C         3.390078    1.580011    2.262703
S        -0.271541    2.200874    1.026133
C        -0.186805    1.931681    2.834954
C         0.480487    3.075060    3.633748
H         1.304044    3.491801    3.035880
N         1.075745    2.584918    4.852047
C         2.328311    2.920135    5.261456
C         2.772036    2.234296    6.539156
O         3.074454    3.641850    4.623911
C        -0.509996    4.209938    3.933219
N        -1.071780    4.737388    2.820395
C        -2.106022    5.731986    2.879497
O        -0.761723    4.575281    5.071862
H         1.369897   -1.766926    3.514262
H         2.546150   -2.657327    0.916939
H         3.296315   -1.127841    0.382849
H         1.621832   -2.507004   -1.335903
H         1.535769   -0.729567   -1.260363
H        -0.128033   -2.364983    1.914769
H        -0.707546   -0.699795    1.560039
H        -2.738302   -2.131266   -4.736506
H        -1.965624   -2.576610   -6.811406
H        -0.076475   -2.780561   -8.424898
H         2.712234   -2.015453   -5.258948
H         0.822199   -1.812397   -3.627711
H        -5.532430   -0.715456   -1.703976
H        -6.392630   -1.106332   -3.148635
H        -4.225353   -1.798539   -0.435163
H         4.725193    0.562949    3.526582
H         2.394106    1.733619    1.831240
H         4.131573    2.346852    2.027262
H         0.399956    1.027620    3.059831
H        -1.196109    1.747883    3.246950
H         0.463228    2.129620    5.514564
H         3.118654    1.220895    6.277530
H         1.957206    2.143681    7.272931
H         3.603441    2.800002    6.976472
H        -0.893103    4.231707    1.939570
H        -2.180518    6.089711    3.915118
H        -3.086704    5.324189    2.578284
H        -1.875934    6.586796    2.222389
