90
-1 1
O        -0.161001   -3.053688    4.579824
C        -0.677575   -3.147742    3.453649
N         0.164110   -3.095172    2.329104
C         1.593983   -3.205639    2.410896
H         1.866738   -4.144740    2.920111
C         2.184720   -3.107906    1.000277
C         2.200800   -1.602237    0.734322
N         2.500824   -1.058737    2.051917
C         2.290545   -2.027887    3.118311
C         2.884772    0.221515    2.237835
N         2.883318    1.005947    1.156174
C         3.255543    2.276064    1.233348
N         3.083977    3.020167    0.079717
C         2.198086    2.618285   -0.954780
C         2.577778    2.783578   -2.288833
C         1.724472    2.391303   -3.320282
C         0.501246    1.788703   -3.025033
C        -0.396475    1.315911   -4.130424
N        -0.805296    0.002438   -4.053989
C        -0.030677   -1.051249   -3.413521
C        -0.951451   -2.144061   -2.882733
O        -1.793585   -2.611521   -3.914649
C        -2.604622   -1.596723   -4.459008
C        -1.740000   -0.485113   -5.051141
C        -3.514876   -2.229545   -5.491450
C        -0.188589   -3.321483   -2.319675
O        -0.773163    2.059295   -5.018164
C         0.108416    1.664435   -1.687673
C         0.936730    2.088834   -0.660818
C         3.782828    2.837956    2.428024
C         4.337065    4.200417    2.599214
N         4.780592    4.838435    1.445527
O         4.422441    4.756700    3.677994
C         3.723367    2.015642    3.568793
C         3.267944    0.718744    3.513901
C        -2.065459   -3.281918    3.150090
C        -2.509889   -3.896278    1.898211
S        -2.716659   -2.749856    0.327727
C        -3.852975   -1.517096    1.021010
C        -3.436813   -0.068760    0.785795
H        -4.219845    0.580616    1.212682
N        -3.394420    0.275455   -0.615539
C        -4.000006    1.400277   -1.099548
C        -3.563390    1.816366   -2.488782
O        -4.826808    2.030257   -0.469154
C        -2.129539    0.388749    1.465261
N        -1.776093   -0.236399    2.597757
C        -0.589503    0.176991    3.311263
O        -1.515112    1.344699    1.005420
H        -0.255306   -2.839628    1.441992
H         1.603140   -3.679260    0.263382
H         3.214393   -3.498455    0.997730
H         1.226148   -1.228438    0.367750
H         2.958015   -1.287274    0.002365
H         1.650306   -1.649892    3.925562
H         3.254277   -2.350039    3.556777
H         3.232220    4.018624    0.175454
H         3.560034    3.205432   -2.514308
H         2.021505    2.524876   -4.362857
H         0.569415   -0.637777   -2.595016
H         0.662569   -1.501386   -4.152066
H        -1.575699   -1.714276   -2.074131
H        -3.221140   -1.158929   -3.646082
H        -2.352477    0.359298   -5.392529
H        -1.195046   -0.880863   -5.931069
H        -2.919488   -2.676286   -6.302200
H        -4.194661   -1.480038   -5.922367
H        -4.113424   -3.023799   -5.024888
H         0.427078   -3.794721   -3.099862
H        -0.893864   -4.063589   -1.921925
H         0.463265   -2.991607   -1.498972
H        -0.863066    1.249211   -1.415478
H         0.581056    1.980469    0.363667
H         5.172841    4.256786    0.712647
H         5.292640    5.692643    1.635709
H         4.059510    2.450018    4.512970
H         3.221244    0.091609    4.402507
H        -2.736568   -3.313027    4.011748
H        -3.499957   -4.364129    1.983665
H        -1.813548   -4.634825    1.465587
H        -3.908389   -1.716679    2.105001
H        -4.858147   -1.664196    0.600927
H        -2.640638   -0.128269   -1.158047
H        -3.067031    1.010813   -3.044690
H        -2.849134    2.648039   -2.392366
H        -4.433353    2.182162   -3.048434
H        -2.115031   -1.190966    2.810305
H        -0.447037   -0.502410    4.160972
H        -0.686972    1.212705    3.670878
H         0.299885    0.130510    2.664802
