-1 1
 OpenBabel05232413493D

 90 92  0  0  1  0  0  0  0  0999 V2000
    0.4956   -3.5536    4.9847 O   0  0  0  0  0  0  0  0  0  0  0  0
   -0.3483   -3.3461    4.1186 C   0  0  0  0  0  0  0  0  0  0  0  0
   -0.0290   -3.0872    2.8312 N   0  0  0  0  0  0  0  0  0  0  0  0
    1.3512   -3.1944    2.4016 C   0  0  1  0  0  0  0  0  0  0  0  0
    1.7390   -4.1815    2.6989 H   0  0  0  0  0  0  0  0  0  0  0  0
    1.4600   -2.9493    0.8938 C   0  0  0  0  0  0  0  0  0  0  0  0
    1.5174   -1.4291    0.7715 C   0  0  0  0  0  0  0  0  0  0  0  0
    2.2085   -1.0317    1.9981 N   0  0  0  0  0  0  0  0  0  0  0  0
    2.2510   -2.0925    2.9890 C   0  0  0  0  0  0  0  0  0  0  0  0
    2.7853    0.1792    2.1558 C   0  0  0  0  0  0  0  0  0  0  0  0
    2.6753    1.0234    1.1290 N   0  0  0  0  0  0  0  0  0  0  0  0
    3.2136    2.2329    1.1656 C   0  0  0  0  0  0  0  0  0  0  0  0
    2.9463    3.0445    0.0838 N   0  0  0  0  0  0  0  0  0  0  0  0
    2.0523    2.7167   -0.9601 C   0  0  0  0  0  0  0  0  0  0  0  0
    2.3889    3.0373   -2.2798 C   0  0  0  0  0  0  0  0  0  0  0  0
    1.5456    2.6781   -3.3301 C   0  0  0  0  0  0  0  0  0  0  0  0
    0.3814    1.9504   -3.0782 C   0  0  0  0  0  0  0  0  0  0  0  0
   -0.4879    1.5056   -4.2170 C   0  0  0  0  0  0  0  0  0  0  0  0
   -0.8051    0.1672   -4.2517 N   0  0  0  0  0  0  0  0  0  0  0  0
    0.0349   -0.8838   -3.6916 C   0  0  0  0  0  0  0  0  0  0  0  0
   -0.8055   -2.0847   -3.2715 C   0  0  1  0  0  0  0  0  0  0  0  0
   -1.6075   -2.5122   -4.3566 O   0  0  0  0  0  0  0  0  0  0  0  0
   -2.4888   -1.5126   -4.8060 C   0  0  1  0  0  0  0  0  0  0  0  0
   -1.7071   -0.2930   -5.2907 C   0  0  0  0  0  0  0  0  0  0  0  0
   -3.3551   -2.1087   -5.8972 C   0  0  0  0  0  0  0  0  0  0  0  0
    0.0460   -3.2512   -2.8236 C   0  0  0  0  0  0  0  0  0  0  0  0
   -0.9160    2.2939   -5.0422 O   0  0  0  0  0  0  0  0  0  0  0  0
    0.0238    1.6814   -1.7527 C   0  0  0  0  0  0  0  0  0  0  0  0
    0.8331    2.0810   -0.7009 C   0  0  0  0  0  0  0  0  0  0  0  0
    4.0126    2.6667    2.2620 C   0  0  0  0  0  0  0  0  0  0  0  0
    4.7492    3.9460    2.3728 C   0  0  0  0  0  0  0  0  0  0  0  0
    5.0940    4.5672    1.1751 N   0  0  0  0  0  0  0  0  0  0  0  0
    5.0616    4.4495    3.4354 O   0  0  0  0  0  0  0  0  0  0  0  0
    4.0750    1.7879    3.3585 C   0  0  0  0  0  0  0  0  0  0  0  0
    3.4758    0.5481    3.3437 C   0  0  0  0  0  0  0  0  0  0  0  0
   -1.8010   -3.3910    4.4847 C   0  0  0  0  0  0  0  0  0  0  0  0
   -2.8044   -3.7121    3.6640 C   0  0  0  0  0  0  0  0  0  0  0  0
   -2.1343   -2.7336    0.2365 S   0  0  0  0  0  1  0  0  0  0  0  0
   -3.5505   -1.7788    0.8756 C   0  0  0  0  0  0  0  0  0  0  0  0
   -3.3442   -0.2616    0.8049 C   0  0  2  0  0  0  0  0  0  0  0  0
   -4.2135    0.2611    1.2397 H   0  0  0  0  0  0  0  0  0  0  0  0
   -3.2624    0.1704   -0.5628 N   0  0  0  0  0  0  0  0  0  0  0  0
   -3.8587    1.3018   -1.0179 C   0  0  0  0  0  0  0  0  0  0  0  0
   -3.5458    1.6639   -2.4563 C   0  0  0  0  0  0  0  0  0  0  0  0
   -4.5981    1.9875   -0.3332 O   0  0  0  0  0  0  0  0  0  0  0  0
   -2.1149    0.2327    1.5896 C   0  0  0  0  0  0  0  0  0  0  0  0
   -1.9667   -0.2677    2.8406 N   0  0  0  0  0  0  0  0  0  0  0  0
   -0.8219    0.0956    3.6413 C   0  0  0  0  0  0  0  0  0  0  0  0
   -1.3586    1.0781    1.1431 O   0  0  0  0  0  0  0  0  0  0  0  0
   -0.7541   -2.9178    2.1072 H   0  0  0  0  0  0  0  0  0  0  0  0
    0.6175   -3.3824    0.3385 H   0  0  0  0  0  0  0  0  0  0  0  0
    2.3953   -3.3992    0.5254 H   0  0  0  0  0  0  0  0  0  0  0  0
    0.5068   -0.9867    0.7227 H   0  0  0  0  0  0  0  0  0  0  0  0
    2.0709   -1.0788   -0.1108 H   0  0  0  0  0  0  0  0  0  0  0  0
    1.8834   -1.7684    3.9729 H   0  0  0  0  0  0  0  0  0  0  0  0
    3.2826   -2.4674    3.1268 H   0  0  0  0  0  0  0  0  0  0  0  0
    3.3048    3.9905    0.1205 H   0  0  0  0  0  0  0  0  0  0  0  0
    3.3324    3.5499   -2.4849 H   0  0  0  0  0  0  0  0  0  0  0  0
    1.8092    2.9311   -4.3595 H   0  0  0  0  0  0  0  0  0  0  0  0
    0.5932   -0.5033   -2.8292 H   0  0  0  0  0  0  0  0  0  0  0  0
    0.7677   -1.2136   -4.4557 H   0  0  0  0  0  0  0  0  0  0  0  0
   -1.4572   -1.7926   -2.4242 H   0  0  0  0  0  0  0  0  0  0  0  0
   -3.1328   -1.1940   -3.9597 H   0  0  0  0  0  0  0  0  0  0  0  0
   -2.3786    0.5339   -5.5554 H   0  0  0  0  0  0  0  0  0  0  0  0
   -1.1386   -0.5678   -6.2016 H   0  0  0  0  0  0  0  0  0  0  0  0
   -2.7311   -2.4346   -6.7435 H   0  0  0  0  0  0  0  0  0  0  0  0
   -4.0878   -1.3729   -6.2599 H   0  0  0  0  0  0  0  0  0  0  0  0
   -3.8935   -2.9843   -5.5093 H   0  0  0  0  0  0  0  0  0  0  0  0
    0.6742   -3.6151   -3.6518 H   0  0  0  0  0  0  0  0  0  0  0  0
   -0.6010   -4.0666   -2.4739 H   0  0  0  0  0  0  0  0  0  0  0  0
    0.6915   -2.9481   -1.9874 H   0  0  0  0  0  0  0  0  0  0  0  0
   -0.9014    1.1576   -1.5077 H   0  0  0  0  0  0  0  0  0  0  0  0
    0.5052    1.8623    0.3124 H   0  0  0  0  0  0  0  0  0  0  0  0
    5.3231    3.9614    0.3940 H   0  0  0  0  0  0  0  0  0  0  0  0
    5.7275    5.3486    1.3045 H   0  0  0  0  0  0  0  0  0  0  0  0
    4.6341    2.1246    4.2347 H   0  0  0  0  0  0  0  0  0  0  0  0
    3.5379   -0.1223    4.1994 H   0  0  0  0  0  0  0  0  0  0  0  0
   -1.9697   -3.2371    5.5552 H   0  0  0  0  0  0  0  0  0  0  0  0
   -3.8266   -3.7917    4.0454 H   0  0  0  0  0  0  0  0  0  0  0  0
   -2.6453   -3.8990    2.5926 H   0  0  0  0  0  0  0  0  0  0  0  0
   -3.7846   -2.0608    1.9182 H   0  0  0  0  0  0  0  0  0  0  0  0
   -4.4599   -2.0101    0.2989 H   0  0  0  0  0  0  0  0  0  0  0  0
   -2.6364   -0.3719   -1.1495 H   0  0  0  0  0  0  0  0  0  0  0  0
   -3.0301    0.8635   -3.0021 H   0  0  0  0  0  0  0  0  0  0  0  0
   -2.8990    2.5536   -2.4635 H   0  0  0  0  0  0  0  0  0  0  0  0
   -4.4795    1.9279   -2.9704 H   0  0  0  0  0  0  0  0  0  0  0  0
   -2.4721   -1.1085    3.0892 H   0  0  0  0  0  0  0  0  0  0  0  0
   -0.8928   -0.4059    4.6158 H   0  0  0  0  0  0  0  0  0  0  0  0
   -0.7912    1.1835    3.7994 H   0  0  0  0  0  0  0  0  0  0  0  0
    0.1229   -0.2012    3.1602 H   0  0  0  0  0  0  0  0  0  0  0  0
  2 36  1  0  0  0  0
  2  1  2  0  0  0  0
  3  2  1  0  0  0  0
  4  5  1  1  0  0  0
  4  3  1  0  0  0  0
  4  9  1  0  0  0  0
  6  4  1  0  0  0  0
  7  6  1  0  0  0  0
  7  8  1  0  0  0  0
  8 10  1  0  0  0  0
  8  9  1  0  0  0  0
  9 56  1  0  0  0  0
  9 55  1  0  0  0  0
 10 35  1  0  0  0  0
 11 12  1  0  0  0  0
 11 10  2  0  0  0  0
 12 30  2  0  0  0  0
 13 57  1  0  0  0  0
 13 12  1  0  0  0  0
 14 29  1  0  0  0  0
 14 13  1  0  0  0  0
 15 14  2  0  0  0  0
 16 17  2  0  0  0  0
 16 15  1  0  0  0  0
 17 28  1  0  0  0  0
 18 17  1  0  0  0  0
 19 18  1  0  0  0  0
 19 20  1  0  0  0  0
 20 21  1  0  0  0  0
 20 60  1  0  0  0  0
 21 26  1  0  0  0  0
 21 62  1  1  0  0  0
 22 21  1  0  0  0  0
 23 22  1  0  0  0  0
 23 63  1  1  0  0  0
 24 23  1  0  0  0  0
 24 19  1  0  0  0  0
 25 68  1  0  0  0  0
 25 23  1  0  0  0  0
 26 70  1  0  0  0  0
 26 71  1  0  0  0  0
 27 18  2  0  0  0  0
 28 72  1  0  0  0  0
 28 29  2  0  0  0  0
 29 73  1  0  0  0  0
 30 31  1  0  0  0  0
 30 34  1  0  0  0  0
 31 33  2  0  0  0  0
 32 75  1  0  0  0  0
 32 31  1  0  0  0  0
 34 76  1  0  0  0  0
 35 34  2  0  0  0  0
 35 77  1  0  0  0  0
 36 78  1  0  0  0  0
 37 79  1  0  0  0  0
 37 36  2  0  0  0  0
 38 39  1  0  0  0  0
 39 81  1  0  0  0  0
 40 39  1  0  0  0  0
 40 41  1  1  0  0  0
 40 46  1  0  0  0  0
 42 40  1  0  0  0  0
 43 42  1  0  0  0  0
 43 45  2  0  0  0  0
 44 43  1  0  0  0  0
 46 47  1  0  0  0  0
 47 87  1  0  0  0  0
 47 48  1  0  0  0  0
 48 89  1  0  0  0  0
 48 88  1  0  0  0  0
 49 46  2  0  0  0  0
 50  3  1  0  0  0  0
 51  6  1  0  0  0  0
 52  6  1  0  0  0  0
 53  7  1  0  0  0  0
 54  7  1  0  0  0  0
 58 15  1  0  0  0  0
 59 16  1  0  0  0  0
 61 20  1  0  0  0  0
 64 24  1  0  0  0  0
 65 24  1  0  0  0  0
 66 25  1  0  0  0  0
 67 25  1  0  0  0  0
 69 26  1  0  0  0  0
 74 32  1  0  0  0  0
 80 37  1  0  0  0  0
 82 39  1  0  0  0  0
 83 42  1  0  0  0  0
 84 44  1  0  0  0  0
 85 44  1  0  0  0  0
 86 44  1  0  0  0  0
 90 48  1  0  0  0  0
M  END
