-1 1
 OpenBabel05192410563D

 90 93  0  0  1  0  0  0  0  0999 V2000
   -0.1610   -3.0537    4.5798 O   0  0  0  0  0  0  0  0  0  0  0  0
   -0.6776   -3.1477    3.4536 C   0  0  0  0  0  0  0  0  0  0  0  0
    0.1641   -3.0952    2.3291 N   0  0  0  0  0  0  0  0  0  0  0  0
    1.5940   -3.2056    2.4109 C   0  0  1  0  0  0  0  0  0  0  0  0
    1.8667   -4.1447    2.9201 H   0  0  0  0  0  0  0  0  0  0  0  0
    2.1847   -3.1079    1.0003 C   0  0  0  0  0  0  0  0  0  0  0  0
    2.2008   -1.6022    0.7343 C   0  0  0  0  0  0  0  0  0  0  0  0
    2.5008   -1.0587    2.0519 N   0  0  0  0  0  0  0  0  0  0  0  0
    2.2905   -2.0279    3.1183 C   0  0  0  0  0  0  0  0  0  0  0  0
    2.8848    0.2215    2.2378 C   0  0  0  0  0  0  0  0  0  0  0  0
    2.8833    1.0059    1.1562 N   0  0  0  0  0  0  0  0  0  0  0  0
    3.2555    2.2761    1.2333 C   0  0  0  0  0  0  0  0  0  0  0  0
    3.0840    3.0202    0.0797 N   0  0  0  0  0  0  0  0  0  0  0  0
    2.1981    2.6183   -0.9548 C   0  0  0  0  0  0  0  0  0  0  0  0
    2.5778    2.7836   -2.2888 C   0  0  0  0  0  0  0  0  0  0  0  0
    1.7245    2.3913   -3.3203 C   0  0  0  0  0  0  0  0  0  0  0  0
    0.5012    1.7887   -3.0250 C   0  0  0  0  0  0  0  0  0  0  0  0
   -0.3965    1.3159   -4.1304 C   0  0  0  0  0  0  0  0  0  0  0  0
   -0.8053    0.0024   -4.0540 N   0  0  0  0  0  0  0  0  0  0  0  0
   -0.0307   -1.0512   -3.4135 C   0  0  0  0  0  0  0  0  0  0  0  0
   -0.9515   -2.1441   -2.8827 C   0  0  1  0  0  0  0  0  0  0  0  0
   -1.7936   -2.6115   -3.9146 O   0  0  0  0  0  0  0  0  0  0  0  0
   -2.6046   -1.5967   -4.4590 C   0  0  1  0  0  0  0  0  0  0  0  0
   -1.7400   -0.4851   -5.0511 C   0  0  0  0  0  0  0  0  0  0  0  0
   -3.5149   -2.2295   -5.4915 C   0  0  0  0  0  0  0  0  0  0  0  0
   -0.1886   -3.3215   -2.3197 C   0  0  0  0  0  0  0  0  0  0  0  0
   -0.7732    2.0593   -5.0182 O   0  0  0  0  0  0  0  0  0  0  0  0
    0.1084    1.6644   -1.6877 C   0  0  0  0  0  0  0  0  0  0  0  0
    0.9367    2.0888   -0.6608 C   0  0  0  0  0  0  0  0  0  0  0  0
    3.7828    2.8380    2.4280 C   0  0  0  0  0  0  0  0  0  0  0  0
    4.3371    4.2004    2.5992 C   0  0  0  0  0  0  0  0  0  0  0  0
    4.7806    4.8384    1.4455 N   0  0  0  0  0  0  0  0  0  0  0  0
    4.4224    4.7567    3.6780 O   0  0  0  0  0  0  0  0  0  0  0  0
    3.7234    2.0156    3.5688 C   0  0  0  0  0  0  0  0  0  0  0  0
    3.2679    0.7187    3.5139 C   0  0  0  0  0  0  0  0  0  0  0  0
   -2.0655   -3.2819    3.1501 C   0  0  0  0  0  3  0  0  0  0  0  0
   -2.5099   -3.8963    1.8982 C   0  0  0  0  0  0  0  0  0  0  0  0
   -2.7167   -2.7499    0.3277 S   0  0  0  0  0  0  0  0  0  0  0  0
   -3.8530   -1.5171    1.0210 C   0  0  0  0  0  0  0  0  0  0  0  0
   -3.4368   -0.0688    0.7858 C   0  0  2  0  0  0  0  0  0  0  0  0
   -4.2198    0.5806    1.2127 H   0  0  0  0  0  0  0  0  0  0  0  0
   -3.3944    0.2755   -0.6155 N   0  0  0  0  0  0  0  0  0  0  0  0
   -4.0000    1.4003   -1.0995 C   0  0  0  0  0  0  0  0  0  0  0  0
   -3.5634    1.8164   -2.4888 C   0  0  0  0  0  0  0  0  0  0  0  0
   -4.8268    2.0303   -0.4692 O   0  0  0  0  0  0  0  0  0  0  0  0
   -2.1295    0.3887    1.4653 C   0  0  0  0  0  0  0  0  0  0  0  0
   -1.7761   -0.2364    2.5978 N   0  0  0  0  0  0  0  0  0  0  0  0
   -0.5895    0.1770    3.3113 C   0  0  0  0  0  0  0  0  0  0  0  0
   -1.5151    1.3447    1.0054 O   0  0  0  0  0  0  0  0  0  0  0  0
   -0.2553   -2.8396    1.4420 H   0  0  0  0  0  0  0  0  0  0  0  0
    1.6031   -3.6793    0.2634 H   0  0  0  0  0  0  0  0  0  0  0  0
    3.2144   -3.4985    0.9977 H   0  0  0  0  0  0  0  0  0  0  0  0
    1.2261   -1.2284    0.3678 H   0  0  0  0  0  0  0  0  0  0  0  0
    2.9580   -1.2873    0.0024 H   0  0  0  0  0  0  0  0  0  0  0  0
    1.6503   -1.6499    3.9256 H   0  0  0  0  0  0  0  0  0  0  0  0
    3.2543   -2.3500    3.5568 H   0  0  0  0  0  0  0  0  0  0  0  0
    3.2322    4.0186    0.1755 H   0  0  0  0  0  0  0  0  0  0  0  0
    3.5600    3.2054   -2.5143 H   0  0  0  0  0  0  0  0  0  0  0  0
    2.0215    2.5249   -4.3629 H   0  0  0  0  0  0  0  0  0  0  0  0
    0.5694   -0.6378   -2.5950 H   0  0  0  0  0  0  0  0  0  0  0  0
    0.6626   -1.5014   -4.1521 H   0  0  0  0  0  0  0  0  0  0  0  0
   -1.5757   -1.7143   -2.0741 H   0  0  0  0  0  0  0  0  0  0  0  0
   -3.2211   -1.1589   -3.6461 H   0  0  0  0  0  0  0  0  0  0  0  0
   -2.3525    0.3593   -5.3925 H   0  0  0  0  0  0  0  0  0  0  0  0
   -1.1950   -0.8809   -5.9311 H   0  0  0  0  0  0  0  0  0  0  0  0
   -2.9195   -2.6763   -6.3022 H   0  0  0  0  0  0  0  0  0  0  0  0
   -4.1947   -1.4800   -5.9224 H   0  0  0  0  0  0  0  0  0  0  0  0
   -4.1134   -3.0238   -5.0249 H   0  0  0  0  0  0  0  0  0  0  0  0
    0.4271   -3.7947   -3.0999 H   0  0  0  0  0  0  0  0  0  0  0  0
   -0.8939   -4.0636   -1.9219 H   0  0  0  0  0  0  0  0  0  0  0  0
    0.4633   -2.9916   -1.4990 H   0  0  0  0  0  0  0  0  0  0  0  0
   -0.8631    1.2492   -1.4155 H   0  0  0  0  0  0  0  0  0  0  0  0
    0.5811    1.9805    0.3637 H   0  0  0  0  0  0  0  0  0  0  0  0
    5.1728    4.2568    0.7126 H   0  0  0  0  0  0  0  0  0  0  0  0
    5.2926    5.6926    1.6357 H   0  0  0  0  0  0  0  0  0  0  0  0
    4.0595    2.4500    4.5130 H   0  0  0  0  0  0  0  0  0  0  0  0
    3.2212    0.0916    4.4025 H   0  0  0  0  0  0  0  0  0  0  0  0
   -2.7366   -3.3130    4.0117 H   0  0  0  0  0  0  0  0  0  0  0  0
   -3.5000   -4.3641    1.9837 H   0  0  0  0  0  0  0  0  0  0  0  0
   -1.8135   -4.6348    1.4656 H   0  0  0  0  0  0  0  0  0  0  0  0
   -3.9084   -1.7167    2.1050 H   0  0  0  0  0  0  0  0  0  0  0  0
   -4.8581   -1.6642    0.6009 H   0  0  0  0  0  0  0  0  0  0  0  0
   -2.6406   -0.1283   -1.1580 H   0  0  0  0  0  0  0  0  0  0  0  0
   -3.0670    1.0108   -3.0447 H   0  0  0  0  0  0  0  0  0  0  0  0
   -2.8491    2.6480   -2.3924 H   0  0  0  0  0  0  0  0  0  0  0  0
   -4.4334    2.1822   -3.0484 H   0  0  0  0  0  0  0  0  0  0  0  0
   -2.1150   -1.1910    2.8103 H   0  0  0  0  0  0  0  0  0  0  0  0
   -0.4470   -0.5024    4.1610 H   0  0  0  0  0  0  0  0  0  0  0  0
   -0.6870    1.2127    3.6709 H   0  0  0  0  0  0  0  0  0  0  0  0
    0.2999    0.1305    2.6648 H   0  0  0  0  0  0  0  0  0  0  0  0
  2  1  2  0  0  0  0
  3  4  1  0  0  0  0
  3  2  1  0  0  0  0
  4  5  1  1  0  0  0
  4  9  1  0  0  0  0
  6  4  1  0  0  0  0
  7  6  1  0  0  0  0
  7  8  1  0  0  0  0
  8 10  1  0  0  0  0
  8  9  1  0  0  0  0
  9 56  1  0  0  0  0
  9 55  1  0  0  0  0
 10 35  1  0  0  0  0
 11 12  1  0  0  0  0
 11 10  2  0  0  0  0
 12 30  2  0  0  0  0
 13 57  1  0  0  0  0
 13 12  1  0  0  0  0
 14 29  1  0  0  0  0
 14 13  1  0  0  0  0
 15 14  2  0  0  0  0
 16 17  2  0  0  0  0
 16 15  1  0  0  0  0
 17 28  1  0  0  0  0
 18 19  1  0  0  0  0
 18 17  1  0  0  0  0
 19 20  1  0  0  0  0
 20 21  1  0  0  0  0
 20 60  1  0  0  0  0
 21 26  1  0  0  0  0
 21 62  1  1  0  0  0
 22 21  1  0  0  0  0
 23 22  1  0  0  0  0
 23 63  1  1  0  0  0
 24 23  1  0  0  0  0
 24 19  1  0  0  0  0
 25 68  1  0  0  0  0
 25 23  1  0  0  0  0
 26 70  1  0  0  0  0
 26 71  1  0  0  0  0
 27 18  2  0  0  0  0
 28 72  1  0  0  0  0
 28 29  2  0  0  0  0
 29 73  1  0  0  0  0
 30 31  1  0  0  0  0
 30 34  1  0  0  0  0
 31 33  2  0  0  0  0
 32 75  1  0  0  0  0
 32 31  1  0  0  0  0
 34 76  1  0  0  0  0
 35 34  2  0  0  0  0
 35 77  1  0  0  0  0
 36  2  1  0  0  0  0
 36 78  1  0  0  0  0
 37 79  1  0  0  0  0
 37 36  1  0  0  0  0
 38 39  1  0  0  0  0
 38 37  1  0  0  0  0
 39 81  1  0  0  0  0
 40 39  1  0  0  0  0
 40 41  1  1  0  0  0
 40 46  1  0  0  0  0
 42 40  1  0  0  0  0
 43 42  1  0  0  0  0
 43 45  2  0  0  0  0
 44 85  1  0  0  0  0
 44 43  1  0  0  0  0
 46 47  1  0  0  0  0
 47 87  1  0  0  0  0
 47 48  1  0  0  0  0
 48 89  1  0  0  0  0
 48 88  1  0  0  0  0
 49 46  2  0  0  0  0
 50  3  1  0  0  0  0
 51  6  1  0  0  0  0
 52  6  1  0  0  0  0
 53  7  1  0  0  0  0
 54  7  1  0  0  0  0
 58 15  1  0  0  0  0
 59 16  1  0  0  0  0
 61 20  1  0  0  0  0
 64 24  1  0  0  0  0
 65 24  1  0  0  0  0
 66 25  1  0  0  0  0
 67 25  1  0  0  0  0
 69 26  1  0  0  0  0
 74 32  1  0  0  0  0
 80 37  1  0  0  0  0
 82 39  1  0  0  0  0
 83 42  1  0  0  0  0
 84 44  1  0  0  0  0
 86 44  1  0  0  0  0
 90 48  1  0  0  0  0
M  END
