81
-1 1
O         3.558280  -10.027223    3.394837
C         4.757171   -9.878316    3.665413
N         5.602592  -11.035761    3.540438
C         5.954957  -11.816533    4.722651
H         6.206151  -12.821426    4.342036
C         7.152522  -11.330000    5.540401
C         6.981891  -12.001570    6.897527
N         5.536667  -12.142885    7.029098
C         4.831399  -11.986560    5.772327
C         4.913567  -12.277319    8.219554
N         5.695199  -12.453740    9.295708
C         5.157810  -12.636423   10.493946
N         6.015519  -12.738176   11.572807
C         7.409065  -12.682121   11.637042
C         7.997511  -12.608669   12.907009
N         9.302501  -12.582103   13.130964
C        10.149720  -12.619288   12.101693
N        11.510846  -12.627626   12.410861
C        11.924332  -12.051606   13.678793
C        13.298096  -12.569129   14.064019
O        14.242137  -12.336493   13.048232
C        13.857288  -12.959873   11.853921
C        12.495467  -12.482778   11.361879
C         9.663134  -12.664177   10.782115
C         8.295339  -12.705554   10.550636
C         3.749704  -12.705522   10.696427
C         3.038638  -13.008199   11.962011
N         3.758040  -13.692950   12.942594
O         1.881889  -12.697380   12.166929
C         2.953823  -12.426863    9.572066
C         3.500964  -12.220624    8.328205
C         5.297140   -8.591954    3.992947
C         6.600866   -8.224883    4.266954
S         6.940738   -7.936959    6.705226
C         5.359223   -8.712908    7.090514
C         4.136257   -7.787811    7.130258
H         4.068652   -7.244438    6.175135
N         4.246617   -6.834914    8.199652
C         3.393108   -5.792787    8.322145
C         3.598462   -4.935750    9.559306
O         2.503574   -5.567911    7.520531
C         2.868487   -8.647613    7.293014
N         2.431811   -9.217079    6.136696
C         1.301193  -10.104820    6.092853
O         2.348601   -8.848372    8.374536
H         5.061399  -11.645326    2.931275
H         7.125127  -10.241764    5.689122
H         8.107554  -11.576697    5.055636
H         7.376230  -11.380029    7.713962
H         7.476497  -12.990567    6.953875
H         4.168471  -11.106441    5.789778
H         4.196174  -12.863469    5.555624
H         5.554299  -12.698655   12.474846
H         7.353324  -12.565797   13.796007
H        11.182267  -12.315723   14.441062
H        11.957784  -10.943940   13.611987
H        13.234010  -13.655039   14.282069
H        13.659841  -12.055297   14.966033
H        13.819494  -14.060212   11.993780
H        14.628165  -12.733781   11.103291
H        12.219637  -13.100563   10.496154
H        12.568851  -11.430858   11.013121
H        10.332556  -12.649596    9.923494
H         7.896990  -12.731161    9.540226
H         4.427938  -14.383888   12.619987
H         3.165858  -14.007366   13.703956
H         1.872942  -12.384579    9.718729
H         2.875743  -11.989738    7.469205
H         4.533907   -7.808243    3.989256
H         6.878978   -7.176905    4.175699
H         7.410661   -8.941622    4.117008
H         5.414479   -9.278608    8.036483
H         5.149441   -9.445099    6.296435
H         4.999174   -6.960036    8.862226
H         4.643945   -4.922151    9.899808
H         2.972291   -5.335915   10.371329
H         3.266419   -3.913678    9.339030
H         2.896068   -9.027313    5.251956
H         0.409380   -9.618479    5.661993
H         1.060831  -10.409470    7.120248
H         1.536378  -10.989434    5.480626
