-1 1
 OpenBabel05192410563D

 81 84  0  0  1  0  0  0  0  0999 V2000
   -2.5670    0.7046   -5.1503 O   0  0  0  0  0  0  0  0  0  0  0  0
   -1.3698    1.0730   -4.9478 C   0  0  0  0  0  0  0  0  0  0  0  0
   -0.3460    0.0486   -5.1780 N   0  0  0  0  0  0  0  0  0  0  0  0
   -0.0427   -0.8814   -4.1005 C   0  0  1  0  0  0  0  0  0  0  0  0
    0.2600   -1.8274   -4.5828 H   0  0  0  0  0  0  0  0  0  0  0  0
    1.1152   -0.4577   -3.1869 C   0  0  0  0  0  0  0  0  0  0  0  0
    0.9251   -1.2865   -1.9256 C   0  0  0  0  0  0  0  0  0  0  0  0
   -0.5239   -1.3969   -1.8251 N   0  0  0  0  0  0  0  0  0  0  0  0
   -1.1880   -1.2124   -3.1071 C   0  0  0  0  0  0  0  0  0  0  0  0
   -1.1764   -1.4921   -0.6480 C   0  0  0  0  0  0  0  0  0  0  0  0
   -0.4275   -1.6723    0.4519 N   0  0  0  0  0  0  0  0  0  0  0  0
   -0.9966   -1.7837    1.6431 C   0  0  0  0  0  0  0  0  0  0  0  0
   -0.1565   -1.9022    2.7382 N   0  0  0  0  0  0  0  0  0  0  0  0
    1.2391   -1.9044    2.7932 C   0  0  0  0  0  0  0  0  0  0  0  0
    1.8511   -1.5896    4.0131 C   0  0  0  0  0  0  0  0  0  0  0  0
    3.1590   -1.6068    4.2248 N   0  0  0  0  0  0  0  0  0  0  0  0
    3.9848   -1.9276    3.2286 C   0  0  0  0  0  0  0  0  0  0  0  0
    5.3473   -1.9580    3.5288 N   0  0  0  0  0  0  0  0  0  0  0  0
    5.8195   -1.1441    4.6360 C   0  0  0  0  0  0  0  0  0  0  0  0
    7.1633   -1.6542    5.1235 C   0  0  0  0  0  0  0  0  0  0  0  0
    8.1025   -1.7182    4.0790 O   0  0  0  0  0  0  0  0  0  0  0  0
    7.6573   -2.5655    3.0563 C   0  0  0  0  0  0  0  0  0  0  0  0
    6.3214   -2.1193    2.4725 C   0  0  0  0  0  0  0  0  0  0  0  0
    3.4751   -2.2318    1.9519 C   0  0  0  0  0  0  0  0  0  0  0  0
    2.1041   -2.2320    1.7389 C   0  0  0  0  0  0  0  0  0  0  0  0
   -2.4075   -1.7598    1.8240 C   0  0  0  0  0  0  0  0  0  0  0  0
   -3.1531   -1.9548    3.0907 C   0  0  0  0  0  0  0  0  0  0  0  0
   -2.4863   -2.6177    4.1214 N   0  0  0  0  0  0  0  0  0  0  0  0
   -4.2951   -1.5732    3.2564 O   0  0  0  0  0  0  0  0  0  0  0  0
   -3.1683   -1.4979    0.6698 C   0  0  0  0  0  0  0  0  0  0  0  0
   -2.5887   -1.3817   -0.5703 C   0  0  0  0  0  0  0  0  0  0  0  0
   -0.9998    2.3524   -4.5802 C   0  0  0  0  0  3  0  0  0  0  0  0
    0.3098    2.8165   -4.1083 C   0  0  0  0  0  0  0  0  0  0  0  0
    0.4459    3.0287   -2.1994 S   0  0  0  0  0  0  0  0  0  0  0  0
   -1.0147    2.1215   -1.6278 C   0  0  0  0  0  0  0  0  0  0  0  0
   -2.3405    2.9023   -1.6823 C   0  0  2  0  0  0  0  0  0  0  0  0
   -2.3829    3.4685   -2.6194 H   0  0  0  0  0  0  0  0  0  0  0  0
   -2.4597    3.8469   -0.6003 N   0  0  0  0  0  0  0  0  0  0  0  0
   -2.5443    5.1909   -0.7890 C   0  0  0  0  0  0  0  0  0  0  0  0
   -2.7755    5.9874    0.4856 C   0  0  0  0  0  0  0  0  0  0  0  0
   -2.4018    5.7407   -1.8640 O   0  0  0  0  0  0  0  0  0  0  0  0
   -3.5425    1.9431   -1.6129 C   0  0  0  0  0  0  0  0  0  0  0  0
   -3.8399    1.2790   -2.7462 N   0  0  0  0  0  0  0  0  0  0  0  0
   -4.9353    0.3452   -2.8010 C   0  0  0  0  0  0  0  0  0  0  0  0
   -4.1616    1.8038   -0.5634 O   0  0  0  0  0  0  0  0  0  0  0  0
   -0.7514   -0.4952   -5.9362 H   0  0  0  0  0  0  0  0  0  0  0  0
    1.0311    0.6064   -2.9278 H   0  0  0  0  0  0  0  0  0  0  0  0
    2.0920   -0.6095   -3.6673 H   0  0  0  0  0  0  0  0  0  0  0  0
    1.3275   -0.8030   -1.0258 H   0  0  0  0  0  0  0  0  0  0  0  0
    1.3902   -2.2892   -2.0044 H   0  0  0  0  0  0  0  0  0  0  0  0
   -1.9181   -0.3923   -3.0733 H   0  0  0  0  0  0  0  0  0  0  0  0
   -1.7448   -2.1180   -3.4045 H   0  0  0  0  0  0  0  0  0  0  0  0
   -0.6126   -1.7519    3.6312 H   0  0  0  0  0  0  0  0  0  0  0  0
    1.2257   -1.3051    4.8701 H   0  0  0  0  0  0  0  0  0  0  0  0
    5.0759   -1.1822    5.4402 H   0  0  0  0  0  0  0  0  0  0  0  0
    5.9232   -0.0838    4.3242 H   0  0  0  0  0  0  0  0  0  0  0  0
    7.0327   -2.6572    5.5792 H   0  0  0  0  0  0  0  0  0  0  0  0
    7.5733   -0.9776    5.8867 H   0  0  0  0  0  0  0  0  0  0  0  0
    7.5496   -3.6015    3.4396 H   0  0  0  0  0  0  0  0  0  0  0  0
    8.4281   -2.5662    2.2723 H   0  0  0  0  0  0  0  0  0  0  0  0
    5.9910   -2.8954    1.7684 H   0  0  0  0  0  0  0  0  0  0  0  0
    6.4582   -1.1796    1.8963 H   0  0  0  0  0  0  0  0  0  0  0  0
    4.1304   -2.4572    1.1120 H   0  0  0  0  0  0  0  0  0  0  0  0
    1.6919   -2.4559    0.7584 H   0  0  0  0  0  0  0  0  0  0  0  0
   -1.8410   -3.3532    3.8518 H   0  0  0  0  0  0  0  0  0  0  0  0
   -3.1067   -2.8617    4.8860 H   0  0  0  0  0  0  0  0  0  0  0  0
   -4.2482   -1.3921    0.7894 H   0  0  0  0  0  0  0  0  0  0  0  0
   -3.1849   -1.1754   -1.4548 H   0  0  0  0  0  0  0  0  0  0  0  0
   -1.8245    3.0695   -4.5456 H   0  0  0  0  0  0  0  0  0  0  0  0
    0.5634    3.8279   -4.4569 H   0  0  0  0  0  0  0  0  0  0  0  0
    1.1115    2.1235   -4.3995 H   0  0  0  0  0  0  0  0  0  0  0  0
   -0.8131    1.8028   -0.5935 H   0  0  0  0  0  0  0  0  0  0  0  0
   -1.1051    1.2190   -2.2392 H   0  0  0  0  0  0  0  0  0  0  0  0
   -2.8384    3.4468    0.2520 H   0  0  0  0  0  0  0  0  0  0  0  0
   -1.7995    6.3057    0.8823 H   0  0  0  0  0  0  0  0  0  0  0  0
   -3.2961    5.4124    1.2649 H   0  0  0  0  0  0  0  0  0  0  0  0
   -3.3525    6.8873    0.2386 H   0  0  0  0  0  0  0  0  0  0  0  0
   -3.3067    1.3621   -3.6333 H   0  0  0  0  0  0  0  0  0  0  0  0
   -5.8741    0.8266   -3.1268 H   0  0  0  0  0  0  0  0  0  0  0  0
   -5.1141   -0.0863   -1.8060 H   0  0  0  0  0  0  0  0  0  0  0  0
   -4.6862   -0.4454   -3.5230 H   0  0  0  0  0  0  0  0  0  0  0  0
  1  2  2  0  0  0  0
  2 32  1  0  0  0  0
  3  2  1  0  0  0  0
  3  4  1  0  0  0  0
  4  5  1  6  0  0  0
  4  6  1  0  0  0  0
  4  9  1  0  0  0  0
  6 47  1  0  0  0  0
  6  7  1  0  0  0  0
  7  8  1  0  0  0  0
  7 49  1  0  0  0  0
  8 10  1  0  0  0  0
  9 51  1  0  0  0  0
  9  8  1  0  0  0  0
 10 31  2  0  0  0  0
 10 11  1  0  0  0  0
 11 12  2  0  0  0  0
 12 26  1  0  0  0  0
 12 13  1  0  0  0  0
 13 14  1  0  0  0  0
 13 53  1  0  0  0  0
 14 15  1  0  0  0  0
 15 16  2  0  0  0  0
 15 54  1  0  0  0  0
 17 18  1  0  0  0  0
 17 16  1  0  0  0  0
 18 19  1  0  0  0  0
 19 20  1  0  0  0  0
 19 55  1  0  0  0  0
 20 57  1  0  0  0  0
 20 58  1  0  0  0  0
 21 20  1  0  0  0  0
 22 59  1  0  0  0  0
 22 21  1  0  0  0  0
 23 22  1  0  0  0  0
 23 18  1  0  0  0  0
 24 17  2  0  0  0  0
 25 24  1  0  0  0  0
 25 14  2  0  0  0  0
 26 27  1  0  0  0  0
 27 29  2  0  0  0  0
 27 28  1  0  0  0  0
 28 66  1  0  0  0  0
 30 67  1  0  0  0  0
 30 26  2  0  0  0  0
 31 30  1  0  0  0  0
 32 69  1  0  0  0  0
 32 33  1  0  0  0  0
 33 34  1  0  0  0  0
 34 35  1  0  0  0  0
 35 72  1  0  0  0  0
 36 37  1  6  0  0  0
 36 35  1  0  0  0  0
 36 42  1  0  0  0  0
 36 38  1  0  0  0  0
 38 74  1  0  0  0  0
 39 38  1  0  0  0  0
 39 40  1  0  0  0  0
 40 75  1  0  0  0  0
 40 76  1  0  0  0  0
 41 39  2  0  0  0  0
 42 45  2  0  0  0  0
 43 42  1  0  0  0  0
 44 43  1  0  0  0  0
 44 80  1  0  0  0  0
 46  3  1  0  0  0  0
 48  6  1  0  0  0  0
 50  7  1  0  0  0  0
 52  9  1  0  0  0  0
 56 19  1  0  0  0  0
 60 22  1  0  0  0  0
 61 23  1  0  0  0  0
 62 23  1  0  0  0  0
 63 24  1  0  0  0  0
 64 25  1  0  0  0  0
 65 28  1  0  0  0  0
 68 31  1  0  0  0  0
 70 33  1  0  0  0  0
 71 33  1  0  0  0  0
 73 35  1  0  0  0  0
 77 40  1  0  0  0  0
 78 43  1  0  0  0  0
 79 44  1  0  0  0  0
 81 44  1  0  0  0  0
M  END
