-1 1
 OpenBabel05232413493D

 81 83  0  0  1  0  0  0  0  0999 V2000
    1.7521   -0.7639   -6.8592 O   0  0  0  0  0  0  0  0  0  0  0  0
    1.3611   -0.7848   -5.7021 C   0  0  0  0  0  0  0  0  0  0  0  0
    1.9082   -1.6894   -4.8303 N   0  0  0  0  0  0  0  0  0  0  0  0
    1.6324   -2.1228   -3.4723 C   0  0  1  0  0  0  0  0  0  0  0  0
    2.0563   -3.1394   -3.4190 H   0  0  0  0  0  0  0  0  0  0  0  0
    2.2628   -1.3158   -2.3314 C   0  0  0  0  0  0  0  0  0  0  0  0
    1.4759   -1.7597   -1.1073 C   0  0  0  0  0  0  0  0  0  0  0  0
    0.1586   -2.0881   -1.6490 N   0  0  0  0  0  0  0  0  0  0  0  0
    0.1463   -2.2537   -3.0847 C   0  0  0  0  0  0  0  0  0  0  0  0
   -0.9628   -2.0617   -0.8870 C   0  0  0  0  0  0  0  0  0  0  0  0
   -0.7814   -1.7680    0.3996 N   0  0  0  0  0  0  0  0  0  0  0  0
   -1.7983   -1.6326    1.2297 C   0  0  0  0  0  0  0  0  0  0  0  0
   -1.4864   -1.1443    2.5192 N   0  0  0  0  0  0  0  0  0  0  0  0
   -0.1111   -0.8385    2.7357 C   0  0  0  0  0  0  0  0  0  0  0  0
    0.8324   -1.8503    2.8563 C   0  0  0  0  0  0  0  0  0  0  0  0
    2.1451   -1.6438    2.8000 N   0  0  0  0  0  0  0  0  0  0  0  0
    2.6055   -0.4000    2.6463 C   0  0  0  0  0  0  0  0  0  0  0  0
    3.9802   -0.2377    2.4754 N   0  0  0  0  0  0  0  0  0  0  0  0
    4.7934   -1.4362    2.3433 C   0  0  0  0  0  0  0  0  0  0  0  0
    4.8354   -1.8953    0.8886 C   0  0  0  0  0  0  0  0  0  0  0  0
    5.3025   -0.8739    0.0413 O   0  0  0  0  0  0  0  0  0  0  0  0
    4.5264    0.3035    0.1466 C   0  0  0  0  0  0  0  0  0  0  0  0
    4.4681    0.8108    1.5843 C   0  0  0  0  0  0  0  0  0  0  0  0
    1.7290    0.7040    2.6696 C   0  0  0  0  0  0  0  0  0  0  0  0
    0.3660    0.4748    2.6930 C   0  0  0  0  0  0  0  0  0  0  0  0
   -3.1292   -1.9116    0.8378 C   0  0  0  0  0  0  0  0  0  0  0  0
   -4.3421   -1.9374    1.7093 C   0  0  0  0  0  0  0  0  0  0  0  0
   -4.1326   -1.8994    3.0514 N   0  0  0  0  0  0  0  0  0  0  0  0
   -5.4687   -2.0166    1.2386 O   0  0  0  0  0  0  0  0  0  0  0  0
   -3.3131   -2.2279   -0.5167 C   0  0  0  0  0  0  0  0  0  0  0  0
   -2.2602   -2.2912   -1.4081 C   0  0  0  0  0  0  0  0  0  0  0  0
    0.2777    0.1715   -5.3097 C   0  0  0  0  0  0  0  0  0  0  0  0
    0.2165    0.9719   -4.2437 C   0  0  0  0  0  0  0  0  0  0  0  0
    1.4002    2.0869   -0.9722 S   0  0  0  0  0  1  0  0  0  0  0  0
   -0.2555    1.4396   -0.5679 C   0  0  0  0  0  0  0  0  0  0  0  0
   -1.2261    2.5115   -0.0126 C   0  0  2  0  0  0  0  0  0  0  0  0
   -1.5617    3.1581   -0.8461 H   0  0  0  0  0  0  0  0  0  0  0  0
   -0.5375    3.3083    0.9625 N   0  0  0  0  0  0  0  0  0  0  0  0
   -1.1242    4.3829    1.5380 C   0  0  0  0  0  0  0  0  0  0  0  0
   -0.2238    5.1821    2.4625 C   0  0  0  0  0  0  0  0  0  0  0  0
   -2.2996    4.6679    1.3735 O   0  0  0  0  0  0  0  0  0  0  0  0
   -2.4598    1.8464    0.6063 C   0  0  0  0  0  0  0  0  0  0  0  0
   -3.4884    1.6734   -0.2546 N   0  0  0  0  0  0  0  0  0  0  0  0
   -4.7494    1.0886    0.1269 C   0  0  0  0  0  0  0  0  0  0  0  0
   -2.4962    1.4501    1.7649 O   0  0  0  0  0  0  0  0  0  0  0  0
    2.6512   -2.1958   -5.2980 H   0  0  0  0  0  0  0  0  0  0  0  0
    2.1212   -0.2336   -2.4689 H   0  0  0  0  0  0  0  0  0  0  0  0
    3.3421   -1.4992   -2.2297 H   0  0  0  0  0  0  0  0  0  0  0  0
    1.3962   -0.9632   -0.3550 H   0  0  0  0  0  0  0  0  0  0  0  0
    1.9180   -2.6429   -0.6101 H   0  0  0  0  0  0  0  0  0  0  0  0
   -0.4722   -1.4813   -3.5661 H   0  0  0  0  0  0  0  0  0  0  0  0
   -0.2547   -3.2380   -3.3863 H   0  0  0  0  0  0  0  0  0  0  0  0
   -2.0653   -0.3130    2.6754 H   0  0  0  0  0  0  0  0  0  0  0  0
    0.4999   -2.8913    2.9403 H   0  0  0  0  0  0  0  0  0  0  0  0
    4.3838   -2.2266    2.9821 H   0  0  0  0  0  0  0  0  0  0  0  0
    5.8173   -1.1929    2.6771 H   0  0  0  0  0  0  0  0  0  0  0  0
    3.8173   -2.2141    0.5919 H   0  0  0  0  0  0  0  0  0  0  0  0
    5.5161   -2.7521    0.7663 H   0  0  0  0  0  0  0  0  0  0  0  0
    3.4919    0.1434   -0.2114 H   0  0  0  0  0  0  0  0  0  0  0  0
    4.9851    1.0537   -0.5129 H   0  0  0  0  0  0  0  0  0  0  0  0
    3.8248    1.6973    1.6192 H   0  0  0  0  0  0  0  0  0  0  0  0
    5.4762    1.1085    1.9217 H   0  0  0  0  0  0  0  0  0  0  0  0
    2.0975    1.7261    2.6047 H   0  0  0  0  0  0  0  0  0  0  0  0
   -0.3390    1.3049    2.6067 H   0  0  0  0  0  0  0  0  0  0  0  0
   -3.1917   -1.8916    3.4316 H   0  0  0  0  0  0  0  0  0  0  0  0
   -4.9435   -1.9506    3.6509 H   0  0  0  0  0  0  0  0  0  0  0  0
   -4.3371   -2.4249   -0.8424 H   0  0  0  0  0  0  0  0  0  0  0  0
   -2.4239   -2.5187   -2.4609 H   0  0  0  0  0  0  0  0  0  0  0  0
   -0.4503    0.2897   -6.1192 H   0  0  0  0  0  0  0  0  0  0  0  0
   -0.5866    1.7108   -4.1699 H   0  0  0  0  0  0  0  0  0  0  0  0
    0.9294    0.9911   -3.4110 H   0  0  0  0  0  0  0  0  0  0  0  0
   -0.1690    0.6405    0.1827 H   0  0  0  0  0  0  0  0  0  0  0  0
   -0.7380    0.9834   -1.4509 H   0  0  0  0  0  0  0  0  0  0  0  0
    0.4816    3.2517    0.8475 H   0  0  0  0  0  0  0  0  0  0  0  0
    0.8396    5.0935    2.1986 H   0  0  0  0  0  0  0  0  0  0  0  0
   -0.3581    4.8123    3.4906 H   0  0  0  0  0  0  0  0  0  0  0  0
   -0.5305    6.2354    2.4360 H   0  0  0  0  0  0  0  0  0  0  0  0
   -3.3914    2.0702   -1.1786 H   0  0  0  0  0  0  0  0  0  0  0  0
   -5.5801    1.7844   -0.0705 H   0  0  0  0  0  0  0  0  0  0  0  0
   -4.7110    0.8850    1.2035 H   0  0  0  0  0  0  0  0  0  0  0  0
   -4.9433    0.1364   -0.3882 H   0  0  0  0  0  0  0  0  0  0  0  0
  1  2  2  0  0  0  0
  2 32  1  0  0  0  0
  2  3  1  0  0  0  0
  3  4  1  0  0  0  0
  4  5  1  1  0  0  0
  4  9  1  0  0  0  0
  4  6  1  0  0  0  0
  6 48  1  0  0  0  0
  6  7  1  0  0  0  0
  7 50  1  0  0  0  0
  7 49  1  0  0  0  0
  8  7  1  0  0  0  0
  8 10  1  0  0  0  0
  9  8  1  0  0  0  0
 10 11  1  0  0  0  0
 11 12  2  0  0  0  0
 12 13  1  0  0  0  0
 13 53  1  0  0  0  0
 13 14  1  0  0  0  0
 14 15  1  0  0  0  0
 15 54  1  0  0  0  0
 16 15  2  0  0  0  0
 17 24  2  0  0  0  0
 17 16  1  0  0  0  0
 18 17  1  0  0  0  0
 19 18  1  0  0  0  0
 19 56  1  0  0  0  0
 19 55  1  0  0  0  0
 20 19  1  0  0  0  0
 21 22  1  0  0  0  0
 21 20  1  0  0  0  0
 22 23  1  0  0  0  0
 23 61  1  0  0  0  0
 23 62  1  0  0  0  0
 23 18  1  0  0  0  0
 24 25  1  0  0  0  0
 25 14  2  0  0  0  0
 26 12  1  0  0  0  0
 26 27  1  0  0  0  0
 27 28  1  0  0  0  0
 28 65  1  0  0  0  0
 28 66  1  0  0  0  0
 29 27  2  0  0  0  0
 30 26  2  0  0  0  0
 31 10  2  0  0  0  0
 31 30  1  0  0  0  0
 32 33  2  0  0  0  0
 33 70  1  0  0  0  0
 33 71  1  0  0  0  0
 34 35  1  0  0  0  0
 35 36  1  0  0  0  0
 35 72  1  0  0  0  0
 36 37  1  6  0  0  0
 36 42  1  0  0  0  0
 36 38  1  0  0  0  0
 38 39  1  0  0  0  0
 39 40  1  0  0  0  0
 40 76  1  0  0  0  0
 41 39  2  0  0  0  0
 42 45  2  0  0  0  0
 43 44  1  0  0  0  0
 43 42  1  0  0  0  0
 44 80  1  0  0  0  0
 46  3  1  0  0  0  0
 47  6  1  0  0  0  0
 51  9  1  0  0  0  0
 52  9  1  0  0  0  0
 57 20  1  0  0  0  0
 58 20  1  0  0  0  0
 59 22  1  0  0  0  0
 60 22  1  0  0  0  0
 63 24  1  0  0  0  0
 64 25  1  0  0  0  0
 67 30  1  0  0  0  0
 68 31  1  0  0  0  0
 69 32  1  0  0  0  0
 73 35  1  0  0  0  0
 74 38  1  0  0  0  0
 75 40  1  0  0  0  0
 77 40  1  0  0  0  0
 78 43  1  0  0  0  0
 79 44  1  0  0  0  0
 81 44  1  0  0  0  0
M  END
