81
-1 1
O         1.752095   -0.763858   -6.859161
C         1.361056   -0.784763   -5.702143
N         1.908243   -1.689360   -4.830304
C         1.632437   -2.122770   -3.472278
H         2.056328   -3.139415   -3.419019
C         2.262787   -1.315761   -2.331403
C         1.475886   -1.759669   -1.107269
N         0.158626   -2.088143   -1.648977
C         0.146288   -2.253749   -3.084653
C        -0.962832   -2.061705   -0.887039
N        -0.781427   -1.767978    0.399606
C        -1.798275   -1.632598    1.229745
N        -1.486375   -1.144296    2.519156
C        -0.111124   -0.838485    2.735713
C         0.832429   -1.850342    2.856287
N         2.145108   -1.643800    2.799960
C         2.605521   -0.399986    2.646302
N         3.980216   -0.237743    2.475385
C         4.793425   -1.436216    2.343304
C         4.835386   -1.895287    0.888584
O         5.302477   -0.873920    0.041296
C         4.526394    0.303513    0.146574
C         4.468113    0.810823    1.584270
C         1.728975    0.703975    2.669650
C         0.365958    0.474832    2.692984
C        -3.129202   -1.911588    0.837808
C        -4.342075   -1.937354    1.709287
N        -4.132570   -1.899439    3.051427
O        -5.468748   -2.016619    1.238579
C        -3.313117   -2.227864   -0.516668
C        -2.260247   -2.291238   -1.408099
C         0.277745    0.171540   -5.309652
C         0.216475    0.971861   -4.243738
S         1.400231    2.086889   -0.972174
C        -0.255535    1.439567   -0.567896
C        -1.226092    2.511500   -0.012601
H        -1.561667    3.158072   -0.846141
N        -0.537525    3.308341    0.962533
C        -1.124167    4.382947    1.537968
C        -0.223817    5.182137    2.462540
O        -2.299577    4.667908    1.373457
C        -2.459806    1.846408    0.606260
N        -3.488423    1.673415   -0.254634
C        -4.749368    1.088611    0.126871
O        -2.496181    1.450084    1.764905
H         2.651208   -2.195787   -5.297991
H         2.121190   -0.233650   -2.468907
H         3.342055   -1.499202   -2.229693
H         1.396197   -0.963163   -0.355041
H         1.917985   -2.642944   -0.610055
H        -0.472162   -1.481296   -3.566146
H        -0.254691   -3.238039   -3.386297
H        -2.065293   -0.313018    2.675440
H         0.499946   -2.891348    2.940345
H         4.383825   -2.226589    2.982082
H         5.817343   -1.192922    2.677147
H         3.817329   -2.214108    0.591884
H         5.516068   -2.752104    0.766333
H         3.491930    0.143354   -0.211388
H         4.985147    1.053675   -0.512896
H         3.824823    1.697305    1.619161
H         5.476243    1.108538    1.921658
H         2.097476    1.726056    2.604660
H        -0.339029    1.304881    2.606737
H        -3.191675   -1.891642    3.431595
H        -4.943537   -1.950637    3.650922
H        -4.337149   -2.424875   -0.842432
H        -2.423910   -2.518676   -2.460868
H        -0.450266    0.289706   -6.119194
H        -0.586574    1.710781   -4.169917
H         0.929427    0.991056   -3.411049
H        -0.168999    0.640477    0.182695
H        -0.737959    0.983425   -1.450868
H         0.481609    3.251683    0.847547
H         0.839618    5.093533    2.198606
H        -0.358148    4.812267    3.490567
H        -0.530463    6.235420    2.436040
H        -3.391431    2.070214   -1.178605
H        -5.580086    1.784430   -0.070517
H        -4.710993    0.885030    1.203466
H        -4.943263    0.136425   -0.388157
